#------------------------------------------------------------------------------
#$Date: 2016-03-24 14:32:51 +0200 (Thu, 24 Mar 2016) $
#$Revision: 179667 $
#$URL: svn://www.crystallography.net/cod/cif/4/51/20/4512073.cif $
#------------------------------------------------------------------------------
#
# This file is available in the Crystallography Open Database (COD),
# http://www.crystallography.net/
#
# All data on this site have been placed in the public domain by the
# contributors.
#
data_4512073
loop_
_publ_author_name
'\/Oien, Sigurd'
'Wragg, David'
'Reinsch, Helge'
'Svelle, Stian'
'Bordiga, Silvia'
'Lamberti, Carlo'
'Lillerud, Karl Petter'
_publ_section_title
;
 Detailed Structure Analysis of Atomic Positions and Defects in Zirconium
 Metal--Organic Frameworks
;
_journal_issue                   11
_journal_name_full               'Crystal Growth &amp; Design'
_journal_page_first              5370
_journal_paper_doi               10.1021/cg501386j
_journal_volume                  14
_journal_year                    2014
_chemical_formula_moiety         'n[C84 H48 O32 Zr6]'
_chemical_formula_sum            'C84 H48 O32 Zr6'
_chemical_formula_weight         2116.54
_chemical_name_common            UiO-67
_chemical_name_systematic
;
Zr(IV) biphenyl dicarboxylate metal-organic framework
;
_space_group_crystal_system      cubic
_space_group_IT_number           225
_space_group_name_Hall           '-F 4 2 3'
_space_group_name_H-M_alt        'F m -3 m'
_symmetry_space_group_name_Hall  '-F 4 2 3'
_symmetry_space_group_name_H-M   'F m -3 m'
_atom_sites_solution_hydrogens   difmap
_atom_sites_solution_primary     direct
_audit_creation_date             2014-04-30
_audit_creation_method
;
Olex2 1.2
(compiled 2014.03.20 svn.r2914 for OlexSys, GUI svn.r4816)
;
_cell_angle_alpha                90
_cell_angle_beta                 90
_cell_angle_gamma                90
_cell_formula_units_Z            4
_cell_length_a                   26.8809(3)
_cell_length_b                   26.8809(3)
_cell_length_c                   26.8809(3)
_cell_measurement_reflns_used    7493
_cell_measurement_temperature    100
_cell_measurement_theta_max      33.40
_cell_measurement_theta_min      2.29
_cell_volume                     19423.7(4)
_computing_cell_refinement       'APEX2 v2013.6--2 (Bruker AXS)'
_computing_data_collection       'APEX2 v2013.6--2 (Bruker AXS)'
_computing_data_reduction        'SAINT v8.34A (Bruker, 2013)'
_computing_molecular_graphics    'Diamond v3.2i (Brandenburg, 2012)'
_computing_publication_material  'Olex2 (Dolomanov et al., 2009)'
_computing_structure_refinement  'XL (Sheldrick, 2008)'
_computing_structure_solution    'APEX2 v2013.6--2 (Bruker AXS)'
_diffrn_ambient_temperature      100
_diffrn_detector                 'CCD area detector'
_diffrn_detector_area_resol_mean 13.6986
_diffrn_detector_type            'Marmosaic 225'
_diffrn_measured_fraction_theta_full 0.994
_diffrn_measured_fraction_theta_max 0.995
_diffrn_measurement_device       '\k-geometry diffractometer'
_diffrn_measurement_device_type  'Beamline I911-3'
_diffrn_measurement_method       '\f and \w scans'
_diffrn_radiation_collimation    'Rh-coated Si focusing mirrors'
_diffrn_radiation_monochromator  'Silicon 111'
_diffrn_radiation_probe          x-ray
_diffrn_radiation_type           synchrotron
_diffrn_radiation_wavelength     0.760
_diffrn_reflns_av_R_equivalents  0.0266
_diffrn_reflns_av_unetI/netI     0.0124
_diffrn_reflns_Laue_measured_fraction_full 0.994
_diffrn_reflns_Laue_measured_fraction_max 0.995
_diffrn_reflns_limit_h_max       38
_diffrn_reflns_limit_h_min       -20
_diffrn_reflns_limit_k_max       38
_diffrn_reflns_limit_k_min       -38
_diffrn_reflns_limit_l_max       38
_diffrn_reflns_limit_l_min       -28
_diffrn_reflns_number            22259
_diffrn_reflns_point_group_measured_fraction_full 0.994
_diffrn_reflns_point_group_measured_fraction_max 0.995
_diffrn_reflns_theta_full        27.129
_diffrn_reflns_theta_max         32.782
_diffrn_reflns_theta_min         2.292
_diffrn_source                   synchrotron
_diffrn_source_type              'Wiggler, Station I911-3, MAX II, MAXLAB'
_diffrn_standards_number         0
_exptl_absorpt_coefficient_mu    0.418
_exptl_absorpt_correction_T_max  0.7466
_exptl_absorpt_correction_T_min  0.6996
_exptl_absorpt_correction_type   multi-scan
_exptl_absorpt_process_details
;
SADABS-2012/1 (Bruker,2012) was used for absorption correction.
wR2(int) was 0.0945 before and 0.0318 after correction.
The Ratio of minimum to maximum transmission is 0.9370.
The \l/2 correction factor is 0.0015.
;
_exptl_crystal_colour            'clear colourless'
_exptl_crystal_colour_lustre     clear
_exptl_crystal_colour_primary    colourless
_exptl_crystal_density_diffrn    0.724
_exptl_crystal_description       octahedral
_exptl_crystal_F_000             4192
_exptl_crystal_size_max          0.07
_exptl_crystal_size_mid          0.07
_exptl_crystal_size_min          0.04
_refine_diff_density_max         0.488
_refine_diff_density_min         -0.640
_refine_diff_density_rms         0.046
_refine_ls_extinction_method     none
_refine_ls_goodness_of_fit_ref   1.047
_refine_ls_hydrogen_treatment    refall
_refine_ls_matrix_type           full
_refine_ls_number_parameters     55
_refine_ls_number_reflns         1514
_refine_ls_number_restraints     0
_refine_ls_restrained_S_all      1.047
_refine_ls_R_factor_all          0.0232
_refine_ls_R_factor_gt           0.0206
_refine_ls_shift/su_max          0.001
_refine_ls_shift/su_mean         0.000
_refine_ls_structure_factor_coef Fsqd
_refine_ls_weighting_details
'w=1/[\s^2^(Fo^2^)+(0.0306P)^2^+31.5444P] where P=(Fo^2^+2Fc^2^)/3'
_refine_ls_weighting_scheme      calc
_refine_ls_wR_factor_gt          0.0546
_refine_ls_wR_factor_ref         0.0553
_reflns_Friedel_coverage         0.000
_reflns_number_gt                1382
_reflns_number_total             1514
_reflns_threshold_expression     'I > 2\s(I)'
_cod_data_source_file            cg501386j_si_003.cif
_cod_data_source_block           dh67_a
_cod_depositor_comments
'Adding full bibliography for 4512072--4512074.cif.'
_cod_original_cell_volume        19423.7(7)
_cod_database_code               4512073
#BEGIN Tags that were not found in dictionaries:
_shelx_space_group_comment
;
The symmetry employed for this shelxl refinement is uniquely defined
by the following loop, which should always be used as a source of
symmetry information in preference to the above space-group names.
They are only intended as comments.
;
_olex2_refinement_description
;
1. Others
 Sof(O2B)=0.16667*(1-FVAR(2))
 Sof(O2A)=0.16667*FVAR(2)
 Fixed Sof: C3(0.5) C4(0.5) H3(0.5) H4(0.5)
;
_shelx_res_file
;
TITL DH67 in Fm-3m
CELL 0.76 26.8809 26.8809 26.8809 90 90 90
ZERR 4 0.0003 0.0003 0.0003 0 0 0
LATT 4
SYMM -X,-Y,+Z
SYMM -X,+Y,-Z
SYMM +X,-Y,-Z
SYMM +Z,+X,+Y
SYMM +Z,-X,-Y
SYMM -Z,-X,+Y
SYMM -Z,+X,-Y
SYMM +Y,+Z,+X
SYMM -Y,+Z,-X
SYMM +Y,-Z,-X
SYMM -Y,-Z,+X
SYMM +Y,+X,-Z
SYMM -Y,-X,-Z
SYMM +Y,-X,+Z
SYMM -Y,+X,+Z
SYMM +X,+Z,-Y
SYMM -X,+Z,+Y
SYMM -X,-Z,-Y
SYMM +X,-Z,+Y
SYMM +Z,+Y,-X
SYMM +Z,-Y,+X
SYMM -Z,+Y,+X
SYMM -Z,-Y,-X
 
SFAC C H O Zr
DISP C 0.004 0.002 13.247
DISP H -0 0 0.627
DISP O 0.014 0.007 38.676
DISP Zr -1.967 0.657 2986.787
UNIT 336 192 128.00064 24
 
L.S. 10
PLAN  20
TEMP -173.15
REM Solution 1 R1 0.136 Rweak 0.007, Alpha = 0.0358 in Fm-3m
BOND
BOND $H
LIST 4
MORE -1
CONF
fmap 2
acta
SHEL 999 0.7
REM <HKL>D:/frames/guest/DHMN72_1770/work/DH67_a.hkl</HKL>
 
WGHT    0.030600   31.544401
FVAR       0.11496   0.48398
ZR1   4    0.407609    0.000000    0.500000    10.12500    0.00219    0.00421 =
         0.00421    0.00000    0.00000    0.00000
O1    3    0.368094    0.000000    0.427582    10.50000    0.00719    0.01692 =
         0.00845    0.00000   -0.00306    0.00000
PART 1
O2A   3    0.461582    0.038418    0.538418    20.16667    0.00317    0.00317 =
         0.00317    0.00101   -0.00101   -0.00101
PART 0
C1    1    0.382689    0.000000    0.382689    10.25000    0.00937    0.01712 =
         0.00937    0.00000   -0.00398    0.00000
C2    1    0.343391    0.000000    0.343391    10.25000    0.01106    0.04333 =
         0.01106    0.00000   -0.00559    0.00000
C5    1    0.269583    0.000000    0.269583    10.25000    0.01233    0.08739 =
         0.01233    0.00000   -0.00740    0.00000
PART 2
O2B   3    0.448085    0.051915    0.551915   -20.16667    0.00674    0.00674 =
         0.00674   -0.00121    0.00121    0.00121
PART 0
C3    1    0.355183   -0.011941    0.294643    10.50000    0.01083    0.07606 =
         0.01330   -0.00918   -0.00597    0.00667
C4    1    0.318566   -0.012500    0.258330    10.50000    0.01534    0.10165 =
         0.01051   -0.01208   -0.00696    0.00484
H3    2    0.392774   -0.018016    0.287769    10.50000    0.04591
H4    2    0.330092   -0.022155    0.225053    10.50000    0.03696
HKLF 4
 
REM  DH67 in Fm-3m
REM R1 =  0.0206 for    1382 Fo > 4sig(Fo)  and  0.0232 for all    1514 data
REM     55 parameters refined using      0 restraints
 
END  
     
WGHT      0.0294     32.9479 

REM Highest difference peak  0.488,  deepest hole -0.640,  1-sigma level  0.046
Q1    1   0.3786  0.1214  0.6214  10.16667  0.05    0.49
Q2    1   0.4286  0.0714  0.5714  10.16667  0.05    0.44
Q3    1   0.3622  0.0000  0.3622  10.25000  0.05    0.39
Q4    1   0.4754  0.0246  0.5639  10.50000  0.05    0.30
Q5    1   0.2500  0.0000  0.2500  10.12500  0.05    0.29
Q6    1   0.3558 -0.1442  0.3558  10.16667  0.05    0.29
Q7    1   0.3896  0.0000  0.4582  10.50000  0.05    0.28
Q8    1   0.4530  0.0000  0.5000  10.12500  0.05    0.27
Q9    1   0.3401  0.0000  0.2739  10.50000  0.05    0.26
Q10   1   0.3568  0.0000  0.3219  10.50000  0.05    0.23
Q11   1   0.2911  0.0000  0.2646  10.50000  0.05    0.23
Q12   1   0.3703  0.0000  0.4175  10.50000  0.05    0.22
Q13   1   0.3976  0.0000  0.4411  10.50000  0.05    0.20
Q14   1   0.3458  0.0000  0.4586  10.50000  0.05    0.19
Q15   1   0.3997 -0.0172  0.4600  11.00000  0.05    0.19
Q16   1   0.3490  0.0000  0.3208  10.50000  0.05    0.19
Q17   1   0.3703  0.0000  0.5209  10.50000  0.05    0.19
Q18   1   0.4734  0.0485  0.5485  10.50000  0.05    0.18
Q19   1   0.2500 -0.2500  0.2500  10.04167  0.05    0.18
Q20   1   0.3460  0.0142  0.3311  11.00000  0.05    0.17

REM The information below was added by Olex2.
REM
REM R1 = 0.0206 for 1382 Fo > 4sig(Fo) and 0.0232 for all 22480 data
REM n/a parameters refined using n/a restraints
REM Highest difference peak 0.49, deepest hole -0.64
REM Mean Shift 0, Max Shift 0.001.

REM +++ Tabular Listing of Refinement Information +++
REM R1_all = 0.0232
REM R1_gt = 0.0206
REM wR_ref = 0.0553
REM GOOF = 1.047
REM Shift_max = 0.001
REM Shift_mean = 0
REM Reflections_all = 22480
REM Reflections_gt = 1382
REM Parameters = n/a
REM Hole = -0.64
REM Peak = 0.49
REM Flack = n/a

;
#END Tags that were not found in dictionaries
loop_
_space_group_symop_operation_xyz
'x, y, z'
'-x, -y, z'
'-x, y, -z'
'x, -y, -z'
'z, x, y'
'z, -x, -y'
'-z, -x, y'
'-z, x, -y'
'y, z, x'
'-y, z, -x'
'y, -z, -x'
'-y, -z, x'
'y, x, -z'
'-y, -x, -z'
'y, -x, z'
'-y, x, z'
'x, z, -y'
'-x, z, y'
'-x, -z, -y'
'x, -z, y'
'z, y, -x'
'z, -y, x'
'-z, y, x'
'-z, -y, -x'
'x, y+1/2, z+1/2'
'-x, -y+1/2, z+1/2'
'-x, y+1/2, -z+1/2'
'x, -y+1/2, -z+1/2'
'z, x+1/2, y+1/2'
'z, -x+1/2, -y+1/2'
'-z, -x+1/2, y+1/2'
'-z, x+1/2, -y+1/2'
'y, z+1/2, x+1/2'
'-y, z+1/2, -x+1/2'
'y, -z+1/2, -x+1/2'
'-y, -z+1/2, x+1/2'
'y, x+1/2, -z+1/2'
'-y, -x+1/2, -z+1/2'
'y, -x+1/2, z+1/2'
'-y, x+1/2, z+1/2'
'x, z+1/2, -y+1/2'
'-x, z+1/2, y+1/2'
'-x, -z+1/2, -y+1/2'
'x, -z+1/2, y+1/2'
'z, y+1/2, -x+1/2'
'z, -y+1/2, x+1/2'
'-z, y+1/2, x+1/2'
'-z, -y+1/2, -x+1/2'
'x+1/2, y, z+1/2'
'-x+1/2, -y, z+1/2'
'-x+1/2, y, -z+1/2'
'x+1/2, -y, -z+1/2'
'z+1/2, x, y+1/2'
'z+1/2, -x, -y+1/2'
'-z+1/2, -x, y+1/2'
'-z+1/2, x, -y+1/2'
'y+1/2, z, x+1/2'
'-y+1/2, z, -x+1/2'
'y+1/2, -z, -x+1/2'
'-y+1/2, -z, x+1/2'
'y+1/2, x, -z+1/2'
'-y+1/2, -x, -z+1/2'
'y+1/2, -x, z+1/2'
'-y+1/2, x, z+1/2'
'x+1/2, z, -y+1/2'
'-x+1/2, z, y+1/2'
'-x+1/2, -z, -y+1/2'
'x+1/2, -z, y+1/2'
'z+1/2, y, -x+1/2'
'z+1/2, -y, x+1/2'
'-z+1/2, y, x+1/2'
'-z+1/2, -y, -x+1/2'
'x+1/2, y+1/2, z'
'-x+1/2, -y+1/2, z'
'-x+1/2, y+1/2, -z'
'x+1/2, -y+1/2, -z'
'z+1/2, x+1/2, y'
'z+1/2, -x+1/2, -y'
'-z+1/2, -x+1/2, y'
'-z+1/2, x+1/2, -y'
'y+1/2, z+1/2, x'
'-y+1/2, z+1/2, -x'
'y+1/2, -z+1/2, -x'
'-y+1/2, -z+1/2, x'
'y+1/2, x+1/2, -z'
'-y+1/2, -x+1/2, -z'
'y+1/2, -x+1/2, z'
'-y+1/2, x+1/2, z'
'x+1/2, z+1/2, -y'
'-x+1/2, z+1/2, y'
'-x+1/2, -z+1/2, -y'
'x+1/2, -z+1/2, y'
'z+1/2, y+1/2, -x'
'z+1/2, -y+1/2, x'
'-z+1/2, y+1/2, x'
'-z+1/2, -y+1/2, -x'
'-x, -y, -z'
'x, y, -z'
'x, -y, z'
'-x, y, z'
'-z, -x, -y'
'-z, x, y'
'z, x, -y'
'z, -x, y'
'-y, -z, -x'
'y, -z, x'
'-y, z, x'
'y, z, -x'
'-y, -x, z'
'y, x, z'
'-y, x, -z'
'y, -x, -z'
'-x, -z, y'
'x, -z, -y'
'x, z, y'
'-x, z, -y'
'-z, -y, x'
'-z, y, -x'
'z, -y, -x'
'z, y, x'
'-x, -y+1/2, -z+1/2'
'x, y+1/2, -z+1/2'
'x, -y+1/2, z+1/2'
'-x, y+1/2, z+1/2'
'-z, -x+1/2, -y+1/2'
'-z, x+1/2, y+1/2'
'z, x+1/2, -y+1/2'
'z, -x+1/2, y+1/2'
'-y, -z+1/2, -x+1/2'
'y, -z+1/2, x+1/2'
'-y, z+1/2, x+1/2'
'y, z+1/2, -x+1/2'
'-y, -x+1/2, z+1/2'
'y, x+1/2, z+1/2'
'-y, x+1/2, -z+1/2'
'y, -x+1/2, -z+1/2'
'-x, -z+1/2, y+1/2'
'x, -z+1/2, -y+1/2'
'x, z+1/2, y+1/2'
'-x, z+1/2, -y+1/2'
'-z, -y+1/2, x+1/2'
'-z, y+1/2, -x+1/2'
'z, -y+1/2, -x+1/2'
'z, y+1/2, x+1/2'
'-x+1/2, -y, -z+1/2'
'x+1/2, y, -z+1/2'
'x+1/2, -y, z+1/2'
'-x+1/2, y, z+1/2'
'-z+1/2, -x, -y+1/2'
'-z+1/2, x, y+1/2'
'z+1/2, x, -y+1/2'
'z+1/2, -x, y+1/2'
'-y+1/2, -z, -x+1/2'
'y+1/2, -z, x+1/2'
'-y+1/2, z, x+1/2'
'y+1/2, z, -x+1/2'
'-y+1/2, -x, z+1/2'
'y+1/2, x, z+1/2'
'-y+1/2, x, -z+1/2'
'y+1/2, -x, -z+1/2'
'-x+1/2, -z, y+1/2'
'x+1/2, -z, -y+1/2'
'x+1/2, z, y+1/2'
'-x+1/2, z, -y+1/2'
'-z+1/2, -y, x+1/2'
'-z+1/2, y, -x+1/2'
'z+1/2, -y, -x+1/2'
'z+1/2, y, x+1/2'
'-x+1/2, -y+1/2, -z'
'x+1/2, y+1/2, -z'
'x+1/2, -y+1/2, z'
'-x+1/2, y+1/2, z'
'-z+1/2, -x+1/2, -y'
'-z+1/2, x+1/2, y'
'z+1/2, x+1/2, -y'
'z+1/2, -x+1/2, y'
'-y+1/2, -z+1/2, -x'
'y+1/2, -z+1/2, x'
'-y+1/2, z+1/2, x'
'y+1/2, z+1/2, -x'
'-y+1/2, -x+1/2, z'
'y+1/2, x+1/2, z'
'-y+1/2, x+1/2, -z'
'y+1/2, -x+1/2, -z'
'-x+1/2, -z+1/2, y'
'x+1/2, -z+1/2, -y'
'x+1/2, z+1/2, y'
'-x+1/2, z+1/2, -y'
'-z+1/2, -y+1/2, x'
'-z+1/2, y+1/2, -x'
'z+1/2, -y+1/2, -x'
'z+1/2, y+1/2, x'
loop_
_atom_site_label
_atom_site_type_symbol
_atom_site_fract_x
_atom_site_fract_y
_atom_site_fract_z
_atom_site_U_iso_or_equiv
_atom_site_adp_type
_atom_site_occupancy
_atom_site_site_symmetry_order
_atom_site_calc_flag
_atom_site_refinement_flags_posn
_atom_site_refinement_flags_adp
_atom_site_refinement_flags_occupancy
_atom_site_disorder_group
Zr1 Zr 0.40761(2) 0.0000 0.5000 0.00354(7) Uani 1 8 d S T P .
O1 O 0.36809(3) 0.0000 0.42758(3) 0.01086(17) Uani 1 2 d S T P .
O2A O 0.4616(2) 0.0384(2) 0.5384(2) 0.0032(15) Uani 0.48(2) 6 d S T P 1
C1 C 0.38269(4) 0.0000 0.38269(4) 0.0120(3) Uani 1 4 d S T P .
C2 C 0.34339(5) 0.0000 0.34339(5) 0.0218(4) Uani 1 4 d S T P .
C5 C 0.26958(5) 0.0000 0.26958(5) 0.0374(6) Uani 1 4 d S T P .
O2B O 0.4481(2) 0.0519(2) 0.5519(2) 0.0067(13) Uani 0.52(2) 6 d S T P 2
C3 C 0.35518(7) -0.01194(11) 0.29464(7) 0.0334(10) Uani 0.5 1 d . . . .
C4 C 0.31857(7) -0.01250(15) 0.25833(7) 0.0425(15) Uani 0.5 1 d . . . .
H3 H 0.3928(11) -0.0180(10) 0.2878(10) 0.046(9) Uiso 0.5 1 d . . . .
H4 H 0.3301(10) -0.0222(9) 0.2251(10) 0.037(8) Uiso 0.5 1 d . . . .
loop_
_atom_site_aniso_label
_atom_site_aniso_U_11
_atom_site_aniso_U_22
_atom_site_aniso_U_33
_atom_site_aniso_U_23
_atom_site_aniso_U_13
_atom_site_aniso_U_12
Zr1 0.00219(9) 0.00421(8) 0.00421(8) 0.000 0.000 0.000
O1 0.0072(4) 0.0169(4) 0.0085(4) 0.000 -0.0031(3) 0.000
O2A 0.0032(15) 0.0032(15) 0.0032(15) 0.0010(14) -0.0010(14) -0.0010(14)
C1 0.0094(4) 0.0171(8) 0.0094(4) 0.000 -0.0040(6) 0.000
C2 0.0111(5) 0.0433(12) 0.0111(5) 0.000 -0.0056(6) 0.000
C5 0.0123(6) 0.087(2) 0.0123(6) 0.000 -0.0074(7) 0.000
O2B 0.0067(13) 0.0067(13) 0.0067(13) -0.0012(14) 0.0012(14) 0.0012(14)
C3 0.0108(7) 0.076(3) 0.0133(7) -0.0092(9) -0.0060(6) 0.0067(9)
C4 0.0153(7) 0.102(4) 0.0105(7) -0.0121(11) -0.0070(6) 0.0048(11)
loop_
_atom_type_symbol
_atom_type_description
_atom_type_scat_dispersion_real
_atom_type_scat_dispersion_imag
_atom_type_scat_source
C C 0.0040 0.0020 'International Tables Vol C Tables 4.2.6.8 and 6.1.1.4'
H H 0.0000 0.0000 'International Tables Vol C Tables 4.2.6.8 and 6.1.1.4'
O O 0.0140 0.0070 'International Tables Vol C Tables 4.2.6.8 and 6.1.1.4'
Zr Zr -1.9670 0.6570 'International Tables Vol C Tables 4.2.6.8 and 6.1.1.4'
loop_
_geom_angle_atom_site_label_1
_geom_angle_atom_site_label_2
_geom_angle_atom_site_label_3
_geom_angle
_geom_angle_site_symmetry_1
_geom_angle_site_symmetry_3
O1 Zr1 O1 122.76(4) 41_545 138
O1 Zr1 O1 76.736(19) 138 .
O1 Zr1 O1 76.736(19) 41_545 .
O1 Zr1 O1 76.735(19) 41_545 98_556
O1 Zr1 O1 76.735(19) 138 98_556
O1 Zr1 O1 122.76(4) 98_556 .
O1 Zr1 O2B 140.79(5) 98_556 4_556
O1 Zr1 O2B 71.80(19) 138 98_556
O1 Zr1 O2B 140.79(5) 138 4_556
O1 Zr1 O2B 71.80(19) . 4_556
O1 Zr1 O2B 140.79(5) 98_556 98_556
O1 Zr1 O2B 140.79(5) 138 99
O1 Zr1 O2B 71.80(19) . 98_556
O1 Zr1 O2B 140.79(5) . 99
O1 Zr1 O2B 71.80(19) 41_545 99
O1 Zr1 O2B 140.79(5) 41_545 .
O1 Zr1 O2B 71.80(19) 98_556 99
O1 Zr1 O2B 71.80(19) 138 .
O1 Zr1 O2B 140.79(5) 41_545 98_556
O1 Zr1 O2B 71.80(19) 98_556 .
O1 Zr1 O2B 140.79(5) . .
O1 Zr1 O2B 71.80(19) 41_545 4_556
O2A Zr1 O1 141.07(5) . 41_545
O2A Zr1 O1 141.07(5) 99 .
O2A Zr1 O1 84.1(2) 98_556 138
O2A Zr1 O1 84.1(2) 99 41_545
O2A Zr1 O1 84.1(2) . 138
O2A Zr1 O1 84.1(2) 99 98_556
O2A Zr1 O1 141.07(5) . .
O2A Zr1 O1 141.07(5) 98_556 98_556
O2A Zr1 O1 84.1(2) 98_556 .
O2A Zr1 O1 141.07(5) 4_556 98_556
O2A Zr1 O1 141.07(5) 99 138
O2A Zr1 O1 141.07(5) 98_556 41_545
O2A Zr1 O1 141.07(5) 4_556 138
O2A Zr1 O1 84.1(2) 4_556 41_545
O2A Zr1 O1 84.1(2) . 98_556
O2A Zr1 O1 84.1(2) 4_556 .
O2A Zr1 O2A 60.2(4) 98_556 4_556
O2A Zr1 O2A 90.4(6) . 4_556
O2A Zr1 O2A 90.4(6) 99 98_556
O2A Zr1 O2A 60.2(4) . 99
O2A Zr1 O2A 60.2(4) 99 4_556
O2A Zr1 O2A 60.2(4) . 98_556
O2B Zr1 O2B 76.5(2) . 99
O2B Zr1 O2B 76.5(2) 4_556 98_556
O2B Zr1 O2B 76.5(2) . 98_556
O2B Zr1 O2B 76.5(2) 4_556 99
O2B Zr1 O2B 122.3(5) . 4_556
O2B Zr1 O2B 122.3(5) 99 98_556
C1 O1 Zr1 133.37(8) . .
Zr1 O2A Zr1 117.09(17) . 177_556
Zr1 O2A Zr1 117.09(17) 125_655 177_556
Zr1 O2A Zr1 117.09(18) . 125_655
O1 C1 O1 126.02(14) . 22
O1 C1 C2 116.99(7) . .
O1 C1 C2 116.99(7) 22 .
C3 C2 C1 120.45(10) 120 .
C3 C2 C1 120.46(10) . .
C3 C2 C1 120.45(10) 22 .
C3 C2 C1 120.45(10) 99 .
C3 C2 C3 112.3(2) 22 99
C3 C2 C3 26.8(2) . 99
C3 C2 C3 119.1(2) 120 99
C3 C2 C3 119.1(2) . 22
C3 C2 C3 112.3(2) . 120
C3 C2 C3 26.8(2) 120 22
C4 C5 C5 121.01(10) . 145
C4 C5 C5 121.00(10) 120 145
C4 C5 C5 121.00(10) 22 145
C4 C5 C5 121.00(10) 99 145
C4 C5 C4 118.0(2) 99 120
C4 C5 C4 110.7(2) . 120
C4 C5 C4 118.0(2) . 22
C4 C5 C4 27.9(3) 22 120
C4 C5 C4 27.9(3) . 99
C4 C5 C4 110.7(2) 99 22
Zr1 O2B Zr1 102.4(3) 125_655 177_556
Zr1 O2B Zr1 102.4(3) 125_655 .
Zr1 O2B Zr1 102.4(3) . 177_556
C2 C3 C4 110.84(19) . 99
C2 C3 H3 115.2(16) . .
C3 C3 C2 76.61(12) 99 .
C3 C3 C4 90.6(2) 99 .
C3 C3 C4 64.65(17) 99 99
C3 C3 H3 99.0(15) 99 .
C4 C3 C2 120.39(18) . .
C4 C3 C4 26.0(3) . 99
C4 C3 H3 124.3(16) . .
C4 C3 H3 125.3(16) 99 .
C5 C4 C3 111.4(2) . 99
C5 C4 H4 124.1(16) . .
C3 C4 C5 121.06(19) . .
C3 C4 C3 24.7(2) . 99
C3 C4 H4 114.9(16) . .
C3 C4 H4 119.4(16) 99 .
C4 C4 C5 76.04(16) 99 .
C4 C4 C3 64.64(17) 99 99
C4 C4 C3 89.4(2) 99 .
C4 C4 H4 105.3(15) 99 .
loop_
_geom_bond_atom_site_label_1
_geom_bond_atom_site_label_2
_geom_bond_distance
_geom_bond_site_symmetry_2
Zr1 O1 2.2176(8) 41_545
Zr1 O1 2.2176(8) .
Zr1 O1 2.2176(8) 98_556
Zr1 O1 2.2176(8) 138
Zr1 O2A 2.059(2) .
Zr1 O2A 2.059(2) 4_556
Zr1 O2A 2.059(2) 99
Zr1 O2A 2.059(2) 98_556
Zr1 O2B 2.254(5) .
Zr1 O2B 2.254(5) 98_556
Zr1 O2B 2.254(5) 99
Zr1 O2B 2.254(5) 4_556
O1 C1 1.2689(11) .
O2A Zr1 2.059(2) 177_556
O2A Zr1 2.059(2) 125_655
C1 O1 1.2690(11) 22
C1 C2 1.494(2) .
C2 C3 1.386(2) 22
C2 C3 1.386(2) 99
C2 C3 1.386(2) 120
C2 C3 1.386(2) .
C5 C5 1.489(4) 145
C5 C4 1.392(2) 120
C5 C4 1.392(2) .
C5 C4 1.392(2) 99
C5 C4 1.392(2) 22
O2B Zr1 2.254(5) 125_655
O2B Zr1 2.254(5) 177_556
C3 C3 0.642(6) 99
C3 C4 1.534(3) 99
C3 C4 1.386(2) .
C3 H3 1.04(3) .
C4 C3 1.534(3) 99
C4 C4 0.672(8) 99
C4 H4 0.98(3) .
loop_
_geom_torsion_atom_site_label_1
_geom_torsion_atom_site_label_2
_geom_torsion_atom_site_label_3
_geom_torsion_atom_site_label_4
_geom_torsion
_geom_torsion_site_symmetry_1
_geom_torsion_site_symmetry_4
Zr1 O1 C1 O1 0.000(0) . 22
Zr1 O1 C1 C2 180.000(0) . .
O1 C1 C2 C3 164.41(14) . 99
O1 C1 C2 C3 15.59(14) . 22
O1 C1 C2 C3 164.41(14) 22 120
O1 C1 C2 C3 -164.41(14) . .
O1 C1 C2 C3 -164.41(14) 22 22
O1 C1 C2 C3 15.59(14) 22 .
O1 C1 C2 C3 -15.59(14) 22 99
O1 C1 C2 C3 -15.59(14) . 120
C1 C2 C3 C3 -98.05(8) . 99
C1 C2 C3 C4 -153.88(16) . 99
C1 C2 C3 C4 179.2(2) . .
C2 C3 C4 C5 1.6(5) . .
C2 C3 C4 C3 74.8(2) . 99
C2 C3 C4 C4 74.8(2) . 99
C5 C5 C4 C3 179.2(2) 145 .
C5 C5 C4 C3 153.73(14) 145 99
C5 C5 C4 C4 98.59(10) 145 99
C3 C2 C3 C3 110.78(19) 120 99
C3 C2 C3 C3 81.95(8) 22 99
C3 C2 C3 C4 -0.8(2) 22 .
C3 C2 C3 C4 -82.7(3) 99 .
C3 C2 C3 C4 28.1(4) 120 .
C3 C2 C3 C4 55.0(3) 120 99
C3 C2 C3 C4 26.12(16) 22 99
C3 C2 C3 C4 -55.8(2) 99 99
C3 C3 C4 C5 -73.2(3) 99 .
C3 C3 C4 C4 0.008(1) 99 99
C4 C5 C4 C3 -55.9(4) 120 99
C4 C5 C4 C3 55.1(2) 99 99
C4 C5 C4 C3 -26.28(14) 22 99
C4 C5 C4 C3 80.6(3) 99 .
C4 C5 C4 C3 -30.4(5) 120 .
C4 C5 C4 C3 -0.8(2) 22 .
C4 C5 C4 C4 -81.41(10) 22 99
C4 C5 C4 C4 -111.1(2) 120 99
C4 C3 C4 C5 -73.3(3) 99 .
C4 C3 C4 C3 -0.008(1) 99 99
loop_
_refln_index_h
_refln_index_k
_refln_index_l
_refln_F_squared_meas
_refln_F_squared_sigma
-2 0 2 1340.57 29.1
-2 2 0 1361.66 29.3
0 2 2 1337.67 29.2
2 -2 0 1347.27 29.3
2 0 -2 1319.37 29.1
-1 -3 -1 1643.44 35.6
-1 -3 1 1618.94 35.5
-1 1 3 1663.53 35.5
-1 3 -1 1627.24 35.6
-1 3 1 1617.64 35.6
1 -3 -1 1647.04 35.6
1 -3 1 1626.84 35.6
1 -1 -3 1701.53 35.5
1 3 -1 1581.74 35.5
1 3 1 1634.94 35.6
3 -1 -1 1653.73 35.6
-3 1 3 5.6 0.9
-3 3 1 6.1 1.1
-1 -3 -3 8.1 1
-1 -3 3 8.5 0.7
-1 3 3 5.2 0.9
1 -3 -3 6.7 1
1 3 3 9.6 1
3 -3 -1 8.2 1.1
3 -3 1 5.6 1.1
3 -1 -3 7.1 0.9
3 1 -3 7.8 0.7
-3 3 3 3715.13 79.69
3 -3 -3 3606.64 79.59
-2 -4 0 963.3 21.1
-2 4 0 977.5 21.3
0 -2 -4 994.7 21.2
0 2 4 949.51 21.2
2 -4 0 976.2 21.3
2 4 0 968.2 21.2
-2 0 4 985.7 21.1
0 -4 -2 958.6 21.3
0 -4 2 945.41 21.2
0 4 -2 961.6 21.2
0 4 2 953.4 21.3
2 0 -4 967.2 21.1
-4 2 2 172.08 4.3
-2 -4 -2 163.78 4.1
-2 -4 2 165.78 3.9
-2 2 4 159.58 4.1
-2 4 2 168.48 4.3
2 -4 -2 167.88 4.3
2 -4 2 162.78 4.3
2 -2 -4 168.38 4.1
2 4 -2 166.48 3.9
2 4 2 157.78 4.1
4 -2 -2 165.08 4.3
-4 0 4 837.22 18.7
-4 4 0 846.72 19.1
0 -4 -4 869.51 18.9
0 -4 4 856.01 18.8
0 4 4 868.31 18.9
4 -4 0 857.11 19.1
4 0 -4 836.52 18.7
-4 2 4 1146.29 23.8
-4 4 2 1072.49 23.9
-2 -4 4 1064.59 23.4
-2 4 4 1077.59 23.8
2 -4 -4 1097.09 23.8
2 4 4 1087.49 23.8
4 -4 -2 1069.19 23.9
4 -2 -4 995.4 23.7
-4 4 4 319.47 7.9
4 -4 -4 321.47 7.8
-1 -5 -1 1052.79 22.9
-1 -5 1 1025 22.8
-1 1 5 1054.19 22.8
-1 5 -1 1039.9 23
-1 5 1 1007.1 23
1 -5 -1 1038.3 23
1 -5 1 1063.59 22.9
1 -1 -5 1030.5 22.8
1 5 -1 1028 22.8
1 5 1 1025.8 22.9
-5 1 3 1710.93 37.2
5 -3 -1 1744.23 37.4
-1 -5 3 1705.93 37
-3 5 1 1706.73 37.4
-1 3 5 1758.02 37.2
3 -1 -5 1730.23 37.1
-3 -1 5 1684.03 36.9
1 -5 -3 1734.63 37.3
3 -5 1 1729.13 37.3
3 5 -1 1719.13 37.1
1 5 3 1691.73 37.2
-1 5 -3 1566.04 37.2
5 -1 -3 1652.53 37.2
-3 1 5 1721.43 37.1
-1 -5 -3 1681.63 37.2
-3 5 -1 1790.92 37.4
1 3 5 1686.13 37.2
-1 5 3 1685.43 37.3
3 -5 -1 1724.03 37.3
1 -5 3 1712.23 37.2
1 5 -3 1678.03 37
3 5 1 1681.33 37.2
1 -3 -5 1717.23 37.2
3 1 -5 1707.13 36.9
-3 -5 1 1653.43 37
-5 3 3 474.15 10.8
-3 -5 3 457.45 10.3
-3 3 5 461.05 10.7
-3 5 3 468.85 10.8
3 -5 -3 462.25 10.8
3 -5 3 461.65 10.8
3 -3 -5 458.95 10.6
3 5 -3 471.65 10.3
3 5 3 474.25 10.7
5 -3 -3 442.56 10.7
-5 1 5 1162.58 26
-5 5 1 1156.38 26.3
-1 -5 -5 1153.78 26.1
-1 -5 5 1154.48 25.8
-1 5 5 1186.28 26.1
1 -5 -5 1185.58 26.1
1 5 5 1186.78 26.1
5 -5 -1 1188.28 26.3
5 -5 1 1187.98 26.3
5 -1 -5 1191.08 25.9
5 1 -5 1168.48 25.8
-5 3 5 2359.26 50.69
-5 5 3 2367.86 50.79
-3 5 5 2322.17 50.79
3 -5 -5 2304.07 50.69
3 5 5 2320.97 50.69
5 -5 -3 2286.37 50.79
5 -3 -5 2302.17 50.69
5 5 -3 2306.17 50.29
-5 5 5 1575.64 34.7
5 -5 -5 1556.44 34.6
-2 -6 0 427.86 9.6
-2 6 0 428.96 9.9
0 2 6 423.86 9.6
2 -6 0 430.26 9.8
2 6 0 414.16 9.6
2 0 -6 409.66 9.4
0 6 -2 419.26 9.7
0 6 2 415.66 9.8
0 -6 -2 417.06 9.7
0 -6 2 429.66 9.7
-2 0 6 417.16 9.4
2 6 2 116.69 3.6
2 -2 -6 124.89 3.4
2 6 -2 123.79 3.4
2 -6 -2 128.19 3.8
2 -6 2 123.59 3.8
6 -2 -2 128.39 3.8
-2 -6 -2 121.19 3.5
-2 -6 2 120.99 3.3
-2 -2 6 125.09 3
-2 2 6 120.99 3.4
-2 6 -2 122.99 3.8
-2 6 2 122.79 3.8
0 -4 -6 852.61 19.1
0 4 6 857.31 19.1
4 -6 0 836.62 19.3
4 6 0 868.91 18.9
6 0 -4 841.92 18.9
-4 6 0 854.71 19.3
0 6 -4 876.91 19
0 6 4 851.21 19.2
4 0 -6 825.32 18.8
6 -4 0 834.32 19.3
0 -6 4 847.42 18.9
0 -6 -4 874.61 19.1
-4 0 6 830.62 18.8
4 6 -2 1202.28 25.9
2 6 4 1172.18 26.2
-2 -6 4 1173.58 25.9
4 -6 2 1156.48 26.3
2 -6 -4 1187.78 26.3
6 -4 -2 1208.08 26.3
-6 2 4 1170.48 26.2
-4 6 2 1155.98 26.4
-2 4 6 1231.78 26.2
4 -2 -6 1196.48 26.1
-6 4 2 1179.58 26.4
-4 2 6 1172.28 26.1
-2 -6 -4 1176.18 26.2
6 -2 -4 1154.78 26.2
-2 6 4 1150.18 26.3
4 -6 -2 1193.78 26.3
2 -6 4 1210.48 26.2
2 6 -4 1199.08 25.9
4 6 2 1205.38 26.1
2 -4 -6 1175.08 26.1
2 4 6 1187.18 26.2
-6 4 4 826.52 19
-4 4 6 833.82 18.9
-4 6 4 826.82 19.1
4 -6 -4 839.62 19
4 -6 4 870.51 19.1
4 -4 -6 844.52 18.9
4 6 -4 830.52 18.5
4 6 4 856.81 18.9
6 -4 -4 851.11 19
-6 0 6 1307.77 28.9
-6 6 0 1284.47 29.4
0 -6 -6 1353.36 29.2
0 -6 6 1361.16 29
0 6 6 1320.27 29.2
6 -6 0 1184.48 29.3
6 0 -6 1363.66 28.9
-6 2 6 2135.19 47.2
-6 6 2 2103.99 47.5
-2 -6 -6 2149.39 47.2
-2 -6 6 2070.89 46.8
-2 6 6 2206.88 47.4
2 -6 -6 2180.58 47.3
2 6 6 2127.99 47.3
6 -6 -2 2153.78 47.4
6 -6 2 2313.77 47.5
6 -2 -6 2132.99 47.1
6 2 -6 2142.69 46.8
6 6 -2 2177.38 46.9
-6 4 6 3117.99 68.99
-6 6 4 3140.29 69.09
-4 6 6 3143.79 69.09
4 -6 -6 3204.68 68.99
4 6 6 3126.09 68.99
6 -6 -4 3156.18 69.09
6 -4 -6 3140.29 68.89
6 6 -4 3253.97 68.49
-6 6 6 7771.82 166.98
6 -6 -6 7619.54 166.88
-1 -7 -1 2718.03 59.59
-1 -7 1 2751.92 59.59
-1 1 7 2755.32 59.49
-1 7 -1 2696.83 59.69
-1 7 1 2761.42 59.69
1 -7 -1 2735.93 59.69
1 -7 1 2744.93 59.69
1 7 -1 2721.73 59.59
1 7 1 2756.52 59.69
-3 -7 -1 180.78 4.7
1 -7 -3 178.28 4.9
-3 -1 7 171.38 4.3
-3 7 1 179.68 5.1
-1 3 7 179.58 4.7
3 -1 -7 174.18 4.4
7 -3 -1 173.08 5.1
-1 -7 3 178.68 4.6
3 -7 1 176.88 5
3 7 -1 170.58 4.6
-1 7 -3 170.18 4.8
1 7 3 176.98 4.9
3 7 1 177.78 4.7
1 3 7 185.38 4.7
-3 -7 1 178.98 4.5
3 -7 -1 184.18 5
1 7 -3 174.88 4.7
7 -1 -3 175.98 4.9
1 -3 -7 171.58 4.7
-1 7 3 175.38 5
1 -7 3 171.38 4.8
-1 -7 -3 175.58 4.8
-3 1 7 183.58 4.5
-3 7 -1 167.28 5
-3 7 -3 28.5 2.1
-3 3 7 31.4 2
-3 -7 3 27.7 1.5
-3 -7 -3 24.8 1.8
-7 3 3 27.7 2.1
7 -3 -3 26.2 2
3 -7 -3 29.6 2.1
3 -7 3 26.9 2
3 -3 -7 30.1 1.8
3 7 -3 29.3 1.6
3 7 3 22.7 1.7
-3 7 3 25.5 2.1
-5 -1 7 611.04 13.8
5 -7 1 615.74 14.4
5 7 -1 627.74 14
-1 -7 5 622.14 13.9
-1 5 7 594.34 14.2
7 1 -5 615.64 13.9
-7 1 5 618.44 14.2
5 -1 -7 624.54 14
-5 7 1 652.53 14.5
-1 -5 -7 615.34 14.2
1 7 5 633.54 14.3
1 -7 -5 618.04 14.3
7 -5 -1 644.44 14.5
1 7 -5 641.74 14
7 -1 -5 615.04 14.1
-5 7 -1 601.34 14.5
5 1 -7 615.84 13.7
1 5 7 633.04 14.2
7 -5 1 619.14 14.5
-1 7 5 617.74 14.3
1 -5 -7 611.64 14.2
1 -7 5 602.74 14.1
5 7 1 616.44 14.1
5 -7 -1 610.64 14.4
-5 1 7 618.54 14
-1 -7 -5 628.74 14.2
7 -5 -3 1423.46 32.5
5 -7 3 1469.55 32.5
5 7 -3 1453.25 32
5 -3 -7 1495.55 32.2
-7 3 5 1484.25 32.4
-5 7 3 1426.96 32.5
-3 5 7 1438.46 32.4
3 7 5 1455.95 32.4
3 -7 -5 1480.95 32.4
-3 -7 5 1458.95 31.9
3 -5 -7 1469.25 32.3
-5 3 7 1447.56 32.3
-7 5 3 1439.16 32.5
-3 7 5 1441.66 32.5
3 5 7 1461.85 32.3
3 -7 5 1554.24 32.4
3 7 -5 1456.05 31.9
5 -7 -3 1424.56 32.5
5 7 3 1459.55 32.3
7 -3 -5 1522.35 32.4
-7 5 5 2707.83 60.19
-5 5 7 2738.83 60.09
-5 7 5 2813.12 60.29
5 -7 -5 2744.03 60.19
5 -7 5 2670.73 60.29
5 -5 -7 2842.72 60.09
5 7 -5 2775.12 59.59
5 7 5 2731.13 60.09
7 -5 -5 2702.93 60.09
-7 1 7 350.16 8.4
-7 7 1 350.46 9
-1 -7 -7 334.07 8.5
-1 -7 7 349.96 8.1
-1 7 7 353.46 8.7
1 -7 -7 354.26 8.6
1 -7 7 339.97 8.4
1 7 7 334.97 8.6
7 -7 -1 333.77 8.9
7 -7 1 335.57 8.9
7 -1 -7 344.67 8.3
7 1 -7 357.16 8.1
7 7 -1 347.97 8.2
-7 3 7 1653.63 36.3
-7 7 3 1628.94 36.5
-3 -7 7 1662.63 35.7
-3 7 7 1615.24 36.4
3 -7 -7 1585.74 36.3
3 7 7 1599.74 36.3
7 -7 -3 1685.03 36.5
7 -7 3 1649.63 36.6
7 -3 -7 1658.03 36.2
7 3 -7 1671.33 35.7
7 7 -3 1651.23 35.9
-7 5 7 5491.05 122.39
-7 7 5 5525.65 122.49
-5 7 7 5564.14 122.49
5 -7 -7 5759.42 122.39
5 7 7 5594.94 122.39
7 -7 -5 5655.63 122.49
7 -5 -7 5697.13 122.39
7 7 -5 5774.72 121.79
-7 7 7 9538.45 211.68
7 -7 -7 9999 211.68
-2 -8 0 471.05 10.8
-2 8 0 455.35 11.1
0 2 8 457.35 10.8
2 -8 0 471.35 11.1
2 8 0 468.75 10.9
0 8 2 486.05 11.1
0 -8 -2 469.55 11
0 -8 2 468.05 10.9
0 8 -2 462.45 11
-2 0 8 474.45 10.6
2 8 -2 1217.38 26.5
8 -2 -2 1201.78 26.8
-2 -2 8 1223.88 26.2
-2 2 8 1216.28 26.5
-2 8 -2 1179.58 26.7
-2 -8 -2 1196.88 26.6
-2 -8 2 1193.28 26.4
2 -2 -8 1182.18 26.4
2 8 2 1191.98 26.6
2 -8 -2 1165.18 26.7
2 -8 2 1197.88 26.7
-2 8 2 1194.48 26.8
8 0 -4 35 2.1
4 -8 0 29.8 2.1
4 8 0 32.7 1.9
4 0 -8 37.1 1.6
8 -4 0 33.9 2.5
0 4 8 31.8 2
-4 -8 0 39.6 2
-4 8 0 33.1 2.4
0 -4 -8 41 2.1
0 8 -4 30.7 2
0 8 4 29.3 2.2
0 -8 -4 33.4 2.2
0 -8 4 29.5 1.9
-4 0 8 34.7 1.7
-4 -8 -2 253.37 6.6
-2 4 8 267.27 6.7
-2 -8 4 263.17 6.3
-4 -2 8 262.07 6.1
-4 8 2 253.37 7.1
8 -4 -2 257.17 7
2 -8 -4 278.57 6.9
4 -8 2 269.37 7
4 8 -2 255.47 6.4
2 8 4 270.57 6.8
-2 8 -4 253.97 6.9
4 -2 -8 254.57 6.4
2 4 8 265.17 6.7
4 -8 -2 259.57 7
2 -8 4 268.47 6.8
2 8 -4 264.47 6.5
4 8 2 265.67 6.7
-4 -8 2 259.27 6.3
-2 -8 -4 254.27 6.7
8 -2 -4 255.47 6.8
-4 8 -2 237.48 7
2 -4 -8 265.47 6.6
-4 2 8 256.97 6.6
-2 8 4 266.77 6.9
4 8 4 442.56 10.7
-8 4 4 450.05 10.9
8 -4 -4 441.96 10.8
-4 -8 4 443.16 10.1
-4 4 8 455.55 10.6
-4 8 4 434.66 10.9
4 -8 -4 442.46 10.8
4 -8 4 448.06 10.9
4 -4 -8 460.05 10.5
4 8 -4 448.86 10.2
0 -8 -6 6.5 1.7
-6 0 8 7 1.4
8 0 -6 3.6 1.5
6 0 -8 6.9 1.3
8 -6 0 6.3 2.1
0 6 8 6.2 1.7
6 -8 0 2.9 1.9
6 8 0 6.5 1.5
0 -8 6 6.4 1.5
0 8 6 2.2 1.7
-6 8 0 5.9 2
0 -6 -8 6 1.6
-8 2 6 262.97 7
-6 -2 8 260.07 6.3
6 -8 2 273.67 7.4
6 8 -2 273.77 6.6
-2 -8 6 271.77 6.4
2 -8 -6 269.77 7
-6 8 2 261.47 7.4
-2 6 8 263.27 7
2 8 6 257.47 7
6 -2 -8 274.07 6.7
8 2 -6 270.07 6.5
8 -6 -2 256.27 7.3
2 -8 6 266.97 7
6 8 2 267.47 6.9
-2 8 6 269.87 7.2
8 -2 -6 280.17 6.9
8 -6 2 281.47 7.5
2 6 8 265.17 7
6 2 -8 273.07 6.2
-2 -6 8 262.67 6.3
2 8 -6 259.87 6.6
2 -6 -8 267.27 6.9
-8 6 2 269.67 7.4
6 -8 -2 265.97 7.3
-6 2 8 267.87 6.8
-2 -8 -6 264.87 6.9
6 8 -4 1703.93 36.2
6 -4 -8 1722.13 36.6
8 -6 -4 1668.63 36.9
-8 4 6 1635.94 36.8
-6 8 4 1672.93 37
-4 6 8 1651.03 36.8
4 8 6 1617.24 36.7
4 -8 -6 1677.63 36.8
-4 -8 6 1630.04 36.1
6 -8 4 1682.63 37
-8 6 4 1671.63 36.9
-6 4 8 1691.23 36.7
6 -8 -4 1698.23 36.9
-4 8 6 1627.44 36.8
4 6 8 1609.14 36.7
4 -8 6 1617.74 36.8
4 8 -6 1663.33 36.2
4 -6 -8 1626.04 36.6
6 8 4 1677.43 36.7
8 -4 -6 1640.64 36.7
-8 6 6 4812.22 106.39
-6 6 8 4858.41 106.29
-6 8 6 4796.62 106.39
6 -8 -6 4920.31 106.39
6 -8 6 4838.92 106.49
6 -6 -8 5202.38 106.29
6 8 -6 4874.81 105.59
6 8 6 4900.71 106.29
8 -6 -6 4752.02 106.29
-8 0 8 662.63 14.9
0 -8 -8 660.03 15.2
0 -8 8 655.63 14.9
0 8 8 654.13 15.3
8 -8 0 626.24 15.5
8 0 -8 651.43 14.8
8 8 0 655.63 14.9
-8 2 8 5.5 1.9
-8 8 2 6 2.3
-2 -8 -8 6.4 1.9
-2 -8 8 6.3 1.4
-2 8 8 6.4 2
2 -8 -8 6.2 1.9
2 -8 8 2.6 2
2 8 8 5.7 1.8
8 -8 -2 5.2 2.2
8 -8 2 3.1 2.2
8 -2 -8 9.8 1.8
8 2 -8 8 1.3
8 8 -2 7.5 1.6
8 8 2 5.6 1.8
-8 4 8 1372.26 30.6
-8 8 4 1345.57 30.9
-4 8 8 1382.46 30.8
4 -8 -8 1377.36 30.6
4 8 8 1396.96 30.7
8 -8 -4 1332.67 30.8
8 -8 4 1366.06 31
8 -4 -8 1375.46 30.6
8 8 -4 1379.96 30.1
-8 6 8 4346.47 94.49
-8 8 6 4348.96 94.59
-6 8 8 4268.47 94.49
6 -8 -8 4309.27 94.39
6 8 8 4365.96 94.39
8 -8 -6 4334.67 94.49
8 -6 -8 4429.56 94.39
8 8 -6 4210.28 93.59
-8 8 8 3735.13 83.49
8 -8 -8 3863.51 83.39
8 8 8 3832.02 83.29
-1 -9 -1 5578.94 122.69
-1 -9 1 5725.73 122.69
-1 -1 9 5719.13 122.39
-1 1 9 5783.12 122.59
-1 9 -1 5521.85 122.79
-1 9 1 5620.94 122.79
1 -9 -1 5662.23 122.79
1 -9 1 5693.73 122.79
1 9 -1 5702.03 122.69
1 9 1 5569.94 122.79
-3 -9 -1 93.29 3.3
-1 9 -3 93.39 3.7
1 -9 -3 91.89 3.6
-3 9 1 103.29 3.7
-1 3 9 97.39 3.3
9 -3 -1 116.89 4.2
1 9 3 96.49 3.7
3 -1 -9 84.99 3
3 -9 1 89.19 3.7
3 9 -1 94.99 3.4
-1 -9 3 89.79 3.3
-3 -1 9 92.79 2.8
-1 9 3 89.29 3.8
-3 9 -1 88.99 4
9 -1 -3 93.69 3.8
1 9 -3 86.59 3.5
1 3 9 88.59 3.4
3 -9 -1 92.59 3.7
1 -3 -9 88.39 3.3
3 9 1 92.29 3.5
1 -9 3 90.09 3.5
-3 1 9 88.89 3.1
-1 -9 -3 83.89 3.5
-3 -9 1 88.99 3.2
3 9 3 161.78 4.9
3 9 -3 167.48 4.7
-3 -9 -3 164.68 4.8
-3 -9 3 164.58 4.5
3 -3 -9 169.88 4.7
-3 3 9 160.48 4.8
-3 9 -3 159.08 5.2
-3 9 3 165.58 5.3
3 -9 3 156.58 5.1
3 -9 -3 168.08 5.2
-3 -3 9 163.68 4.1
9 -3 -3 167.28 5.2
1 -9 -5 4.2 1.6
-1 5 9 2.3 1.6
5 -1 -9 1.9 1.2
-1 -9 5 0 1.4
9 -5 -1 3.3 2
-1 9 -5 1.9 1.7
5 -9 1 2.4 1.8
-5 -1 9 2.7 1.2
-5 9 1 1.7 1.9
1 9 5 1.9 1.8
9 1 -5 0.3 1.5
5 9 -1 0.3 1.4
9 -1 -5 2 1.7
-1 -9 -5 0.6 1.6
1 5 9 2.7 1.6
5 9 1 0.9 1.5
-5 -9 1 2.1 1.3
-5 9 -1 0.8 2
-5 1 9 1.4 1.3
5 1 -9 0.3 1.1
1 -5 -9 2 1.5
9 -5 1 1.3 2
-1 9 5 1.7 1.7
1 -9 5 2.2 1.6
5 -9 -1 0.3 1.7
1 9 -5 1.8 1.5
-5 9 3 364.26 9.5
5 9 -3 361.86 8.8
3 9 5 365.46 9.2
9 -5 -3 380.76 9.5
3 -9 -5 359.56 9.3
-3 5 9 369.26 9.2
5 -3 -9 377.76 8.9
-3 -9 5 378.46 8.6
5 -9 3 364.96 9.4
-5 3 9 372.46 9
-3 -9 -5 378.86 9.1
5 -9 -3 376.56 9.4
-5 -9 3 362.96 8.6
3 5 9 375.76 9.1
9 -3 -5 357.06 9.2
3 -9 5 372.36 9.3
3 9 -5 371.86 8.8
-3 9 5 369.76 9.4
3 -5 -9 373.06 9.1
5 9 3 380.76 9.1
9 -5 -5 1031.1 23.4
-5 9 5 1043.6 23.6
5 -9 -5 1023.2 23.4
-5 -9 5 1035.8 22.7
-5 5 9 1023.8 23.3
-9 5 5 1019.8 23.4
5 -9 5 1020.6 23.5
5 -5 -9 1054.99 23.2
5 9 5 1026.8 23.3
5 9 -5 1017.7 22.8
-7 9 1 510.05 12.5
-1 7 9 509.15 12.2
9 1 -7 527.35 11.7
7 -1 -9 497.65 11.7
7 -9 1 490.95 12.4
9 -7 -1 507.55 12.5
-1 -7 -9 494.15 12
1 -9 -7 515.95 12.1
1 9 7 482.35 12.2
7 9 -1 504.15 11.8
-1 -9 7 509.25 11.7
-7 -1 9 517.05 11.6
1 -9 7 498.45 11.9
-7 9 -1 522.55 12.5
-7 1 9 510.85 11.8
-1 -9 -7 495.15 12.1
7 9 1 516.15 11.9
-1 9 7 505.05 12.3
7 -9 -1 508.55 12.4
9 -1 -7 514.45 11.9
-1 -7 9 500.65 11.6
7 1 -9 506.75 11.5
1 -7 -9 508.85 12
1 7 9 484.75 12.1
9 -7 1 504.95 12.5
3 9 7 34.7 2.7
-7 9 3 33.2 3
-3 7 9 37.5 2.8
-3 -9 7 34.9 1.8
-9 3 7 34.9 2.6
9 3 -7 34.2 1.9
7 -3 -9 41 2.5
9 -7 -3 35.8 2.9
7 -9 3 37.7 3.1
7 9 -3 36 2.1
3 -9 -7 37.2 2.6
3 7 9 35.6 2.5
3 -7 -9 33.1 2.4
-9 7 3 34.5 3
-7 3 9 37.8 2.6
-3 -9 -7 35.8 2.6
3 -9 7 35.1 2.6
7 9 3 37.9 2.5
9 -3 -7 36.4 2.5
9 -7 3 31.7 3.1
-3 9 7 35.8 2.8
7 -9 -3 29.6 2.6
9 5 -7 1675.23 36.2
7 9 -5 1702.13 36.3
5 -9 -7 1718.53 37
-5 7 9 1617.14 36.9
9 -7 -5 1661.63 37
5 9 7 1680.83 36.9
7 -9 5 1627.34 37.1
-9 5 7 1603.44 36.9
-7 9 5 1656.63 37.1
-5 -9 7 1652.73 36.1
7 -5 -9 1705.73 36.8
5 7 9 1678.63 36.9
-7 5 9 1634.24 36.9
9 -5 -7 1682.43 36.9
-5 9 7 1694.43 37.1
7 9 5 1669.43 36.8
5 -9 7 1578.84 37
5 9 -7 1590.04 36.1
7 -9 -5 1638.74 37
-9 7 5 1676.33 37.1
5 -7 -9 1683.63 36.8
-9 7 7 2904.81 64.99
-7 7 9 2883.51 64.89
-7 9 7 3072.89 65.09
7 -9 -7 2949.1 64.89
7 -9 7 2988.6 65.09
7 -7 -9 2986.6 64.79
7 9 7 2927.31 64.79
9 -7 -7 2923.71 64.89
-9 1 9 4877.81 108.19
-9 9 1 4873.61 108.79
-1 -9 -9 4944.31 108.39
-1 -9 9 4987.5 108.09
-1 9 9 4966.5 108.49
1 -9 -9 5048 108.49
1 -9 9 4963.4 108.29
1 9 9 5068.79 108.49
9 -9 -1 4931.81 108.69
9 -9 1 4878.51 108.69
9 -1 -9 5110.49 108.19
9 1 -9 5012.5 107.99
9 9 -1 4969.7 108.19
9 9 1 5106.89 108.29
-9 3 9 1475.45 32.7
-9 9 3 1490.25 33.1
-3 -9 9 1456.95 32
-3 9 9 1475.15 32.9
3 -9 -9 1458.45 32.7
3 -9 9 1470.05 32.8
3 9 9 1416.56 32.8
9 -9 -3 1462.15 33
9 -9 3 1458.35 33.1
9 -3 -9 1454.05 32.6
9 3 -9 1488.35 32
9 9 -3 1449.95 32.3
9 9 3 1468.95 32.6
-9 5 9 3.2 2.3
-9 9 5 3.9 2.6
-5 9 9 1.3 2.4
5 -9 -9 2.1 2.2
5 9 9 1.3 2
9 -9 -5 -0.2 2.4
9 -9 5 2.9 2.7
9 -5 -9 2.7 2.2
9 9 -5 2.3 1.5
9 9 5 3.4 2.2
-9 7 9 70.79 4.1
-9 9 7 62.89 4
-7 9 9 60.89 3.9
7 -9 -9 58.79 3.6
7 9 9 59.39 3.5
9 -9 -7 62.69 3.7
9 -7 -9 67.89 3.8
9 9 -7 66.99 2.4
9 9 7 71.59 3.7
-9 9 9 1579.94 36
9 -9 -9 1619.84 35.9
9 9 9 1580.64 35.7
0 -10 0 7401.16 159.68
0 0 10 7301.17 159.48
0 10 0 7394.16 159.78
-2 -10 0 696.63 15.7
-2 10 0 659.53 16
0 2 10 695.43 15.7
2 -10 0 691.93 15.9
2 10 0 676.03 15.8
0 10 2 690.33 16
0 10 -2 697.03 15.9
-2 0 10 720.53 15.5
0 -10 -2 685.33 15.9
0 -10 2 681.73 15.8
2 -10 2 3163.28 69.49
-2 10 2 3157.28 69.59
-2 -10 -2 3189.48 69.39
-2 -10 2 3199.88 69.29
-2 -2 10 3159.08 68.99
-2 2 10 3221.78 69.29
-2 10 -2 3236.78 69.59
2 -10 -2 3197.28 69.49
10 -2 -2 3196.78 69.59
2 10 2 3127.79 69.49
2 10 -2 3148.68 69.39
4 0 -10 63.69 2.7
0 -10 -4 68.69 3
-4 0 10 67.99 2.8
10 0 -4 80.89 3.4
4 -10 0 70.49 3.4
-4 -10 0 81.69 3
4 10 0 73.39 3.1
0 10 4 80.49 3.5
0 10 -4 77.69 3.3
-4 10 0 77.49 3.7
0 4 10 72.39 3.1
0 -10 4 75.99 3
2 10 4 28.2 2.4
2 -10 -4 32.9 2.4
-2 10 -4 29.8 2.4
-4 -2 10 35.1 1.7
-2 4 10 36.9 2.4
4 10 -2 31.4 2.1
-2 -10 4 32.3 2
-4 -10 -2 36.1 2.3
10 -4 -2 29.3 2.6
4 -10 2 31.4 2.5
-4 10 2 36.4 2.8
4 -2 -10 36.6 2
-4 2 10 37.9 2.2
2 -10 4 29.6 2.4
2 10 -4 34 2.3
-4 10 -2 29 2.5
-2 -10 -4 26 2.2
4 10 2 35.3 2.4
10 -2 -4 34.1 2.5
-4 -10 2 29.8 1.9
2 4 10 27.6 2
4 -10 -2 39.8 2.7
-2 10 4 24.4 2.3
2 -4 -10 29.6 2.1
4 -10 -4 65.79 3.2
-4 10 4 67.09 3.5
4 -4 -10 62.09 2.8
-4 -10 4 60.89 2.5
-4 4 10 66.19 3.1
4 10 -4 67.49 2.7
4 10 4 56.69 3
10 -4 -4 63.39 3.3
-4 -10 -4 61.79 3
4 -10 4 59.09 3.3
-6 0 10 35.5 2.1
0 -10 6 33.6 2.3
0 10 6 34 2.6
-6 10 0 35.9 3
0 -6 -10 33.3 2.4
6 10 0 30.2 2.2
10 0 -6 28.7 2.4
10 -6 0 34.1 3
0 -10 -6 33.5 2.6
6 -10 0 32.4 2.8
6 0 -10 36.1 1.9
0 6 10 32.4 2.4
6 -10 2 158.08 5.5
-6 10 2 156.98 5.7
-2 6 10 161.58 5.1
6 10 -2 156.78 4.6
10 2 -6 160.98 4.7
2 10 6 147.39 5.2
-2 -10 6 155.78 4.5
-6 -2 10 158.58 4.2
2 -10 -6 154.68 5.1
10 -6 -2 149.69 5.6
6 -2 -10 156.48 4.5
-6 10 -2 152.78 5.7
2 -6 -10 155.18 4.9
2 -10 6 160.98 5.1
-6 2 10 159.48 4.8
-2 -10 -6 157.78 5
6 -10 -2 150.88 5.4
10 -6 2 137.79 5.7
-2 10 6 155.58 5.4
6 10 2 161.38 4.9
10 -2 -6 149.69 5.1
2 10 -6 151.88 4.7
2 6 10 141.59 5
6 2 -10 147.79 4
-10 4 6 287.77 8.1
-6 10 4 295.97 8.4
-4 -10 6 294.67 7
6 -10 4 288.37 8.2
4 -10 -6 290.87 8
-4 6 10 283.67 7.9
6 10 -4 296.17 7.3
4 10 6 284.27 7.8
6 -4 -10 309.97 7.6
10 -6 -4 283.27 8.1
4 10 -6 301.07 7.3
-6 4 10 292.17 7.8
6 -10 -4 288.37 8.1
10 -4 -6 296.27 8
-10 6 4 280.17 8.2
6 10 4 304.97 7.8
4 6 10 292.57 7.8
4 -6 -10 294.47 7.7
4 -10 6 295.87 8
-4 10 6 291.57 8.2
10 -6 -6 1204.38 27.7
6 -10 -6 1206.08 27.7
6 10 6 1235.58 27.6
6 10 -6 1223.18 26.9
6 -6 -10 1257.27 27.5
-6 6 10 1208.28 27.6
-6 10 6 1237.18 27.9
-10 6 6 1206.48 27.7
6 -10 6 1197.68 27.8
0 -10 8 4654.03 104.29
-8 10 0 4747.92 104.89
0 -8 -10 4644.54 104.49
0 -8 10 4876.11 104.29
0 8 10 4826.62 104.59
8 -10 0 4844.72 104.79
8 10 0 4835.22 104.29
10 0 -8 4805.52 104.29
0 10 8 4796.32 104.69
10 -8 0 4834.02 104.89
-8 0 10 4857.31 104.19
0 -10 -8 4840.32 104.59
8 0 -10 4845.12 104.09
-2 8 10 3945.91 86.69
2 -10 -8 4025.8 86.69
2 10 8 3948.51 86.69
8 -2 -10 3989.3 86.39
10 -8 -2 3979.5 86.99
10 2 -8 4008.4 86.19
-8 10 2 3839.72 86.99
-10 2 8 4008.2 86.59
8 -10 2 3917.31 86.89
8 10 -2 4049.4 86.39
-2 -10 8 3998.7 86.19
2 -8 -10 3924.81 86.69
2 -10 8 4077.79 86.59
8 2 -10 4050.59 85.99
-2 10 8 3951.8 86.79
10 -2 -8 4059.29 86.49
8 10 2 3930.11 86.59
-2 -10 -8 3898.11 86.59
8 -10 -2 3872.71 86.89
-2 -8 10 4115.29 86.09
-8 2 10 3973.4 86.49
10 -8 2 3811.82 86.99
2 8 10 3919.31 86.69
10 -8 -4 500.55 13
-8 10 4 522.05 13.1
-4 8 10 509.15 12.8
8 10 -4 522.25 12
8 -4 -10 526.55 12.5
-10 4 8 520.45 12.8
4 -10 -8 514.15 12.7
10 4 -8 515.85 11.8
-4 -10 8 501.95 11.7
8 -10 4 521.15 13.1
4 10 8 509.45 12.7
-4 10 8 513.45 12.9
10 -4 -8 521.45 12.6
8 10 4 532.05 12.6
8 -10 -4 514.45 12.9
4 -10 8 529.95 12.8
4 -8 -10 513.95 12.6
4 8 10 540.15 12.7
-8 4 10 502.65 12.6
10 -8 4 547.15 13.3
-10 8 4 535.15 13.1
-6 8 10 13.3 2.7
8 10 -6 18.5 1.8
-8 10 6 17.7 3
-10 6 8 19.9 2.9
6 10 8 19.7 2.6
6 -10 -8 14.2 2.6
8 -6 -10 19.6 2.5
10 -8 -6 17.5 2.8
8 -10 6 18.7 3
8 -10 -6 18.9 2.8
-10 8 6 13.7 2.9
-8 6 10 16.7 2.8
-6 10 8 18.6 2.9
10 -6 -8 16.7 2.6
6 -10 8 14.8 2.9
8 10 6 21.3 2.8
6 -8 -10 21.3 2.6
6 8 10 20.7 2.7
10 8 -6 17.1 1.6
-10 8 8 321.87 9.6
-8 8 10 340.77 9.6
-8 10 8 334.27 9.7
8 -10 -8 324.37 9.4
8 -10 8 346.67 9.9
8 -8 -10 351.56 9.3
8 8 10 335.57 9.2
8 10 8 343.27 9.3
10 -8 -8 348.87 9.4
0 -10 -10 3146.39 69.19
0 -10 10 3197.78 68.89
0 10 10 3101.09 69.29
10 -10 0 3092.59 69.49
10 0 -10 3200.68 68.79
10 10 0 3168.68 68.89
-10 2 10 4196.48 92.99
-10 10 2 4204.28 93.49
-2 -10 -10 4164.98 92.99
-2 -10 10 4321.57 92.59
-2 10 10 4178.68 93.19
2 -10 -10 4366.86 93.09
2 -10 10 4302.07 92.99
2 10 10 4114.29 93.09
10 -10 -2 4161.38 93.39
10 -10 2 4365.96 93.49
10 -2 -10 4256.67 92.89
10 2 -10 4300.07 92.49
10 10 -2 4444.56 92.79
10 10 2 4305.27 92.99
-10 4 10 638.84 15.1
-10 10 4 602.54 15.5
-4 10 10 611.64 15.3
4 -10 -10 618.04 15.1
4 -10 10 657.23 15.3
4 10 10 631.14 15.2
10 -10 -4 628.94 15.5
10 -10 4 625.74 15.6
10 -4 -10 637.94 15
10 10 -4 646.64 14.5
10 10 4 607.24 14.9
-10 6 10 105.89 4.8
-10 10 6 111.79 5.4
-6 10 10 103.79 4.8
6 -10 -10 108.29 4.6
6 -10 10 99.19 4.8
6 10 10 102.59 4.5
10 -10 -6 95.39 4.6
10 -10 6 110.19 5.4
10 -6 -10 108.49 4.7
10 10 -6 93.99 3.8
10 10 6 108.99 4.5
-10 8 10 2124.09 46.8
-10 10 8 2069.89 46.9
-8 10 10 2090.19 46.8
8 -10 -10 2111.29 46.6
8 10 10 2055.99 46.5
10 -10 -8 2105.99 46.7
10 -10 8 2000.6 46.9
10 -8 -10 2171.18 46.6
10 10 8 2103.99 46.5
-10 10 10 2163.78 48
10 -10 -10 2177.98 47.8
10 10 10 2081.09 47.7
-1 -11 -1 2095.09 46.7
-1 -11 1 2142.39 46.7
-1 -1 11 2148.78 46.4
-1 1 11 2208.18 46.6
-1 11 -1 2144.29 46.9
-1 11 1 2114.79 46.9
1 -11 -1 2072.89 46.8
1 -11 1 2101.19 46.8
1 1 11 2095.49 46.6
1 11 -1 2098.49 46.8
1 11 1 2146.39 46.9
-3 -11 -1 157.58 4.8
1 -11 -3 152.28 5.1
-1 -11 3 162.38 4.8
-3 11 1 150.28 5.4
-1 3 11 150.88 4.8
1 11 3 153.18 5.2
-3 -1 11 158.08 4.3
3 -11 1 154.98 5.2
3 11 -1 159.08 5
-1 11 -3 159.68 5.2
-3 11 -1 156.48 5.4
3 11 1 153.38 5
-1 11 3 152.38 5.3
-3 -11 1 161.28 4.7
1 -11 3 160.28 5
1 11 -3 151.28 5
1 3 11 157.88 4.8
3 -11 -1 159.28 5.3
-3 1 11 157.68 4.6
-1 -11 -3 156.58 5
-3 3 11 887.91 20.1
-3 11 -3 874.61 20.5
3 -11 3 883.31 20.4
3 -3 -11 904.91 20
3 11 -3 887.21 20.1
3 11 3 891.01 20.3
11 -3 -3 880.21 20.5
-3 11 3 879.81 20.5
3 -11 -3 875.91 20.4
-3 -3 11 895.21 19.6
-3 -11 -3 886.11 20.2
-3 -11 3 897.21 20
5 11 -1 13.1 2
-1 5 11 13.9 2.1
5 -11 1 12.5 2.4
-5 -1 11 13.2 1.7
1 11 5 13.8 2.3
-1 -11 5 12 1.9
11 -5 -1 14.3 2.4
-1 11 -5 17.6 2.5
5 -1 -11 13.6 1.7
11 1 -5 11.4 2.2
-5 11 1 14.2 2.6
-5 -11 -1 14.6 1.9
1 -11 -5 13.2 2.3
1 5 11 10.2 2
11 -1 -5 15.9 2.4
1 -5 -11 13.8 2
-1 11 5 13.9 2.5
1 11 -5 11.6 2.1
-1 -11 -5 14.8 2.2
-5 11 -1 12.6 2.5
5 11 1 14.8 2.1
-5 1 11 13.2 1.9
1 -11 5 11.6 2
5 -11 -1 14.5 2.4
-5 -11 1 10.8 1.8
-5 -11 -3 7.9 2
-5 11 3 7.2 2.5
-3 -11 5 7.7 1.6
5 -11 3 4.4 2.3
5 11 -3 5.4 1.8
5 -3 -11 6.7 1.8
-3 5 11 9.7 2.1
3 11 5 5.1 2
3 -11 -5 6.3 2
-5 -3 11 6.9 1.2
11 -5 -3 4.2 2.3
-5 3 11 7.1 1.9
5 -11 -3 6.5 2.2
-5 -11 3 5.7 1.6
-5 11 -3 5.8 2.4
3 -11 5 4.9 2.1
3 5 11 5.9 1.9
-3 -11 -5 5.3 1.8
3 11 -5 6.1 1.9
11 -3 -5 6.4 2.1
-3 11 5 5.7 2.3
3 -5 -11 4.9 1.9
5 11 3 6 2
-5 5 11 317.07 8.4
5 11 -5 306.17 7.9
-5 -11 5 314.27 7.7
5 11 5 310.77 8.4
-5 11 5 312.47 8.9
5 -11 -5 309.37 8.6
11 -5 -5 307.87 8.7
5 -5 -11 313.67 8.2
5 -11 5 308.07 8.7
7 11 -1 2066.69 45.6
-7 -1 11 2072.79 45.4
-7 11 1 2078.39 46.2
11 1 -7 2073.39 45.6
1 11 7 2002.2 46
1 -11 -7 2082.29 45.9
7 -1 -11 2129.59 45.5
-1 -11 7 2100.89 45.5
11 -7 -1 2082.99 46.2
7 -11 1 2044.2 46.1
-1 7 11 2053.19 45.9
1 -7 -11 2101.19 45.8
11 -7 1 2068.09 46.2
-7 1 11 2091.09 45.6
1 -11 7 2119.39 45.8
7 1 -11 2139.09 45.3
-1 11 7 2064.19 46
7 -11 -1 2043.3 46.1
-1 -11 -7 2077.19 45.9
-7 11 -1 2015.7 46.2
1 7 11 2096.59 45.9
11 -1 -7 2053.59 45.7
7 11 1 2062.19 45.7
11 3 -7 1288.17 27.2
7 -3 -11 1249.88 27.4
-3 7 11 1227.88 27.7
3 11 7 1172.48 27.7
7 -11 3 1176.68 27.9
7 11 -3 1226.48 27.3
-3 -11 7 1238.98 27.1
3 -11 -7 1256.17 27.7
11 -7 -3 1207.58 28
-7 11 3 1180.18 28
-7 3 11 1235.98 27.5
-3 11 7 1212.28 27.9
3 7 11 1252.47 27.7
11 -7 3 1158.58 28.1
7 -11 -3 1216.98 27.9
3 11 -7 1268.87 27.2
7 11 3 1235.38 27.6
11 -3 -7 1252.67 27.7
-3 -11 -7 1214.78 27.6
3 -7 -11 1213.68 27.6
3 -11 7 1246.18 27.7
-11 5 7 0 2.5
5 -11 -7 -1.3 2.3
7 -11 5 -0.2 2.6
-7 11 5 3.8 2.8
-5 7 11 1.4 2.3
11 -7 -5 -1.1 2.5
5 11 7 -0.1 2.2
-5 -11 7 0.7 1.4
7 -5 -11 2.2 2
7 11 -5 -1.3 1.7
-11 7 5 2.6 2.7
11 -5 -7 0.1 2.3
-7 5 11 2.3 2.3
5 -7 -11 1.6 2.1
5 7 11 0.6 2.3
7 -11 -5 1.1 2.4
-5 11 7 0.9 2.5
7 11 5 -0.2 2.1
5 -11 7 -1.8 2.4
5 11 -7 0.5 1.8
-11 7 7 52.09 3.7
-7 7 11 43.9 3.5
7 -11 -7 47.5 3.5
7 -11 7 43.9 3.5
7 -7 -11 49.4 3.2
7 7 11 41.4 3.1
7 11 -7 44 2.3
7 11 7 45.2 3.3
11 -7 -7 44.4 3.5
-7 11 7 47.3 3.7
1 -11 -9 3679.23 81.09
11 1 -9 3718.03 80.69
9 11 -1 3764.42 80.89
-1 -9 -11 3679.13 81.09
1 11 9 3657.23 81.19
9 -1 -11 3776.02 80.69
-1 -11 9 3697.03 80.69
11 -9 -1 3759.82 81.49
9 -11 1 3716.93 81.39
-9 11 1 3615.74 81.49
-9 -1 11 3722.83 80.69
1 -9 11 3752.02 80.89
-1 9 11 3740.13 81.19
9 1 -11 3706.73 80.49
1 -11 9 3702.63 80.89
1 9 11 3612.04 81.09
9 -11 -1 3647.93 81.39
11 -9 1 3702.93 81.49
11 -1 -9 3783.62 80.89
-9 1 11 3722.43 80.79
-1 -11 -9 3703.93 81.09
1 -9 -11 3812.72 81.09
-1 11 9 3648.33 81.19
9 11 1 3647.24 80.89
-1 -9 11 3712.93 80.69
9 -11 3 2004.3 44.7
11 -9 -3 2015.6 44.7
11 3 -9 1979.9 43.8
-11 3 9 1949.51 44.4
9 -3 -11 2022.4 44.1
-3 -11 9 2029.1 43.7
3 -11 -9 1984.4 44.4
9 11 -3 2015 44
-9 11 3 1999.1 44.8
3 11 9 1947.61 44.4
-3 9 11 2010.6 44.5
9 11 3 1994.4 44.3
-11 9 3 2038.2 44.8
11 9 -3 2038.6 43.9
-3 -11 -9 1950.6 44.3
3 -11 9 2002.3 44.4
9 -11 -3 1993.9 44.6
3 -9 -11 1975.3 44.3
-9 3 11 2026.6 44.3
-3 11 9 1963.9 44.6
11 -9 3 2048.59 44.8
-3 -9 11 2014.5 43.6
11 -3 -9 1981.3 44.2
3 9 11 2015.9 44.4
9 -5 -11 115.89 5.1
-11 5 9 127.29 5.2
-9 11 5 121.49 5.4
-5 9 11 131.79 5.1
-5 -11 9 116.29 3.5
5 11 9 130.09 5.2
11 -9 -5 143.79 5.6
9 -11 5 127.89 5.6
9 11 -5 123.19 4.3
5 -11 -9 139.79 5.2
11 -5 -9 118.89 5.3
9 11 5 114.99 5.2
-5 11 9 128.09 5.3
11 9 -5 118.19 4.2
-9 5 11 137.19 5.2
5 -9 -11 124.89 4.9
5 9 11 108.89 4.6
9 -11 -5 123.59 5.2
5 -11 9 136.39 5.3
11 -9 5 106.19 5.2
-11 9 5 136.19 5.8
11 -9 -7 416.16 11.5
9 -11 7 421.16 11.8
9 11 -7 439.56 10.2
7 -11 -9 438.66 11.4
7 11 9 450.65 11.3
-11 7 9 440.66 11.7
-9 11 7 428.96 11.8
-7 9 11 413.86 11.5
9 -7 -11 432.16 11.2
7 9 11 423.26 11.3
-11 9 7 434.76 11.8
-9 7 11 430.86 11.6
-7 11 9 425.86 11.7
9 11 7 440.36 11.3
7 -11 9 444.26 11.8
11 -7 -9 448.86 11.5
7 -9 -11 436.66 11.2
9 -11 -7 417.36 11.5
11 9 -7 463.35 10.1
-11 9 9 1778.72 39.8
-9 9 11 1745.43 39.7
-9 11 9 1747.23 39.8
9 -11 -9 1780.12 39.6
9 -11 9 1775.12 39.9
9 -9 -11 1777.42 39.5
9 9 11 1734.63 39.4
9 11 9 1765.32 39.5
11 -9 -9 1735.83 39.6
-11 1 11 3410.96 72.19
-1 -11 -11 3172.98 72.29
-1 -11 11 3254.77 71.89
-1 11 11 3276.67 72.49
1 -11 -11 3295.87 72.39
1 -11 11 3350.46 72.19
1 11 11 3298.97 72.49
11 -11 -1 3206.18 72.69
11 -11 1 3299.57 72.79
11 -1 -11 3358.86 71.99
11 1 -11 3296.57 71.79
11 11 -1 3305.17 72.09
11 11 1 3309.17 72.19
-11 3 11 2511.45 55.59
-11 11 3 2532.65 56.09
-3 -11 11 2523.05 54.89
-3 11 11 2541.45 55.89
3 -11 -11 2462.45 55.69
3 -11 11 2549.15 55.69
3 11 11 2495.35 55.79
11 -11 -3 2535.85 55.99
11 -11 3 2454.45 55.99
11 -3 -11 2501.85 55.49
11 3 -11 2657.83 54.89
11 11 -3 2510.85 55.19
11 11 3 2482.55 55.49
-11 5 11 449.66 11.9
-11 11 5 427.26 12.2
-5 11 11 442.46 12
5 -11 -11 432.16 11.6
5 -11 11 453.35 12
5 11 11 451.45 11.7
11 -11 -5 457.15 12.1
11 -11 5 443.86 12.3
11 -5 -11 452.35 11.6
11 11 -5 453.55 10.8
11 11 5 459.75 11.6
-11 7 11 1916.81 43.8
-11 11 7 1905.41 44
-7 11 11 1905.91 43.9
7 -11 -11 2017.7 43.7
7 -11 11 2002.8 44
7 11 11 1970.3 43.6
11 -11 -7 1945.81 43.8
11 -11 7 1971.6 44.1
11 -7 -11 1909.71 43.6
11 11 -7 1978.8 42.7
11 11 7 1941.81 43.5
-11 9 11 2000.2 45.1
-11 11 9 2014.3 45.2
-9 11 11 1989.9 45.1
9 -11 -11 1929.31 44.8
9 -11 11 2136.29 45.3
9 11 11 1933.51 44.8
11 -11 -9 1992.1 45
11 -11 9 2057.99 45.4
11 -9 -11 1979.6 44.8
11 11 9 2005.5 44.7
-11 11 11 2194.38 48.1
11 -11 -11 2015.2 47.7
11 11 11 2193.98 47.7
0 -12 0 9318.47 197.98
0 0 12 9001.7 197.68
0 12 0 9084.19 198.08
-2 -12 0 399.26 9.8
-2 12 0 394.66 10.2
0 2 12 396.96 9.7
2 -12 0 400.66 10.1
2 12 0 397.66 10
-2 0 12 402.86 9.5
0 -12 -2 402.26 9.9
0 -12 2 400.46 9.9
0 12 -2 390.26 10.1
0 12 2 397.56 10.1
2 -12 2 134.99 4.9
2 2 12 138.79 4.6
2 12 -2 135.39 4.9
2 12 2 136.19 5.1
-2 12 2 133.99 5.3
2 -12 -2 133.29 4.9
-2 -12 -2 131.19 4.7
-2 -12 2 135.49 4.5
-2 2 12 138.49 4.5
-2 12 -2 136.29 5.2
-2 -2 12 136.69 4.1
12 0 -4 117.19 4.4
-4 0 12 100.19 3.8
0 -12 -4 101.09 4.4
0 -12 4 103.29 4.2
0 12 -4 114.49 4.3
0 12 4 110.49 4.5
0 4 12 95.69 4.2
4 12 0 101.59 4.4
-4 -12 0 107.49 4
-4 12 0 115.29 4.6
4 -12 0 103.39 4.6
-4 -2 12 61.49 2.4
-4 -12 -2 58.89 3.1
2 12 4 54.89 3.2
-2 4 12 60.89 3.1
2 -12 -4 61.09 3.3
4 -12 2 54.89 3.2
-2 -12 4 60.49 2.9
4 -2 -12 63.99 2.8
12 -4 -2 57.19 3.4
4 12 -2 60.29 3.1
-2 12 -4 62.99 3.6
-4 12 2 63.99 3.8
4 -12 -2 51.69 3.2
-4 -12 2 58.79 2.8
-2 12 4 51.09 3.3
2 -12 4 60.89 3.2
2 4 12 50.99 2.8
-2 -12 -4 50.99 3
-4 12 -2 57.99 3.5
12 -2 -4 61.79 3.5
2 12 -4 53.39 3.1
4 12 2 57.99 3.3
-4 2 12 67.19 3
4 4 12 13.1 2.3
-4 4 12 11.3 2.1
-4 -12 4 10.2 1.8
-4 -4 12 11.3 1.3
-4 -12 -4 8.6 2.1
-4 12 -4 12.8 2.7
-4 12 4 10.4 2.6
4 -12 -4 10.2 2.4
4 -12 4 11 2.6
4 -4 -12 11.5 2
4 12 -4 10.2 2.1
4 12 4 10.9 2.2
12 -4 -4 7.5 2.5
12 -6 0 720.23 17.5
-6 0 12 738.43 16.7
0 -12 -6 726.33 17.1
0 -12 6 735.93 16.9
6 -12 0 711.83 17.3
6 12 0 743.53 17
12 0 -6 732.43 17.1
6 0 -12 739.73 16.5
-6 12 0 725.53 17.5
0 12 -6 717.03 17.1
0 12 6 739.43 17.4
0 6 12 741.13 17.1
12 -6 -2 78.99 4.2
2 -12 -6 75.69 3.9
12 2 -6 85.89 3.6
6 -12 2 76.89 4.2
6 12 -2 69.99 3.3
-2 -12 6 75.19 3.2
2 12 6 79.49 3.9
-2 6 12 83.59 3.9
6 -2 -12 91.09 3.4
-6 -2 12 79.79 2.8
-6 12 2 71.19 4.2
2 -12 6 81.59 3.8
6 12 2 74.49 3.6
-6 2 12 83.29 3.5
12 -2 -6 80.79 3.8
-6 -12 2 76.59 3.2
-6 12 -2 82.69 4.2
-2 12 6 72.19 3.8
2 12 -6 78.49 3.5
2 -6 -12 85.89 3.7
2 6 12 67.19 3.4
6 -12 -2 74.59 3.8
-2 -12 -6 78.89 3.8
4 -12 -6 -0.4 2.2
12 -6 -4 0.3 2.6
-4 6 12 2.2 2.4
-6 12 4 3 2.7
4 12 6 1.1 2.2
-4 -12 6 0.8 1.6
6 -12 4 -0.4 2.4
6 12 -4 0.4 2
6 -4 -12 0.1 2
4 12 -6 0.2 2.1
-4 -12 -6 2.2 2.2
4 -12 6 1.5 2.4
12 -4 -6 2.1 2.5
-6 -12 4 0.4 1.7
-6 4 12 -1.4 2.1
6 12 4 0.6 2.3
6 -12 -4 -1.1 2.4
-4 12 6 2.7 2.6
4 6 12 0.5 2.2
4 -6 -12 1.1 2
6 6 12 52.39 3.3
12 -6 -6 58.19 4
6 12 -6 57.89 2.9
6 12 6 56.29 3.6
-6 -12 6 53.69 2.5
6 -12 6 54.89 3.7
6 -6 -12 54.49 3.2
6 -12 -6 59.79 3.8
-6 12 6 49.7 3.7
-6 6 12 53.29 3.5
0 8 12 3211.98 69.99
8 12 0 3162.18 69.79
8 -12 0 3172.28 70.29
-8 12 0 3111.99 70.39
0 -8 -12 3213.48 69.89
0 -12 8 3228.78 69.79
12 0 -8 3417.76 69.79
0 12 8 3106.79 70.09
8 0 -12 3211.48 69.49
-8 0 12 3247.18 69.59
0 -12 -8 3138.49 69.99
12 -8 0 3070.19 70.29
8 -12 2 909.01 21.5
-2 8 12 915.31 21.2
-8 12 2 884.41 21.6
-8 -2 12 987.8 20.5
12 -8 -2 907.11 21.5
8 12 -2 894.31 20.8
8 -2 -12 934.51 20.7
2 12 8 892.21 21.3
12 2 -8 910.81 20.8
2 -12 -8 916.31 21.2
-2 -12 8 911.31 20.6
8 2 -12 906.11 20.3
2 -12 8 897.01 21.1
2 8 12 859.81 21.1
-2 12 8 900.71 21.4
-8 2 12 930.61 20.9
12 -8 2 929.61 21.6
-2 -8 12 951.2 20.5
-2 -12 -8 890.01 21.1
8 12 2 910.21 21
2 -8 -12 912.71 21.1
8 -12 -2 897.81 21.4
12 -2 -8 969.1 21.1
4 -12 -8 156.88 5.7
-8 12 4 154.58 6.6
8 -12 4 150.38 6.5
4 12 8 148.49 5.9
8 -4 -12 160.18 5.4
12 -8 -4 156.98 6.3
-4 -12 8 159.18 4.6
8 12 -4 158.78 5.1
12 4 -8 151.68 5
-4 8 12 156.78 6.1
-4 12 8 145.49 6.2
-8 4 12 153.18 5.8
12 -8 4 152.98 5.9
4 12 -8 153.48 5
4 -12 8 154.68 6
12 -4 -8 157.38 5.9
4 -8 -12 157.48 5.6
4 8 12 152.08 5.7
8 -12 -4 151.48 6.1
8 12 4 157.18 5.7
6 12 8 2 2.4
6 -12 -8 0.6 2.6
-8 12 6 4 3.1
-6 8 12 2.8 2.8
8 12 -6 1.4 2
12 6 -8 3.1 1.9
12 -8 -6 3.5 2.8
8 -12 6 2.9 2.9
8 -6 -12 4.1 2.4
-12 6 8 4.6 2.9
8 12 6 1.9 2.5
-6 12 8 4.4 3
6 -12 8 1.1 2.9
6 12 -8 0.8 1.9
6 8 12 1.1 2.4
6 -8 -12 4.6 2.5
-8 6 12 2.7 2.6
12 -6 -8 5 2.8
8 -12 -6 1.5 2.7
-12 8 6 3.5 3
8 -8 -12 41.9 3.3
8 8 12 38.3 3.4
-12 8 8 40.3 3.8
8 -12 8 33 3.7
8 12 -8 39.1 2.4
8 12 8 34.2 3.2
8 -12 -8 43.6 3.7
-8 12 8 36.7 3.9
12 -8 -8 38.7 3.7
-8 8 12 40.5 3.6
0 -12 -10 3373.46 74.59
12 0 -10 3452.15 74.29
0 -10 -12 3339.27 74.59
0 -10 12 3394.06 74.29
0 10 12 3394.26 74.69
10 -12 0 3324.07 74.89
10 12 0 3445.86 74.39
12 -10 0 3401.46 74.99
-10 0 12 3424.16 74.29
0 12 10 3362.96 74.69
10 0 -12 3387.46 74.09
0 -12 10 3503.35 74.39
12 2 -10 2319.67 49.99
10 12 -2 2318.77 50.19
-10 12 2 2213.18 50.99
2 -12 -10 2276.57 50.59
-2 10 12 2291.67 50.69
2 12 10 2300.17 50.69
-2 -12 10 2288.17 49.99
12 -10 -2 2247.38 50.89
10 -12 2 2182.08 50.89
2 -10 12 2281.87 50.49
10 -2 -12 2327.77 50.19
10 12 2 2282.47 50.39
2 -12 10 2310.37 50.49
2 -10 -12 2258.07 50.49
12 -10 2 2270.87 50.99
-10 2 12 2322.37 50.39
-2 -12 -10 2278.17 50.49
10 -12 -2 2252.87 50.89
-2 12 10 2248.88 50.79
-2 -10 12 2365.66 49.9
10 2 -12 2349.06 49.8
12 -2 -10 2325.97 50.39
12 10 -2 2266.47 50.19
2 10 12 2198.68 50.59
10 12 -4 625.94 14.8
10 -12 4 613.04 15.9
12 4 -10 664.93 14.5
-4 -12 10 649.04 14.4
-12 4 10 637.34 15.6
-10 12 4 630.24 16
-4 10 12 647.94 15.7
12 -10 -4 634.54 15.9
4 12 10 625.54 15.5
10 -4 -12 641.84 15.2
4 -12 -10 600.74 15.4
12 -4 -10 635.24 15.3
4 10 12 633.94 15.5
10 12 4 638.64 15.3
-4 12 10 631.94 15.7
4 -12 10 673.03 15.6
-12 10 4 599.54 16
-10 4 12 614.04 15.4
4 -10 -12 628.04 15.4
12 -10 4 640.84 16.1
12 10 -4 630.94 14.7
10 -12 -4 639.64 15.8
10 12 -6 368.16 9.1
10 -6 -12 364.36 9.9
10 -12 6 353.76 10.7
-12 6 10 361.16 10.5
6 12 10 360.96 10.1
-6 10 12 381.76 10.4
6 -12 -10 354.86 10.1
-10 12 6 371.26 10.8
12 -10 -6 381.46 10.5
12 -10 6 370.76 11
10 12 6 359.96 10
-10 6 12 361.36 10.4
-6 12 10 348.57 10.5
-12 10 6 358.36 10.7
6 -12 10 375.76 10.5
12 -6 -10 372.16 10.2
6 -10 -12 363.86 10
6 10 12 360.56 10
10 -12 -6 360.86 10.4
12 10 -6 375.26 9
8 -12 -10 1225.38 29.3
-12 8 10 1294.57 29.7
-10 12 8 1282.17 29.7
-8 10 12 1280.97 29.6
10 -8 -12 1274.97 29.3
12 -10 -8 1286.37 29.5
8 12 10 1236.78 29.3
10 -12 8 1322.97 29.8
10 12 -8 1290.67 28.3
10 -12 -8 1245.98 29.5
-12 10 8 1282.67 29.7
-10 8 12 1294.47 29.6
-8 12 10 1236.08 29.6
12 -8 -10 1284.17 29.4
8 -12 10 1346.57 29.7
10 12 8 1250.87 29.3
8 -10 -12 1287.27 29.3
8 10 12 1281.07 29.3
12 -10 8 1341.27 30
-12 10 10 1532.85 36
-10 10 12 1561.14 35.9
-10 12 10 1562.34 36
10 -12 -10 1526.35 35.7
10 -12 10 1568.24 36.1
10 -10 -12 1532.55 35.6
10 10 12 1573.24 35.6
10 12 10 1646.54 35.7
12 -10 -10 1564.64 35.7
12 10 10 1631.54 35.6
0 -12 -12 3878.71 87.79
0 -12 12 4140.39 87.59
0 12 12 4094.09 88.09
12 -12 0 3953.4 88.29
12 0 -12 4071.49 87.39
12 12 0 3928.81 87.59
-12 2 12 1463.05 32.9
-2 -12 12 1442.66 32.3
-2 12 12 1445.06 33.2
2 -12 -12 1444.46 33
2 -12 12 1501.65 32.9
2 12 12 1464.05 33.1
12 -12 -2 1442.76 33.4
12 -12 2 1437.76 33.4
12 -2 -12 1450.85 32.6
12 2 -12 1502.45 32.2
12 12 -2 1427.66 32.5
12 12 2 1457.15 32.8
-12 4 12 623.94 15.3
-12 12 4 595.14 15.8
-4 12 12 612.24 15.5
4 -12 -12 606.54 15.2
4 -12 12 654.23 15.4
4 12 12 621.34 15.3
12 -12 -4 588.14 15.6
12 -12 4 597.64 15.8
12 -4 -12 606.14 14.9
12 12 -4 628.04 14.5
12 12 4 594.54 15
-12 6 12 816.42 19.7
-12 12 6 797.72 20
-6 12 12 798.62 19.8
6 -12 -12 827.82 19.5
6 -12 12 793.82 19.8
6 12 12 820.72 19.5
12 -12 -6 818.02 19.8
12 -12 6 829.52 20.1
12 -6 -12 832.22 19.4
12 12 -6 816.62 18.6
12 12 6 795.12 19.4
-12 8 12 1087.69 25.9
-12 12 8 1067.19 26.1
-8 12 12 1080.29 25.9
8 -12 -12 1116.39 25.6
8 -12 12 1105.69 26.1
8 12 12 1090.29 25.6
12 -12 -8 1061.19 25.8
12 -12 8 1104.59 26.2
12 -8 -12 1115.49 25.6
12 12 -8 1130.59 24.4
12 12 8 1104.19 25.5
-12 10 12 1228.88 29.2
-12 12 10 1258.17 29.4
-10 12 12 1248.48 29.3
10 -12 -12 1239.18 28.9
10 -12 12 1258.97 29.5
10 12 12 1248.08 28.8
12 -12 -10 1204.18 29
12 -12 10 1240.38 29.5
12 -10 -12 1245.18 28.8
12 10 12 1256.67 28.8
12 12 10 1269.57 28.8
-12 12 12 1217.08 28.9
12 -12 -12 1210.78 28.4
12 -12 12 1173.48 29
12 12 12 1253.67 28.4
-1 -13 -1 3643.74 78.99
-1 -13 1 3621.44 78.89
-1 -1 13 3624.64 78.69
-1 1 13 3599.94 78.79
-1 13 -1 3524.55 79.09
-1 13 1 3631.14 79.19
1 -13 -1 3632.64 79.09
1 -13 1 3617.04 78.99
1 1 13 3683.43 78.79
1 13 -1 3608.64 79.09
1 13 1 3576.54 79.09
-3 -13 -1 30.7 2.6
-1 13 -3 37.5 3.1
-1 -13 3 33.8 2.6
-3 13 1 38.3 3.3
-1 3 13 37.6 2.6
-3 -1 13 35.6 2.2
1 -13 -3 32.9 2.7
3 -13 1 35.2 2.9
3 13 -1 34.5 2.7
1 13 3 35.5 3
3 -13 -1 34 3
1 -13 3 33.7 2.8
1 13 -3 35.3 2.9
-3 -13 1 40.8 2.7
3 13 1 34 2.9
-1 13 3 31.6 3
1 3 13 33.3 2.7
-3 1 13 35.5 2.4
-1 -13 -3 35 2.6
-3 13 -1 31.6 3.1
-3 -13 -3 656.63 15.6
-3 -13 3 645.34 15.3
3 3 13 664.83 15.6
3 13 -3 682.83 15.6
3 13 3 657.43 15.8
13 -3 -3 666.13 16
-3 -3 13 640.34 14.9
-3 3 13 672.53 15.5
-3 13 -3 649.04 16
-3 13 3 654.53 16
3 -13 -3 669.83 15.8
3 -13 3 681.53 15.8
-5 -13 -1 53.19 3
13 1 -5 60.79 3.5
-5 -1 13 59.59 2.7
-5 13 1 54.29 3.7
5 -13 1 47 3.3
-1 -13 5 55.09 3.1
-1 13 -5 57.69 3.6
-1 5 13 58.89 3.3
1 -13 -5 53.79 3.5
1 13 5 57.29 3.6
13 -5 -1 55.49 3.9
5 13 -1 59.69 3.3
1 13 -5 60.09 3.4
13 -1 -5 54.39 3.4
-5 -13 1 59.49 3
-5 13 -1 54.09 3.8
-5 1 13 62.79 3
5 -13 -1 60.69 3.6
5 13 1 54.99 3.3
-1 -13 -5 57.59 3.3
1 -13 5 56.49 3.3
1 5 13 62.49 3.4
-1 13 5 48.8 3.5
5 -3 -13 506.25 12.2
-3 5 13 497.05 12.5
5 -13 3 503.55 12.8
13 -5 -3 515.05 13
-5 13 3 521.25 13.1
-5 -13 -3 514.85 12.3
3 13 5 512.65 12.7
-5 -3 13 518.05 11.6
3 -13 -5 514.75 12.7
5 13 -3 503.95 12.3
-3 -13 5 492.95 12
-3 13 -5 503.05 12.8
-5 3 13 501.95 12.4
3 13 -5 522.05 12.4
-3 13 5 503.95 12.9
-3 -5 13 518.85 11.5
13 -3 -5 518.95 12.8
3 -5 -13 506.25 12.3
3 5 13 495.45 12.4
5 13 3 502.45 12.5
3 -13 5 512.05 12.6
-3 -13 -5 511.45 12.5
-5 13 -3 508.35 13
5 -13 -3 493.55 12.7
-5 -13 3 507.35 12
-5 5 13 134.29 5.5
5 13 5 141.99 5.5
5 -5 -13 132.39 5.1
5 5 13 141.89 5.4
5 13 -5 132.09 5
-5 13 5 148.49 5.8
5 -13 -5 139.59 5.7
-5 -13 5 134.39 4.5
-5 -13 -5 135.99 5.3
13 -5 -5 152.38 5.8
5 -13 5 137.19 5.9
1 -13 -7 564.84 14.1
1 13 7 580.34 14.3
7 -1 -13 589.04 13.5
-7 13 1 566.64 14.6
-7 -1 13 637.24 13.5
7 13 -1 587.34 13.9
13 -7 -1 571.44 14.6
-1 7 13 579.94 14.1
13 1 -7 579.74 13.9
7 -13 1 574.14 14.4
-1 -13 7 565.84 13.7
7 -13 -1 569.54 14.4
1 -7 -13 576.24 13.9
1 13 -7 592.34 14
13 -7 1 585.54 14.7
-7 13 -1 570.24 14.6
1 -13 7 573.44 13.9
13 -1 -7 578.14 14
-1 13 7 568.54 14.4
1 7 13 576.84 14
7 13 1 554.94 13.9
-7 1 13 578.64 13.7
-1 -13 -7 583.24 14.1
7 -3 -13 180.38 5.6
-3 -13 7 183.78 5.4
3 -13 -7 176.28 6.2
7 -13 3 164.18 6.6
-7 13 3 181.38 6.9
13 -7 -3 170.68 6.7
-3 7 13 166.28 6.2
7 13 -3 176.28 5.7
3 13 7 180.58 6.3
13 3 -7 167.68 5.7
3 -7 -13 162.88 5.9
13 -3 -7 181.88 6.4
13 -7 3 169.88 7.1
-3 13 7 176.48 6.7
7 13 3 173.78 6.1
3 7 13 159.88 6
7 -13 -3 170.88 6.5
3 -13 7 174.88 6.3
-7 3 13 181.38 6
-3 -13 -7 183.88 6.1
3 13 -7 174.48 5.8
-5 -13 7 347.47 8.5
5 -13 -7 337.37 9.6
-5 7 13 352.86 9.6
-7 13 5 346.07 10.2
7 -5 -13 348.87 9.2
7 13 -5 350.66 8.9
5 13 7 361.26 9.6
7 -13 5 351.26 10
13 -7 -5 353.16 10
7 -13 -5 345.27 9.8
5 -13 7 337.17 9.8
5 13 -7 350.06 8.9
5 7 13 336.17 9.4
-7 5 13 348.87 9.5
-5 13 7 348.87 10
13 -5 -7 364.56 9.8
5 -7 -13 345.87 9.3
7 13 5 343.07 9.4
7 13 -7 683.23 15.7
-7 7 13 676.03 16.5
-7 13 7 653.23 16.8
7 -13 -7 691.63 16.5
7 13 7 662.13 16.4
13 -7 -7 668.03 16.6
7 -7 -13 684.83 16.2
7 7 13 683.43 16.3
7 -13 7 682.63 16.7
1 13 9 2170.88 50.39
9 -1 -13 2370.36 49.8
-1 -13 9 2343.37 49.9
-9 -1 13 2258.87 49.7
13 1 -9 2266.77 49.9
1 -13 -9 2248.38 50.29
9 13 -1 2261.17 49.99
9 -13 1 2301.87 50.59
13 -9 -1 2271.07 50.69
-1 9 13 2246.38 50.29
-9 13 1 2225.78 50.69
-9 13 -1 2318.17 50.69
-1 13 9 2235.78 50.49
-9 1 13 2318.17 49.99
-1 -13 -9 2176.68 50.19
9 13 1 2311.37 50.09
13 -1 -9 2324.27 50.09
1 -13 9 2132.09 49.99
9 -13 -1 2204.18 50.49
9 1 -13 2354.46 49.6
1 9 13 2271.37 50.29
1 -9 -13 2230.18 50.19
13 -9 1 2277.17 50.69
-1 -9 13 2294.17 49.8
-3 9 13 135.19 5.4
3 -13 -9 127.49 5.2
13 3 -9 111.69 4.9
-3 -13 9 118.19 4.5
9 13 -3 117.69 5
3 13 9 138.19 5.6
9 -13 3 123.99 5.4
13 -9 -3 142.79 6
-9 13 3 134.29 6
9 -3 -13 122.99 5
3 -9 -13 122.69 5.4
13 -3 -9 143.19 5.2
-3 13 9 126.89 5.5
-3 -13 -9 141.19 5.2
-9 3 13 130.19 5.1
9 13 3 126.89 5.5
3 -13 9 134.99 5.4
9 -13 -3 116.89 5.2
3 9 13 122.69 4.9
13 -9 3 130.89 5.9
5 13 9 6.2 2.9
9 -13 5 6.9 3.3
-5 -13 9 3.5 1.7
13 -9 -5 3.4 3.2
5 -13 -9 5.5 2.7
9 -5 -13 4.2 2.4
-5 9 13 6.1 3
-9 13 5 6.1 3.3
13 5 -9 4.5 2.2
9 13 -5 2.7 2.3
9 13 5 1.2 2.6
5 -9 -13 2.8 2.6
5 9 13 3.5 2.6
5 -13 9 3.5 3.1
-9 5 13 3.7 2.9
13 -9 5 2.7 3.4
13 -5 -9 3.5 2.8
9 -13 -5 3.7 3
-5 13 9 6.2 3.2
7 -13 -9 10.2 3.1
7 13 9 11.7 3.1
9 -7 -13 10.1 3
-7 9 13 11.3 3.3
9 -13 7 10.9 3.6
13 -9 -7 8.1 3.3
-13 7 9 10.4 3.6
-9 13 7 8.5 3.5
9 13 -7 11.9 2.4
-7 13 9 13.8 3.6
-9 7 13 9.6 3.4
13 9 -7 9.5 2.1
7 -13 9 6.5 3.4
7 9 13 14.6 3.2
9 -13 -7 7.9 3.3
13 -7 -9 9.4 3.2
9 13 7 7.9 2.8
7 -9 -13 8.9 2.9
-13 9 7 6 3.6
7 13 -9 10.9 2.2
9 -13 -9 548.55 14.8
9 -9 -13 583.14 14.6
-13 9 9 572.94 15.2
-9 9 13 581.84 15.1
-9 13 9 587.24 15.4
9 9 13 611.24 14.7
13 -9 -9 592.84 15
9 13 9 563.34 14.7
9 -13 9 609.04 15.4
13 -11 -1 2139.29 47.8
-1 -13 11 2123.89 46.9
1 13 11 2075.79 47.5
11 13 -1 2168.78 47.1
1 -13 -11 2152.98 47.4
13 11 1 2168.18 47.2
-1 11 13 2125.99 47.5
13 1 -11 2177.58 46.9
11 -1 -13 2111.89 46.9
1 -11 13 2100.09 47.1
11 -13 1 2144.29 47.8
11 -13 -1 2108.99 47.8
13 -1 -11 2156.88 47.1
13 -11 1 2100.49 47.8
11 13 1 2147.59 47.2
11 1 -13 2191.98 46.7
-1 -11 13 2174.48 46.9
1 -11 -13 2101.69 47.3
1 -13 11 2062.19 47.1
13 11 -1 2158.58 47.1
-11 1 13 2079.29 47.1
1 11 13 2099.99 47.5
-1 -13 -11 2142.79 47.4
-1 13 11 2087.29 47.6
3 -13 -11 342.27 9.7
3 13 11 335.47 9.8
13 3 -11 354.56 8.7
-11 13 3 340.57 10.6
13 11 3 348.87 9.5
-3 11 13 329.57 10
13 -11 -3 350.86 10.4
3 -11 13 358.26 10
11 -13 3 339.87 10.4
11 13 -3 339.67 9.1
-3 -13 11 349.77 8.7
11 -3 -13 342.67 9.3
3 -11 -13 334.87 9.6
3 -13 11 346.77 9.8
13 -11 3 332.97 10.5
13 11 -3 350.56 9.1
-3 -11 13 336.57 8.4
11 13 3 342.87 9.5
13 -3 -11 347.07 9.6
-11 3 13 335.77 9.8
3 11 13 336.47 9.8
-3 13 11 338.87 10.2
11 -13 -3 340.67 10.2
13 11 5 115.39 5.2
5 -11 13 102.49 5.4
13 -11 -5 127.69 6
5 -13 -11 116.39 5.3
11 13 -5 128.39 4.6
11 -5 -13 123.59 5.1
-13 5 11 123.99 5.6
-11 13 5 109.89 5.8
-5 11 13 118.49 5.7
5 13 11 99.59 5
11 -13 5 101.59 5.6
13 11 -5 118.69 4.4
11 -13 -5 106.59 5.2
5 -13 11 122.49 5.5
-5 13 11 125.49 5.8
-13 11 5 106.59 5.8
13 -5 -11 115.79 5.2
13 -11 5 101.89 5.6
5 -11 -13 121.19 5.2
5 11 13 102.19 5.1
-11 5 13 115.89 5.4
11 13 5 110.09 4.9
-7 11 13 354.36 10.8
11 13 -7 368.56 9.4
11 -7 -13 366.06 10.3
7 -13 -11 363.56 10.4
-13 7 11 353.66 10.9
-11 13 7 373.16 11.3
13 11 7 358.46 10.3
7 13 11 363.86 10.5
11 -13 7 366.46 11.3
13 -11 -7 375.36 10.9
-11 7 13 368.96 10.8
-7 13 11 358.56 10.9
11 13 7 365.76 10.4
13 -7 -11 373.06 10.6
7 11 13 373.46 10.4
13 -11 7 356.56 11.4
13 11 -7 379.46 9.2
7 -13 11 370.36 11
11 -13 -7 346.57 10.8
-13 11 7 350.26 11.2
7 -11 -13 360.76 10.4
11 -13 9 684.33 17.9
9 -13 -11 695.63 17.3
9 13 11 685.33 17.2
11 9 13 703.83 17.2
11 -9 -13 708.33 17.2
-9 11 13 676.73 17.7
-13 9 11 704.43 17.8
-11 13 9 691.63 17.9
13 11 9 717.03 17.2
13 -11 -9 680.63 17.5
-11 9 13 698.73 17.7
-9 13 11 712.13 17.9
11 13 9 686.93 17.2
9 -13 11 685.23 17.8
13 -9 -11 683.93 17.4
9 11 13 714.63 17.3
11 -13 -9 701.43 17.5
-13 11 9 678.93 17.9
13 -11 9 697.43 18.1
9 -11 -13 695.43 17.2
-13 11 11 753.12 18.9
-11 11 13 728.83 18.8
-11 13 11 742.03 18.9
11 -13 -11 713.43 18.3
11 -13 11 711.13 18.9
11 -11 -13 716.63 18.2
11 11 13 753.92 18.2
11 13 11 731.43 18.2
13 -11 -11 746.43 18.5
13 11 11 751.62 18.2
-1 -13 -13 1907.41 43.4
-1 -13 13 1928.51 42.9
-1 13 13 1971.7 43.7
1 -13 -13 1897.41 43.4
1 -13 13 1903.01 43.2
1 13 13 1953.9 43.7
13 -13 -1 1894.91 43.9
13 -13 1 1919.01 43.9
13 -1 -13 2050.99 43
13 1 -13 1980.2 42.8
13 13 -1 1925.81 43.1
13 13 1 1929.71 43.2
-13 3 13 4.5 3.6
-3 -13 13 5.6 2.3
-3 13 13 5 3.7
3 -13 -13 3.4 3.1
3 -13 13 5.4 3.6
3 13 13 1.9 3.3
13 -13 -3 3.7 3.8
13 -13 3 3.4 3.7
13 -3 -13 3.6 3
13 3 -13 3.1 2.2
13 13 -3 4 2.9
13 13 3 6.5 3.3
-13 5 13 43.7 4.4
-13 13 5 41 4.8
-5 13 13 38.4 4.2
5 -13 -13 45.1 4.2
5 -13 13 45.2 4.6
5 13 13 41.2 4.2
13 -13 -5 45.5 4.4
13 -13 5 44.8 4.9
13 -5 -13 45.4 3.9
13 13 -5 46.7 3.4
13 13 5 36.1 4
-13 7 13 77.99 5.5
-13 13 7 73.19 5.2
-7 13 13 77.19 5.3
7 -13 -13 81.39 5
7 -13 13 86.49 5.6
7 13 13 61.19 4.3
13 -13 -7 66.69 4.9
13 -13 7 68.79 5.3
13 -7 -13 77.19 4.8
13 13 -7 76.69 3.7
13 13 7 71.19 4.7
-13 9 13 374.36 11.8
-13 13 9 359.06 11.8
-9 13 13 362.36 11.7
9 -13 -13 367.66 10.8
9 -13 13 360.36 11.8
9 13 13 365.96 11
13 -13 -9 362.66 11.3
13 -13 9 358.76 12
13 -9 -13 370.76 11
13 13 9 363.86 11
-13 11 13 328.17 11.4
-13 13 11 335.07 11.6
-11 13 13 338.17 11.7
11 -13 -13 305.47 10.4
11 -13 13 328.57 11.8
11 13 13 326.77 10.5
13 -13 -11 331.37 10.9
13 -13 11 319.87 11.7
13 -11 -13 324.27 10.6
13 11 13 329.07 10.5
13 13 11 327.77 10.6
-13 13 13 594.74 16.7
13 -13 -13 601.24 16.1
13 -13 13 612.54 17.1
13 13 13 589.14 16
0 -14 0 8389.76 180.08
0 0 14 8332.67 179.78
0 14 0 8175.08 180.18
-2 -14 0 942.21 21.2
-2 14 0 932.41 21.6
0 2 14 912.81 21.1
2 -14 0 923.31 21.4
2 14 0 951.9 21.4
0 -14 2 915.41 21.2
0 14 -2 889.11 21.4
0 14 2 918.11 21.5
0 -14 -2 911.61 21.2
-2 0 14 950.1 20.9
-2 -14 2 314.37 8.3
2 14 2 306.47 8.8
-2 14 -2 313.47 9
-2 14 2 303.17 8.9
2 -14 -2 313.27 8.7
-2 -14 -2 307.87 8.4
-2 -2 14 325.67 7.8
-2 2 14 321.37 8.2
2 -14 2 308.87 8.7
2 2 14 304.87 8.3
2 14 -2 299.07 8.6
0 14 -4 352.26 9.4
0 14 4 340.17 9.5
0 -14 -4 349.37 9.2
0 -14 4 345.87 9.1
4 -14 0 331.07 9.4
4 14 0 351.16 9.3
-4 -14 0 339.97 8.9
0 4 14 335.07 9
-4 0 14 350.16 8.7
-4 14 0 329.87 9.7
-2 4 14 1132.89 25.1
2 14 4 1102.99 25.4
14 -4 -2 1129.09 25.6
4 14 -2 1090.09 25.1
2 -14 -4 1125.89 25.3
-4 -2 14 1091.89 24.5
4 -14 2 1114.39 25.4
-2 14 -4 1071.29 25.4
-2 -14 4 1115.49 24.9
-4 14 2 1094.59 25.6
-4 -14 -2 1094.69 25.1
-4 -14 2 1114.09 24.9
-2 -4 14 1061.89 24.5
2 14 -4 1128.09 25.2
2 4 14 1099.29 25.1
4 -14 -2 1100.89 25.4
-4 2 14 1101.59 24.9
-2 -14 -4 1105.49 25.2
-4 14 -2 1103.59 25.5
-2 14 4 1097.99 25.5
4 14 2 1115.69 25.3
14 -2 -4 1113.69 25.4
2 -14 4 1104.09 25.2
4 -14 4 2844.32 63.29
4 -4 -14 2915.51 62.99
4 4 14 2892.11 63.19
4 14 -4 2893.51 63.09
-4 4 14 2863.11 63.09
-4 14 -4 2923.91 63.49
-4 14 4 2817.52 63.49
-4 -14 4 2918.21 62.89
-4 -4 14 2904.01 62.49
-4 -14 -4 2852.71 63.19
4 -14 -4 2804.32 63.29
14 -4 -4 2874.01 63.49
4 14 4 2867.11 63.29
0 14 6 55.19 3.7
0 14 -6 45 3.4
14 -6 0 49.2 4.1
0 -14 6 46.4 3.3
14 0 -6 48.2 3.5
6 -14 0 45.4 3.4
6 14 0 43.8 3.2
-6 -14 0 50.09 3.1
-6 14 0 49.3 4
0 6 14 50.99 3.4
0 -14 -6 42.5 3.1
-6 0 14 48.9 2.9
2 -14 -6 129.69 5.6
-6 -2 14 139.29 4.5
-6 -14 -2 130.89 5.2
-2 -14 6 140.89 5
-2 14 -6 157.18 5.9
14 -6 -2 155.98 5.9
6 14 -2 130.09 5.4
-6 14 2 140.29 5.6
-2 6 14 137.99 5.6
2 14 6 137.39 5.9
6 -14 2 135.19 5.9
6 -2 -14 137.99 4.8
14 2 -6 141.29 5.7
-6 14 -2 135.89 5.6
2 -14 6 135.19 5.6
2 14 -6 134.99 5.6
-6 2 14 141.79 5.3
-2 -14 -6 130.09 5.5
6 14 2 134.59 5.6
14 -2 -6 135.89 6
-2 14 6 147.39 5.9
2 6 14 137.29 5.4
-6 -14 2 132.99 4.9
6 -14 -2 143.59 5.6
4 14 6 2108.49 46.7
6 -4 -14 2138.79 46.3
14 -6 -4 2134.69 46.9
-6 14 4 2105.59 47
6 14 -4 2126.29 46.3
6 -14 4 2122.89 46.8
-4 -14 6 2117.89 46.1
4 -14 -6 2064.79 46.7
-4 6 14 2076.19 46.6
6 -14 -4 2095.99 46.8
-6 -14 4 2044.8 46.1
-6 4 14 2090.89 46.5
6 14 4 2093.29 46.6
4 -6 -14 2132.09 46.4
4 -14 6 2037.3 46.7
4 14 -6 2063.09 46.3
14 -4 -6 2131.59 46.8
-4 -14 -6 2028.9 46.5
4 6 14 2159.68 46.6
-4 14 6 2088.09 46.9
-6 6 14 1737.13 38.4
6 -6 -14 1726.33 38.2
6 6 14 1682.93 38.3
-6 14 6 1707.73 38.8
6 -14 -6 1712.03 38.6
6 -14 6 1713.03 38.7
6 14 -6 1670.33 38
6 14 6 1696.73 38.4
-6 -14 6 1674.93 37.7
14 -6 -6 1831.42 38.7
-8 14 0 1144.09 27.2
14 -8 0 1180.28 27.3
8 14 0 1175.98 26.6
14 0 -8 1197.88 26.7
0 -14 -8 1131.49 26.8
0 -14 8 1180.48 26.5
0 14 8 1151.48 27
8 0 -14 1174.88 26.1
0 8 14 1169.18 26.8
-8 0 14 1198.18 26.3
8 -14 0 1179.28 27.1
-2 -14 8 78.69 3.7
-8 -2 14 88.19 3.4
8 14 -2 74.49 4
8 -2 -14 82.69 3.7
14 -8 -2 74.09 4.7
2 14 8 81.59 4.5
2 -14 -8 83.99 4.4
-2 8 14 77.49 4.3
14 2 -8 79.79 4
-8 14 2 88.19 5.1
8 -14 2 70.39 4.3
8 -14 -2 83.09 4.6
-2 -14 -8 82.49 4.4
2 -8 -14 78.59 4
14 -2 -8 85.59 4.4
8 14 2 74.19 4
-8 14 -2 74.59 4.7
2 8 14 76.89 4.2
-8 2 14 85.89 4
2 14 -8 75.89 4
2 -14 8 78.39 4.2
14 -8 2 80.49 4.9
-2 14 8 76.39 4.5
8 -4 -14 805.52 18.8
4 14 8 804.52 19.3
8 14 -4 803.52 18.8
8 -14 4 787.62 19.5
-8 14 4 777.32 19.7
14 -8 -4 827.12 19.6
4 -14 -8 806.42 19.2
-4 8 14 807.82 19.3
14 4 -8 861.81 18.7
-4 -14 8 803.82 18.4
-4 -14 -8 793.42 19.1
-8 4 14 813.42 19.1
-4 14 8 809.32 19.6
8 14 4 793.82 19.1
4 -14 8 797.12 19.3
4 14 -8 855.91 18.8
14 -8 4 769.92 19.8
4 -8 -14 804.02 19
4 8 14 797.22 19.2
8 -14 -4 840.52 19.5
14 -4 -8 833.32 19.4
14 6 -8 1059.99 24.2
6 -14 -8 1092.89 25
8 -14 6 1061.29 25.2
8 14 -6 1073.19 24.2
6 14 8 1052.89 24.9
-8 14 6 1022.8 25.2
-6 -14 8 1038.7 23.9
14 -8 -6 1110.89 25.2
-6 8 14 1095.49 24.9
8 -6 -14 1081.79 24.6
6 -8 -14 1048.8 24.7
6 14 -8 1087.69 24.2
6 8 14 1104.89 24.8
8 -14 -6 1096.49 25.1
6 -14 8 1084.89 25.1
-6 14 8 1045.7 25.2
-8 6 14 1060.89 24.9
8 14 6 1077.99 24.8
14 -6 -8 1077.79 25
8 -14 8 364.96 10.8
14 -8 -8 351.36 10.5
8 8 14 352.66 10.1
8 14 -8 359.26 9.2
8 14 8 338.97 10.1
-8 14 8 347.97 10.9
-14 8 8 352.26 10.8
-8 8 14 362.76 10.5
8 -14 -8 351.66 10.3
8 -8 -14 359.56 10
0 -14 -10 1624.24 37
0 -14 10 1639.34 36.7
0 14 10 1566.74 37.2
10 0 -14 1704.03 36.3
14 -10 0 1629.54 37.5
0 -10 14 1641.64 36.6
0 10 14 1593.84 37.1
-10 0 14 1684.63 36.6
10 -14 0 1639.44 37.4
-10 14 0 1602.44 37.5
14 0 -10 1728.43 36.7
10 14 0 1661.33 36.8
10 -14 2 729.63 18.3
10 -2 -14 747.73 17.3
14 2 -10 763.32 17.3
-2 10 14 722.83 18
2 -14 -10 716.73 17.8
10 14 -2 717.73 17.4
2 14 10 751.72 18.1
-2 -14 10 749.73 17.2
-10 14 2 715.73 18.4
14 -10 -2 744.73 18.4
2 -10 -14 732.73 17.7
-2 -14 -10 761.62 17.8
10 2 -14 732.83 16.7
10 -14 -2 736.43 18.2
14 -10 2 736.63 18.5
-10 2 14 726.83 17.6
-2 14 10 754.42 18.2
14 -2 -10 750.12 17.7
2 -14 10 748.53 17.7
10 14 2 742.33 17.7
2 10 14 715.53 17.8
-2 -10 14 760.72 17
14 -10 -4 79.99 4.9
10 -14 4 89.69 5.2
4 14 10 87.09 4.8
10 -4 -14 80.09 4.1
-10 14 4 80.49 5.2
-4 -14 10 89.29 3.5
14 4 -10 81.99 3.7
4 -14 -10 80.69 4.5
10 14 -4 88.89 4.1
-4 10 14 87.49 4.8
-10 4 14 93.09 4.7
10 14 4 74.39 4.3
14 -10 4 89.59 5.5
4 -10 -14 96.59 4.7
4 10 14 80.19 4.7
10 -14 -4 83.39 5
14 -4 -10 89.39 4.7
4 -14 10 79.69 4.7
-4 14 10 88.99 5.1
10 -14 6 93.39 5.3
6 14 10 92.39 5.1
-10 14 6 81.79 5.1
14 -10 -6 89.59 5.2
-6 -14 10 85.59 3.3
14 6 -10 101.09 3.7
-6 10 14 92.99 5.2
10 14 -6 96.69 4.2
6 -14 -10 96.19 5
10 -6 -14 91.09 4.5
-14 6 10 99.29 5.5
14 -6 -10 87.09 4.8
6 -14 10 100.39 5.4
6 -10 -14 89.39 4.5
6 10 14 88.29 4.7
-6 14 10 101.29 5.5
10 -14 -6 94.39 5.3
14 -10 6 83.69 5.5
-10 6 14 88.99 5
10 14 6 91.49 4.9
14 10 -6 95.69 3.9
14 -10 -8 131.19 6.2
10 8 14 124.19 5.6
10 14 -8 114.79 4.4
-10 14 8 127.39 6.4
10 -8 -14 131.59 5.6
8 14 10 113.59 5.3
-14 8 10 129.89 6.4
-8 10 14 112.79 5.9
8 -14 -10 118.09 5.8
10 -14 8 113.09 5.9
-8 14 10 126.49 6.3
14 10 -8 111.29 4.6
-14 10 8 113.69 5.9
10 -14 -8 117.09 5.6
-10 8 14 128.69 6
8 -14 10 125.69 6.3
14 -8 -10 119.29 5.7
8 10 14 133.89 6
14 -10 8 121.19 6.5
8 -10 -14 116.89 5.4
10 14 8 119.59 5.4
14 -10 -10 412.06 12.1
10 -10 -14 427.66 11.7
-14 10 10 384.86 12.5
-10 10 14 411.66 12.4
10 -14 -10 411.06 11.9
10 -14 10 424.06 12.7
10 14 10 450.05 11.9
10 10 14 423.76 11.8
-10 14 10 423.26 12.7
12 14 0 1517.35 33.3
12 -14 0 1469.35 33.9
0 12 14 1442.36 33.6
14 12 0 1465.95 33.2
0 14 12 1450.55 33.7
14 0 -12 1487.25 33
0 -12 -14 1431.66 33.4
0 -14 -12 1415.36 33.4
0 -12 14 1509.15 33.1
14 -12 0 1436.66 34
0 -14 12 1505.45 33.1
12 0 -14 1531.25 32.8
2 14 12 172.68 6.7
12 14 -2 169.98 6.4
12 -14 2 199.78 7.7
2 -12 14 157.98 7.1
12 -2 -14 171.78 6.4
14 12 2 164.48 6.7
2 -14 -12 164.28 7
14 2 -12 175.58 6.1
-2 -14 12 171.68 6
-2 12 14 175.78 6.6
-12 14 2 197.38 8
14 -12 -2 150.98 6.5
-2 -14 -12 162.28 6.9
2 -14 12 169.88 7.1
2 -12 -14 162.78 6.9
14 12 -2 169.38 6.4
14 -12 2 203.58 7.8
12 2 -14 176.08 5.5
14 -2 -12 171.08 6.8
2 12 14 169.58 7.2
12 -14 -2 201.28 7.6
-2 -12 14 160.28 5.9
-2 14 12 182.98 6.9
12 14 2 169.28 6.8
-12 2 14 166.98 7
14 12 4 164.68 7
4 -14 -12 166.28 7.1
-4 -14 12 168.78 5.4
4 -12 14 180.28 6.9
14 4 -12 169.78 5.6
14 -12 -4 207.98 7.8
-12 14 4 178.58 7.4
-4 12 14 185.48 7.1
12 -4 -14 166.08 6.7
12 -14 4 173.18 7.1
12 14 -4 165.38 6.3
4 14 12 164.48 7.3
-12 4 14 191.28 6.9
4 -14 12 184.98 6.8
4 12 14 158.68 6.3
12 14 4 166.68 6.9
14 12 -4 169.48 6.3
12 -14 -4 176.18 7.2
4 -12 -14 162.08 7
14 -4 -12 166.88 7.1
14 -12 4 159.58 6.9
-4 14 12 198.68 7.3
12 -14 6 29.3 4.5
14 12 6 35.3 3.9
12 14 -6 37.3 3.3
-6 12 14 29.5 4.2
12 -6 -14 34.9 3.8
-12 14 6 36.2 4.6
6 -12 14 32.5 4.6
6 -14 -12 37.1 4.1
-14 6 12 30.8 4.5
6 14 12 29.4 4
14 -12 -6 37.2 4.4
12 14 6 35.6 4
-6 14 12 31.9 4.3
6 12 14 29.6 3.6
12 -14 -6 34.2 4.2
6 -12 -14 35.5 3.9
14 -12 6 36.1 4.4
14 12 -6 31.6 3.1
-14 12 6 31.2 4.6
14 -6 -12 38.2 4
-12 6 14 39.3 4.4
6 -14 12 32.3 4.4
12 14 -8 32.6 3.1
8 -12 14 25.5 4.7
-14 8 12 30.1 4.6
12 -14 8 29 4.9
8 14 12 33.2 4.2
12 -8 -14 34 4
-12 14 8 28.2 4.8
-8 12 14 33.1 4.5
14 12 8 28.1 4.1
14 -12 -8 32.4 4.4
8 -14 -12 31.3 3.8
-8 14 12 29.7 4.6
8 -14 12 26.9 4.6
12 -14 -8 31.7 4.2
8 12 14 22.9 3.7
12 14 8 33.4 4.1
14 -12 8 28.6 4.8
14 12 -8 36.5 2.9
8 -12 -14 29.9 3.9
14 -8 -12 32 4.3
-14 12 8 26.2 4.9
-12 8 14 33 4.7
-14 10 12 157.28 7.3
-12 14 10 177.48 7.8
-10 12 14 161.88 7.5
14 12 10 174.28 7
14 -12 -10 169.88 7.1
12 10 14 189.08 7.2
12 -14 10 157.98 7.5
12 -10 -14 166.78 7
10 14 12 183.68 7.2
10 -14 -12 164.68 7
-12 10 14 161.98 7.4
-10 14 12 151.58 7.4
-14 12 10 154.38 7.3
10 -14 12 137.49 7.1
14 -10 -12 148.19 6.7
12 14 10 168.88 6.9
12 -14 -10 148.59 6.7
10 12 14 138.89 6.2
14 -12 10 155.08 7.8
10 -12 -14 133.49 6.2
-14 12 12 166.48 7.8
-12 12 14 164.98 7.8
-12 14 12 151.38 7.2
12 -14 -12 154.88 6.9
12 -14 12 160.58 8
12 -12 -14 152.78 6.8
12 12 14 151.78 6.8
12 14 12 164.88 7
14 -12 -12 135.29 6.7
14 -12 12 157.18 7.9
14 12 12 155.18 6.9
0 -14 -14 2208.68 49.4
0 -14 14 2258.87 49.1
0 14 14 2216.78 49.7
14 -14 0 2188.48 49.9
14 0 -14 2232.98 48.9
14 14 0 2163.18 49.2
-2 -14 14 352.86 9.5
-2 14 14 353.96 11.1
2 -14 -14 359.26 10.5
2 -14 14 365.26 10.7
2 14 14 358.76 10.9
14 -14 -2 358.26 11.4
14 -14 2 358.26 11.6
14 -2 -14 355.56 10.1
14 2 -14 355.66 9.4
14 14 -2 354.56 10.2
14 14 2 362.86 10.5
-14 4 14 273.97 9.8
-4 14 14 278.77 9.7
4 -14 -14 278.27 9.1
4 -14 14 274.27 9.6
4 14 14 282.47 9.4
14 -14 -4 261.97 9.8
14 -14 4 262.97 10.1
14 -4 -14 280.17 9
14 14 -4 263.37 8.4
14 14 4 273.57 9.2
-14 6 14 171.48 7.3
-14 14 6 168.88 7.6
-6 14 14 179.48 7.3
6 -14 -14 189.78 7.3
6 -14 14 167.18 7.4
6 14 14 188.68 7.4
14 -14 -6 164.28 7.5
14 -14 6 158.28 7.6
14 -6 -14 172.48 6.9
14 14 -6 165.88 6.7
14 14 6 180.38 7.1
-14 8 14 0 4.6
-14 14 8 2.2 4.8
-8 14 14 1 4.5
8 -14 -14 2 4
8 -14 14 1.8 4.7
8 14 14 4 3.7
14 -14 -8 2.1 4.1
14 -14 8 0.8 4.8
14 -8 -14 -1.6 4
14 14 -8 -0.9 3.1
14 14 8 3.4 3.8
-14 10 14 48.3 5.8
-14 14 10 63.89 6.1
-10 14 14 54.39 5.7
10 -14 -14 55.29 4.8
10 -14 14 51.79 5.9
10 14 14 59.19 5.1
14 -14 -10 66.59 5.6
14 -14 10 58.69 6.2
14 -10 -14 61.19 5.2
14 10 14 69.79 5.3
14 14 10 61.19 5.2
-14 12 14 44.1 6.1
-14 14 12 45.4 6
-12 14 14 51.49 6.1
12 -14 -14 52.09 5.5
12 -14 14 48.2 6.4
12 14 14 56.39 5.4
14 -14 -12 38.6 5.1
14 -14 12 45.6 6
14 -12 -14 42.9 5.3
14 12 14 40.8 5.1
14 14 12 49.9 5.2
-14 14 14 73.89 7
14 -14 -14 88.59 6.2
14 -14 14 75.29 7.3
14 14 14 82.49 6.3
-1 -15 -1 2730.33 59.89
-1 -15 1 2788.12 59.79
-1 -1 15 2703.63 59.49
-1 1 15 2812.52 59.69
-1 15 -1 2691.83 60.09
-1 15 1 2672.23 60.09
1 -15 -1 2712.63 59.99
1 -15 1 2661.23 59.89
1 1 15 2723.83 59.69
1 15 -1 2744.03 59.99
1 15 1 2675.13 59.99
-3 -15 -1 49.7 3.2
-1 -15 3 50.89 3.2
-1 15 -3 50.99 3.8
-3 15 1 45.3 3.8
1 -15 -3 48 3.4
-1 3 15 44.6 3
-3 -1 15 56.09 2.9
1 15 3 44.6 3.5
3 -15 1 52.89 3.6
3 15 -1 52.39 3.5
3 15 1 45 3.5
1 15 -3 47.7 3.6
3 -15 -1 42.6 3.3
1 -15 3 49.99 3.5
1 3 15 52.59 3.2
-3 1 15 55.09 3
-1 -15 -3 48.5 3.2
-3 -15 1 49 3.1
-3 15 -1 56.49 4
-1 15 3 47.8 3.7
-1 -3 15 52.89 2.8
-3 15 3 709.83 17.6
-3 3 15 719.33 16.9
-3 15 -3 729.83 17.6
-3 -15 -3 718.93 17.1
-3 -15 3 736.73 16.9
-3 -3 15 731.03 16.4
3 -15 3 730.03 17.3
3 3 15 706.13 17
3 15 -3 730.13 17.2
3 15 3 712.53 17.4
15 -3 -3 717.63 17.6
3 -15 -3 710.23 17.3
-1 15 -5 1104.99 24.5
5 -15 1 1043.5 24.5
1 -15 -5 1069.79 24.4
-1 -15 5 1001.7 24
-5 -15 -1 1039.3 24.1
1 15 5 1057.69 24.6
15 -5 -1 1093.69 24.9
-5 15 1 1070.39 24.8
-1 5 15 1059.59 24.2
-5 -1 15 1081.09 23.8
5 15 -1 1073.99 24.3
15 1 -5 1079.59 24.5
5 -15 -1 1052.39 24.5
-5 1 15 1081.09 24
-1 -15 -5 1057.29 24.3
-5 15 -1 1036.1 24.7
5 15 1 1090.99 24.4
15 -1 -5 1029.7 24.5
1 5 15 1064.79 24.2
-1 15 5 1072.29 24.7
1 -15 5 1035.6 24.3
1 15 -5 1034.3 24.4
-5 -15 1 1014.9 24
3 -15 -5 3138.69 68.49
5 -15 3 3079.09 68.49
-5 -15 -3 3116.09 68.19
3 15 5 3050.09 68.49
-3 5 15 3198.08 68.29
-5 15 3 3078.09 68.69
15 -5 -3 3211.78 68.69
-3 15 -5 3065.29 68.59
-5 -3 15 3177.78 67.69
5 15 -3 3048.2 68.19
-3 -15 5 3088.29 67.99
-3 15 5 2987.7 68.59
3 15 -5 3108.29 68.19
3 5 15 3126.39 68.29
3 -15 5 3107.19 68.39
5 15 3 3092.59 68.39
15 -3 -5 3206.38 68.59
5 -15 -3 3078.09 68.49
-5 3 15 3108.09 68.19
-3 -15 -5 3108.39 68.29
-3 -5 15 3190.68 67.59
-5 15 -3 3035.9 68.59
-5 -15 3 3095.29 67.99
5 15 5 5564.34 120.49
15 -5 -5 5657.73 120.69
-5 -15 -5 5452.25 120.29
-5 -15 5 5539.95 119.99
-5 5 15 5553.14 120.39
-5 15 5 5505.45 120.79
5 -15 -5 5550.54 120.59
5 -15 5 5628.94 120.59
5 5 15 5372.26 120.29
5 -5 -15 5683.53 120.19
5 15 -5 5250.88 120.19
-7 15 1 14.3 3.6
-7 -1 15 12.5 2.4
7 15 -1 9.5 2.9
7 -1 -15 12 2.3
15 -7 -1 12.3 3.5
1 15 7 10.1 3.1
7 -15 1 8.8 3.1
-1 7 15 8.2 2.9
-1 -15 7 13.8 2.7
15 1 -7 14.8 3.1
1 -15 -7 11.8 2.8
-7 15 -1 11.5 3.5
-1 15 7 12.8 3.3
7 15 1 9.8 2.9
15 -7 1 11.6 3.6
-7 1 15 9.8 2.6
15 -1 -7 11.9 3.1
1 -15 7 10.2 2.8
1 15 -7 8.3 3.1
7 -15 -1 10.5 3
-1 -15 -7 11.3 2.8
1 7 15 9.8 2.8
7 15 -3 873.81 20.5
-7 -3 15 937.81 19.8
15 3 -7 887.01 20.6
7 -3 -15 883.01 20.3
3 -15 -7 905.51 20.8
-3 7 15 912.61 20.8
-7 15 3 867.61 21.3
7 -15 3 902.31 21.1
-3 -15 7 896.21 20.2
15 -7 -3 885.41 21.3
3 15 7 848.32 20.9
-3 15 7 863.61 21.1
-7 15 -3 864.31 21.3
-3 -15 -7 887.41 20.7
-7 3 15 878.91 20.6
7 15 3 881.51 20.8
15 -3 -7 894.11 21
3 -15 7 880.51 20.8
3 -7 -15 876.61 20.5
3 7 15 861.11 20.7
7 -15 -3 871.31 21
15 -7 3 908.01 21.5
3 15 -7 855.71 20.5
15 -7 -5 3664.63 79.49
5 -15 -7 3669.03 79.29
7 -5 -15 3620.94 78.89
7 -15 5 3683.43 79.49
7 15 -5 3649.33 78.79
5 15 7 3604.64 79.29
-5 7 15 3559.54 79.19
-5 -15 7 3588.14 78.59
-7 15 5 3483.75 79.49
5 7 15 3455.25 79.09
15 -5 -7 3686.13 79.39
5 -15 7 3719.23 79.39
5 15 -7 3621.84 78.79
7 15 5 3566.34 79.19
-7 5 15 3593.94 79.09
7 -15 -5 3545.45 79.39
-5 15 7 3582.54 79.49
5 -7 -15 3615.34 78.99
7 -15 -7 2128.69 48.3
7 -7 -15 2175.38 48
7 7 15 2224.18 48.1
-7 15 7 2133.89 48.6
7 15 7 2179.08 48.2
-7 7 15 2177.08 48.2
7 -15 7 2197.38 48.4
15 -7 -7 2213.38 48.4
7 15 -7 2016.1 47.6
-9 -1 15 540.75 13
-9 15 1 555.84 14.5
9 15 -1 540.05 13.5
15 1 -9 553.34 13.6
9 -1 -15 561.74 13.1
15 -9 -1 525.65 14.4
-1 9 15 548.75 13.9
-1 -15 9 556.74 13.3
1 15 9 539.15 14.1
1 -15 -9 533.35 13.8
9 -15 1 536.95 14.2
-9 1 15 545.75 13.4
-9 15 -1 531.55 14.5
1 -15 9 548.15 13.6
-1 15 9 524.05 14.2
15 -9 1 535.95 14.5
1 9 15 545.05 13.8
9 15 1 544.95 13.6
15 -1 -9 544.45 13.8
9 -15 -1 536.15 14.2
-1 -15 -9 540.65 13.7
15 3 -9 64.29 3.8
9 -3 -15 68.59 3.7
-9 -3 15 71.99 3.1
-3 -15 9 70.89 3.5
-9 15 3 64.99 5
3 -15 -9 72.39 4.5
15 -9 -3 65.79 4.8
-3 9 15 63.89 4.3
3 15 9 63.59 4.4
9 -15 3 60.89 4.5
9 15 -3 66.49 4
-3 -15 -9 63.69 4
15 -3 -9 65.49 4.3
3 -9 -15 74.29 4.2
3 -15 9 63.19 4.3
9 15 3 59.69 4.1
-3 15 9 63.59 4.6
9 -15 -3 65.99 4.5
15 -9 3 68.39 5.1
3 9 15 61.29 4.1
-9 3 15 69.39 4.2
15 -9 -5 1435.76 33
9 -15 5 1457.75 33
15 5 -9 1372.96 31.9
5 15 9 1404.16 32.6
9 -5 -15 1473.85 32.3
5 -15 -9 1361.46 32.5
-9 15 5 1582.94 33.2
-5 9 15 1417.26 32.7
9 15 -5 1421.56 32.1
-5 -15 9 1419.06 31.7
-9 5 15 1424.16 32.6
5 9 15 1376.96 32.5
5 -15 9 1435.56 32.7
9 15 5 1380.56 32.5
5 15 -9 1455.75 32
-5 15 9 1442.46 32.9
15 -9 5 1415.26 33.2
9 -15 -5 1404.76 32.8
5 -9 -15 1446.06 32.4
15 -5 -9 1479.65 32.7
-9 15 7 564.24 15.3
9 15 -7 561.54 13.9
7 15 9 578.74 14.8
9 -15 7 570.64 15.3
9 7 15 601.94 14.7
7 -15 -9 580.54 14.8
15 7 -9 574.04 13.8
-7 9 15 567.64 14.9
15 -9 -7 581.54 15.2
9 -7 -15 589.14 14.5
9 15 7 578.24 14.7
7 15 -9 573.54 13.8
7 -15 9 575.54 15.2
7 -9 -15 563.34 14.5
15 -7 -9 570.54 15
7 9 15 578.44 14.7
9 -15 -7 571.74 15
-7 15 9 576.64 15.4
-9 7 15 570.54 14.9
9 -9 -15 35.9 3.8
9 9 15 22.9 3.8
9 15 9 34.6 4.2
15 -9 -9 30.1 4.3
9 -15 9 29 4.5
9 15 -9 30.1 3.1
-9 9 15 28.5 4.4
-9 15 9 34.2 4.8
9 -15 -9 32.1 4.2
15 9 -9 28.7 2.6
11 15 -1 577.54 14.3
1 -15 -11 563.74 14.6
15 1 -11 594.84 14.2
1 15 11 586.54 14.9
-1 -15 11 572.14 14
-11 -1 15 577.24 14
15 -11 -1 557.24 15.3
1 -11 15 598.14 14.4
11 -1 -15 585.84 13.8
-1 11 15 569.24 14.8
11 -15 1 577.84 15.2
-11 15 1 516.65 15.4
-1 15 11 573.24 15
15 -11 1 542.05 15.3
1 11 15 541.25 14.7
11 15 1 550.44 14.4
-11 1 15 603.94 14.4
-1 -15 -11 575.94 14.5
15 -1 -11 566.34 14.4
1 -15 11 573.64 14.4
11 -15 -1 565.04 15
1 -11 -15 567.84 14.5
11 1 -15 592.94 13.5
-1 -11 15 592.14 14
3 15 11 3.1 3.5
15 3 -11 1.6 2.8
3 -11 15 -1.2 3.7
-3 11 15 -1.8 3.6
11 15 -3 -2.1 3
-11 15 3 2.1 4.1
11 -3 -15 0 2.8
15 -11 -3 -2 3.6
3 -15 -11 0.3 3.2
-3 -15 11 -1.7 2.6
11 -15 3 3.5 3.8
-3 -15 -11 0.1 3.1
3 -15 11 0.5 3.5
15 -3 -11 2.1 3.4
-3 -11 15 0.6 2.2
-11 3 15 0.8 3.5
15 -11 3 1.3 3.9
15 11 -3 -0.1 2.9
11 -15 -3 2.2 3.5
-3 15 11 2.2 3.6
3 11 15 1.3 3.3
3 -11 -15 -1.7 3
11 15 3 2.2 3.3
15 5 -11 640.04 14.3
5 -15 -11 592.84 15.3
-5 -15 11 599.74 14
5 15 11 595.74 15.5
11 -5 -15 595.84 15
-11 15 5 616.44 16.1
-5 11 15 608.24 15.6
15 -11 -5 612.04 15.9
11 15 -5 615.04 14.8
11 -15 5 608.64 16.1
-5 15 11 612.14 15.9
11 15 5 580.14 15.3
5 11 15 600.74 15.4
5 -11 -15 591.94 15.2
15 -11 5 595.64 16.2
15 11 -5 594.34 14.5
5 -15 11 623.74 15.8
-11 5 15 582.94 15.5
15 -5 -11 612.04 15.4
11 -15 -5 616.04 15.7
7 15 11 9.6 3.8
11 -7 -15 9.4 3.5
15 -11 -7 6.9 4
-11 15 7 11.8 4
11 -15 7 7.1 4.2
-7 11 15 10.8 4.1
-15 7 11 9.9 4.3
11 15 -7 10.1 3.1
7 -15 -11 11.6 3.7
-11 7 15 7.3 4.2
15 -7 -11 10.2 3.9
11 15 7 9 3.6
11 -15 -7 7.1 3.9
15 11 -7 7.3 2.8
-7 15 11 10.9 4.2
7 -15 11 9.4 4.2
7 -11 -15 9.9 3.6
7 11 15 7.1 3.4
15 -11 7 8.7 4.5
-15 9 11 117.79 6.7
11 -9 -15 114.69 5.5
9 -15 -11 110.99 5.9
11 -15 9 110.09 6.3
-9 11 15 105.19 5.9
-11 15 9 106.79 6.6
9 15 11 115.69 6
15 -11 -9 107.19 5.9
11 9 15 102.89 5.5
11 15 -9 104.89 4.4
11 15 9 100.79 5.5
15 -9 -11 122.39 6.3
-11 9 15 107.89 6.2
9 -11 -15 112.09 5.5
-15 11 9 114.39 6.4
11 -15 -9 111.39 6.1
15 -11 9 108.59 6.8
9 11 15 115.89 5.9
-9 15 11 116.79 6.6
9 -15 11 115.69 6.6
11 15 11 247.58 9.3
-11 11 15 257.37 10.2
-11 15 11 264.47 10.4
11 -15 -11 247.48 9.5
11 -15 11 254.37 10.5
11 11 15 257.57 9.3
15 -11 -11 242.58 9.7
11 -11 -15 244.08 9.1
-15 11 11 246.58 10.5
1 15 13 514.15 14.1
1 -13 15 523.05 13.6
13 -1 -15 540.15 13
-1 -15 13 541.15 13.2
-1 13 15 521.85 14.1
1 -15 -13 524.75 13.7
15 -13 -1 522.35 14.5
15 1 -13 526.95 13.1
13 -15 1 534.15 14.5
13 15 -1 513.75 13.4
15 13 1 502.95 13.5
13 15 1 516.45 13.6
1 -15 13 508.75 13.6
13 -15 -1 501.05 14.4
-1 -13 15 533.25 13.1
-1 15 13 544.45 14.3
15 13 -1 496.95 13.3
13 1 -15 521.25 12.6
15 -13 1 500.05 14.6
-1 -15 -13 519.95 13.6
15 -1 -13 534.75 13.4
1 -13 -15 514.25 13.6
1 13 15 519.15 14.1
3 -13 15 194.28 8.4
3 -15 -13 196.28 7.9
-3 13 15 210.78 8.7
-3 -15 13 198.48 6.7
13 -15 3 208.08 9
-13 15 3 223.98 9.3
3 15 13 223.68 8.6
13 -3 -15 213.08 7.5
13 15 -3 207.38 7.6
15 13 3 200.08 7.8
15 -13 -3 203.88 9
15 3 -13 207.58 6.7
15 -3 -13 210.88 8
15 -13 3 208.68 9.2
-13 3 15 212.68 8.5
3 -13 -15 219.88 8
-3 -13 15 207.08 6.3
3 -15 13 218.48 8.5
3 13 15 195.98 8.2
13 -15 -3 215.88 8.7
-3 15 13 212.78 8.7
13 15 3 201.18 7.9
15 13 -3 209.48 7.4
13 -5 -15 805.72 19.8
5 15 13 849.81 20.3
-13 15 5 832.82 20.9
-5 13 15 794.42 20.4
13 15 -5 819.42 19.4
15 -13 -5 817.22 20.5
5 -15 -13 797.42 20.1
5 -13 15 837.22 20.4
13 -15 5 814.22 20.8
15 13 5 851.31 20
15 -5 -13 806.22 20
15 13 -5 814.42 19.3
15 -13 5 811.02 20.8
5 -15 13 858.91 20.5
5 -13 -15 804.42 20
13 -15 -5 824.82 20.5
-13 5 15 855.01 20.4
5 13 15 845.12 20.2
13 15 5 831.62 20
-5 15 13 822.72 20.5
-15 7 13 255.67 10.2
7 -13 15 273.17 10.4
15 13 7 267.67 9.4
-13 15 7 265.67 10.4
13 -15 7 260.47 10.5
13 15 -7 272.07 8.4
15 -13 -7 267.07 10
13 -7 -15 269.07 9.3
7 -15 -13 242.08 9.3
-7 13 15 278.77 10
7 15 13 277.47 9.6
15 -7 -13 276.97 9.6
7 -15 13 261.67 10.1
15 -13 7 264.57 10.5
15 13 -7 267.87 8.1
7 13 15 271.47 9.4
13 15 7 270.87 9.3
7 -13 -15 258.47 9.2
-13 7 15 278.07 10.2
-7 15 13 262.57 10.2
13 -15 -7 256.17 9.8
-15 13 7 251.27 10.5
15 -13 -9 10.1 4.4
-15 9 13 3.6 4.9
9 -15 -13 1.9 4
-9 13 15 7.2 4.8
9 15 13 9.2 4.3
13 -9 -15 8.1 4.3
13 -15 9 5.6 4.8
15 13 9 7.3 4.2
-13 15 9 10.5 4.8
9 -13 15 3.8 5.1
-13 9 15 10 4.9
-9 15 13 10 4.9
15 -9 -13 8.1 4.4
9 -15 13 8.8 5.2
9 -13 -15 9.7 4
-15 13 9 5 4.9
9 13 15 12.5 4.3
13 -15 -9 9.6 4.4
15 -13 9 8.1 4.9
13 15 9 12.1 3.9
-11 13 15 -2 5.1
13 -11 -15 -1.9 4.3
11 -13 15 0.6 5.5
15 -13 -11 0.1 4.6
15 13 11 0.2 4.4
13 -15 11 -0.1 5.3
11 -15 -13 -1 4
13 11 15 3.3 4.1
11 15 13 0.7 4.3
-15 11 13 -1.9 5.1
-13 15 11 2.7 5.2
-15 13 11 0.1 5.1
-13 11 15 2.5 5.3
-11 15 13 -0.9 5.2
13 15 11 1.6 4
11 -15 13 -1.2 5.2
15 11 13 2.2 4.4
11 -13 -15 1.9 4.1
15 -11 -13 -1.5 4.4
11 13 15 -2.2 4.3
15 -13 11 2.6 5.5
13 -15 -11 4.4 4.4
-15 13 13 3.6 5.6
-13 13 15 0.7 5.7
-13 15 13 0.3 5.6
13 -15 -13 -2.8 4.4
13 -15 13 0.3 5.7
13 -13 -15 1.8 4.8
13 -13 15 3.7 6
13 13 15 2.7 4.8
13 15 13 0 4.6
15 -13 -13 2.6 4.6
15 -13 13 4.2 5.9
15 13 13 -0.3 4.8
-1 -15 15 338.57 10.2
-1 15 15 364.46 11.6
1 -15 -15 348.87 10.7
1 -15 15 350.96 10.9
1 15 15 355.16 11.3
15 -15 -1 375.66 11.9
15 -15 1 360.76 11.9
15 -1 -15 372.56 10.3
15 1 -15 360.96 9.8
15 15 -1 337.37 10.5
15 15 1 337.57 10.6
-3 -15 15 264.07 7.9
-3 15 15 269.27 10.1
3 -15 -15 247.28 9.3
3 -15 15 258.17 9.9
3 15 15 278.47 9.9
15 -15 -3 284.07 10.3
15 -15 3 272.67 10.6
15 -3 -15 251.27 9
15 3 -15 269.47 7.6
15 15 -3 243.88 8.8
15 15 3 260.07 9.3
-15 5 15 1958.9 45.7
-5 15 15 2032 45.9
5 -15 -15 2026.1 45.4
5 -15 15 2069.89 45.7
5 15 15 2032.7 45.6
15 -15 -5 1992.6 45.8
15 -15 5 2072.29 46.1
15 -5 -15 1976.1 45.3
15 15 -5 1976.3 44.9
15 15 5 2031.1 45.4
-15 7 15 754.12 20.2
-15 15 7 798.02 20.5
-7 15 15 807.02 20.2
7 -15 -15 784.52 19.5
7 -15 15 781.52 20.2
7 15 15 788.02 19.7
15 -15 -7 750.42 19.9
15 -15 7 819.42 20.6
15 -7 -15 754.62 19.4
15 15 -7 787.12 18.7
15 15 7 779.32 19.6
-15 9 15 114.79 7.4
-15 15 9 110.59 7
-9 15 15 122.99 7.2
9 -15 -15 121.39 6.5
9 -15 15 114.39 7.4
9 15 15 97.09 5.9
15 -15 -9 115.09 6.8
15 -15 9 118.19 7.2
15 -9 -15 101.59 6.1
15 15 -9 126.89 5
15 15 9 123.69 6.6
-15 11 15 15.1 6
-15 15 11 12.1 5.8
-11 15 15 7.2 5.8
11 -15 -15 6.8 4.7
11 -15 15 6.8 6.1
11 15 15 10.4 4.6
15 -15 -11 14.2 5.3
15 -15 11 8.8 5.9
15 -11 -15 12.3 5
15 11 15 16 5
15 15 11 13.2 5
-15 13 15 200.08 9.4
-15 15 13 186.88 9.1
-13 15 15 190.68 9.1
13 -15 -15 179.98 8
13 -15 15 188.58 9.2
13 15 15 157.98 7.5
15 -15 -13 190.18 8.2
15 -15 13 194.78 9.3
15 -13 -15 164.28 7.7
15 -13 15 182.08 9.5
15 13 15 190.78 8.3
15 15 13 172.08 7.7
-15 15 15 216.28 10.1
15 -15 -15 169.08 8.2
15 -15 15 191.28 10
15 15 15 212.08 9.1
0 -16 0 4366.06 96.19
0 0 16 4501.75 95.89
0 16 0 4324.17 96.29
-2 -16 0 319.47 8.7
-2 16 0 312.17 9.4
0 -2 16 307.07 8.2
0 2 16 313.77 8.5
2 -16 0 311.67 8.9
2 16 0 316.47 9.1
0 16 -2 300.47 9.2
0 16 2 295.17 9.2
0 -16 2 308.87 8.8
-2 0 16 315.67 8.3
0 -16 -2 305.87 8.8
-2 16 -2 16.2 3.3
-2 -2 16 14.9 2.4
-2 2 16 19.4 2.7
2 16 2 15.3 3.1
-2 -16 2 14.6 2.6
-2 16 2 15.2 3.4
2 -16 -2 18.7 3
2 -16 2 16.4 3.1
2 2 16 20.1 2.9
2 16 -2 20.2 3.1
-2 -16 -2 15.9 2.8
-4 -16 0 577.14 14.1
-4 16 0 559.44 14.8
0 4 16 578.74 14.1
4 -16 0 572.94 14.6
4 16 0 583.74 14.4
16 0 -4 564.14 14.7
0 -16 4 574.44 14.2
0 16 -4 603.34 14.6
0 16 4 584.44 14.7
0 -16 -4 565.14 14.3
-4 0 16 589.14 13.8
-2 16 -4 1186.68 28.3
-2 -16 4 1246.08 27.8
2 -16 -4 1235.78 28.1
-4 16 2 1222.88 28.5
-4 -2 16 1252.07 27.4
4 16 -2 1227.78 28
16 -4 -2 1217.08 28.5
4 -16 2 1249.88 28.2
-2 4 16 1286.57 27.9
-4 -16 -2 1208.68 27.9
2 16 4 1167.48 28.2
2 16 -4 1224.68 28.1
4 -16 -2 1203.48 28.2
-4 -16 2 1224.88 27.8
-2 16 4 1219.38 28.4
2 4 16 1237.78 27.9
2 -16 4 1238.18 28.1
-4 16 -2 1245.08 28.5
16 -2 -4 1254.97 28.4
-2 -4 16 1216.98 27.3
-4 2 16 1240.98 27.8
-2 -16 -4 1221.88 28
4 16 2 1232.28 28.2
4 16 4 2422.16 54.19
-4 16 -4 2345.97 54.29
-4 16 4 2467.55 54.39
4 -16 -4 2431.06 54.19
4 -16 4 2456.85 54.19
4 4 16 2456.85 53.89
4 16 -4 2321.97 53.89
-4 -16 -4 2422.36 53.99
-4 -16 4 2460.85 53.69
-4 -4 16 2463.85 53.29
-4 4 16 2524.95 53.89
16 -4 -4 2496.05 54.39
0 -16 6 729.33 17.3
0 16 -6 722.13 17.6
0 16 6 704.63 17.8
0 -16 -6 717.33 17.5
-6 0 16 738.33 17
16 0 -6 721.73 17.6
6 16 0 712.13 17.5
16 -6 0 732.53 18.1
-6 -16 0 735.53 17.2
-6 16 0 742.53 18.1
0 6 16 714.13 17.4
6 -16 0 706.83 17.7
6 -16 2 1540.85 34.7
-6 -16 -2 1510.55 34.2
-6 16 2 1473.55 34.8
6 16 -2 1525.35 34.3
-2 16 -6 1532.75 34.6
-2 -16 6 1553.54 34.1
2 16 6 1550.44 34.7
16 -6 -2 1573.84 34.9
2 -16 -6 1509.95 34.5
-6 -2 16 1537.45 33.7
16 2 -6 1526.35 34.4
-2 6 16 1520.85 34.4
6 -16 -2 1545.25 34.7
-2 16 6 1488.45 34.7
6 16 2 1465.35 34.4
2 16 -6 1507.85 34.4
-6 2 16 1551.44 34.2
-2 -16 -6 1524.15 34.4
-6 -16 2 1476.75 34
-6 16 -2 1557.34 34.9
2 -16 6 1546.35 34.4
2 6 16 1491.35 34.3
16 -2 -6 1532.15 34.6
-4 6 16 4254.77 92.09
16 -6 -4 4243.68 92.49
4 -16 -6 4278.77 92.29
-4 -16 6 4199.38 91.69
6 -16 4 4274.57 92.39
6 16 -4 4089.79 91.89
-6 16 4 4205.98 92.49
4 16 6 4040.4 92.19
-6 -4 16 4358.16 91.29
6 -4 -16 4147.39 91.79
-6 4 16 4242.98 91.99
4 16 -6 4147.08 91.89
4 6 16 4157.88 92.09
4 -16 6 4217.48 92.19
-4 16 6 4133.69 92.49
4 -6 -16 4202.78 91.89
-4 -16 -6 4206.88 92.09
16 -4 -6 4145.49 92.29
-4 -6 16 4310.57 91.19
6 16 4 4222.48 92.19
6 -16 -4 4250.27 92.29
-6 -16 4 4137.99 91.69
-6 16 -4 4269.17 92.59
-6 -16 6 5614.34 123.69
6 -6 -16 5687.83 124.09
16 -6 -6 5679.93 124.49
6 -16 -6 5619.44 124.39
6 6 16 5702.83 124.19
6 16 -6 5620.04 123.99
-6 6 16 5682.43 124.19
6 -16 6 5627.94 124.49
-6 16 6 6011.2 124.69
6 16 6 5703.13 124.39
0 -16 -8 150.28 6.5
0 -16 8 153.58 6.4
0 16 8 163.18 6.6
16 -8 0 148.89 6.4
-8 16 0 164.28 6.7
8 16 0 147.79 6.6
16 0 -8 162.08 6.9
0 8 16 163.98 6.6
8 -16 0 161.98 6.5
-8 0 16 168.48 6
-8 -2 16 54.79 3.2
16 -8 -2 50.19 4.5
8 -16 2 52.19 4.2
-2 8 16 57.19 4.2
8 16 -2 47.6 3.9
2 16 8 54.29 4.4
2 -16 -8 59.59 4.2
-8 16 2 46.4 4.4
-2 -16 8 52.79 3.5
16 2 -8 54.59 4
8 -2 -16 62.09 3.5
-2 -16 -8 46.5 3.7
2 16 -8 48.7 4
8 -16 -2 54.49 4.4
-8 2 16 53.99 3.8
2 8 16 45.8 3.8
8 16 2 46.8 3.9
-8 16 -2 51.09 4.8
16 -8 2 45.9 4.5
16 -2 -8 59.39 4.4
2 -16 8 50.69 3.9
-2 16 8 54.59 4.4
-4 -16 8 1396.66 30.8
8 16 -4 1354.36 31.1
-4 8 16 1333.27 31.4
4 -16 -8 1382.66 31.4
8 -16 4 1351.86 31.7
8 -4 -16 1398.76 31
16 -8 -4 1368.66 31.8
-8 16 4 1313.87 31.9
4 16 8 1385.36 31.6
16 4 -8 1368.96 31
8 16 4 1364.76 31.4
8 -16 -4 1386.06 31.6
-4 16 8 1455.15 31.9
4 -8 -16 1429.76 31.2
4 -16 8 1404.86 31.5
4 16 -8 1350.76 31.1
-4 -16 -8 1367.26 31.3
16 -8 4 1315.77 32
4 8 16 1402.06 31.4
16 -4 -8 1347.07 31.5
-8 4 16 1387.86 31.3
-8 16 6 2889.71 63.19
8 16 -6 2848.31 62.29
-6 8 16 2809.22 62.79
16 6 -8 2789.72 62.29
8 -6 -16 2888.51 62.49
-6 -16 8 2820.32 61.99
8 -16 6 2815.32 63.09
8 6 16 2842.72 62.69
6 16 8 2856.81 62.89
16 -8 -6 2783.22 62.99
6 -16 -8 2782.22 62.79
16 -6 -8 3047.2 63.09
-6 16 8 2821.62 63.19
6 -16 8 2758.52 62.89
8 -16 -6 2857.11 62.89
8 16 6 2786.62 62.79
6 8 16 2803.92 62.69
-8 6 16 2788.42 62.69
6 16 -8 2861.71 62.29
6 -8 -16 2851.81 62.59
8 -8 -16 668.33 15.8
8 16 8 611.84 16.1
8 -16 8 641.64 16.6
-8 8 16 612.44 16.2
8 -16 -8 619.04 16.2
8 8 16 637.64 16
16 -8 -8 633.14 16.4
8 16 -8 629.64 15.4
-8 16 8 648.74 16.8
0 -16 -10 431.36 11.7
10 16 0 423.36 11.7
-10 0 16 437.66 11.3
16 -10 0 437.76 12.6
10 0 -16 430.36 10.7
0 -10 16 417.36 11.5
0 10 16 429.46 11.9
-10 16 0 429.46 12.7
0 -16 10 429.46 11.4
16 0 -10 443.76 11.7
0 16 10 408.86 12.2
10 -16 0 421.56 12.2
-10 -2 16 142.59 5.7
10 -16 2 162.28 7.1
10 16 -2 156.58 6
16 2 -10 165.58 6
16 -10 -2 162.28 7.1
-2 10 16 168.18 6.5
-10 16 2 145.69 6.5
2 16 10 159.98 6.6
10 -2 -16 145.69 6
-2 -16 10 140.09 6
2 -16 -10 145.29 5.9
-2 -10 16 130.29 5.8
10 -16 -2 153.68 6.8
-2 16 10 162.08 6.7
-2 -16 -10 155.78 6.1
2 10 16 137.09 6.2
2 -16 10 151.88 6.1
10 16 2 161.38 6.3
16 -2 -10 159.88 6.2
-10 2 16 180.28 6.3
2 -10 -16 154.38 5.9
16 -10 2 143.59 6.6
16 -10 -4 311.77 10.4
16 4 -10 309.67 9
10 16 -4 310.47 9.3
10 -16 4 299.17 10.3
-4 -16 10 309.07 8.4
-10 16 4 314.07 10.6
4 -16 -10 307.17 9.6
4 16 10 313.57 9.9
10 -4 -16 310.17 9.1
-4 10 16 311.27 10
10 -16 -4 306.07 10
4 -10 -16 312.77 9.3
16 -10 4 316.07 10.6
10 16 4 304.87 9.6
-10 4 16 306.77 9.7
4 -16 10 310.77 10
-4 16 10 301.57 10.2
16 -4 -10 314.67 9.9
4 10 16 302.17 9.5
6 -16 -10 639.64 16.7
16 6 -10 668.33 15.9
-10 16 6 660.73 17.5
10 -16 6 656.33 17.4
-6 -16 10 663.23 15.5
6 16 10 672.33 16.9
-6 10 16 638.24 17
10 -6 -16 669.93 16.4
16 -10 -6 684.83 17.3
10 16 -6 661.23 16.2
6 -10 -16 667.03 16.6
16 -6 -10 670.93 17
6 10 16 648.84 16.7
16 -10 6 652.33 17.7
-10 6 16 710.93 17
10 16 6 698.33 16.8
10 -16 -6 665.33 17.1
-6 16 10 677.23 17.3
6 -16 10 693.33 17.2
8 -16 -10 18.6 4
16 8 -10 13 3
16 -10 -8 13.2 4.3
10 16 -8 14.8 3.4
8 16 10 16.5 4.1
10 -8 -16 15.1 3.7
10 -16 8 17.8 4.7
-8 10 16 16.4 4.3
-10 16 8 13.9 4.6
10 8 16 22.5 4.1
8 -16 10 18.8 4.6
10 16 8 15.3 4
-10 8 16 17.4 4.5
8 -10 -16 9.7 3.7
16 -8 -10 16 4.4
16 -10 8 9.7 4.6
10 -16 -8 10.7 4.1
-8 16 10 15.5 4.5
8 10 16 16.8 3.9
16 10 -8 15.3 2.9
10 -16 10 425.76 13
10 10 16 411.56 12
10 16 10 408.36 12.1
16 -10 -10 406.76 12.4
10 -10 -16 415.16 11.9
10 -16 -10 423.96 12.2
-10 16 10 424.06 13
-10 10 16 374.06 12.6
12 16 0 491.55 13.2
-12 0 16 482.95 12.9
0 -16 -12 492.35 13.3
0 -16 12 497.15 13
0 -12 16 511.15 12.9
0 12 16 487.35 13.6
16 12 0 485.25 13
16 -12 0 492.75 14.2
16 0 -12 503.55 12.9
12 -16 0 505.35 14
12 0 -16 500.45 12.3
0 16 12 524.05 13.9
12 -16 2 24.5 4.6
2 -16 -12 23.2 3.8
12 16 -2 23.4 3.8
12 -2 -16 17.8 3.3
-12 16 2 28.3 4.9
-2 12 16 20.1 4.2
16 -12 -2 23.4 4.6
2 16 12 19.7 4.1
2 -12 16 17.6 4
16 2 -12 21.4 3.4
-2 -16 12 23 3.4
16 -12 2 21.5 4.7
2 -12 -16 28.5 3.8
2 -16 12 21.7 4.1
16 -2 -12 20.8 3.9
-12 2 16 25.7 4
-2 16 12 23.2 4.4
12 -16 -2 28.3 4.4
-2 -12 16 21.5 3.2
12 16 2 24.4 4
-2 -16 -12 17.8 3.7
16 12 -2 22.5 3.6
2 12 16 21.2 4
12 2 -16 25.4 2.7
16 -12 -4 392.46 12.1
12 16 -4 393.06 10.9
16 4 -12 393.76 10.2
12 -4 -16 382.96 10.9
12 -16 4 384.06 12.2
-4 -16 12 379.56 9.9
4 -12 16 409.06 11.9
-4 12 16 383.46 11.9
4 -16 -12 382.46 11.3
4 16 12 409.96 11.7
-12 16 4 387.56 12.4
16 -12 4 383.66 12.3
16 -4 -12 388.26 11.4
12 16 4 380.36 11.3
12 -16 -4 378.36 11.8
4 12 16 400.66 11.5
4 -16 12 394.86 11.7
16 12 -4 381.46 10.6
-12 4 16 388.16 11.7
-4 16 12 393.66 12
4 -12 -16 381.16 11.2
16 -12 -6 428.56 12.7
6 16 12 452.15 12.4
-6 12 16 427.56 12.7
12 -16 6 424.56 13.1
-12 16 6 443.66 13.2
-6 -16 12 401.56 10.3
6 -16 -12 420.46 12.1
12 -6 -16 422.26 11.9
12 16 -6 435.86 11.6
6 -16 12 418.36 12.8
12 -16 -6 439.66 12.7
12 16 6 423.96 12.2
16 -6 -12 419.16 12.4
6 12 16 444.86 12.3
-6 16 12 427.46 12.9
16 -12 6 407.76 13.2
16 12 -6 436.36 11.2
-12 6 16 410.56 12.6
6 -12 -16 430.26 12.1
-12 16 8 1.2 4.7
12 -8 -16 2.9 4
12 16 -8 5.6 3.5
16 -12 -8 8.5 4.5
-8 12 16 3.4 4.7
16 12 8 3.3 4.2
8 -16 -12 2.1 3.6
12 -16 8 7.7 4.9
8 16 12 -0.1 4.1
16 -8 -12 2.7 4.2
-8 16 12 4.1 4.5
-12 8 16 5.8 4.7
8 12 16 6 4.1
12 -16 -8 5.4 4.3
16 -12 8 0.5 5
16 12 -8 4.9 3
8 -12 -16 4.9 3.9
8 -16 12 6.7 4.8
12 16 8 3.3 4.2
-12 16 10 85.69 6.4
-10 12 16 85.99 6.4
12 10 16 89.09 5.8
12 -16 10 76.79 6.3
10 -16 -12 60.79 5.1
12 -10 -16 77.89 5.4
10 16 12 87.69 5.9
16 -12 -10 83.79 6.1
-16 10 12 84.49 6.5
16 12 10 86.59 5.7
10 -16 12 75.59 6.4
-10 16 12 88.39 6.6
16 -10 -12 78.59 5.9
10 12 16 78.59 5.4
16 -12 10 83.99 6.8
12 16 10 86.29 5.8
12 -16 -10 77.99 5.5
10 -12 -16 80.19 5.4
-16 12 10 75.79 6.1
-12 10 16 86.49 6.3
-16 12 12 22.4 5.8
16 -12 12 16.4 6
12 12 16 18.8 5
12 -12 -16 18 4.8
-12 12 16 12.8 5.7
12 16 12 15.8 4.9
12 -16 -12 15.9 4.8
12 -16 12 14.1 5.8
16 -12 -12 19.7 5.2
16 12 12 18.9 4.8
-12 16 12 14.4 5.5
14 0 -16 100.39 4.6
16 14 0 84.59 5.2
0 -16 -14 90.79 5.3
0 -14 16 88.89 5.1
16 -14 0 101.79 6.5
0 -16 14 85.19 5.1
14 -16 0 92.89 6.3
16 0 -14 91.99 4.9
0 14 16 100.99 5.9
14 16 0 83.39 5.1
0 16 14 88.79 5.9
2 -16 -14 142.09 6.5
14 -2 -16 148.99 6
-2 14 16 144.69 6.6
16 -14 -2 153.28 7.5
16 2 -14 151.28 5.5
14 -16 2 146.79 7.4
16 14 2 134.79 6.2
-2 -16 14 139.29 5.5
2 16 14 157.98 7.2
2 -14 16 149.29 6.6
14 16 -2 138.89 6.1
16 14 -2 134.19 6
16 -2 -14 139.59 6.1
14 16 2 119.39 6.1
-2 16 14 155.68 7.1
16 -14 2 148.29 7.4
2 -16 14 140.69 6.5
2 -14 -16 159.18 6.5
2 14 16 143.49 6.5
14 2 -16 143.09 5.7
-2 -14 16 146.49 5.4
14 -16 -2 136.59 6.8
16 -14 -4 1974.2 44.8
-4 14 16 1952.9 44.6
16 4 -14 1993.6 43.2
-14 16 4 2051.59 45.1
4 16 14 1976.3 44.5
14 -4 -16 2027.9 44
-4 -16 14 1862.01 43.1
16 14 4 1945.31 44.2
4 -16 -14 2009.5 44.3
4 -14 16 1969 44.5
14 -16 4 1976.9 44.9
14 16 -4 1943.11 43.9
16 -4 -14 1889.91 44.1
-4 16 14 2009.6 44.7
4 -16 14 1945.11 44.5
16 14 -4 1940.91 43.8
4 -14 -16 1876.21 44.2
16 -14 4 1977.2 45
-14 4 16 1997.8 44.5
14 16 4 1900.41 44.2
14 -16 -4 1971.2 44.7
4 14 16 2024.6 44.5
6 16 14 2166.28 49.3
14 -6 -16 2183.88 49
16 -14 -6 2194.48 49.6
-14 16 6 2167.68 49.9
6 -14 16 2001.5 49.4
14 16 -6 2175.68 48.6
-6 14 16 2286.97 49.6
14 -16 6 2258.07 49.9
16 14 6 2164.18 49.1
6 -16 -14 2190.08 49.2
14 16 6 2206.28 49.2
16 14 -6 2211.68 48.5
14 -16 -6 2199.18 49.5
6 14 16 2244.98 49.4
6 -14 -16 2224.08 49.2
-14 6 16 2155.68 49.5
-6 16 14 2201.98 49.6
16 -6 -14 2154.58 49.1
6 -16 14 2171.58 49.5
16 -14 6 2216.28 49.8
-16 8 14 640.54 18.1
16 14 8 681.43 17.2
16 -14 -8 637.74 17.6
-14 16 8 665.93 18.1
14 -16 8 679.93 18.3
14 16 -8 674.13 16.2
-8 14 16 649.93 17.7
8 16 14 663.63 17.4
8 -14 16 637.74 18
8 -16 -14 654.83 17.2
14 -8 -16 631.14 17
14 -16 -8 669.23 17.6
14 16 8 671.23 17.3
-16 14 8 681.53 18.2
8 -16 14 657.23 18
16 -8 -14 611.34 17.2
-14 8 16 655.13 18
8 14 16 659.13 17.2
16 14 -8 692.63 16
8 -14 -16 653.63 17.1
16 -14 8 661.33 18.3
-8 16 14 670.33 17.9
10 -14 16 123.39 7.8
10 -16 -14 137.49 7.1
16 14 10 145.49 7.1
14 -16 10 140.09 8.1
14 -10 -16 124.79 6.8
14 10 16 152.48 7
-10 14 16 128.19 7.5
-16 10 14 129.19 7.8
-14 16 10 142.29 7.9
10 16 14 120.29 6.5
16 -14 -10 130.29 7.1
-10 16 14 132.49 7.7
10 -14 -16 134.59 6.9
-14 10 16 127.59 7.5
16 -14 10 143.39 8.3
14 -16 -10 147.09 7.5
14 16 10 134.29 6.8
16 -10 -14 106.19 6.6
-16 14 10 155.28 8.5
10 -16 14 115.39 7.6
10 14 16 141.69 7.2
12 16 14 203.28 8.4
14 -12 -16 186.08 8.2
14 12 16 231.38 9.1
14 -16 12 226.28 10.1
12 -16 -14 217.88 8.9
-12 14 16 228.98 9.9
-16 12 14 221.48 9.7
12 -14 16 212.08 9.7
16 14 12 225.88 8.8
-14 16 12 241.58 9.9
16 -14 -12 214.58 9
12 14 16 195.78 8
-14 12 16 204.28 9.4
-12 16 14 236.88 9.8
14 -16 -12 213.78 9
12 -16 14 198.98 9.5
14 16 12 228.48 9.2
16 -12 -14 197.98 8.7
16 12 14 216.78 8.6
-16 14 12 245.68 10.1
16 -14 12 218.48 9.8
12 -14 -16 199.28 8.2
-16 14 14 417.16 14.9
-14 14 16 392.26 14.8
-14 16 14 429.36 14.8
14 -16 -14 403.46 13.5
14 -16 14 415.46 15.1
14 -14 -16 416.76 13.5
14 -14 16 415.96 15.3
14 14 16 425.96 13.5
14 16 14 433.46 13.6
16 -14 -14 417.26 13.7
16 -14 14 439.06 15.5
16 14 14 420.86 13.7
0 -16 -16 68.89 5.3
0 -16 16 58.59 5
0 16 16 60.99 5.8
16 -16 0 63.99 6.1
16 0 -16 64.09 4.5
16 16 0 54.59 5
-2 -16 16 80.99 4.8
-2 16 16 83.29 6
2 -16 -16 84.19 5.5
2 -16 16 76.09 5.7
2 16 16 85.59 6
16 -16 -2 79.29 6.3
16 -16 2 81.69 6.6
16 -2 -16 77.29 5.1
16 2 -16 83.89 4.4
16 16 -2 75.89 5.4
16 16 2 72.89 5.4
-4 16 16 1916.91 43.9
4 -16 -16 1871.81 43.4
4 -16 16 1909.41 43.7
4 16 16 1976.6 43.7
16 -16 -4 1933.11 43.9
16 -16 4 1941.01 44.2
16 -4 -16 1911.91 43.2
16 16 -4 1921.31 43.1
16 16 4 1861.01 43.4
-16 6 16 2577.04 60.29
-6 16 16 2695.13 60.29
6 -16 -16 2759.02 59.89
6 -16 16 2466.15 60.09
6 16 16 2857.11 60.09
16 -16 -6 2772.92 60.29
16 -16 6 2716.33 60.49
16 -6 -16 2482.65 59.59
16 16 -6 2777.62 59.29
16 16 6 2703.83 59.89
-16 8 16 752.72 20.3
-16 16 8 740.13 20.4
-8 16 16 771.22 20
8 -16 -16 786.02 19.3
8 -16 16 714.53 20.1
8 16 16 777.42 19.6
16 -16 -8 755.12 19.9
16 -16 8 733.13 20.4
16 -8 -16 680.33 19.2
16 16 -8 777.92 18.4
16 16 8 751.32 19.4
-16 10 16 88.99 7.3
-16 16 10 79.69 7.3
-10 16 16 90.89 7.4
10 -16 -16 98.99 6.6
10 -16 16 88.59 7.6
10 16 16 106.49 6.9
16 -16 -10 82.89 6.6
16 -16 10 85.69 7.1
16 -10 -16 86.19 6.5
16 16 10 95.29 6.7
-16 12 16 374.46 14.8
-16 16 12 396.56 14.5
-12 16 16 382.66 14.5
12 -16 -16 384.76 13
12 -16 16 398.46 14.8
12 16 16 396.86 13.1
16 -16 -12 394.26 13.4
16 -16 12 389.66 14.8
16 -12 -16 386.26 13.2
16 12 16 403.66 13.1
16 16 12 392.16 13.2
-16 14 16 897.91 24.6
-16 16 14 921.01 24.7
-14 16 16 907.31 24.4
14 -16 -16 885.51 23.3
14 -16 16 866.81 24.6
14 16 16 938.81 23.3
16 -16 -14 913.21 23.5
16 -16 14 937.41 24.8
16 -14 -16 914.91 23.5
16 -14 16 950.4 25.1
16 14 16 947.31 23.5
16 16 14 888.71 23.2
-16 16 16 874.81 24.1
16 -16 -16 861.31 22.8
16 -16 16 858.21 24.4
16 16 16 862.11 22.6
-1 -17 -1 906.91 21
-1 -17 1 858.81 20.9
-1 -1 17 915.31 20.6
-1 1 17 926.01 20.7
-1 17 -1 875.21 21.4
-1 17 1 899.51 21.4
1 -17 -1 913.31 21.1
1 -17 1 920.61 21.1
1 -1 17 907.11 20.6
1 1 17 872.81 20.7
1 17 -1 857.81 21.2
1 17 1 896.51 21.3
-3 -17 -1 137.89 5.3
3 17 -1 130.79 5.6
1 -17 -3 129.79 5.6
-3 17 1 129.59 6
3 1 17 135.19 5.1
-1 3 17 138.89 5.2
-1 -17 3 148.99 5.4
-3 -1 17 122.79 5.1
3 -17 1 127.09 5.6
1 17 3 124.89 5.6
-1 17 -3 133.69 5.9
1 3 17 145.29 5.5
-3 -17 1 140.89 5.4
-3 17 -1 132.39 6
1 -17 3 132.49 5.4
1 17 -3 135.59 5.9
-1 17 3 126.79 5.8
-1 -3 17 121.29 5
3 17 1 130.29 5.6
-1 -17 -3 146.19 5.7
-3 1 17 126.59 5.4
3 -17 -1 130.09 5.6
-3 17 -3 464.65 12.9
-3 3 17 475.75 12
-3 -3 17 467.65 11.4
-3 -17 3 470.35 11.9
-3 -17 -3 477.95 12.2
3 17 -3 467.35 12.5
3 17 3 463.65 12.6
17 -3 -3 476.05 13
3 3 17 479.55 12.1
3 -17 3 479.45 12.5
3 -17 -3 468.55 12.5
-3 17 3 452.65 12.9
5 -17 1 1079.69 24.3
17 -5 -1 1057.49 24.7
-1 17 -5 1017.5 24.3
-1 5 17 1015.7 23.9
-5 17 1 1011.1 24.5
-5 -17 -1 1040.9 23.9
-5 -1 17 1042 23.5
1 17 5 1008.4 24.3
17 1 -5 1056.09 24.4
1 -17 -5 1039.1 24.1
-1 -17 5 1016.4 23.8
5 17 -1 1019.2 24.1
5 17 1 1045.4 24.2
17 -1 -5 1013.9 24.3
1 -17 5 1037 24
-5 1 17 1060.29 23.7
-1 -17 -5 1040.9 24.1
5 -17 -1 1055.09 24.3
1 5 17 1000.2 23.9
-1 17 5 1010.5 24.4
1 17 -5 1035.7 24.2
-5 -17 1 1058.29 23.8
-5 17 -1 1010.1 24.6
3 17 5 1786.72 40.9
-3 17 -5 1715.73 40.9
-5 -17 -3 1777.42 40.5
5 -17 3 1853.21 40.9
-3 -17 5 1816.62 40.3
5 3 17 1796.12 40.5
17 -5 -3 1837.02 41.1
-3 5 17 1800.12 40.6
-5 17 3 1773.42 41.1
5 17 -3 1791.82 40.6
3 -17 -5 1790.42 40.7
-5 -3 17 1961 39.9
-5 3 17 1843.12 40.5
17 -3 -5 1775.52 40.9
-3 17 5 1765.12 41
-3 -5 17 1823.02 39.8
3 -17 5 1808.02 40.7
5 -17 -3 1790.52 40.8
-5 17 -3 1887.61 41.1
-3 -17 -5 1783.82 40.6
-5 -17 3 1786.92 40.3
3 5 17 1877.61 40.6
3 17 -5 1793.42 40.7
5 17 3 1814.12 40.8
-5 -17 -5 3139.69 69.69
5 17 5 3090.29 69.89
-5 5 17 3114.89 69.69
5 -17 5 3144.39 69.99
5 5 17 3047.7 69.69
5 17 -5 3197.68 69.69
-5 -17 5 3080.89 69.29
-5 -5 17 3298.17 68.89
5 -17 -5 3199.08 69.99
-5 17 -5 3219.08 70.19
-5 17 5 3281.37 70.29
17 -5 -5 3159.58 70.09
-7 17 1 282.97 9.7
-1 -17 7 271.17 8.4
17 -7 -1 279.67 9.6
-1 7 17 273.47 8.7
7 -17 1 264.67 9.1
1 17 7 264.37 9.2
1 -17 -7 279.67 8.7
17 1 -7 282.57 9
7 17 -1 281.37 8.9
-7 -1 17 283.07 8
-1 17 -7 273.37 9.2
-1 17 7 285.77 9.3
7 -17 -1 260.17 9.1
7 17 1 271.77 8.9
17 -1 -7 280.77 9.2
17 -7 1 272.27 9.8
-7 1 17 278.07 8.3
-7 17 -1 266.97 9.7
1 17 -7 286.97 9
-1 -17 -7 270.57 8.6
1 -17 7 273.97 8.8
1 7 17 268.77 8.7
-3 -17 7 1318.37 29.9
-3 7 17 1324.97 30.4
3 -17 -7 1261.67 30.4
-7 17 3 1339.87 31
7 17 -3 1329.07 30.2
7 -3 -17 1331.77 29.9
17 -7 -3 1333.37 30.9
7 -17 3 1318.47 30.7
17 3 -7 1359.76 30.3
-7 -3 17 1369.26 29.5
3 17 7 1371.76 30.7
-7 -17 3 1300.07 29.9
-7 17 -3 1345.77 31
3 17 -7 1311.07 30.3
3 7 17 1304.37 30.3
-3 -7 17 1328.97 29.3
7 17 3 1311.77 30.5
-3 17 7 1327.27 30.8
3 -17 7 1331.07 30.5
17 -7 3 1309.57 31.1
-7 3 17 1335.17 30.2
17 -3 -7 1332.97 30.6
-3 -17 -7 1303.47 30.3
7 -17 -3 1321.27 30.6
-5 7 17 3270.17 72.19
7 -17 5 3297.37 72.49
5 17 7 3356.16 72.39
-5 -17 7 3278.87 71.59
7 5 17 3316.67 72.09
17 -7 -5 3251.87 72.49
7 17 -5 3191.98 71.89
-7 17 5 3293.97 72.69
7 -5 -17 3295.97 71.89
5 -17 -7 3143.99 72.19
-5 17 7 3337.77 72.59
5 17 -7 3334.07 71.89
-7 5 17 3293.27 72.09
7 17 5 3179.58 72.19
17 -5 -7 3294.37 72.39
-7 -17 5 3261.87 71.59
5 -17 7 3304.67 72.39
5 7 17 3294.17 72.19
7 -17 -5 3273.97 72.39
5 -7 -17 3274.87 71.99
-5 -17 -7 3209.48 72.09
17 -7 -7 2808.02 63.29
7 -17 7 2841.22 63.29
7 -7 -17 2902.51 62.89
7 7 17 2817.82 62.99
-7 17 7 2839.02 63.49
7 17 7 2898.91 63.19
7 -17 -7 2862.01 63.19
-7 7 17 2799.82 63.09
7 17 -7 2841.22 62.69
9 -1 -17 225.68 7.2
17 -9 -1 228.18 9.2
9 -17 1 223.98 8.8
-1 -17 9 244.88 7.9
-9 17 1 242.18 9.3
9 17 -1 226.78 8.2
1 -17 -9 243.78 8.3
17 1 -9 236.78 8.4
1 17 9 231.18 8.8
-1 9 17 238.58 8.5
-9 -1 17 238.98 7.6
17 -1 -9 228.38 8.6
1 9 17 230.28 8.3
9 -17 -1 236.78 8.8
-9 17 -1 224.88 9.3
-1 17 9 254.17 8.9
9 17 1 224.88 8.4
17 -9 1 241.28 9.3
-1 -17 -9 242.08 8.2
1 -17 9 234.98 8.2
-9 1 17 238.88 8
-3 9 17 25 3.9
9 17 -3 21.7 3.8
-3 -17 9 19.1 3.1
3 17 9 22.7 4.1
-9 17 3 15.8 4.3
-9 -3 17 25.3 2.8
9 -3 -17 25.2 3.4
17 -9 -3 18.2 4.3
3 -17 -9 18.1 3.4
9 -17 3 17.9 4.1
17 3 -9 22 3.8
-3 -17 -9 20.9 3.6
-9 3 17 20.3 3.8
-3 17 9 17.7 4.1
17 -9 3 18.6 4.3
3 -17 9 21.6 3.9
9 -17 -3 21.9 4.1
3 -9 -17 25.8 3.7
9 17 3 25.5 3.9
17 -3 -9 23.2 4.2
3 9 17 18.7 3.7
-3 -9 17 23.1 2.9
9 -5 -17 648.04 15.7
9 -17 5 619.34 16.6
-5 9 17 629.74 16.3
-9 17 5 655.93 16.9
5 17 9 639.94 16.4
9 17 -5 622.24 15.7
17 5 -9 651.03 15.6
-5 -17 9 623.64 15.1
5 -17 -9 618.04 16
17 -9 -5 649.54 16.7
-9 5 17 671.63 16.2
5 9 17 637.54 16
-5 17 9 647.34 16.7
17 -5 -9 634.84 16.4
5 -17 9 637.24 16.4
5 17 -9 619.74 15.7
5 -9 -17 604.84 15.8
9 -17 -5 624.24 16.4
9 17 5 624.84 16.1
17 -9 5 621.14 17.1
9 17 -7 347.07 10.5
7 17 9 375.86 11.3
-7 9 17 367.66 11.5
7 -17 -9 376.76 11.2
17 7 -9 355.46 10.4
9 -7 -17 363.16 10.7
-9 17 7 395.86 12.1
17 -9 -7 373.36 11.8
9 7 17 370.86 11
9 -17 7 366.96 11.8
9 -17 -7 369.36 11.3
7 9 17 395.86 11.1
9 17 7 390.36 11.2
-7 17 9 372.96 11.9
7 -9 -17 372.86 10.8
-9 7 17 372.26 11.3
17 -7 -9 378.26 11.6
7 -17 9 362.66 11.7
7 17 -9 364.26 10.4
-9 9 17 337.27 11.5
9 17 -9 361.86 10.2
17 -9 -9 363.26 11.6
9 17 9 372.26 11.3
-9 17 9 355.96 12.1
9 -9 -17 355.06 10.8
9 9 17 366.06 11.1
9 -17 -9 360.06 11.2
9 -17 9 359.56 11.9
17 -11 -1 198.38 8.1
1 17 11 198.58 7.6
11 -1 -17 199.38 6.8
11 -17 1 213.18 8.1
1 -17 -11 193.68 7.9
17 1 -11 194.88 7.7
-11 17 1 192.28 7.6
11 17 -1 193.78 7.9
1 -11 17 203.78 8
-11 -1 17 197.28 7.2
-1 -17 11 201.28 7.5
-1 11 17 191.88 8.4
1 11 17 180.28 8.1
-11 1 17 195.58 7.8
17 -11 1 190.58 7.7
11 17 1 200.38 7.9
11 -17 -1 205.78 8.6
-1 17 11 182.48 7.4
1 -17 11 202.88 7.9
-1 -11 17 183.58 7.3
17 -1 -11 201.98 8
-1 -17 -11 185.08 7.7
-3 11 17 1.5 4
3 17 11 0 3.9
11 -3 -17 4.5 3.3
17 3 -11 2.9 3.5
3 -17 -11 4.8 3.7
-11 17 3 0.4 4.4
-3 -17 11 3.7 3.1
17 -11 -3 -1.2 4.2
11 -17 3 4.3 4.3
11 17 -3 0 3.7
-3 17 11 0.2 4.2
3 -17 11 1.2 4
17 -3 -11 3.5 4
11 -17 -3 3 3.9
3 11 17 3.9 3.7
-3 -17 -11 5 3.6
3 -11 -17 1 3.5
17 -11 3 2.5 4.6
11 17 3 4.8 3.8
-11 3 17 5 4
-11 17 5 302.37 10.9
11 17 -5 291.77 9.5
-5 11 17 295.37 10.3
-5 -17 11 292.57 8.3
5 17 11 301.07 10.2
17 -11 -5 293.37 10.7
11 -17 5 295.27 10.8
17 5 -11 296.87 8.9
11 -5 -17 295.47 9.3
5 -17 -11 303.27 9.7
5 -17 11 298.97 10.4
-11 5 17 295.07 10.3
5 11 17 287.87 9.8
17 -5 -11 286.97 10.1
11 -17 -5 309.67 10.4
11 17 5 288.77 9.9
-5 17 11 304.57 10.5
17 -11 5 284.77 10.9
5 -11 -17 288.77 9.6
11 17 -7 13 3.8
-11 17 7 17.3 4.8
7 17 11 13.7 4.1
11 -17 7 12 4.7
-7 11 17 14.8 4.5
7 -17 -11 12 4.1
17 7 -11 19.8 3.4
11 -7 -17 17.1 4
17 -11 -7 12.9 4.7
7 -11 -17 15.2 4.1
17 11 -7 15.9 3.4
-7 17 11 15.1 4.8
17 -11 7 15.8 5.1
17 -7 -11 12.6 4.5
7 -17 11 10.4 4.7
7 11 17 16.7 4.1
11 -17 -7 22.1 4.5
-11 7 17 13.1 4.7
11 17 7 18.6 4.4
11 -17 9 328.77 12
11 9 17 327.47 10.7
11 17 -9 329.07 9.8
-11 17 9 328.97 11.9
-9 11 17 336.47 11.4
9 17 11 321.57 11
11 -9 -17 323.07 10.6
9 -17 -11 329.67 10.9
17 -11 -9 312.17 11.4
9 11 17 329.27 10.8
11 17 9 340.37 10.9
-11 9 17 329.17 11.6
17 -11 9 344.07 12.3
17 -9 -11 329.07 11.3
9 -11 -17 327.17 10.8
11 -17 -9 321.97 10.9
9 -17 11 336.97 11.9
17 11 -9 336.67 9
-9 17 11 322.07 11.8
-11 17 11 337.17 12.2
11 17 11 336.27 11.1
11 -17 11 334.17 12.3
11 -11 -17 313.07 10.9
11 11 17 332.77 11.1
-11 11 17 326.77 12.1
11 -17 -11 330.77 11.2
17 -11 -11 308.87 11.6
17 1 -13 39.4 4.2
13 17 -1 32 4.3
1 -13 17 33.3 4.6
13 -17 1 30.3 4.6
1 17 13 31.7 4.8
1 -17 -13 36.1 4.5
13 -1 -17 38.3 3.8
17 13 1 36.2 4.5
-1 13 17 36.3 4.8
17 -13 -1 36.5 5.4
-1 -17 13 37.7 4.2
-1 17 13 36.2 5
13 -17 -1 30.1 4.7
13 1 -17 34.7 3.4
1 13 17 46.1 5
-13 1 17 33.6 4.6
1 -17 13 32 4.5
17 13 -1 31 4.2
13 17 1 35 4.5
-1 -13 17 38.5 4.1
17 -1 -13 30.5 4.3
17 -13 1 40.6 5.5
-1 -17 -13 36.6 4.4
-13 17 3 449.56 14
17 3 -13 459.15 12
3 -17 -13 473.45 12.8
-3 13 17 470.65 13.4
17 13 3 454.75 12.8
13 -17 3 459.75 13.8
-3 -17 13 449.86 11.8
3 -13 17 445.86 13.2
17 -13 -3 467.55 13.8
13 17 -3 441.16 12.6
13 -3 -17 440.56 12.2
3 17 13 458.45 13.4
3 -17 13 432.26 13.1
13 -17 -3 453.25 13.5
3 -13 -17 446.16 12.7
-3 17 13 468.55 13.5
3 13 17 470.55 13.1
17 -13 3 450.15 14
13 17 3 455.45 12.9
17 -3 -13 452.25 12.9
17 13 -3 444.36 12.3
-13 3 17 456.35 13.2
13 17 -5 930.51 21.9
5 -17 -13 894.61 22.2
17 5 -13 938.21 21
17 13 5 870.71 22.1
13 -17 5 941.41 23
5 -13 17 888.91 22.6
17 -13 -5 912.41 22.8
-5 -17 13 914.81 20.8
-5 13 17 928.81 22.7
-13 17 5 904.91 23.2
5 17 13 939.51 22.5
13 -5 -17 909.11 21.9
13 17 5 916.11 22.3
17 -5 -13 888.71 22.3
13 -17 -5 922.01 22.7
5 -17 13 909.61 22.6
17 13 -5 939.81 21.6
5 -13 -17 953.6 22.2
17 -13 5 880.21 23
5 13 17 938.51 22.4
-13 5 17 904.71 22.6
-5 17 13 910.21 22.7
7 -13 17 487.35 14.8
7 -17 -13 509.75 13.8
17 -13 -7 498.45 14.4
7 17 13 490.75 14
13 17 -7 497.05 13.2
-13 17 7 488.35 14.8
13 -7 -17 465.85 13.5
13 -17 7 480.95 14.8
-7 13 17 467.15 14.3
17 13 7 491.55 13.8
-13 7 17 484.25 14.5
17 -13 7 482.05 14.9
17 -7 -13 473.35 14
7 13 17 477.25 13.8
-7 17 13 484.55 14.5
7 -13 -17 504.45 13.7
17 13 -7 497.75 12.7
7 -17 13 470.75 14.6
13 -17 -7 493.55 14.2
13 17 7 500.55 13.9
17 -13 -9 5.4 4.9
13 -17 9 1.2 5.2
9 17 13 -0.2 4.6
13 -9 -17 -0.6 4.4
-13 17 9 0.9 5.4
-9 13 17 -2.8 5.1
9 -13 17 -1.7 5.7
13 9 17 2 4.5
9 -17 -13 -3.6 4.5
17 13 9 3.6 4.6
13 17 -9 -1.5 3.9
9 13 17 1.7 4.5
17 -13 9 -0.7 5.6
17 13 -9 2.2 3.3
13 -17 -9 -1.1 4.7
-9 17 13 -1.4 5.2
9 -17 13 -0.9 5.4
9 -13 -17 -0.3 4.5
17 -9 -13 -1.4 4.9
-13 9 17 1.4 5.3
13 17 9 1.9 4.3
-11 13 17 8.8 5.8
11 -17 -13 6.2 4.9
-17 11 13 7.5 6.2
17 -13 -11 8.6 5.2
13 -17 11 5.1 6
17 13 11 -1.5 4.9
-13 17 11 3.5 5.7
13 11 17 2.7 4.8
11 17 13 5.7 4.4
13 -11 -17 3.7 4.8
11 -17 13 6.5 6.1
13 -17 -11 6.2 5
17 -13 11 4.2 6.2
11 13 17 8.5 4.8
11 -13 -17 9.7 4.9
-11 17 13 7.9 5.9
17 -11 -13 12.3 5.2
13 17 11 7.9 5.1
-13 11 17 -1 5.8
-17 13 11 10.4 6.1
-17 13 13 55.09 7.2
13 -17 -13 48.6 5.8
13 -17 13 47.7 7.1
17 -13 13 49.9 7.3
17 13 13 48.4 5.6
13 -13 -17 51.99 6
-13 17 13 58.59 7
13 13 17 48.4 5.9
-13 13 17 58.39 7
17 -13 -13 53.19 6.5
13 17 13 53.49 6.2
17 -15 -1 110.29 6.6
1 -17 -15 134.89 6.3
15 17 -1 107.49 6.1
-1 -17 15 130.89 6
15 -17 1 124.29 7.2
17 1 -15 125.39 5.7
-1 15 17 114.69 6.7
1 17 15 128.39 7
1 -15 17 130.09 6.5
17 15 1 102.19 6
15 -1 -17 127.59 5.6
17 15 -1 102.09 5.9
17 -1 -15 136.09 6.1
15 -17 -1 125.19 6.9
1 -17 15 123.19 6.4
-1 -15 17 130.39 5.8
1 -15 -17 137.39 6.5
-1 17 15 135.99 6.9
1 15 17 125.49 6.7
-1 -17 -15 128.19 6.3
17 -15 1 116.29 6.9
15 1 -17 140.29 5.3
15 17 1 101.59 6
-3 15 17 1508.25 34.5
-3 -17 15 1481.65 33.1
3 17 15 1543.85 34.5
17 3 -15 1501.95 33
3 -17 -15 1444.36 34
15 17 -3 1392.36 33.7
15 -17 3 1454.15 34.7
15 -3 -17 1475.35 33.6
17 15 3 1448.56 34
3 -15 17 1492.45 34.2
17 -15 -3 1466.35 34.6
3 -15 -17 1500.85 34
-3 17 15 1437.26 34.4
17 -15 3 1504.45 34.8
17 15 -3 1449.15 33.7
17 -3 -15 1521.35 33.8
15 -17 -3 1469.45 34.5
15 17 3 1434.26 34
3 -17 15 1474.15 34.2
3 15 17 1470.15 34.3
15 -17 5 3649.53 81.49
15 17 -5 3712.33 80.59
17 -15 -5 3654.03 81.39
5 -17 -15 3698.83 80.99
-15 17 5 3775.72 81.69
5 -15 17 3589.64 81.09
15 -5 -17 3634.74 80.69
-5 15 17 3752.22 81.39
5 17 15 3738.93 81.19
17 15 5 3638.94 80.89
-5 17 15 3645.84 81.39
5 15 17 3760.32 81.19
17 -5 -15 3711.23 80.89
-15 5 17 3579.64 81.19
17 -15 5 3706.73 81.59
17 15 -5 3655.03 80.39
5 -15 -17 3582.94 80.89
15 -17 -5 3641.54 81.29
15 17 5 3627.74 80.99
5 -17 15 3542.55 81.09
7 -15 17 2106.79 50.69
17 15 7 2273.27 50.39
-15 17 7 2268.67 51.09
15 17 -7 2258.27 49.7
15 -7 -17 2150.18 50.09
7 -17 -15 2249.27 50.39
15 -17 7 2288.37 50.99
7 17 15 2281.37 50.49
-7 15 17 2307.17 50.89
17 -15 -7 2274.67 50.69
-7 17 15 2327.47 50.89
15 -17 -7 2279.37 50.69
17 15 -7 2168.38 49.5
7 15 17 2311.17 50.49
17 -15 7 2232.28 50.99
7 -15 -17 2227.18 50.29
17 -7 -15 2192.88 50.29
15 17 7 2224.98 50.39
-15 7 17 2114.29 50.69
7 -17 15 2123.89 50.69
9 -15 17 433.56 15.6
9 -17 -15 517.35 14.6
-9 15 17 501.75 15.4
-17 9 15 481.75 15.8
17 -15 -9 485.95 15.1
-15 17 9 516.95 15.7
17 15 9 517.85 14.7
15 -17 9 506.55 15.8
9 17 15 507.85 14.8
15 -9 -17 477.95 14.4
-15 9 17 501.25 15.7
9 -17 15 436.56 15.5
17 15 -9 510.55 13
17 -9 -15 445.26 14.6
-9 17 15 501.35 15.7
9 -15 -17 504.75 14.5
15 17 9 532.25 14.7
9 15 17 510.95 14.6
15 -17 -9 494.25 14.9
17 -15 9 489.05 15.7
11 -17 -15 354.96 12.3
15 -17 11 369.06 14.1
15 11 17 343.07 12.2
17 -15 -11 374.16 13
-15 17 11 335.37 13.7
-11 15 17 361.36 13.8
17 15 11 362.36 12.6
11 -15 17 347.57 14
-17 11 15 350.36 13.9
11 17 15 366.86 12.4
15 -11 -17 326.77 12.2
11 15 17 355.46 12.3
15 -17 -11 353.36 12.5
11 -17 15 351.56 14.1
15 17 11 355.56 12.5
17 -11 -15 336.07 12.5
17 -15 11 366.26 14
11 -15 -17 342.37 12.4
17 11 15 344.47 12.3
-11 17 15 358.16 13.8
-15 11 17 358.76 13.9
-17 15 11 369.26 14
13 17 15 844.42 21.9
17 -13 15 798.92 23.2
13 -17 -15 884.91 21.8
17 -15 -13 822.32 22.1
15 -17 13 877.21 23.2
-17 13 15 863.71 23.2
-15 17 13 870.01 23
-13 15 17 849.61 22.9
15 13 17 851.11 21.9
13 -15 17 821.22 23.3
15 -13 -17 809.02 21.7
17 15 13 863.91 22
-17 15 13 856.91 23.2
-15 13 17 838.62 23.1
-13 17 15 846.22 23
17 -13 -15 833.32 22
13 -17 15 848.32 23.3
17 13 15 844.72 21.8
13 15 17 835.22 21.8
13 -15 -17 865.11 21.9
15 17 13 866.11 21.9
17 -15 13 808.72 23.3
15 -17 -13 858.61 21.9
-17 15 15 1224.88 31.2
-15 15 17 1234.88 31.2
-15 17 15 1260.47 31.2
15 -17 -15 1204.68 30.1
15 -17 15 1229.48 31.4
15 -15 -17 1265.47 30.1
15 -15 17 1197.88 31.5
15 15 17 1231.28 29.9
15 17 15 1194.18 29.9
17 -15 -15 1265.47 30.2
17 -15 15 1256.27 31.5
17 15 15 1265.37 30.2
-1 -17 17 9.4 4.5
-1 17 17 7 5.2
1 -17 -17 6.8 4.7
1 -17 17 15.5 5.3
1 17 17 9.2 5.3
17 -17 -1 7.1 5.4
17 -17 1 7.1 5.7
17 -1 -17 8.4 4.5
17 1 -17 14.1 4.2
17 17 -1 7.4 4.9
17 17 1 8.6 4.9
-3 17 17 461.55 14.7
3 -17 -17 479.85 13.8
3 -17 17 449.16 14.5
3 17 17 486.45 14.6
17 -17 -3 478.75 14.8
17 -17 3 490.25 15.2
17 -3 -17 478.25 13.7
17 17 -3 480.75 13.9
17 17 3 481.75 14
-5 17 17 1689.73 39.9
5 -17 -17 1688.43 39.4
5 -17 17 1689.83 39.9
5 17 17 1740.43 39.7
17 -17 -5 1743.93 39.9
17 -17 5 1745.43 40.2
17 -5 -17 1644.84 39.2
17 17 -5 1746.93 39
17 17 5 1727.03 39.4
-7 17 17 1132.39 27.7
7 -17 -17 1112.29 26.8
7 -17 17 1095.79 27.8
7 17 17 1153.78 27.2
17 -17 -7 1137.39 27.4
17 -17 7 1141.99 28
17 -7 -17 1014 26.8
17 17 -7 1113.19 26.3
17 17 7 1128.09 27
-17 9 17 50.29 7.4
-17 17 9 48.2 6.9
-9 17 17 58.69 7.1
9 -17 -17 51.69 5.8
9 -17 17 52.79 7.5
9 17 17 59.89 6.4
17 -17 -9 56.19 6.5
17 -17 9 54.79 7.2
17 -9 -17 42.9 6.4
17 17 9 56.29 6.5
-17 11 17 126.69 9
-17 17 11 126.19 8.5
-11 17 17 146.49 9.2
11 -17 -17 136.19 7.8
11 -17 17 124.59 9.1
11 17 17 148.09 8.1
17 -17 -11 154.68 8.6
17 -17 11 148.19 9.1
17 -11 -17 116.49 7.8
17 11 17 152.98 7.9
17 17 11 147.49 8.2
-17 13 17 582.24 18.8
-17 17 13 587.04 18.9
-13 17 17 577.84 18.5
13 -17 -17 573.34 17.2
13 -17 17 540.75 18.9
13 17 17 582.14 17.1
17 -17 -13 576.44 17.3
17 -17 13 578.24 18.9
17 -13 -17 557.14 17.3
17 13 17 580.24 17.1
17 17 13 593.94 17.1
-17 15 17 1361.96 33.7
-17 17 15 1345.27 33.7
-15 17 17 1329.97 33.6
15 -17 -17 1292.27 32.4
15 -17 17 1312.87 33.8
15 17 17 1341.47 32.4
17 -17 -15 1372.76 32.5
17 -17 15 1310.17 33.8
17 -15 -17 1320.37 32.4
17 -15 17 1320.57 33.9
17 15 17 1351.96 32.4
17 17 15 1344.07 32.4
-17 17 17 767.42 23.8
17 -17 -17 811.42 21.9
17 -17 17 756.12 24
17 17 17 780.52 21.8
0 -18 0 2058.99 46.4
0 0 18 2133.29 46.2
0 18 0 2052.89 46.8
-2 -18 0 203.48 7.3
-2 18 0 203.98 8.3
0 -2 18 224.48 6.8
0 2 18 203.98 7.1
2 -18 0 215.88 7.7
2 18 0 208.08 8
0 18 -2 223.48 8.3
0 18 2 204.08 8.1
2 0 18 211.68 7
0 -18 2 205.88 7.4
0 -18 -2 199.88 7.3
-2 0 18 228.08 6.9
-2 2 18 52.49 3.7
-2 -2 18 47.3 3.3
-2 -18 2 48.1 3.7
-2 -18 -2 46.1 3.7
2 -18 2 50.39 4
2 2 18 52.49 3.7
2 18 2 45.5 4.3
2 18 -2 49.4 4.3
-2 18 -2 48.6 4.6
-2 18 2 50.39 4.6
2 -18 -2 47.4 3.7
-4 18 0 340.77 10.7
-4 -18 0 333.97 9.6
0 18 -4 315.07 10.4
0 18 4 323.17 10.4
18 0 -4 334.37 10.7
-4 0 18 340.47 9.4
0 -18 -4 351.86 9.9
0 -18 4 348.67 9.9
0 4 18 340.47 9.7
4 -18 0 351.56 10.2
4 18 0 342.37 10.2
4 18 -2 461.15 12.4
2 -18 -4 446.26 12.1
2 18 4 448.46 12.5
4 2 18 448.56 11.9
18 -4 -2 456.45 12.9
4 -18 2 463.55 12.4
-4 18 2 446.46 12.9
-2 -18 4 465.25 11.9
-2 4 18 464.05 11.9
-2 18 -4 430.26 12.7
-4 -2 18 458.75 11.4
-4 -18 -2 462.95 12
-4 2 18 446.26 11.8
4 18 2 442.26 12.5
2 18 -4 443.56 12.5
-2 18 4 443.16 12.7
-2 -18 -4 445.26 12
-4 -18 2 450.55 11.8
-2 -4 18 464.35 11.2
18 -2 -4 460.65 12.8
2 4 18 459.05 11.9
4 -18 -2 433.26 12.3
-4 18 -2 449.36 12.9
2 -18 4 443.16 12.3
-4 -4 18 848.22 18.3
-4 4 18 818.32 19.1
4 -18 -4 796.02 19.4
4 -18 4 818.82 19.5
-4 -18 -4 784.22 19.1
-4 -18 4 787.42 18.8
4 18 -4 779.22 19.3
4 18 4 778.72 19.5
18 -4 -4 806.72 19.8
4 4 18 766.82 19.1
-4 18 -4 783.92 19.8
-4 18 4 785.52 19.8
6 -18 0 393.06 11.5
18 -6 0 389.06 12.1
0 -18 -6 382.66 11
0 -18 6 399.16 10.9
0 18 6 393.96 11.6
-6 -18 0 400.46 10.7
-6 18 0 413.96 12
0 6 18 388.06 11
6 18 0 392.76 11.3
-6 0 18 393.76 10.5
18 0 -6 390.16 11.5
0 18 -6 367.46 11.4
2 -18 -6 587.84 14.6
18 2 -6 569.94 15
-2 18 -6 553.04 15.1
-6 -2 18 576.84 13.8
-6 -18 -2 569.04 14.3
-2 6 18 577.04 14.5
-6 18 2 588.34 15.4
6 18 -2 581.94 14.7
18 -6 -2 573.24 15.3
2 18 6 533.55 15
-2 -18 6 585.34 14.2
6 -18 2 569.44 14.9
6 -18 -2 563.94 14.9
2 -18 6 556.64 14.6
18 -6 2 577.04 15.5
-6 18 -2 557.04 15.3
-2 -18 -6 556.14 14.5
18 -2 -6 557.74 15
-6 -18 2 569.84 14.1
-6 2 18 576.74 14.3
-2 -6 18 580.24 13.5
2 18 -6 573.74 14.8
6 18 2 547.85 14.8
2 6 18 554.94 14.4
-2 18 6 583.44 15.2
4 18 6 1577.14 36.3
18 -6 -4 1582.44 36.6
-4 6 18 1580.04 36.1
6 4 18 1606.64 36
-6 -18 -4 1577.84 35.9
4 -18 -6 1632.14 36.2
-6 -4 18 1619.04 35.1
-4 -18 6 1598.14 35.6
6 18 -4 1563.64 36
6 -18 4 1576.84 36.3
-6 18 4 1578.64 36.6
4 -18 6 1584.64 36.2
4 18 -6 1591.84 36.1
-4 -18 -6 1583.64 36
-4 -6 18 1611.24 35
-6 4 18 1600.94 36
-4 18 6 1619.24 36.6
-6 18 -4 1546.05 36.6
18 -4 -6 1558.94 36.4
-6 -18 4 1596.54 35.6
4 6 18 1578.04 36
6 18 4 1588.94 36.2
6 -18 -4 1591.14 36.2
6 -18 6 2137.49 47.7
-6 -18 6 2141.29 46.9
-6 6 18 2147.89 47.5
-6 18 6 2110.79 47.9
18 -6 -6 2145.19 47.8
6 -18 -6 2068.79 47.6
6 18 -6 2089.99 47.3
6 -6 -18 2085.59 47.1
6 6 18 2116.39 47.4
6 18 6 2130.19 47.6
8 18 0 183.18 6.9
-8 0 18 172.88 7
18 0 -8 178.08 7
-8 18 0 164.98 7.5
0 -18 8 177.58 7.3
0 18 8 185.68 7.4
18 -8 0 166.38 7.5
0 -18 -8 165.58 6.6
0 8 18 161.08 6.5
8 -18 0 194.58 7.5
-2 -18 8 3.4 3.2
18 -8 -2 4.8 4.3
8 18 -2 1.4 3.8
8 -18 2 2.8 3.8
-8 18 2 3.7 4.1
-2 8 18 7.3 3.7
18 2 -8 3.9 3.8
-8 -2 18 3.4 3
2 18 8 6.8 3.9
2 -18 -8 4.7 3.3
2 8 18 5.6 3.6
-2 18 8 7 4
-2 -18 -8 5 3.3
2 18 -8 5.6 4
18 -8 2 7.1 4.5
-8 2 18 6.4 3.5
8 18 2 4 3.8
18 -2 -8 9.1 4.1
8 -18 -2 4.7 3.8
-8 18 -2 6.9 4.5
2 -18 8 2.8 3.7
4 18 8 271.37 9.7
4 -18 -8 268.57 9.1
18 4 -8 269.27 9.3
-4 8 18 272.67 9.5
18 -8 -4 275.77 10.2
8 18 -4 283.97 9.3
-4 -18 8 275.67 8.3
8 -18 4 273.17 9.8
-8 18 4 281.27 10.4
8 -4 -18 280.17 8.6
8 18 4 287.47 9.6
4 8 18 281.57 9.2
18 -4 -8 268.17 9.9
-4 18 8 274.07 10
4 18 -8 269.17 9.3
4 -18 8 286.47 9.6
-8 4 18 266.37 9.3
-4 -18 -8 287.87 9.1
8 -18 -4 280.57 9.8
18 -8 4 271.47 10.5
18 6 -8 694.63 18.2
8 -18 6 735.43 18.9
-6 8 18 720.73 18.6
18 -8 -6 802.32 19.1
6 -18 -8 761.12 18.6
-6 -18 8 713.73 17.5
-8 18 6 737.53 19.2
6 18 8 747.93 18.7
8 -6 -18 754.82 18
8 6 18 776.72 18.4
8 18 -6 703.83 18.1
6 18 -8 742.13 18.1
6 8 18 758.82 18.4
8 -18 -6 721.13 18.5
-8 6 18 718.53 18.5
6 -18 8 751.52 18.8
8 18 6 756.52 18.6
18 -6 -8 730.93 18.9
6 -8 -18 753.12 18.1
-6 18 8 777.02 19.2
8 8 18 7.1 4
8 -8 -18 3.8 3.7
-8 18 8 4.4 4.8
8 18 -8 -0.1 4
8 18 8 0.3 4.2
18 -8 -8 3.3 4.5
8 -18 -8 3 4
8 -18 8 -1 4.4
-8 8 18 1.3 4.4
0 10 18 197.68 8.2
10 -18 0 191.38 7.6
-10 18 0 192.58 7.8
18 0 -10 186.58 8.3
18 -10 0 198.58 8.1
0 -18 -10 200.78 7.9
0 -18 10 200.28 8
0 18 10 204.78 8.8
-10 0 18 198.78 7.7
10 18 0 192.78 8.2
10 -2 -18 118.29 5.1
10 18 -2 103.69 5.7
-2 10 18 116.39 5.8
-10 -2 18 123.79 4.9
2 18 10 104.69 5.9
18 2 -10 106.49 5.6
2 -18 -10 94.29 5.3
-10 18 2 123.79 6.8
10 -18 2 104.89 6
-2 -18 10 117.29 5.3
18 -10 -2 120.49 6.7
2 10 18 116.59 5.8
18 -10 2 119.99 6.8
10 18 2 118.29 6
-2 18 10 109.99 6.2
10 -18 -2 121.99 6.2
2 -18 10 113.39 5.9
-2 -10 18 121.99 4.9
-2 -18 -10 116.19 5.7
-10 2 18 111.09 5.7
18 -2 -10 119.49 6.1
-10 18 4 52.79 5.5
10 -18 4 50.29 5.2
18 4 -10 51.99 4.5
-4 10 18 40 4.9
18 -10 -4 39 4.9
4 18 10 47.9 4.9
10 18 -4 43.5 4.6
-4 -18 10 51.69 3.9
10 -4 -18 54.19 4.2
4 -18 -10 47.1 4.2
4 10 18 47.1 4.5
10 -18 -4 41.3 4.8
18 -4 -10 44 5
4 -18 10 40.8 4.7
4 -10 -18 44.6 4.4
-4 18 10 48.3 5.1
-10 4 18 49.2 4.8
-4 -18 -10 50.09 4.5
18 -10 4 49.1 5.6
10 18 4 42.3 4.7
10 18 -6 98.29 5.4
18 6 -10 110.89 5.2
6 18 10 106.89 6.1
-10 18 6 87.79 6
-6 -18 10 105.89 4.5
10 -6 -18 98.19 5.3
18 -10 -6 95.39 6.3
-6 10 18 108.09 6
10 -18 6 91.49 6
6 -18 -10 115.49 6.1
6 10 18 101.69 5.8
18 -6 -10 113.29 6.3
10 18 6 106.09 5.9
6 -10 -18 98.19 5.3
6 -18 10 95.79 6.1
18 -10 6 94.69 6.7
-10 6 18 96.79 6
10 -18 -6 111.29 6.3
-6 18 10 101.09 6.2
-8 10 18 286.27 10.7
18 -10 -8 286.37 10.8
8 18 10 308.37 10.4
-10 18 8 288.67 11.2
18 8 -10 298.27 9.2
10 -18 8 287.07 11
10 18 -8 276.87 9.6
10 8 18 287.47 10
10 -8 -18 276.47 9.8
8 -18 -10 295.57 10.2
8 -18 10 269.17 10.9
-8 18 10 307.47 11.3
8 -10 -18 282.47 9.9
10 -18 -8 288.67 10.2
8 10 18 301.77 10.2
18 -10 8 299.57 11.6
-10 8 18 271.87 10.7
10 18 8 311.07 10.4
18 -8 -10 292.07 10.7
8 18 -10 292.37 9.4
10 18 -10 731.33 17.9
10 18 10 738.93 19.1
10 -18 -10 747.93 19
10 -18 10 763.92 19.8
10 10 18 781.52 19.1
-10 10 18 723.33 19.5
-10 18 10 751.62 19.8
18 -10 -10 740.23 19.4
18 10 -10 752.52 17.4
10 -10 -18 716.93 18.7
18 10 -10 740.23 17.9
-12 0 18 288.67 9.5
0 18 12 281.97 10.6
0 -18 -12 276.47 9.6
18 -12 0 290.27 10.9
0 -12 18 270.77 9.5
0 12 18 283.97 10.2
18 0 -12 294.47 9.7
12 18 0 278.57 9.9
12 0 -18 285.47 8.5
12 -18 0 293.97 10.6
0 -18 12 284.37 9.7
-12 18 2 29.5 5.1
12 -18 2 28.3 5.1
-2 -18 12 30 4
18 2 -12 32.6 4.3
12 18 -2 22.7 4.5
2 -12 18 27.4 4.9
2 -18 -12 25.8 4.3
18 -12 -2 33.1 5.5
-2 12 18 22.4 4.7
2 18 12 31.4 4.9
12 -2 -18 24.9 3.9
-2 -12 18 25.5 3.8
2 -18 12 29.4 4.6
18 -2 -12 22.3 4.6
2 12 18 28.8 4.6
12 -18 -2 33.9 5
-2 18 12 25.9 4.7
18 -12 2 23.3 5.3
-2 -18 -12 18 4.3
-12 2 18 28.8 4.7
12 18 2 18.3 4.4
4 -12 18 75.29 6
18 4 -12 78.89 4.8
-4 12 18 75.19 5.8
18 -12 -4 70.99 5.8
4 -18 -12 75.49 5.2
-4 -18 12 75.59 4.2
4 18 12 69.29 5.4
12 -4 -18 69.99 4.8
12 18 -4 66.39 5.2
12 -18 4 65.29 5.9
-12 18 4 82.89 6.5
-4 18 12 74.49 5.9
4 -12 -18 71.19 5.2
4 -18 12 65.29 5.7
12 18 4 70.29 5.4
12 -18 -4 74.49 5.5
18 -12 4 78.69 6.6
4 12 18 80.39 5.6
18 12 -4 73.89 4.8
-12 4 18 75.09 5.8
18 -4 -12 62.89 5.3
12 -6 -18 30 4.4
6 18 12 28.3 4.9
12 -18 6 28.2 5.5
-6 -18 12 24.7 3.2
18 6 -12 27.8 3.8
6 -18 -12 24.9 4.6
18 -12 -6 23.1 5.2
-12 18 6 27.2 5.6
12 18 -6 23 4.5
-6 12 18 23.3 5.1
6 -12 -18 23.2 4.6
18 12 -6 26.8 4.1
6 -18 12 21.7 5.2
18 -12 6 20.9 5.7
-12 6 18 18.1 5.1
6 12 18 28.4 4.9
12 -18 -6 23.6 5
12 18 6 30.7 5
18 -6 -12 24.2 4.9
-6 18 12 27.7 5.2
8 18 12 186.08 7.7
18 -12 -8 206.08 8.6
12 -8 -18 185.08 7.6
12 -18 8 183.78 8.3
8 -18 -12 175.98 7.3
12 8 18 205.88 7.8
-8 12 18 202.78 8.4
12 18 -8 201.68 7.3
-12 18 8 202.98 8.8
12 -18 -8 210.98 8.5
8 -12 -18 193.28 7.9
18 -12 8 198.58 9.1
-8 18 12 206.68 8.9
-12 8 18 191.68 8.4
8 -18 12 173.88 8.3
12 18 8 210.78 8.4
8 12 18 226.58 8.5
18 -8 -12 194.78 8.4
18 12 -8 190.88 7.5
-10 12 18 320.77 12.2
12 -10 -18 293.07 10.9
-12 18 10 314.37 12.3
12 -18 10 303.97 12.4
10 18 12 321.07 11.5
10 -18 -12 316.97 11
18 -12 -10 315.67 11.7
12 10 18 295.37 11
18 -10 -12 326.77 11.9
10 12 18 307.67 10.9
12 -18 -10 315.17 11.2
12 18 10 328.27 11.3
-12 10 18 304.27 12.3
10 -12 -18 304.67 10.9
-10 18 12 327.67 12.5
18 -12 10 324.57 12.7
10 -18 12 310.37 12.4
12 -18 -12 245.98 10.4
12 -18 12 223.38 9.8
18 -12 -12 256.97 9.8
-12 12 18 239.58 9.9
-12 18 12 259.67 10.3
18 -12 12 218.68 10
12 18 12 237.68 10.5
12 12 18 242.18 10.4
12 -12 -18 248.28 9.4
18 12 12 246.18 10.3
14 0 -18 10.4 3.8
18 14 0 12.5 4.6
14 -18 0 7.3 4.9
0 18 14 8.5 4.7
18 -14 0 14.8 5.5
0 -14 18 14.2 4.5
18 0 -14 12.4 4.4
0 -18 14 7.4 4.4
0 -18 -14 12 4.2
0 14 18 14.4 4.8
14 18 0 6.6 4.6
18 14 2 168.98 7.3
-2 14 18 185.98 8.1
14 -2 -18 185.08 7.9
2 -18 -14 210.28 8.1
-2 -18 14 196.98 6.9
2 18 14 178.18 7.8
18 2 -14 190.88 7.9
14 -18 2 209.68 8.7
18 -14 -2 165.58 7.8
2 -14 18 202.28 7.9
14 18 -2 161.78 7.3
14 -18 -2 172.18 7.6
2 -14 -18 214.08 7.8
18 -2 -14 187.78 7.5
2 14 18 195.58 8.1
18 -14 2 205.68 9
2 -18 14 177.78 7.6
-14 2 18 179.28 7.8
-2 -14 18 179.08 7.3
-2 18 14 195.18 8.4
14 18 2 168.18 7.4
18 14 -2 163.18 7.1
-4 -18 14 1174.18 26.7
4 -14 18 1163.58 28.2
14 -4 -18 1223.58 27.5
18 -14 -4 1156.48 28.5
-14 18 4 1129.49 28.7
14 18 -4 1151.38 27.6
4 18 14 1225.68 28.3
14 -18 4 1203.38 28.6
18 14 4 1182.78 27.8
18 4 -14 1187.68 26.8
-4 14 18 1178.78 28.3
4 -18 -14 1192.18 27.8
14 18 4 1172.58 27.9
18 -4 -14 1136.19 27.9
-14 4 18 1167.78 28.2
14 -18 -4 1177.08 28.3
-4 18 14 1214.58 28.5
4 -18 14 1136.49 28.1
18 -14 4 1158.98 28.7
18 14 -4 1175.28 27.3
4 14 18 1180.88 28
4 -14 -18 1183.58 27.7
6 -14 18 1210.28 29.2
18 -14 -6 1215.88 29.2
-14 18 6 1227.88 29.6
14 -18 6 1251.07 29.5
-6 14 18 1194.58 29.1
14 -6 -18 1197.38 28.4
18 14 6 1234.78 28.6
6 18 14 1271.37 29
14 18 -6 1207.18 28.3
6 -18 -14 1223.78 28.6
6 -18 14 1164.78 29.1
6 -14 -18 1196.48 28.6
14 18 6 1199.18 28.7
-14 6 18 1141.49 29.1
-6 18 14 1218.28 29.2
18 -6 -14 1168.88 28.7
6 14 18 1235.68 28.8
18 -14 6 1210.68 29.5
18 14 -6 1202.08 27.9
14 -18 -6 1221.68 29.1
-14 18 8 244.98 10.1
8 18 14 233.28 9
-8 14 18 240.28 9.4
8 -14 18 211.68 9.5
14 -8 -18 213.58 8.4
18 14 8 239.58 9
8 -18 -14 239.48 9.8
14 -18 8 230.18 9.6
14 18 -8 230.18 9.3
18 -14 -8 225.08 8.9
8 14 18 212.48 8.6
18 -14 8 253.77 10.3
-8 18 14 231.08 9.5
14 18 8 218.28 8.9
18 -8 -14 197.08 8.8
18 14 -8 218.68 8.5
8 -14 -18 231.98 9.7
-14 8 18 208.68 9.3
8 -18 14 201.88 9.3
14 -18 -8 258.97 9.5
-10 14 18 60.49 6.8
10 -14 18 50.09 7.3
10 -18 -14 64.79 6.2
-14 18 10 50.49 6.4
10 18 14 58.29 6
14 -18 10 53.49 6.9
14 10 18 51.39 5.5
18 -14 -10 51.29 6.1
18 14 10 47.8 5.6
14 -10 -18 48.3 5.8
10 14 18 59.39 5.7
-10 18 14 49.1 6.6
14 18 10 58.89 6
10 -14 -18 52.39 5.8
-14 10 18 55.69 6.9
18 -14 10 52.39 7
18 -10 -14 43.6 6.3
14 -18 -10 61.69 6.3
10 -18 14 48.7 6.9
-14 18 12 51.89 7.2
-12 14 18 53.69 7.3
14 -12 -18 49.3 6.4
14 12 18 54.79 6.3
14 -18 12 55.09 7.6
-18 12 14 59.79 7.7
12 18 14 50.79 6.5
12 -14 18 45.5 7.7
18 -14 -12 57.99 6.8
18 14 12 47.7 6.3
12 -18 -14 51.39 5.8
-14 12 18 52.79 7.3
12 14 18 55.79 6.1
14 -18 -12 64.99 6.5
14 18 12 62.69 6.6
18 -12 -14 40.3 6.2
18 12 14 57.39 6.1
-12 18 14 57.09 7.3
18 -14 12 54.29 7.6
12 -14 -18 55.89 6.4
12 -18 14 58.59 7.7
14 -18 -14 396.26 14
-14 14 18 412.06 15.7
-14 18 14 422.06 15.5
14 14 18 410.46 14
-18 14 14 428.86 15.8
14 -14 18 435.06 16.6
14 -18 14 427.46 16.1
18 -14 -14 440.66 14.5
14 -14 -18 389.26 14.1
18 14 14 412.46 14.2
18 -14 14 417.46 16.2
14 18 14 443.46 14.3
16 -18 0 44.6 6.1
0 -18 16 46.4 5.3
18 -16 0 34.5 5.8
16 0 -18 48.7 4.6
0 -18 -16 43.2 5.2
0 18 16 46.2 6
0 -16 18 45.7 5.3
18 0 -16 42.5 4.9
0 16 18 35 5.6
18 16 0 30.1 5.1
16 18 0 34.5 5.4
2 18 16 385.66 13
2 -18 -16 394.36 12.2
-2 -18 16 378.96 11.5
18 2 -16 385.26 11.1
18 -16 -2 397.06 13.3
16 -18 2 379.46 13.4
-2 16 18 403.96 13.2
18 16 2 356.96 12.2
2 -16 18 389.86 12.7
16 18 -2 362.86 12.3
16 -2 -18 390.36 11.7
16 2 -18 376.76 10.5
18 -2 -16 393.46 12
2 16 18 378.26 12.8
-2 18 16 389.76 13.2
2 -18 16 378.76 12.7
16 -18 -2 365.06 13
-2 -16 18 387.76 11.1
18 -16 2 388.66 13.6
18 16 -2 379.96 12.1
2 -16 -18 384.66 12.1
16 18 2 358.36 12.4
16 18 -4 1985.5 44.6
16 -18 4 1985.9 45.6
18 -16 -4 1969.2 45.4
16 -4 -18 2005 44.6
-4 16 18 2020.6 45.4
4 18 16 1948.41 45.2
4 -16 18 1982.4 45.2
18 16 4 1984.6 44.9
4 -18 -16 1943.01 44.9
-4 18 16 1983.3 45.4
4 -18 16 1960.8 45.2
4 -16 -18 2010.2 44.9
16 -18 -4 1930.21 45.3
4 16 18 1966.1 45.1
18 -16 4 1977.9 45.7
18 16 -4 1965.9 44.5
16 18 4 1978.5 45
18 -4 -16 1947.81 44.8
6 -16 18 2369.16 54.09
-6 16 18 2361.46 54.09
6 -18 -16 2461.15 53.69
6 18 16 2431.26 53.89
16 18 -6 2451.55 53.19
18 -16 -6 2391.36 54.09
18 16 6 2419.16 53.69
16 -18 6 2477.15 54.39
16 -6 -18 2343.07 53.39
-6 18 16 2440.26 54.19
16 -18 -6 2354.86 53.99
18 -6 -16 2283.47 53.49
18 -16 6 2470.25 54.39
6 -16 -18 2363.76 53.59
6 -18 16 2151.58 53.89
16 18 6 2343.97 53.69
18 16 -6 2445.26 53.09
-16 6 18 2211.78 53.99
6 16 18 2456.95 53.79
18 16 8 735.93 19.3
-8 16 18 705.63 19.7
-16 18 8 735.73 20.3
8 -16 18 657.93 20.1
8 18 16 741.73 19.3
16 -8 -18 646.24 18.8
18 -16 -8 762.92 19.7
16 -18 8 714.83 20.3
16 18 -8 714.93 18.4
8 -18 -16 743.53 19
18 -8 -16 640.44 19
8 -18 16 682.23 20
8 16 18 741.63 19.3
-8 18 16 730.33 19.9
-16 8 18 682.13 20.2
18 16 -8 737.43 18.1
8 -16 -18 748.93 19
16 18 8 744.53 19.3
18 -16 8 742.83 20.4
16 -18 -8 726.53 19.5
10 18 16 223.58 9.4
10 -18 -16 229.98 9.4
16 -18 10 211.08 10.1
16 10 18 211.18 8.9
10 -16 18 188.48 10.1
18 16 10 205.78 8.8
-16 18 10 223.58 10.2
18 -16 -10 216.68 9.5
16 -10 -18 181.68 8.7
-10 16 18 203.98 10
10 -18 16 188.68 10
-10 18 16 218.98 10.3
18 -10 -16 187.88 8.8
-16 10 18 200.48 10.2
18 -16 10 196.98 9.9
10 -16 -18 205.08 8.7
16 18 10 213.18 9
10 16 18 195.78 8.7
16 -18 -10 231.08 9.7
16 -18 12 421.96 16.1
18 16 12 416.26 14.4
12 18 16 416.76 14.2
12 -18 -16 407.76 13.9
-18 12 16 427.96 16.1
16 -12 -18 365.66 14.1
-12 16 18 401.56 15.6
12 -16 18 395.26 16
16 12 18 409.86 14
-16 18 12 422.26 15.6
18 -16 -12 410.56 14.4
18 12 16 412.66 14
18 -12 -16 406.46 14.3
16 18 12 418.96 14.2
-16 12 18 410.46 15.9
12 -18 16 424.76 16.3
18 -16 12 402.66 15.9
-12 18 16 414.16 15.5
16 -18 -12 387.96 14.2
12 -16 -18 419.76 14.1
-18 16 12 408.56 15.7
12 16 18 395.16 13.9
16 14 18 1138.99 28.9
-18 14 16 1155.38 30.3
-16 18 14 1193.68 30.3
-14 16 18 1191.08 30.1
18 -16 -14 1204.68 29.2
14 -16 18 1121.09 30.4
18 16 14 1162.38 29
16 -14 -18 1171.28 29.1
16 -18 14 1189.38 30.5
14 18 16 1175.18 29
14 -18 -16 1218.58 29
18 -14 16 1179.28 30.6
18 -14 -16 1150.88 29.1
-16 14 18 1202.58 30.3
-14 18 16 1186.58 30.1
-18 16 14 1177.58 30.2
14 -18 16 1160.08 30.4
16 18 14 1164.98 29
18 14 16 1151.88 29
16 -14 18 1196.28 30.8
16 -18 -14 1137.29 29
14 -16 -18 1162.98 28.9
18 -16 14 1186.98 30.4
14 16 18 1206.68 28.9
-18 16 16 1354.66 34.4
-16 16 18 1378.66 34.3
-16 18 16 1353.46 34.2
16 -18 -16 1338.37 32.9
16 -18 16 1404.26 34.5
16 -16 -18 1322.67 33
16 -16 18 1384.16 34.5
16 16 18 1332.37 32.9
16 18 16 1328.97 32.9
18 -16 -16 1320.17 33
18 -16 16 1360.16 34.4
18 16 16 1338.97 32.8
0 -18 18 64.99 6.2
0 18 18 69.09 6.8
18 -18 0 59.29 7
18 0 -18 59.09 5.5
18 18 0 38.2 6
-2 -18 18 41.3 5.2
-2 18 18 36.2 6.5
2 -18 -18 37.2 5.7
2 -18 18 34.3 6.4
2 18 18 36.8 6.3
18 -18 -2 36.5 6.4
18 -18 2 38.6 6.7
18 -2 -18 42.2 5.7
18 2 -18 41.7 4.7
18 18 -2 27.1 5.9
18 18 2 33.4 5.8
-4 18 18 502.95 16
4 -18 -18 500.05 14.8
4 -18 18 479.15 15.9
4 18 18 516.25 15.7
18 -18 -4 504.75 15.8
18 -18 4 517.75 16.4
18 -4 -18 505.85 14.8
18 18 -4 491.05 14.9
18 18 4 494.95 15.2
-6 18 18 695.03 19.9
6 -18 -18 704.73 18.8
6 -18 18 651.93 20
6 18 18 688.63 19.2
18 -18 -6 716.23 19.5
18 -18 6 697.63 20.1
18 -6 -18 696.03 18.7
18 18 -6 703.23 18.6
18 18 6 694.13 19
-8 18 18 77.79 7.6
8 -18 -18 94.59 6.9
8 -18 18 66.19 8.1
8 18 18 75.59 6.9
18 -18 -8 81.59 7.4
18 -18 8 84.39 7.6
18 -8 -18 76.09 7
18 18 -8 84.19 6.7
18 18 8 79.29 7
-18 10 18 6 8.2
-10 18 18 6.1 7.3
10 -18 -18 0.4 5.9
10 -18 18 5 8.2
10 18 18 8 6.5
18 -18 -10 4.1 6.6
18 -18 10 8.5 7.2
18 -10 -18 6.5 6.4
18 18 10 9.6 6.6
-18 12 18 25.1 8.5
-18 18 12 34.6 8.7
-12 18 18 34.3 7.9
12 -18 -18 27 6.9
12 -18 18 28.8 8.7
12 18 18 37.7 7.1
18 -18 -12 24 7
18 -18 12 35.8 8.6
18 -12 -18 27.5 7.1
18 12 18 41.5 7.3
18 18 12 41.9 7.5
-18 14 18 608.24 20.6
-18 18 14 575.14 20
-14 18 18 584.34 20
14 -18 -18 581.44 18.3
14 -18 18 596.84 20.7
14 18 18 574.94 18.1
18 -18 -14 588.84 18.3
18 -18 14 592.04 20.3
18 -14 -18 607.54 18.4
18 -14 18 589.04 21
18 14 18 583.44 18.3
18 18 14 613.44 18.3
-18 16 18 881.01 26.1
-18 18 16 909.11 26.1
-16 18 18 908.51 26
16 -18 -18 907.61 24.2
16 -18 18 886.11 26.3
16 18 18 853.11 23.8
18 -18 -16 859.71 24.3
18 -18 16 865.41 26
18 -16 -18 854.01 24.1
18 -16 18 909.21 26.3
18 16 18 857.01 23.7
18 18 16 881.41 24
-18 18 18 149.88 11.9
18 -18 -18 173.38 11
18 -18 18 143.99 12
18 18 18 133.89 9.7
-1 -19 -1 1392.96 31.8
-1 -19 1 1367.96 31.7
-1 -1 19 1358.36 31.3
-1 1 19 1390.36 31.5
-1 19 -1 1397.26 32.2
-1 19 1 1350.76 32.2
1 -19 -1 1397.26 31.8
1 -19 1 1428.26 31.9
1 -1 19 1437.46 31.5
1 1 19 1399.16 31.5
1 19 -1 1423.06 32.2
1 19 1 1356.56 32.1
-3 -19 -1 28.1 3.6
-1 19 -3 22.9 4.4
3 -19 1 23.9 3.9
-3 19 1 27.1 4.5
-1 -19 3 30.3 3.8
-1 3 19 30 3.7
1 19 3 25.3 4.1
3 1 19 27.7 3.6
1 -19 -3 21.3 3.6
3 19 -1 26.4 4.2
-3 -1 19 29.6 3.3
-3 19 -1 29.2 4.4
1 -19 3 30.3 4
1 19 -3 30.1 4.4
1 3 19 25.9 3.6
3 -19 -1 27.9 4
19 -1 -3 22.6 4.5
-1 19 3 34.4 4.5
3 19 1 27.9 4.2
-3 1 19 25.5 3.5
-1 -19 -3 25.8 3.7
-1 -3 19 27.6 3.2
-3 -19 1 29.8 3.7
3 19 -3 5.5 4
3 3 19 7.8 3.4
-3 19 -3 8.2 4.3
-3 19 3 6.2 4.2
3 -19 -3 8.2 3.5
3 -19 3 9.3 3.8
-3 -19 -3 7 3.3
-3 -19 3 6.7 3.2
-3 -3 19 11.1 3
-3 3 19 7.1 3.4
19 -3 -3 9.9 4.5
3 19 3 6.4 3.9
-1 -19 5 164.88 7.1
1 -19 -5 171.08 7.3
5 19 -1 168.68 6.9
-1 5 19 158.78 7.2
1 19 5 167.08 6.9
19 -5 -1 174.28 7.6
-5 19 1 179.78 7.6
5 -19 1 181.28 7
-1 19 -5 185.08 7.4
-5 -1 19 172.58 6.7
19 1 -5 181.48 7.6
-5 -19 -1 171.88 7.1
19 -1 -5 169.38 7.3
1 -19 5 170.98 7.5
-5 1 19 178.78 7.1
-5 -19 1 165.58 7
-5 19 -1 192.58 7.7
19 -5 1 176.38 7.7
-1 -5 19 168.18 6.2
1 19 -5 183.98 7.3
1 5 19 173.48 7.2
5 19 1 165.68 6.8
-1 19 5 182.28 7.4
-1 -19 -5 163.58 7.3
5 -19 -1 181.48 7.8
5 -19 3 338.57 10.7
-5 19 3 336.17 11.3
-3 -19 5 334.17 9.8
-5 -3 19 364.36 9.2
5 3 19 337.17 10.1
19 -5 -3 333.47 11.2
-5 -19 -3 334.17 10
5 19 -3 328.97 10.6
-3 19 -5 324.97 11
3 19 5 346.97 10.8
-3 5 19 345.17 10.3
3 -19 -5 326.47 10.2
5 -19 -3 328.67 10.5
19 -3 -5 327.57 11
-5 3 19 344.17 10.1
-5 -19 3 335.17 9.8
-3 -19 -5 327.77 10.1
3 5 19 333.57 10
-3 -5 19 336.77 9
3 19 -5 333.47 10.7
3 -19 5 353.36 10.5
-5 19 -3 352.96 11.2
-3 19 5 335.97 10.9
5 19 3 329.97 10.7
-5 19 5 782.12 19.8
-5 -19 -5 777.32 18.9
5 -19 -5 789.42 19.2
-5 19 -5 723.03 19.7
5 19 -5 739.03 19.1
19 -5 -5 759.52 19.7
5 -19 5 790.42 19.4
-5 -5 19 830.82 17.9
5 5 19 762.42 19
-5 5 19 792.72 19.1
-5 -19 5 758.92 18.5
5 19 5 794.02 19.4
1 19 7 114.59 6.1
1 -19 -7 114.49 5.7
19 1 -7 100.89 5.8
-7 19 1 115.89 6.5
-1 -19 7 107.59 5.3
-1 19 -7 96.69 6
7 -19 1 108.59 5.9
-7 -1 19 106.99 4.9
-1 7 19 103.29 5.6
7 19 -1 112.79 5.7
19 -7 -1 107.19 6.3
-7 -19 1 100.59 5
-1 19 7 105.79 6
-1 -19 -7 96.59 5.1
19 -1 -7 101.49 5.8
-7 1 19 104.89 5.1
1 7 19 122.79 5.9
7 -19 -1 101.79 5.7
19 -7 1 103.79 6.5
-7 19 -1 89.59 6
1 -19 7 101.99 5.5
1 19 -7 111.29 6
7 19 1 100.19 5.7
19 3 -7 15.8 4.5
-3 -19 7 13.6 3.5
19 -7 -3 20.5 4.7
3 19 7 14.9 4.3
-7 19 3 13.8 4.4
-7 -3 19 18.7 3.2
-3 7 19 18.1 4.1
3 -19 -7 14.7 3.6
7 19 -3 16.7 4.2
7 -19 3 15.5 4.3
7 -19 -3 13.3 4.1
3 7 19 14.8 3.9
19 -3 -7 18.4 4.7
-3 -7 19 16.9 2.8
-7 19 -3 15.8 4.8
-7 -19 3 15.1 3.5
-3 19 7 15 4.3
7 19 3 13.8 4.2
3 -19 7 15.6 4
3 19 -7 14.3 4.3
-7 3 19 16.8 3.9
-3 -19 -7 17.1 3.7
19 -7 3 14.8 4.8
5 19 7 377.16 11.5
-7 19 5 380.56 12
-5 7 19 368.46 11.2
-5 -19 7 366.76 10.2
7 -19 5 363.66 11.5
5 -19 -7 359.16 11
7 19 -5 332.77 11.1
19 5 -7 347.07 11.4
19 -7 -5 356.66 11.9
7 5 19 358.36 10.9
-7 -19 5 356.76 10.2
5 19 -7 362.56 11.3
-5 -19 -7 363.76 10.8
5 7 19 368.06 10.9
7 -19 -5 365.36 11.2
-5 19 7 393.46 12.1
5 -19 7 354.76 11.4
7 19 5 361.66 11.3
19 -5 -7 382.76 11.8
-7 5 19 350.66 11.1
-7 -19 7 62.99 4.1
7 -19 -7 63.89 4.7
7 -19 7 58.49 5.3
19 -7 -7 61.59 5.7
7 19 -7 69.09 5.2
7 19 7 65.59 5.3
-7 19 7 66.99 6
7 -7 -19 66.19 4.7
7 7 19 61.99 4.8
-7 7 19 60.99 5.2
-9 -1 19 228.88 8
-1 9 19 221.38 8.9
1 -19 -9 221.18 8.5
-1 -19 9 215.88 8.3
-9 19 1 250.97 9.4
9 19 -1 215.98 9
19 1 -9 227.18 9
1 19 9 218.88 9.3
19 -9 -1 213.68 8.6
9 -19 1 218.88 9.2
19 -9 1 211.38 8.8
1 9 19 221.68 8.7
9 19 1 217.98 9
9 -19 -1 214.68 9.1
1 -19 9 220.68 8.7
-9 19 -1 232.48 9.9
19 -1 -9 228.38 9.3
-1 19 9 220.58 9.3
-9 1 19 225.18 8.5
-1 -19 -9 214.38 8.5
3 19 9 8.9 4.4
9 19 -3 14 4.4
-3 9 19 14.9 4.4
19 3 -9 8 4.3
3 -19 -9 6.4 3.9
19 -9 -3 17.6 5
-3 -19 9 12.6 3.6
-9 19 3 14.5 5
9 -19 3 8 4.4
-3 19 9 11.8 4.4
9 19 3 10.8 4.4
19 -3 -9 10.8 4.5
9 -19 -3 10.6 4.4
-3 -19 -9 10.4 3.7
-9 3 19 12.5 4.3
3 9 19 10.2 4
3 19 -9 6.5 4.5
-3 -9 19 8.9 2.6
3 -19 9 11.6 4.3
19 -9 3 11.6 5.1
5 19 9 103.39 6
9 -19 5 122.19 6.7
19 5 -9 111.09 5.9
5 -19 -9 121.79 6.1
-5 -19 9 112.39 5.1
19 -9 -5 113.89 6.8
9 19 -5 110.29 6
-5 9 19 113.79 6.3
9 -5 -19 122.79 5.6
-9 19 5 120.99 6.8
5 -19 9 113.49 6.2
19 -5 -9 126.89 6.8
9 19 5 107.29 6
5 -9 -19 113.89 5.8
19 -9 5 117.09 7
5 19 -9 108.89 6
-9 5 19 116.39 6.2
5 9 19 105.69 5.6
9 -19 -5 126.39 6.6
-5 19 9 109.89 6.1
19 7 -9 6.2 4.3
9 -7 -19 0.2 3.8
-9 19 7 7.3 4.9
7 -19 -9 3.3 4.2
7 19 9 5.9 4.5
9 -19 7 3.6 4.9
9 19 -7 2.3 4.4
9 7 19 5.9 3.9
19 -9 -7 3.7 5
-7 9 19 7 4.7
9 -19 -7 6.5 4.1
7 9 19 5.2 4.1
7 -9 -19 6.4 4.1
-7 19 9 3.8 5
-9 7 19 10 4.9
7 19 -9 4.9 4.4
19 -7 -9 5.1 4.8
7 -19 9 4.4 4.7
9 19 7 5.6 4.5
-9 19 9 451.25 14
9 19 -9 439.96 12.4
-9 9 19 420.36 13.3
9 -9 -19 412.66 12.5
9 19 9 430.76 13.2
9 -19 9 424.06 13.7
9 -19 -9 435.26 12.9
9 9 19 423.26 12.9
19 9 -9 445.56 12.6
19 -9 -9 425.36 13.5
1 -19 -11 516.05 14
-11 -1 19 538.15 13.5
19 1 -11 543.95 14.1
-1 11 19 516.35 14.4
11 -19 1 523.45 14.7
-11 19 1 510.95 15.2
1 19 11 494.05 14.7
19 -11 -1 508.95 15
-1 -19 11 492.65 13.7
11 19 -1 492.65 14.2
1 11 19 532.05 14.4
11 -19 -1 499.85 14.6
11 19 1 486.55 14.2
1 -19 11 509.25 14
-1 -11 19 519.25 13.5
19 -1 -11 493.75 14.2
-11 1 19 507.35 13.9
-1 19 11 517.75 14.7
-1 -19 -11 502.65 13.9
19 -11 1 512.75 15.1
3 19 11 226.58 8.6
19 3 -11 202.18 7.4
11 -3 -19 183.48 7.8
3 -19 -11 220.28 8.2
19 -11 -3 199.38 8.5
-11 19 3 196.78 8.5
11 -19 3 183.58 7.8
11 19 -3 184.28 7.6
-3 11 19 209.48 8.3
-3 -19 11 187.38 7.6
11 19 3 179.88 7.6
19 -11 3 189.28 8.6
11 -19 -3 193.58 7.9
3 11 19 192.78 7.9
-11 3 19 205.28 7.9
-3 -19 -11 179.98 7.2
19 -3 -11 192.08 7.8
-3 19 11 227.68 8.6
3 -19 11 182.18 7.7
19 5 -11 45.4 4.7
5 19 11 38.8 5.2
11 19 -5 34.7 5
19 -11 -5 34.8 5.5
-5 -19 11 37.6 3.9
5 -19 -11 46.7 5.1
-11 19 5 35.9 5.5
11 -19 5 32.8 5.1
-5 11 19 44.1 5.3
11 -5 -19 40.1 4.6
-11 5 19 40.4 5.3
-5 19 11 40.9 5.3
5 -11 -19 40.9 4.7
19 -5 -11 37.4 5.2
11 -19 -5 42 5.3
11 19 5 36.8 5.2
5 -19 11 30 5.1
19 -11 5 32.5 5.4
5 11 19 38.7 4.9
7 19 11 606.24 15.9
11 19 -7 584.94 15.3
-11 19 7 547.35 16.4
11 7 19 578.54 15.4
19 -11 -7 577.34 16.2
11 -7 -19 548.95 15.1
-7 11 19 588.84 16
19 7 -11 573.54 14.6
7 -19 -11 558.14 15.4
11 -19 7 574.84 16.3
-11 7 19 540.15 16
-7 19 11 561.34 16.3
11 19 7 571.84 15.6
19 -7 -11 540.35 15.9
7 -19 11 549.65 16.1
7 11 19 553.44 15.4
7 -11 -19 528.25 15.2
19 -11 7 577.54 16.7
11 -19 -7 579.04 15.8
11 -9 -19 846.72 22.3
9 -19 -11 915.81 22.6
-9 11 19 924.71 23.1
-11 19 9 959.8 23.5
11 -19 9 890.11 23.3
19 9 -11 906.51 21.4
19 -11 -9 886.41 23
11 9 19 930.01 22.6
9 19 11 936.31 22.9
11 19 -9 912.41 21.9
11 19 9 939.51 22.8
9 -11 -19 883.11 22.4
9 -19 11 908.81 23.2
19 -9 -11 895.11 23
-9 19 11 962.4 23.6
19 -11 9 895.31 23.7
9 11 19 954.5 22.6
11 -19 -9 937.01 22.8
19 11 -9 925.21 21.3
-11 9 19 895.01 23.2
11 -11 -19 1507.25 36.1
11 -19 -11 1609.14 36.4
19 -11 -11 1531.65 36.6
-11 19 11 1534.15 37
-11 11 19 1543.45 36.9
11 19 11 1620.74 36.5
11 -19 11 1573.24 37
11 11 19 1596.74 36.4
1 -13 19 217.18 9.5
-1 13 19 231.88 8.9
-1 -19 13 210.68 8.9
19 1 -13 203.28 9
13 19 -1 192.08 8.1
19 13 1 209.88 8
1 19 13 216.68 8.5
13 -1 -19 220.58 8.2
19 -13 -1 239.98 9.7
13 -19 1 244.18 9.3
1 -19 -13 213.88 8.9
-1 -19 -13 232.48 9.1
19 -13 1 241.48 9.8
-13 1 19 234.58 8.3
1 13 19 206.68 8.2
13 -19 -1 214.38 8.5
-1 19 13 230.88 9
19 13 -1 197.68 8.9
-1 -13 19 212.98 8.7
19 -1 -13 224.78 8.2
1 -19 13 198.48 8
13 19 1 196.78 8.1
19 3 -13 16.4 4.4
13 -19 3 20 5.6
13 19 -3 15.9 5
-3 13 19 23.1 5.2
3 -19 -13 20.7 4.6
19 -13 -3 17.6 5.7
3 19 13 15.7 5.2
-13 19 3 23.4 5.8
3 -13 19 23.7 5.4
13 -3 -19 21.4 4.4
-3 -19 13 23 4.1
13 19 3 16.7 5
-13 3 19 20.1 5.4
19 -3 -13 20.7 5
13 -19 -3 19.7 4.8
19 -13 3 20.4 5.7
19 13 -3 16.4 4.6
3 -19 13 14.5 5.2
3 13 19 15.2 4.8
-3 19 13 16 5.4
5 19 13 69.09 5.8
-5 13 19 73.59 6.3
13 -5 -19 59.19 5.2
5 -13 19 56.49 6.5
19 -13 -5 67.99 6.4
13 -19 5 70.09 6.6
-5 -19 13 65.69 4.3
19 5 -13 67.99 4.7
5 -19 -13 70.59 5.7
-13 19 5 74.49 6.8
13 19 -5 64.49 5.7
5 -13 -19 65.09 5.6
5 13 19 62.89 5.5
19 -13 5 63.89 6.5
-5 19 13 63.99 6.3
5 -19 13 55.29 6.2
13 19 5 65.49 5.8
19 -5 -13 61.99 6
-13 5 19 63.39 6.2
19 13 -5 66.49 5.3
13 -19 -5 60.69 6
7 -19 -13 28.5 5.2
-7 13 19 20.5 5.8
13 -7 -19 20.5 5
13 -19 7 23.9 6
-13 19 7 22.5 6.1
13 19 -7 19.3 5.2
7 19 13 21.7 5.4
19 13 7 22.2 5.2
7 -13 19 22.9 6.3
19 -13 -7 25.9 5.7
-13 7 19 22.2 6.1
19 13 -7 25.1 4.5
7 -13 -19 24.9 4.9
7 -19 13 18.5 6
13 19 7 26.4 5.4
19 -13 7 27.9 6.5
19 -7 -13 20.1 5.4
7 13 19 19.6 5.1
13 -19 -7 20.6 5.4
-7 19 13 20.8 5.7
9 19 13 138.59 7.4
19 -13 -9 149.79 8
-13 19 9 155.58 8.5
19 13 9 129.49 7.1
13 19 -9 137.79 6.6
13 -9 -19 128.39 7.2
13 9 19 153.18 7.5
9 -19 -13 129.49 7
-9 13 19 126.09 7.6
13 -19 9 137.89 8.3
13 19 9 147.39 7.8
13 -19 -9 127.39 7.2
19 -13 9 122.99 8.1
9 -13 -19 134.49 7.1
19 13 -9 142.99 5.9
-13 9 19 117.69 7.7
19 -9 -13 118.49 7.3
-9 19 13 138.49 8.3
9 -19 13 123.39 8
9 13 19 134.79 7.1
13 -11 -19 323.27 12.3
13 11 19 348.87 12.5
-11 13 19 339.57 13.7
19 13 11 354.36 12.4
11 -19 -13 342.37 12.1
11 19 13 351.56 12.7
13 -19 11 347.37 13.9
19 -13 -11 350.16 13
-13 19 11 342.47 13.7
-13 11 19 328.87 13.7
13 -19 -11 361.76 12.4
19 -13 11 342.67 14.2
11 13 19 345.97 12.2
-11 19 13 350.36 13.8
11 -13 -19 341.57 12.1
11 -19 13 326.17 13.8
19 -11 -13 327.27 13.1
13 19 11 323.97 12.6
19 -13 13 154.28 9.5
19 -13 -13 152.58 8.7
13 -13 -19 130.99 8.1
13 19 13 141.49 8.1
19 13 13 145.69 7.9
-13 19 13 146.69 9
13 -19 -13 152.68 8.2
13 -19 13 149.88 9.2
13 13 19 153.18 8.2
-13 13 19 146.49 9
1 19 15 -1.8 5.3
1 -15 19 -2.9 5.3
-1 -19 15 2 5
15 -1 -19 -1.2 4.4
19 15 1 -1.2 5.2
15 -19 1 0.4 5.3
1 -19 -15 4.8 4.6
-1 15 19 4.1 5.3
19 -15 -1 -0.4 5.4
19 1 -15 -1.4 4.6
15 19 -1 0.1 5.2
-1 19 15 -0.3 5.5
-1 -15 19 1.6 4.6
19 -1 -15 -0.2 4.9
1 -19 15 5.6 5.2
15 19 1 9.5 5.2
1 15 19 -1.3 5
19 -15 1 8.2 5.8
15 1 -19 0.1 4
19 15 -1 -0.2 4.9
15 -19 -1 0.2 5.2
-1 -19 -15 0.3 4.6
19 -15 -3 395.96 13.4
-3 15 19 361.26 13.2
3 19 15 381.66 13
15 19 -3 378.26 12.6
19 15 3 363.56 12.3
15 -3 -19 395.46 11.7
-3 -19 15 369.46 11
3 -19 -15 376.46 12.2
3 -15 19 378.66 13.2
19 3 -15 405.76 11.2
15 -19 3 377.86 13.3
19 -3 -15 359.86 12.5
3 15 19 370.16 12.8
19 15 -3 358.46 11.8
15 19 3 362.56 12.6
19 -15 3 363.26 13.6
15 -19 -3 395.66 13
-3 19 15 368.76 13.1
-15 3 19 367.76 13.3
3 -15 -19 377.66 12.1
3 -19 15 368.76 12.9
-15 19 5 1239.98 29.8
15 -19 5 1226.68 29.6
5 -19 -15 1247.98 28.8
19 15 5 1210.88 28.8
15 19 -5 1225.78 28.6
5 19 15 1189.78 29.1
19 -15 -5 1228.38 29.3
5 -15 19 1156.68 29.3
15 -5 -19 1170.68 28.4
-5 15 19 1236.78 29.4
15 19 5 1172.98 28.9
-5 19 15 1187.98 29.3
19 -15 5 1214.48 29.7
15 -19 -5 1237.58 29.2
19 -5 -15 1175.78 28.8
5 -19 15 1229.28 29.3
19 15 -5 1210.88 28.2
5 -15 -19 1207.28 28.6
-15 5 19 1148.99 29.3
5 15 19 1190.88 28.9
7 -19 -15 518.85 14.8
7 -15 19 471.75 16
19 -15 -7 507.15 15.7
19 15 7 518.15 15.1
15 -7 -19 498.15 14.7
15 -19 7 501.15 16.2
15 19 -7 503.05 14.8
7 19 15 516.65 15.3
-7 15 19 504.65 15.9
-15 19 7 499.15 16.2
15 19 7 512.85 15
19 -15 7 493.75 16.2
7 15 19 504.85 15.2
19 -7 -15 451.95 15.1
19 15 -7 511.45 14.1
15 -19 -7 518.95 15.5
-15 7 19 474.25 16.2
7 -15 -19 510.85 14.8
-7 19 15 537.45 15.9
7 -19 15 449.26 15.8
9 19 15 120.99 7.2
15 -9 -19 115.09 7.2
9 -15 19 129.99 8.7
15 -19 9 128.09 8.4
19 15 9 127.49 7.4
-9 15 19 132.59 8
15 9 19 141.89 7.6
15 19 -9 128.59 6.9
-15 19 9 150.28 8.9
19 -15 -9 151.38 8.4
9 -19 -15 154.08 8
9 -15 -19 128.29 7.5
9 15 19 138.89 7.7
9 -19 15 121.39 8.4
19 -15 9 134.09 8.9
-9 19 15 121.99 8
15 19 9 135.79 8
-15 9 19 133.99 8.6
15 -19 -9 140.99 8
19 -9 -15 111.09 7.5
19 15 -9 128.69 6.2
-11 15 19 -0.8 6.9
19 15 11 -1.7 5.7
15 -11 -19 0.5 6
11 19 15 -1.9 6
-15 19 11 -1.1 6.9
11 -19 -15 -1.1 5.7
15 -19 11 -0.5 7
11 -15 19 -4.3 7.6
15 11 19 -1.8 5.9
19 -15 -11 -2.5 6.2
-11 19 15 -0.1 7
15 -19 -11 3.1 6.1
11 15 19 -4.7 5.7
19 -11 -15 3.7 6.1
11 -15 -19 -2.7 5.6
19 -15 11 1.8 7.2
11 -19 15 -5.6 7.1
15 19 11 0.5 5.9
-15 11 19 -3.6 7.2
15 -19 13 195.58 10.7
-13 15 19 185.78 10.1
15 -13 -19 169.38 9
13 -19 -15 186.68 9.3
19 15 13 197.28 9.2
-15 19 13 198.48 10.4
13 19 15 214.38 10
13 -15 19 189.38 11
15 13 19 210.08 9.6
19 -13 15 192.48 11
19 -15 -13 167.48 9
19 -15 13 211.38 11.2
13 15 19 192.38 9.5
15 -19 -13 167.88 8.8
19 -13 -15 184.68 9.7
-15 13 19 174.58 10.1
-13 19 15 210.08 10.7
19 13 15 183.18 9.2
13 -15 -19 189.18 9.3
13 -19 15 180.18 10.5
15 19 13 184.98 9.4
-19 15 15 642.94 20.6
15 15 19 623.84 18.5
15 19 15 641.84 18.7
19 15 15 634.64 18.9
-15 19 15 611.84 20.2
15 -19 -15 630.94 18.6
19 -15 15 639.44 20.9
19 -15 -15 613.74 18.9
15 -15 19 611.04 21.1
-15 15 19 642.64 20.5
15 -19 15 652.63 20.8
15 -15 -19 641.84 18.8
19 1 -17 61.39 5.4
17 -19 1 57.89 6.4
17 -1 -19 69.79 5.8
19 -17 -1 54.99 6.5
-1 -19 17 66.69 6.2
1 -17 19 70.29 6.6
19 17 1 53.99 6.3
1 -19 -17 68.29 5.9
1 19 17 63.99 6.8
-1 17 19 61.99 6.6
17 19 -1 58.49 6.5
19 17 -1 64.39 6.5
-1 -17 19 69.39 5.8
19 -17 1 67.19 7.3
-1 19 17 70.49 7
17 -19 -1 51.89 6.3
19 -1 -17 66.89 6
1 17 19 65.29 6.8
1 -19 17 63.09 6.5
17 1 -19 75.99 5.3
17 19 1 57.29 6.4
19 17 3 610.34 17.3
17 -19 3 636.54 18.4
-3 -19 17 605.54 15.9
17 19 -3 639.74 17.5
3 19 17 624.24 18
-3 17 19 628.44 18.1
19 -17 -3 630.24 18.2
19 3 -17 630.94 15.7
3 -17 19 638.94 18.2
17 -3 -19 632.04 16.9
3 -19 -17 632.34 17.2
19 -3 -17 610.64 17.1
3 -17 -19 627.64 17.1
17 19 3 619.74 17.5
17 -19 -3 618.04 18.1
19 17 -3 632.04 17.3
3 -19 17 623.34 18
19 -17 3 629.64 18.5
-3 19 17 649.74 18.2
3 17 19 642.84 18
5 19 17 1386.86 33.5
17 -19 5 1376.76 34
19 -17 -5 1414.66 33.7
17 19 -5 1375.16 33
19 17 5 1390.66 33.3
5 -17 19 1397.06 33.9
17 -5 -19 1417.06 32.9
5 -19 -17 1405.66 33.2
-5 17 19 1432.26 33.8
17 -19 -5 1408.06 33.7
17 19 5 1350.66 33.2
5 -17 -19 1436.46 33.1
5 17 19 1437.56 33.5
19 17 -5 1418.66 32.9
-5 19 17 1406.06 33.8
5 -19 17 1385.56 33.8
19 -17 5 1425.06 34.2
19 -5 -17 1413.86 33.1
19 17 7 837.12 21.5
17 -19 7 815.42 22.4
17 -7 -19 819.62 21.3
7 -19 -17 836.92 21.3
17 19 -7 834.02 21.2
-7 17 19 797.22 22.2
7 19 17 823.12 21.7
19 -17 -7 814.42 22
7 -17 19 816.52 22.8
17 19 7 833.82 21.6
19 -17 7 822.02 22.7
7 -17 -19 819.92 21.3
19 17 -7 830.72 20.7
-7 19 17 826.02 22.1
-17 7 19 826.42 22.9
19 -7 -17 779.62 21.4
7 -19 17 779.82 22.4
17 -19 -7 806.72 21.8
7 17 19 805.52 21.5
17 19 -9 169.08 7.8
17 -19 9 157.68 9.3
17 -9 -19 167.88 8.6
19 -17 -9 168.58 8.9
-17 19 9 166.38 9.8
-9 17 19 152.38 8.9
19 17 9 146.69 8.1
9 -17 19 137.39 9.8
9 19 17 168.38 8.6
9 -19 -17 162.18 7.9
19 -9 -17 142.29 8.3
9 -19 17 139.69 9.7
17 19 9 140.89 8.3
19 -17 9 163.78 9.9
9 17 19 154.78 8.3
-17 9 19 170.28 10.2
19 17 -9 158.68 7.4
9 -17 -19 177.08 8.5
-9 19 17 178.78 9.4
17 -19 -9 159.58 8.4
11 -19 -17 38.5 6.8
11 19 17 28.9 6.8
11 -17 19 31.2 8.7
-11 17 19 32.1 8
-17 19 11 34.2 8.3
19 17 11 35.5 7
17 11 19 44.6 7.1
17 -19 11 30.4 7.7
17 -11 -19 34.3 7
19 -17 -11 36.6 7.3
17 19 11 37.3 7.1
-17 11 19 44.8 8.5
-11 19 17 28.9 7.8
11 -19 17 27.2 8.3
19 -17 11 43.1 8.4
17 -19 -11 43.2 7.4
19 11 17 39.1 6.9
11 17 19 26.1 7
11 -17 -19 49.4 6.9
19 -11 -17 27.6 6.8
13 19 17 321.07 14
19 -13 17 339.37 13.9
17 13 19 317.57 13.9
19 -17 -13 367.36 13.2
13 -19 -17 334.27 13.8
13 -17 19 303.77 13.3
-19 13 17 348.07 13.9
-17 19 13 322.77 13.4
-13 17 19 352.96 13.8
17 -19 13 316.67 13.2
17 -13 -19 314.47 14
19 17 13 312.47 13.7
13 17 19 315.57 13.5
13 -17 -19 311.57 13.8
17 19 13 322.47 13.8
19 -13 -17 328.47 12.6
17 -19 -13 327.17 13.9
19 13 17 310.07 13.6
-13 19 17 323.67 13.1
-17 13 19 326.57 13.4
13 -19 17 319.57 13.5
19 -17 13 343.17 13.6
-15 17 19 1009 27.9
19 17 15 996.2 26.2
15 -17 19 1035.4 28.5
19 -17 -15 969.6 26.4
17 -15 -19 1053.29 26.7
17 -19 15 988.6 28.2
17 15 19 1017.9 26.3
15 -19 -17 1026.5 26.4
19 -15 17 1000.5 28.5
-19 15 17 1052.39 28.4
-17 19 15 1003.4 27.9
19 15 17 1009.3 26.4
-19 17 15 1013.5 28.1
-17 15 19 1026.6 28.3
-15 19 17 1016.3 27.9
19 -15 -17 1002.9 26.6
15 -19 17 1014.8 28.5
17 -19 -15 1006.4 26.4
17 -15 19 1004.7 28.7
17 19 15 1001.8 26.4
15 17 19 1002 26.2
19 -17 15 1015 28.2
15 -17 -19 1024.9 26.5
-19 17 17 655.63 22.8
-17 17 19 675.93 23
-17 19 17 664.83 22.7
17 -19 -17 670.73 20.5
17 -19 17 711.53 23.3
17 -17 -19 642.24 20.7
17 -17 19 652.03 23
17 17 19 646.54 20.1
17 19 17 655.63 20.3
19 -17 -17 641.94 20.7
19 -17 17 662.93 22.9
19 17 17 665.83 20.2
-1 -19 19 542.35 16.1
-1 19 19 562.64 17.7
1 19 19 575.84 17.5
19 -19 -1 573.54 17.5
19 -19 1 576.14 17.6
19 -1 -19 554.74 16.1
19 1 -19 561.84 15.4
19 19 -1 567.24 17
19 19 1 572.24 16.9
-3 19 19 143.79 8.8
3 -19 -19 145.29 8
3 -19 19 144.39 9
3 19 19 134.19 8.4
19 -19 -3 110.89 7.8
19 -19 3 141.79 9.2
19 -3 -19 152.08 8
19 19 -3 140.49 8.3
19 19 3 126.79 8.2
-5 19 19 5.4 7.1
5 -19 -19 9.7 5.9
5 -19 19 10.4 7.8
5 19 19 6 6.4
19 -19 -5 5.9 6.7
19 -19 5 7.3 7.2
19 -5 -19 10.1 6.5
19 19 -5 9.9 6.7
19 19 5 17.1 6.5
-7 19 19 51.19 7.8
7 -19 -19 56.09 7.1
7 -19 19 52.09 8.8
7 19 19 47.9 7.2
19 -19 -7 54.89 7.7
19 -19 7 51.79 8.2
19 -7 -19 51.09 7.3
19 19 -7 62.69 7.5
19 19 7 53.89 7.6
-9 19 19 180.38 10.5
9 -19 -19 179.98 9
9 -19 19 155.58 10.5
9 19 19 164.98 8.9
19 -19 -9 155.48 9.3
19 -19 9 158.58 10.6
19 -9 -19 158.58 9.1
19 19 -9 163.88 8.4
19 19 9 174.88 9.6
-11 19 19 606.74 20.2
11 -19 -19 591.84 18.2
11 -19 19 603.24 20.9
11 19 19 590.24 18.5
19 -19 -11 577.04 18.8
19 -19 11 567.84 19.8
19 -11 -19 602.24 18.8
19 11 19 595.74 18.2
19 19 11 587.24 18.6
-19 13 19 78.79 10.9
-19 19 13 75.49 9.7
-13 19 19 91.39 10.3
13 -19 -19 87.99 8.7
13 -19 19 77.09 10.9
13 19 19 65.29 8.6
19 -19 -13 65.29 8
19 -19 13 80.49 9.9
19 -13 -19 67.69 8.9
19 13 19 92.29 8.9
19 19 13 82.09 8.9
-19 15 19 149.09 12.3
-19 19 15 151.88 11.9
-15 19 19 148.59 11.7
15 -19 -19 141.39 9.9
15 -19 19 152.38 12.7
15 19 19 145.59 10
19 -19 -15 106.89 9
19 -19 15 131.89 12
19 -15 -19 136.39 10.1
19 -15 19 147.79 12.5
19 15 19 123.49 9.5
19 19 15 146.29 10.3
-19 17 19 40 11.2
-19 19 17 32.2 11.1
-17 19 19 46 11.4
17 -19 -19 43.4 9.8
17 -19 19 39.4 11.9
17 19 19 34.4 8.6
19 -19 -17 43.9 9
19 -19 17 43 11.9
19 -17 -19 47.2 9.9
19 -17 19 36.6 11.7
19 17 19 42.8 9.4
19 19 17 42.9 9.5
-19 19 19 446.36 18.1
19 -19 -19 388.86 15
19 -19 19 431.96 18.2
19 19 19 321.17 13.6
0 -20 0 3515.55 76.49
0 0 20 3485.75 76.19
0 20 0 3411.06 76.79
-2 -20 0 1285.87 29.2
-2 20 0 1292.67 29.8
0 -2 20 1247.58 28.8
0 2 20 1244.78 29
2 -20 0 1274.47 29.3
2 20 0 1238.58 29.6
2 0 20 1284.77 29
0 20 2 1268.77 29.7
0 20 -2 1230.08 29.7
-2 0 20 1256.77 28.8
0 -20 -2 1285.87 29.2
0 -20 2 1272.27 29.2
-2 20 2 801.32 20.3
-2 20 -2 798.62 20.3
-2 2 20 836.72 19.4
20 -2 -2 778.72 20.5
-2 -20 2 805.12 19.5
-2 -2 20 825.72 19.1
2 20 2 834.92 20.2
2 -20 -2 823.72 19.7
2 -20 2 803.32 19.8
2 -2 20 788.22 19.2
2 2 20 789.12 19.4
2 20 -2 790.42 20.1
-2 -20 -2 817.82 19.6
-4 -20 0 16.4 3.7
-4 20 0 13.3 4.7
0 -4 20 16.9 3.3
0 4 20 15.1 3.9
4 -20 0 15.8 3.9
4 20 0 10.7 4.2
20 0 -4 14.9 4.8
0 20 -4 16.1 4.6
0 20 4 14.4 4.2
20 -4 0 14 4.9
0 -20 4 14.6 3.9
0 -20 -4 13.6 3.8
-4 0 20 12.3 3.6
2 20 4 9.6 4.2
2 -20 -4 9.7 3.8
4 20 -2 9.3 4.3
4 2 20 8.9 3.6
4 -20 2 7.2 4
-4 -2 20 9.5 3.3
-4 20 2 9.7 4.6
20 -4 -2 6.5 4.7
-2 -20 4 8.9 3.6
-2 20 -4 8.4 4.5
-2 4 20 9.2 3.8
-4 -20 -2 6.9 3.7
4 -20 -2 5.2 3.8
2 -20 4 11.2 3.9
-4 2 20 7.5 3.7
-4 20 -2 9.2 4.6
-2 20 4 12.2 4.3
2 4 20 10.3 3.6
4 20 2 6 4.2
20 -2 -4 6.6 4.5
-2 -20 -4 5.4 3.5
-4 -20 2 12.8 3.6
-2 -4 20 6.7 3.1
2 20 -4 10 4.4
-4 -20 4 24.7 4
-4 -4 20 27.6 3.4
-4 4 20 27.9 4.1
-4 20 -4 29.6 5.1
-4 20 4 29.3 5
-4 -20 -4 35.2 4.1
4 20 -4 29.3 4.7
4 20 4 22.4 4.7
20 -4 -4 23.7 4.9
4 4 20 30.7 4.2
4 -20 4 32.3 4.6
4 -20 -4 28.9 4.1
0 20 -6 156.58 7.4
0 20 6 175.28 7.5
20 -6 0 164.88 7.7
0 -20 6 168.48 6.8
0 -20 -6 172.18 6.9
-6 0 20 179.18 6.4
6 20 0 158.18 7
20 0 -6 173.38 7.6
0 6 20 151.88 6.5
6 -20 0 157.78 6.8
-6 -20 0 162.78 6.4
-6 20 0 165.08 7.6
-2 20 -6 105.49 6.7
-6 20 2 119.69 6.7
6 -20 2 119.99 6.3
6 20 -2 110.59 6.2
-6 -20 -2 117.19 5.5
-2 -20 6 115.29 5.6
20 2 -6 118.39 6.5
-6 -2 20 121.09 5.1
2 -20 -6 122.59 6.1
-2 6 20 114.79 5.8
20 -6 -2 119.09 6.6
2 20 6 114.49 6.5
2 -20 6 126.69 6.2
20 -6 2 102.69 6.6
6 -20 -2 115.49 6.2
6 20 2 124.39 6.4
2 20 -6 108.09 6.2
-2 -6 20 119.89 4.8
-6 -20 2 111.39 5.5
-6 20 -2 119.79 6.9
-6 2 20 114.59 5.7
-2 -20 -6 117.99 5.7
20 -2 -6 114.59 6.6
2 6 20 117.59 5.9
-2 20 6 106.39 6.1
-6 -4 20 34.4 3.5
-6 20 4 36.3 5.3
6 20 -4 31.4 4.8
4 20 6 29.2 4.7
-4 6 20 34.5 4.5
4 -20 -6 41.9 4.7
6 -20 4 31.7 4.7
20 -6 -4 32 5.3
6 4 20 32.2 4.3
-4 -20 6 29.5 4
-6 -20 -4 34.6 4.2
-6 20 -4 32.9 5.5
20 -4 -6 31.3 5
6 -20 -4 35.7 4.6
4 20 -6 30.2 4.9
-4 -20 -6 33 4.2
4 6 20 34.5 4.4
-6 -20 4 35.7 4.1
4 -20 6 32.1 4.7
-6 4 20 36.5 4.6
-4 -6 20 35.2 3.2
6 20 4 33.8 4.9
-4 20 6 26.8 5
6 -20 6 9.9 4.6
6 -20 -6 11.6 4.2
-6 20 6 14 5.1
6 6 20 15.4 4.3
6 20 -6 12.3 4.7
6 20 6 5.6 4.5
-6 -20 6 8.6 3.7
-6 6 20 4.3 4.3
20 -6 -6 8.3 5
-8 0 20 178.08 6.7
-8 20 0 182.68 8.3
0 8 20 176.68 7.4
8 -20 0 175.78 7.6
20 -8 0 179.38 8.3
0 20 8 180.38 7.5
0 -20 -8 184.18 7.2
0 -20 8 168.98 7
0 20 -8 168.58 7.6
20 0 -8 190.58 7.8
8 20 0 175.58 7.4
-2 8 20 40.1 4.8
8 -20 2 36.2 4.7
8 20 -2 35.5 5
2 20 8 33.7 5
-8 20 2 42.9 5.6
-8 -2 20 40.3 4
20 -8 -2 35.1 5.2
-2 -20 8 36.6 4.3
20 2 -8 37.5 5
2 -20 -8 34.6 4.2
2 8 20 48.8 4.9
20 -2 -8 41.2 5.4
8 -20 -2 41.5 4.8
-2 -20 -8 41.5 4.6
-2 -8 20 43 3.5
-8 2 20 39.3 4.7
-2 20 8 37.1 5.1
20 -8 2 39.4 5.6
2 -20 8 35.9 4.7
2 20 -8 39 5.2
-8 20 -2 36.5 5.4
8 20 2 40.3 5.2
-8 20 4 98.89 6.2
8 20 -4 86.29 5.9
4 -20 -8 92.79 5.6
-4 -20 8 96.79 5.2
8 -20 4 96.79 6.1
-4 8 20 94.09 5.9
20 4 -8 89.49 5.9
4 20 8 100.29 6.4
20 -8 -4 87.09 6.4
8 4 20 106.69 5.9
8 -20 -4 95.19 5.6
-4 -20 -8 98.99 5.5
4 8 20 85.39 5.3
4 -20 8 85.19 5.8
-8 4 20 87.89 5.8
-4 20 8 97.19 6.4
4 20 -8 89.59 6
8 20 4 92.69 6
20 -8 4 85.89 6.3
20 -4 -8 86.89 6.2
8 -6 -20 117.69 5.9
6 -20 -8 121.49 6.2
8 20 -6 112.69 6.4
-6 -20 8 117.59 5.4
20 -8 -6 108.09 6.8
6 20 8 123.69 6.7
20 6 -8 113.29 6.5
-6 8 20 128.69 6.5
8 -20 6 106.89 6.4
8 6 20 126.89 6.1
-8 20 6 113.69 6.7
20 -6 -8 114.39 6.8
6 -20 8 112.89 6.5
-6 20 8 121.19 7.2
8 -20 -6 108.59 5.9
6 8 20 148.29 6.7
6 20 -8 117.49 6.4
8 20 6 106.59 6.4
-8 6 20 121.19 6.5
-8 20 8 38.4 6
8 -20 8 38.5 5.6
8 20 8 46 5.4
20 -8 -8 38.3 5.7
8 8 20 42.6 5.3
8 20 -8 49.8 5.3
-8 8 20 51.99 5.6
8 -20 -8 44.5 4.7
8 -8 -20 47.8 5.2
10 20 0 988.8 25.6
0 -20 -10 1055.69 25.4
10 -20 0 1046.8 25.8
-10 20 0 1063.79 26.3
20 0 -10 1149.78 25.7
0 -20 10 1065.19 25.3
-10 0 20 1061.59 25
0 10 20 1064.59 25.6
20 -10 0 1066.49 26.2
0 20 10 1116.39 26.1
-2 -20 10 987.1 23.8
20 2 -10 994.7 24.2
-10 -2 20 1038.6 23.4
20 -10 -2 1015.9 25
-10 20 2 1061.79 25.2
10 20 -2 955.3 24.4
-2 10 20 1022.2 24.5
2 20 10 1010.7 24.7
2 -20 -10 1046.1 24.2
10 -20 2 1001.2 24.7
-2 -10 20 1044.4 23.5
-2 -20 -10 1010.2 24.1
10 -20 -2 1009.1 24.6
20 -10 2 1009.1 25.1
20 -2 -10 994.3 24.6
10 20 2 935.41 24.3
-10 2 20 966.2 24.1
2 10 20 1036.9 24.4
2 -20 10 984.6 24.3
-2 20 10 1036.2 24.8
-4 -20 10 342.17 10.3
-10 20 4 339.97 12.3
4 20 10 334.07 11.8
10 -4 -20 345.87 10.5
-4 10 20 322.77 11.6
4 -20 -10 335.17 11
20 4 -10 345.77 11.1
20 -10 -4 337.27 12.3
10 -20 4 339.17 11.9
10 20 -4 329.77 11.5
-4 20 10 351.26 12
4 10 20 343.27 11.2
10 -20 -4 337.87 11.6
-10 4 20 335.37 11.6
-4 -20 -10 323.87 10.9
20 -4 -10 337.57 11.8
20 -10 4 342.77 12.4
10 20 4 331.57 11.5
4 -20 10 327.37 11.5
-6 -20 10 429.36 12.1
20 -10 -6 456.05 14.3
10 -6 -20 461.05 12.9
-10 20 6 486.45 14.5
6 20 10 440.06 13.7
20 6 -10 472.55 13.1
10 6 20 439.46 13.2
-6 10 20 453.35 13.8
10 -20 6 448.06 14
6 -20 -10 457.05 13.2
10 20 -6 436.96 13.5
-6 20 10 467.05 14.3
10 20 6 458.25 13.6
6 10 20 446.16 13.2
10 -20 -6 466.75 13.5
20 -6 -10 425.96 13.8
6 -10 -20 429.56 13
6 -20 10 444.06 13.8
-10 6 20 431.56 13.8
20 -10 6 454.35 14.7
-10 20 8 690.43 19.1
10 20 -8 712.23 18
10 -20 8 685.83 18.8
10 8 20 707.13 18
8 20 10 687.23 18.4
8 -20 -10 716.33 18
-8 10 20 689.33 18.6
20 -10 -8 705.03 18.8
20 8 -10 707.23 17.6
10 -8 -20 638.24 17.7
20 -8 -10 644.44 18.5
10 -20 -8 715.93 18.3
8 -20 10 678.23 18.7
8 -10 -20 648.74 17.8
8 10 20 725.33 18
-10 8 20 680.73 18.7
-8 20 10 687.63 19
10 20 8 725.63 18.4
20 -10 8 662.03 19.3
8 20 -10 677.63 17.7
20 10 -10 2694.03 57.99
10 20 10 2619.94 58.79
10 -20 10 2662.43 59.19
10 -10 -20 2464.15 58.39
10 10 20 2633.24 58.69
10 20 -10 2650.43 57.99
-10 10 20 2626.34 59.09
-10 20 10 2613.54 59.19
20 -10 -10 2575.34 58.99
0 12 20 975.6 24.2
0 20 12 1007.2 24.4
20 -12 0 983.8 24.7
12 -20 0 983.2 24.3
20 0 -12 986.6 23.8
0 -20 12 1001.4 23.8
0 -12 20 982.1 23.6
-12 0 20 1026 23.6
0 -20 -12 972.1 23.7
12 20 0 895.71 23.9
-2 12 20 598.74 16.7
2 -20 -12 616.44 16.1
2 -12 20 621.74 16.5
12 -20 2 593.24 16.8
20 -12 -2 620.54 17.2
12 20 -2 575.64 16.4
2 20 12 607.54 16.8
20 2 -12 606.44 16.1
-2 -20 12 603.34 15.6
-12 20 2 603.74 17.4
12 -2 -20 606.24 15.4
2 -20 12 569.34 16.3
20 -2 -12 573.94 16.4
12 20 2 563.44 16.4
2 12 20 574.44 16.4
20 -12 2 635.04 17.3
-2 -12 20 600.34 15.1
12 -20 -2 615.64 16.7
-2 -20 -12 620.84 16
-2 20 12 598.84 16.9
-12 2 20 594.34 16.3
12 20 -4 194.08 8.2
-4 -20 12 199.08 8.2
20 -12 -4 208.68 9.1
-12 20 4 218.78 9.6
-4 12 20 213.28 8.8
4 20 12 195.08 8.2
12 -4 -20 199.58 8.7
4 -20 -12 222.08 8.4
12 -20 4 215.38 9.1
20 4 -12 210.78 9
12 -20 -4 195.48 8.2
20 -4 -12 197.08 8.5
20 -12 4 235.88 9.9
-12 4 20 203.48 8.5
12 20 4 195.98 8.2
-4 20 12 212.28 8.9
4 12 20 216.78 8.6
4 -20 12 181.08 8.3
-6 -20 12 470.05 12.9
6 20 12 499.45 15
12 -6 -20 492.55 14.1
-6 12 20 491.65 15.1
-12 20 6 485.05 15.6
20 -12 -6 497.85 15.3
12 20 -6 507.35 14.7
20 6 -12 549.54 13.8
12 -20 6 513.35 15.4
6 -20 -12 530.05 14.5
6 -20 12 481.95 15.1
20 12 -6 498.45 13.7
6 -12 -20 510.25 14.4
6 12 20 502.75 14.6
20 -12 6 498.95 15.8
-12 6 20 484.95 15.3
12 20 6 501.25 14.7
12 -20 -6 493.25 14.9
-6 20 12 508.35 15.3
20 -6 -12 484.15 15
20 -12 -8 612.14 17.4
8 20 12 633.94 17.2
12 20 -8 612.04 16.7
-12 20 8 633.14 18
-8 12 20 600.84 17.5
8 -20 -12 609.04 16.7
12 8 20 623.34 16.8
12 -20 8 605.24 17.8
20 8 -12 664.33 15.6
12 -8 -20 562.24 16.5
8 -20 12 592.84 17.6
20 12 -8 631.64 15.7
12 -20 -8 606.84 17
20 -8 -12 569.44 17.3
8 12 20 616.44 16.8
12 20 8 626.54 17
20 -12 8 583.84 18.1
8 -12 -20 580.94 16.6
-12 8 20 579.94 17.7
-8 20 12 639.24 17.8
10 -20 -12 1730.23 40.1
12 -10 -20 1731.43 39.9
20 -12 -10 1751.12 40.6
12 20 -10 1732.63 39.2
-10 12 20 1751.32 40.8
12 10 20 1782.52 40.2
-12 20 10 1779.42 40.9
12 -20 10 1753.32 40.8
10 20 12 1774.12 40.3
20 -10 -12 1682.23 40.4
12 20 10 1755.32 40.3
10 -20 12 1674.73 40.7
20 -12 10 1722.33 41.1
20 12 -10 1771.22 38.8
-10 20 12 1739.33 40.9
-12 10 20 1680.13 40.7
20 12 -10 1786.32 39.3
10 -12 -20 1671.73 39.9
10 12 20 1733.63 40.1
12 -20 -10 1727.63 40.2
20 -12 -12 1624.04 38.7
12 20 12 1739.03 38.6
-12 12 20 1677.43 39.1
12 12 20 1657.13 38.3
12 -12 -20 1532.65 38.1
20 -12 12 1668.53 39.4
12 -20 12 1651.53 39
-12 20 12 1640.24 39.1
12 -20 -12 1611.64 38.3
0 20 14 406.56 14
0 -20 14 431.16 13.3
14 20 0 398.36 13.5
20 -14 0 413.06 14.3
0 -20 -14 431.56 12.8
0 -14 20 428.96 13.1
0 14 20 438.06 13.7
20 0 -14 425.26 13.1
14 -20 0 419.36 13.9
20 14 0 418.76 12.9
14 -20 2 105.29 7.2
14 20 -2 82.59 6.6
20 2 -14 116.59 6.3
-2 -20 14 109.29 6.2
-2 14 20 106.09 7.1
2 -14 20 105.29 7
20 14 2 95.09 6.4
2 -20 -14 110.39 6.4
2 20 14 97.39 6.9
14 -2 -20 120.29 6.1
20 -14 -2 105.49 7.5
20 -14 2 116.49 7.8
-2 -20 -14 109.19 6.3
20 -2 -14 107.99 6.8
20 14 -2 100.89 6.6
14 -20 -2 115.19 7.3
14 20 2 82.99 6.6
-14 2 20 114.19 7.1
2 -20 14 100.79 6.8
2 14 20 101.29 6.7
-2 20 14 116.09 7.4
-14 20 4 51.89 7
14 -20 4 55.69 6.6
14 -4 -20 55.09 5.6
20 -14 -4 61.99 6.6
20 4 -14 60.89 5.2
14 20 -4 54.29 6.3
4 -14 20 50.09 6.8
4 20 14 57.89 6.4
-4 14 20 58.39 6.5
4 -20 -14 53.79 5.6
20 14 4 49.3 5.8
-4 -20 14 52.19 4.7
14 20 4 43.2 5.8
-14 4 20 54.89 6.7
20 -4 -14 55.59 6.3
4 14 20 43.8 5.7
14 -20 -4 57.29 6.4
20 14 -4 52.19 5.6
-4 20 14 50.69 6.2
20 -14 4 45.6 6.9
4 -14 -20 47.8 5.8
4 -20 14 52.19 6.3
-14 20 6 31.6 6.8
6 20 14 35.5 6.2
20 -14 -6 29.1 6
14 -20 6 33.1 6.5
-6 14 20 30.8 6.4
20 14 6 20.7 5.7
6 -20 -14 31.6 5.5
6 -14 20 20.3 6.8
14 -6 -20 25.7 5.4
14 20 -6 35.5 6
20 14 -6 30.2 5.1
6 -20 14 24.7 6.3
6 -14 -20 32.6 5.6
6 14 20 31.8 5.8
20 -14 6 26.3 6.8
14 -20 -6 30.3 6
-6 20 14 19.9 5.7
20 -6 -14 21 6.1
14 20 6 20.7 5.9
-14 6 20 18.6 6.5
14 20 -8 3.1 5.9
20 -14 -8 1.7 6.1
8 -14 20 -1.5 7.1
8 -20 -14 3.2 5.4
8 20 14 3.7 5.6
14 -20 8 -3.7 6.3
-14 20 8 3 6.4
-8 14 20 -2.3 6.3
20 14 8 -0.2 5.6
14 -8 -20 1.8 5.4
14 8 20 2.3 5.4
20 14 -8 -0.7 5
-8 20 14 1.3 6.2
14 -20 -8 -3.8 5.7
-14 8 20 -1 6.4
14 20 8 -2.1 5.8
8 -14 -20 4.1 5.4
8 -20 14 -0.1 6.5
20 -8 -14 1.2 6.1
20 -14 8 -0.4 6.6
8 14 20 -0.9 5
14 -10 -20 267.57 12.1
14 10 20 295.67 11.9
10 -14 20 296.77 12.4
10 20 14 292.17 12.4
20 -14 -10 283.97 11
20 14 10 305.27 12.3
-14 20 10 332.87 12.3
-10 14 20 307.47 11.7
10 -20 -14 306.17 11.9
14 -20 10 309.07 12.2
14 -20 -10 301.37 12.3
10 -14 -20 291.97 12.1
10 -20 14 294.57 11.7
14 20 10 304.27 12.6
10 14 20 297.77 12
-10 20 14 298.47 11.5
20 -14 10 348.37 13
20 -10 -14 296.17 12.9
-14 10 20 321.87 12.2
12 20 14 380.26 14
14 -12 -20 348.67 13.6
20 -12 14 390.26 15.5
-14 20 12 360.36 15.1
-12 14 20 373.26 15.2
20 14 12 375.06 13.7
14 12 20 361.36 13.7
12 -20 -14 356.16 13.3
14 -20 12 361.46 15.2
20 -14 -12 364.36 14.3
12 -14 20 337.27 13.6
12 14 20 376.56 13.2
14 -20 -12 384.56 13.5
14 20 12 359.36 13.9
12 -20 14 371.26 15.4
12 -14 -20 346.97 13.4
20 -14 12 374.86 15.5
-14 12 20 376.66 15.6
-12 20 14 360.56 14.8
20 -12 -14 360.36 14.3
14 -14 -20 6.8 6.8
14 14 20 6.7 6.5
20 -14 14 0.6 8.6
20 14 14 5.7 6.8
14 -14 20 6.8 8.8
-14 20 14 2.3 7.7
14 -20 14 2.5 8.2
-14 14 20 -1.7 8.4
20 -14 -14 5.7 7.2
14 -20 -14 7 6.4
14 20 14 9.2 6.8
0 -20 16 2.4 5.6
20 -16 0 -0.5 6.3
16 -20 0 8.6 6
16 20 0 5.5 6
0 20 16 4.6 5.9
0 16 20 0.2 5.8
20 16 0 -1.6 5.6
16 0 -20 4.1 4.7
0 -20 -16 4.8 5.1
0 -16 20 4.9 5.6
20 0 -16 1.8 5.3
20 16 2 23.3 6
16 -2 -20 26.4 5.3
-2 -20 16 29.3 5.3
2 -16 20 32.8 6.6
2 -20 -16 23.7 5.5
-2 16 20 29.9 6.4
2 20 16 25 6.3
20 2 -16 23.6 5.1
16 -20 2 18 5.9
16 20 -2 25.3 6.2
20 -16 -2 20.6 6.4
-2 20 16 24.6 6.3
20 -16 2 26.9 6.9
20 -2 -16 26.4 5.8
16 -20 -2 21.7 6
-2 -16 20 25.2 4.8
2 -20 16 26.2 6.4
20 16 -2 23.6 5.6
2 16 20 20.7 5.8
16 20 2 20.1 5.9
4 -20 -16 625.24 17.5
-4 16 20 627.64 18.4
-4 -20 16 626.94 16
20 16 4 635.24 17.8
16 -20 4 648.04 18.8
16 20 -4 641.14 18
16 -4 -20 640.24 17.3
20 -16 -4 621.84 18.4
4 -16 20 648.84 18.8
4 20 16 652.83 18.3
4 16 20 643.64 18.1
16 -20 -4 637.14 18.3
-4 20 16 661.13 18.6
20 -4 -16 628.74 17.8
16 20 4 651.93 18.1
4 -20 16 638.54 18.5
20 -16 4 638.94 18.9
20 16 -4 636.64 17.4
4 -16 -20 633.44 17.4
20 16 6 845.32 21.8
6 -20 -16 860.11 21.6
6 20 16 820.82 22.1
16 -6 -20 854.21 21.4
20 -16 -6 847.32 22.4
6 -16 20 829.82 22.8
-6 16 20 803.42 22.5
16 -20 6 836.02 22.6
16 20 -6 840.12 21.8
6 -20 16 820.82 22.6
20 -6 -16 820.12 21.9
20 -16 6 832.12 22.9
6 16 20 832.02 21.9
16 20 6 828.52 21.9
-6 20 16 830.52 22.5
-16 6 20 802.62 22.9
16 -20 -6 840.32 22.2
20 16 -6 843.62 21.2
6 -16 -20 854.01 21.5
8 20 16 402.36 14.1
8 -20 -16 371.56 13.4
20 16 8 388.16 14.1
-16 20 8 384.16 15.1
16 20 -8 380.26 13.8
16 -20 8 377.56 14.9
8 -16 20 373.86 15.7
-8 16 20 392.26 14.9
16 -8 -20 391.16 13.7
20 -16 -8 404.86 14.6
8 -20 16 354.76 15.3
-16 8 20 374.36 15.5
8 -16 -20 390.96 13.5
20 -8 -16 386.26 14.1
-8 20 16 401.86 15
20 -16 8 397.06 15.2
16 20 8 397.96 14.2
20 16 -8 393.56 12.8
16 -20 -8 381.26 14.2
8 16 20 389.66 14
-10 16 20 10.8 7.6
16 -20 10 4.3 7.4
-16 20 10 3.2 7.6
16 10 20 10.2 6.4
16 -10 -20 1.7 6.8
10 -20 -16 4.5 6.3
20 16 10 5.9 6.5
10 -16 20 5.1 8.1
10 20 16 1.1 6.3
20 -16 -10 5 6.9
10 16 20 -6.6 6.5
-16 10 20 8.5 7.9
20 -10 -16 5.6 6.6
20 -16 10 -0.5 7
10 -20 16 -3.8 7.7
16 20 10 5.3 6.8
16 -20 -10 4.7 6.6
-10 20 16 8.4 7.5
10 -16 -20 1.8 6.2
20 16 12 -1 7.1
12 -20 -16 -3.1 6.2
16 -12 -20 0.9 7
12 -16 20 2 8.9
-12 16 20 -2.6 8.2
16 -20 12 0 8.2
12 20 16 -0.9 6.8
-16 20 12 0.1 7.8
20 -16 -12 -2.9 7
16 12 20 2.9 7
20 -12 -16 1.9 7
-12 20 16 1.2 7.9
20 12 16 3 6.8
-16 12 20 5.8 8.4
12 -20 16 -1.8 8.4
16 20 12 -0.1 6.5
20 -16 12 -0.7 8.1
12 16 20 -4.3 6.9
16 -20 -12 2.6 6.1
12 -16 -20 0.7 6.8
16 -20 14 294.67 13.3
20 -16 -14 315.97 12.5
16 14 20 264.07 10.7
14 -16 20 300.87 13.3
20 -14 16 299.67 13.4
14 -20 -16 334.87 12.4
20 16 14 264.17 11.1
14 20 16 306.77 12.1
16 -14 -20 271.97 11.4
-14 16 20 305.87 13.4
-16 20 14 330.97 13.4
-14 20 16 294.17 12.8
20 -14 -16 247.18 11.1
20 -16 14 311.77 13.6
16 20 14 244.38 10.6
14 -20 16 274.27 12.8
14 16 20 267.67 10.8
16 -14 20 264.67 13.5
16 -20 -14 300.97 11.9
20 14 16 314.57 12.1
14 -16 -20 273.97 11.1
-16 14 20 300.77 13.2
16 -16 20 645.64 22.4
16 -20 -16 617.94 19.5
16 20 16 617.84 19.5
16 16 20 621.54 19.2
20 16 16 616.74 19.7
20 -16 16 620.94 21.9
20 -16 -16 620.04 19.9
16 -16 -20 639.44 20
16 -20 16 637.94 21.9
-16 20 16 614.34 21.2
-16 16 20 588.84 21.9
18 20 0 201.98 9.6
18 0 -20 250.47 8.8
20 0 -18 247.58 9.1
0 -18 20 233.68 9.4
0 18 20 242.98 10.6
18 -20 0 207.88 9.9
0 20 18 235.28 10.3
20 18 0 226.78 10
20 -18 0 263.87 11.1
-2 18 20 82.59 7.7
2 20 18 70.89 7.5
18 20 -2 62.89 7.4
18 -2 -20 79.99 6.7
20 18 2 64.69 7.2
18 -20 2 69.89 8
20 2 -18 72.99 5.9
-2 -20 18 74.79 6.4
2 -20 -18 75.19 6.8
2 -18 20 67.69 7.7
20 -18 -2 63.29 7.7
20 18 -2 69.29 7.2
2 18 20 73.59 7.5
20 -18 2 61.89 7.9
18 -20 -2 58.89 7.2
18 20 2 62.59 7.1
20 -2 -18 76.79 6.8
-2 20 18 66.09 7.6
2 -20 18 74.79 7.8
18 -20 4 34 7.6
4 -20 -18 29 6
4 20 18 25.2 7
-4 18 20 24.5 7.2
20 -18 -4 26.2 7
20 18 4 28.6 6.6
4 -18 20 18.4 7.8
18 20 -4 22 7
18 -4 -20 28.3 6.6
18 20 4 21.3 7
20 -4 -18 23.9 6.6
20 18 -4 23.1 6.8
18 -20 -4 33.2 7.1
4 -20 18 26.8 7.7
4 -18 -20 29.6 6.2
-4 20 18 24.9 7.1
4 18 20 32.2 7
20 -18 4 34.4 7.7
18 -6 -20 84.99 7.5
18 -20 6 74.89 8.4
18 20 -6 80.49 7.9
6 -20 -18 73.59 7.1
20 18 6 70.19 7.7
6 -18 20 73.69 8.9
-6 18 20 80.69 8.2
6 20 18 77.29 7.7
20 -18 -6 80.59 7.9
6 -20 18 72.89 8.7
20 -6 -18 78.89 7.5
6 -18 -20 75.39 7.1
18 -20 -6 71.69 7.7
18 20 6 71.29 7.2
6 18 20 71.99 7.1
20 18 -6 79.79 7.4
20 -18 6 86.59 8.9
-6 20 18 76.29 8
-8 18 20 -1 7.2
18 20 -8 6 7.1
18 -20 8 9.2 7.8
8 20 18 1.4 6.7
18 -8 -20 0.4 6.9
20 -18 -8 0.4 7.1
20 18 8 3.7 7.1
8 -18 20 -1.4 8.7
8 -20 -18 6.9 6.6
20 18 -8 3.8 6.7
-8 20 18 0.5 7
20 -18 8 -1.1 7.6
8 -18 -20 3.7 6.4
20 -8 -18 0.1 6.9
18 20 8 2.8 7.3
8 18 20 -4.1 6.6
8 -20 18 -5.1 8.3
18 -20 -8 3.7 6.8
10 -18 20 184.78 11.9
18 -10 -20 200.98 9.9
18 10 20 188.98 9.4
-10 18 20 213.48 11.1
20 18 10 205.88 10.1
18 -20 10 205.68 11.4
10 -20 -18 196.98 9.6
20 -18 -10 182.28 9.7
10 20 18 193.68 10.1
-18 10 20 215.58 12
20 -18 10 185.68 11.1
18 -20 -10 202.78 10.2
10 -20 18 195.28 11.7
10 18 20 202.58 9.9
-10 20 18 187.78 10.9
20 -10 -18 184.88 9.8
10 -18 -20 195.48 9.6
18 20 10 189.78 10.2
20 18 12 195.48 10.3
12 -18 20 200.58 12.5
12 -20 -18 207.18 10.3
-18 20 12 173.88 10.5
-12 18 20 190.48 11.6
18 12 20 220.38 10.5
12 20 18 212.78 10.3
18 -20 12 158.58 10.8
18 -12 -20 211.78 10.9
20 -18 -12 179.18 10.1
-12 20 18 211.58 11.8
18 -20 -12 210.58 10.7
20 -18 12 167.38 11
-18 12 20 197.78 12.3
20 12 18 162.88 9
18 20 12 190.28 10.5
12 18 20 202.48 10.5
12 -18 -20 209.38 10.3
12 -20 18 205.68 11.9
20 -12 -18 182.78 10.2
20 -14 18 49.3 10.7
18 14 20 40.6 8.2
14 -20 -18 49.6 8.4
-18 20 14 44.2 9.1
-14 18 20 41.2 9.7
18 -14 -20 46.8 8.7
14 -18 20 57.39 11.4
20 -18 -14 45.7 8.4
18 -20 14 41.7 10.2
20 18 14 46.7 8.7
14 20 18 46.6 8.6
18 20 14 44.5 8.9
18 -14 20 43.4 11
20 14 18 47.6 8.3
18 -20 -14 43 8.1
20 -14 -18 52.79 9
14 -18 -20 47.5 8.4
-14 20 18 57.69 10.1
20 -18 14 52.19 10.1
14 -20 18 51.59 10.7
14 18 20 49 8.6
-18 14 20 56.69 10.8
20 -18 -16 254.47 11.7
18 16 20 264.17 12.1
18 -20 16 243.68 13.6
18 -16 -20 285.87 12.7
16 20 18 287.17 13
20 -16 18 261.47 14.5
-16 18 20 276.57 14
16 -18 20 259.27 14.5
20 18 16 276.37 12.5
-18 20 16 283.37 14.1
16 -20 -18 280.97 12.3
-18 16 20 248.08 13.8
-16 20 18 268.77 13.8
20 16 18 282.47 12.4
16 -20 18 256.57 14.2
20 -16 -18 301.77 13
18 20 16 270.47 12.4
18 -16 20 272.27 14.5
18 -20 -16 245.08 11.8
16 -18 -20 302.27 12.9
20 -18 16 254.17 13.9
16 18 20 267.17 12
-20 18 18 -0.6 11.5
-18 18 20 0.5 11.6
-18 20 18 8.5 11.3
18 -20 -18 -1.4 9.7
18 -20 18 1.6 12
18 -18 -20 10.1 9.7
18 -18 20 10 12.5
18 18 20 5.2 9.2
18 20 18 -0.8 9.7
20 -18 -18 8.2 10
20 -18 18 5.4 11.7
20 18 18 0.8 9.1
0 20 20 1143.89 29.4
20 -20 0 1165.78 29.5
20 0 -20 1155.88 27.9
20 20 0 1168.58 29.2
-2 20 20 1157.08 29.3
2 20 20 1149.48 29.2
20 -20 -2 1157.58 29.2
20 -20 2 1139.39 29.3
20 -2 -20 1149.29 28.1
20 20 -2 1115.29 28.8
20 20 2 1141.99 28.9
-4 20 20 526.75 18.1
4 -20 -20 551.74 16.8
4 20 20 530.35 17.7
20 -20 -4 532.45 17.9
20 -20 4 526.45 18.2
20 -4 -20 560.84 17.2
20 20 -4 542.05 17.8
20 20 4 508.55 17.3
-6 20 20 277.57 11.9
6 -20 -20 282.67 10.8
6 -20 20 274.47 13
6 20 20 262.97 11.7
20 -20 -6 273.57 11.9
20 -20 6 267.47 12.1
20 -6 -20 287.97 11.4
20 20 -6 267.47 11.5
20 20 6 278.57 11.8
-8 20 20 209.58 11
8 -20 -20 266.97 11
8 -20 20 235.48 12.5
8 20 20 270.47 11.6
20 -20 -8 261.87 11.7
20 -20 8 234.48 11.4
20 -8 -20 252.97 11.4
20 20 -8 232.48 11
20 20 8 218.98 10.8
-10 20 20 1164.38 31.3
10 -20 -20 1198.28 29.8
10 -20 20 1177.48 32.1
10 20 20 1157.18 30.1
20 -20 -10 1181.68 30.4
20 -20 10 1180.48 31.3
20 -10 -20 1196.18 30.3
20 10 20 1173.28 29.7
20 20 10 1172.38 30.1
-12 20 20 1371.26 35.9
12 -20 -20 1422.76 34.4
12 -20 20 1399.26 36.6
12 20 20 1340.87 34.5
20 -20 -12 1353.56 34.6
20 -20 12 1413.06 35.9
20 -12 -20 1414.46 34.9
20 12 20 1431.16 34.2
20 20 12 1379.86 34.6
-14 20 20 162.98 12.1
14 -20 -20 162.48 10.5
14 -20 20 199.18 14.1
14 20 20 187.08 11.2
20 -20 -14 187.88 11.3
20 -20 14 180.48 13.1
20 -14 -20 195.88 12
20 -14 20 184.68 13.6
20 14 20 195.48 11.3
20 20 14 174.58 11.2
-20 16 20 4.1 12.2
-16 20 20 -1.9 11.8
16 -20 -20 7.3 9.4
16 -20 20 3.9 12.9
16 20 20 1.6 9.2
20 -20 -16 -5.4 8.8
20 -20 16 -3.4 11.8
20 -16 -20 6 10.5
20 -16 20 2.5 12.6
20 16 20 -3.5 9.2
20 20 16 -1.9 9.8
-20 18 20 375.86 17.9
-20 20 18 407.56 18.4
-18 20 20 391.66 17.4
18 -20 -20 406.16 15.9
18 -20 20 370.76 18.1
18 20 20 322.97 14.2
20 -20 -18 347.97 14.9
20 -20 18 382.76 18.2
20 -18 -20 353.56 15.1
20 -18 20 384.06 18.2
20 18 20 286.77 13.4
20 20 18 347.97 14.8
-20 20 20 1452.95 39.9
20 -20 -20 1404.66 37.2
20 -20 20 1402.96 40.3
20 20 20 1312.37 36
-1 -21 -1 2928.21 64.89
-1 -21 1 2933.01 64.89
-1 -1 21 2950 64.59
-1 1 21 3011.1 64.69
-1 21 -1 2960.4 65.39
-1 21 1 2923.31 65.39
1 -21 -1 2955.6 64.99
1 -21 1 2955.3 64.99
1 -1 21 2919.91 64.69
1 1 21 2956.5 64.69
1 21 -1 2864.91 65.29
1 21 1 2787.32 65.19
-3 -21 -1 703.03 17.8
-1 -21 3 726.33 17.8
21 -3 -1 710.03 19.1
-3 21 1 735.83 18.8
3 21 -1 679.83 18.4
-1 3 21 677.83 17.7
1 -3 21 736.63 17.4
-3 -1 21 752.12 17.4
1 21 3 737.43 18.6
3 -21 1 697.73 18.1
1 -21 -3 714.73 17.9
-1 21 -3 710.73 18.6
3 1 21 707.33 17.7
-1 -3 21 736.23 17.3
1 -21 3 705.13 18
1 21 -3 703.33 18.6
3 -21 -1 732.23 18.1
3 -1 21 712.63 17.6
21 -1 -3 707.63 18.9
-3 21 -1 685.53 18.7
-1 21 3 742.63 18.7
3 21 1 713.63 18.5
-1 -21 -3 721.53 17.9
-3 -21 1 709.93 17.8
1 3 21 720.63 17.8
-3 1 21 679.23 17.5
3 -21 -3 388.86 11.4
3 -21 3 377.36 11.6
-3 21 -3 346.07 12.3
-3 21 3 380.96 12.4
-3 -3 21 378.96 10.5
-3 3 21 379.46 11.2
-3 -21 3 371.16 11.1
-3 -21 -3 378.46 11.2
21 -3 -3 365.86 12.4
3 21 3 362.06 12
3 3 21 379.36 11.2
3 21 -3 367.46 12.1
-1 21 -5 316.57 11.3
-1 5 21 329.87 10.3
5 1 21 326.47 10.2
-5 -21 -1 312.17 10.1
5 -21 1 324.97 10.7
5 21 -1 316.17 11
-5 -1 21 319.97 9.8
-5 21 1 321.77 11.5
21 -5 -1 303.97 11.6
1 -21 -5 317.47 10.3
1 21 5 333.27 11.2
21 1 -5 313.77 11.6
-1 -21 5 314.17 10.1
-1 -5 21 322.57 9.5
-1 21 5 324.87 11.3
5 -21 -1 288.27 10.5
1 -21 5 323.07 10.5
-1 -21 -5 300.67 10.2
-5 1 21 318.67 10.1
1 5 21 326.17 10.2
-5 -21 1 317.07 10
-5 21 -1 314.27 11.6
1 21 -5 302.87 11.1
21 -5 1 286.87 11.8
5 21 1 314.87 11
21 -1 -5 313.77 11.4
-3 21 -5 194.78 8.6
-3 5 21 200.08 7.7
5 21 -3 171.48 7.8
-3 -21 5 186.88 8
-5 -3 21 175.08 7.3
-5 -21 -3 182.18 7.2
5 3 21 175.78 7.1
21 -5 -3 183.78 8.2
3 21 5 188.28 8
-5 21 3 188.28 8.2
3 -21 -5 209.98 8
5 -21 3 182.78 7.7
-3 -5 21 184.38 7
-5 3 21 192.98 7.5
3 21 -5 180.88 7.7
-5 21 -3 195.38 8.5
5 21 3 178.68 7.7
21 -3 -5 197.78 8.5
3 5 21 194.88 8.2
5 -21 -3 203.88 8
-5 -21 3 185.18 7
-3 21 5 197.88 8.4
3 -21 5 191.38 7.7
-3 -21 -5 180.58 7.3
-5 21 5 102.89 6.9
-5 -21 5 87.19 5.2
5 21 5 95.59 6.2
21 -5 -5 83.29 6.3
-5 -21 -5 91.29 5.3
-5 -5 21 92.79 4.4
5 21 -5 77.89 6.1
5 -21 5 84.49 5.9
5 -21 -5 79.39 5.2
-5 21 -5 71.39 6.2
-5 5 21 95.29 5.9
5 5 21 87.19 5.6
-7 -1 21 23.9 4.2
21 1 -7 24.3 5.2
-1 21 -7 25 5.5
21 -7 -1 25 5.4
-1 -21 7 22.2 4.5
1 -21 -7 26.5 4.5
1 21 7 22.4 5.1
7 21 -1 25.2 4.9
7 -21 1 25.1 4.8
-7 21 1 29.5 5.6
-1 7 21 25.8 4.6
1 21 -7 26.3 5.3
-7 21 -1 25.7 5.6
-7 1 21 24.2 4.5
-1 -21 -7 23.9 4.5
-1 -7 21 30.7 3.8
1 -21 7 26 4.5
1 7 21 24 4.5
7 -21 -1 21.1 4.8
-1 21 7 25.6 5.1
-7 -21 1 22 4.2
7 21 1 26.5 5.1
21 -1 -7 28.1 5.3
21 -7 1 27.1 5.7
7 21 -3 43.5 5.4
-3 -21 7 37.2 4.5
-7 -3 21 39.3 4.1
3 21 7 39.2 5.4
7 3 21 34.3 4.8
21 -7 -3 40 5.9
21 3 -7 36.2 5.5
3 -21 -7 36.6 4.8
7 -21 3 37 5.2
-7 21 3 37.9 5.7
-3 7 21 44.5 5
21 -7 3 39 6
-3 -7 21 38 3.6
-7 21 -3 43 6
3 7 21 40.3 4.9
7 -21 -3 35 4.9
-7 3 21 34.2 4.8
-3 -21 -7 37.7 4.7
7 21 3 39.6 5.3
21 -3 -7 33.7 5.5
-7 -21 3 36.1 4.4
-3 21 7 35 5.2
3 -21 7 33.9 5
3 21 -7 33.6 5.4
21 -7 -5 204.88 8.8
7 -21 5 214.08 8.7
-5 7 21 221.68 9.4
5 21 7 225.48 8.7
-7 21 5 238.28 9.3
7 21 -5 196.08 8.3
-5 -21 7 201.48 8.4
7 5 21 217.48 9
5 -21 -7 205.58 8.9
21 5 -7 206.68 8.6
5 21 -7 219.98 8.5
5 7 21 218.68 9.1
-7 5 21 207.08 8.2
-7 -21 5 197.18 8.2
21 -5 -7 195.18 8.8
7 -21 -5 208.58 9.2
-5 21 7 190.58 8.4
5 -21 7 225.78 8.7
-5 -21 -7 215.78 8.7
7 21 5 212.08 8.6
-7 -21 7 855.21 21
7 -21 -7 895.51 21.8
7 21 -7 872.01 22
7 21 7 906.91 22.2
-7 21 7 882.51 22.7
7 -21 7 863.61 22.2
7 7 21 874.81 21.8
21 -7 -7 900.51 22.5
-7 7 21 877.41 22
1 -21 -9 939.21 23.1
21 1 -9 938.51 23.5
-1 -21 9 936.51 23
21 -9 -1 964.5 24.1
-1 9 21 916.91 23.4
-9 -1 21 1038.4 22.8
9 21 -1 893.31 23.5
9 -21 1 959 23.6
1 21 9 951.5 23.8
-9 21 1 1003.4 24.2
1 -21 9 933.11 23.2
-1 -21 -9 930.41 23.1
-9 1 21 998.1 23.1
9 21 1 896.01 23.6
21 -9 1 969.3 24.1
-1 21 9 993.2 23.9
9 -21 -1 969.6 23.6
-9 21 -1 983.5 24.2
1 9 21 973.2 23.3
21 -1 -9 916.11 23.6
-3 9 21 523.75 14.8
-3 -21 9 477.55 13.8
9 21 -3 494.75 14.9
21 3 -9 519.95 14.8
3 21 9 519.15 15.2
3 -21 -9 532.05 14.4
21 -9 -3 508.65 15.4
9 -21 3 510.55 15
-9 21 3 516.35 15.5
-9 -3 21 529.05 13.2
3 -21 9 489.55 14.7
-9 3 21 479.85 14.5
3 9 21 504.45 14.5
-3 -21 -9 527.55 14.2
9 -21 -3 537.65 14.9
3 21 -9 494.45 15
9 21 3 507.85 14.9
-3 21 9 521.45 15.3
21 -9 3 527.45 15.6
21 -3 -9 518.55 15.2
-3 -9 21 516.45 12.6
21 -9 -5 171.78 8.2
9 5 21 183.58 7.5
21 5 -9 179.48 7.8
9 -21 5 191.88 8.4
5 21 9 205.88 8.5
-5 -21 9 183.88 7
9 21 -5 181.48 8
-9 21 5 166.58 8
-5 9 21 190.88 8.2
5 -21 -9 163.38 7
21 -9 5 176.18 8.7
9 -21 -5 195.48 8.3
-9 5 21 165.28 7.9
5 9 21 175.28 7.4
21 -5 -9 172.88 8.5
-5 21 9 209.88 8.9
9 21 5 183.38 8
5 -21 9 186.48 8.2
5 21 -9 170.38 7.9
9 -21 7 3.5 5.3
9 7 21 0.1 4.4
7 -21 -9 3.5 4.6
-7 -21 9 -3.8 4.1
-9 21 7 7.5 5.7
-7 9 21 3 5.5
21 -9 -7 -1.1 5.6
21 7 -9 -1.8 5.3
9 -7 -21 5.4 4.8
7 21 9 -1.6 5
9 21 -7 1.3 5.4
9 21 7 1.6 5.2
7 -21 9 1.3 5.4
21 -7 -9 -0.4 5.4
7 21 -9 1.3 5.3
21 -9 7 -1.3 6
-7 21 9 2.6 5.7
7 9 21 1.7 4.8
-9 7 21 1.5 5.4
9 -21 -7 -1.8 4.8
21 -9 -9 1232.58 30
9 21 9 1300.37 29.9
9 21 -9 1232.08 29.2
9 9 21 1245.58 29.5
9 -9 -21 1116.79 29.1
-9 9 21 1235.68 29.9
-9 21 9 1244.08 30.2
9 -21 -9 1275.87 29.5
9 -21 9 1242.28 30
21 9 -9 1265.27 29.3
1 -21 -11 1875.21 42.2
21 -11 -1 1855.61 42.9
11 -21 1 1835.62 42.6
11 21 -1 1712.43 42.3
-1 -21 11 1857.01 41.9
1 21 11 1923.31 42.7
21 1 -11 1865.81 42.3
-1 11 21 1828.22 42.4
-11 -1 21 1918.91 41.7
-11 21 1 1883.21 43.1
-1 -11 21 1849.11 41.7
-1 21 11 1834.92 42.7
21 -11 1 1871.01 42.9
21 -1 -11 1947.91 42.5
11 -21 -1 1820.82 42.6
1 11 21 1835.02 42.4
-1 -21 -11 1860.11 42.2
11 21 1 1727.43 42.3
1 -21 11 1842.02 42.2
-11 1 21 1877.11 42
11 -21 3 1380.06 32.9
-3 -21 11 1379.16 31.8
-3 11 21 1384.06 32.7
21 -11 -3 1405.96 33.2
3 21 11 1455.55 33
3 -21 -11 1444.86 32.4
-11 21 3 1392.76 33.2
21 3 -11 1450.15 32.4
11 21 -3 1354.36 32.6
11 21 3 1338.87 32.6
11 -21 -3 1396.56 32.8
-11 3 21 1337.17 32.4
21 -11 3 1351.96 33.2
21 -3 -11 1363.56 32.7
3 11 21 1438.96 32.6
-3 -21 -11 1390.96 32.3
3 -21 11 1309.87 32.5
-3 21 11 1385.86 33
11 -5 -21 1045.3 24.3
5 -21 -11 1002.8 24.7
21 -11 -5 1016.4 25.6
-5 -21 11 1015.9 23.8
-5 11 21 1008 25.1
11 -21 5 1032 25.3
-11 21 5 1022.4 25.5
21 5 -11 1031.9 24.5
11 21 -5 995.8 24.8
5 21 11 1016.7 25.2
21 -5 -11 926.31 25
11 -21 -5 1008 24.9
5 -21 11 952.7 25
5 11 21 1023.9 24.7
-11 5 21 954.1 25
11 21 5 1057.29 25.1
21 -11 5 1044.5 25.8
-5 21 11 1050.19 25.4
21 7 -11 713.43 18
-11 21 7 710.13 19.5
7 -21 -11 721.93 18.5
11 -7 -21 687.13 18.2
11 -21 7 734.03 19.4
21 -11 -7 699.93 19.4
11 7 21 692.23 18.5
7 21 11 697.53 18.9
11 21 -7 702.23 18.7
-7 11 21 709.33 19.2
7 -21 11 692.93 19.1
11 21 7 709.83 18.9
11 -21 -7 699.63 18.6
-11 7 21 658.03 19.2
-7 21 11 701.03 19.4
21 -11 7 704.53 19.9
21 -7 -11 665.53 19
7 -11 -21 678.43 18.3
7 11 21 683.93 18.5
11 21 -9 2394.36 52.79
-9 11 21 2314.17 53.59
9 -21 -11 2359.56 53.19
21 -11 -9 2347.07 53.59
11 9 21 2400.96 53.29
21 9 -11 2383.16 52.39
-11 21 9 2424.06 53.89
9 21 11 2435.56 53.49
11 -21 9 2394.96 53.79
11 -9 -21 2112.59 52.89
11 -21 -9 2333.87 53.29
-11 9 21 2421.46 53.69
9 11 21 2369.56 53.19
9 -11 -21 2221.28 52.99
21 -11 9 2401.46 54.09
21 11 -9 2369.66 52.19
11 21 9 2407.56 53.39
21 -9 -11 2249.47 53.49
9 -21 11 2343.47 53.69
-9 21 11 2408.06 53.89
11 21 11 3730.53 83.29
11 -21 -11 3659.33 83.09
21 -11 11 3804.22 83.89
-11 21 11 3740.73 83.69
21 -11 -11 3747.62 83.39
11 11 21 3734.13 83.09
11 -21 11 3789.62 83.69
11 -11 -21 3609.64 82.89
-11 11 21 3914.91 83.59
1 21 13 1059.19 25.4
1 -21 -13 1033.4 24.6
1 -13 21 952.4 24.6
-1 -21 13 1005.9 24.3
21 1 -13 1040.8 24.6
-1 13 21 1005.1 25
13 -21 1 1007.6 25.2
21 -13 -1 1011.8 25.5
13 21 -1 941.41 24.8
1 -21 13 998 24.7
-1 21 13 1019 25.3
21 -13 1 1009 25.5
13 21 1 973.2 24.9
1 13 21 1022.2 25
13 -21 -1 1013.4 25
-1 -13 21 1006.2 23.9
-13 1 21 998.5 24.6
-1 -21 -13 973.7 24.4
21 -1 -13 1002.5 24.8
-3 13 21 359.86 12.9
21 -13 -3 349.47 13.4
21 3 -13 366.26 11.9
-13 21 3 365.16 13.6
13 -3 -21 355.06 11.4
3 21 13 351.96 13
3 -21 -13 351.46 12
-3 -21 13 360.16 11.3
13 -21 3 360.46 13
13 21 -3 341.87 12.9
3 -13 21 333.27 13.1
-3 21 13 354.16 13
13 21 3 337.37 12.5
3 13 21 337.97 12.5
21 13 -3 338.27 11.8
-13 3 21 336.07 13
3 -21 13 333.27 12.7
13 -21 -3 370.86 12.8
21 -3 -13 331.67 12.7
21 -13 3 380.76 13.6
13 21 -5 237.28 9.3
-5 -21 13 216.08 8.8
21 -13 -5 224.48 9.4
-13 21 5 224.78 9.9
-5 13 21 240.18 9.9
5 21 13 218.88 9.3
13 -5 -21 236.78 8.7
21 5 -13 226.08 9.7
13 -21 5 214.68 9.3
5 -13 21 235.48 10
5 -21 -13 211.18 8.6
13 21 5 237.48 9.5
21 -13 5 192.48 9.3
5 13 21 244.08 9.4
21 13 -5 227.28 9.9
5 -21 13 189.88 9.2
-13 5 21 221.08 9.6
-5 21 13 262.97 10.2
13 -21 -5 228.38 9.5
21 -5 -13 204.78 9.1
13 21 -7 114.09 7.6
7 21 13 100.89 7.4
13 -7 -21 105.89 7.1
7 -21 -13 117.49 7.2
21 7 -13 117.79 6
13 7 21 119.09 7.2
21 -13 -7 110.89 7.8
-13 21 7 110.19 8.1
13 -21 7 96.99 7.2
-7 13 21 114.49 7.9
13 21 7 100.89 7.4
21 -7 -13 78.29 7.2
-13 7 21 89.89 7.9
21 13 -7 108.99 6.5
7 -13 -21 115.99 7.1
13 -21 -7 120.19 7.8
-7 21 13 108.99 8
21 -13 7 107.39 7.8
7 13 21 104.09 7.2
7 -21 13 92.09 7.7
-9 13 21 909.21 23.8
13 9 21 903.31 22.9
13 21 -9 866.71 22.7
9 21 13 932.41 23.5
13 -21 9 917.81 24.1
9 -21 -13 924.41 23
-13 21 9 921.21 24.1
13 -9 -21 892.51 22.9
21 -13 -9 916.61 23.9
9 -13 -21 889.51 22.9
21 -13 9 873.71 24.3
13 21 9 908.31 23.3
-13 9 21 879.51 24
9 13 21 922.81 23
13 -21 -9 913.11 23.1
9 -21 13 872.51 24
21 -9 -13 831.62 23.5
-9 21 13 911.51 24.1
21 13 -9 941.11 21.8
-11 13 21 1736.23 40.1
13 11 21 1660.03 39.3
-13 21 11 1655.73 40.1
11 -21 -13 1700.53 39.2
21 13 11 1701.53 39.3
13 -21 11 1710.23 40.2
13 -11 -21 1594.14 39.2
21 -13 -11 1747.83 39.9
11 21 13 1693.83 39.6
-13 11 21 1652.43 40.1
13 -21 -11 1689.23 39.4
11 -13 -21 1676.83 39.3
-11 21 13 1718.53 40.2
11 13 21 1715.53 39.3
11 -21 13 1660.13 40.1
21 -11 -13 1674.03 39.7
21 -13 11 1659.43 40.5
13 21 11 1660.53 39.5
13 -21 -13 1237.18 30.7
-13 21 13 1292.87 31.8
-13 13 21 1253.27 32
21 -13 13 1265.77 32.5
21 13 13 1289.27 30.8
13 21 13 1220.28 31.1
21 -13 -13 1229.88 31.3
13 -13 -21 1297.57 30.9
13 13 21 1279.47 30.7
13 -21 13 1284.17 32
15 -21 1 160.78 8.2
21 15 1 179.48 8.4
1 21 15 179.88 8.8
1 -21 -15 171.08 7.8
1 -15 21 197.08 8.7
15 21 -1 164.58 8.7
21 -15 -1 184.08 9.4
21 1 -15 183.38 8.1
-1 -21 15 202.08 8.3
-1 15 21 177.28 8.8
-1 -15 21 171.98 7.6
-1 21 15 171.58 8.8
15 21 1 171.68 8.6
21 15 -1 174.98 8.3
15 -21 -1 165.78 8.6
1 -21 15 186.88 8.6
1 15 21 195.48 9
-1 -21 -15 188.38 8.2
21 -15 1 189.08 9.5
21 -1 -15 190.98 8.5
3 -15 21 -0.3 6.8
3 -21 -15 0.6 5.4
15 21 -3 0.4 6.3
21 15 3 0.6 5.7
3 21 15 2.3 6.2
21 3 -15 3.2 5.4
21 -15 -3 -3.5 6.5
15 -3 -21 1.7 5.3
-3 15 21 -0.4 6.2
15 -21 3 2.7 6.3
-3 -21 15 3.6 5
3 15 21 -4.4 5.8
3 -21 15 2.3 6.2
-15 3 21 -0.9 6.8
21 15 -3 1.1 5.8
-3 21 15 0 6.1
21 -3 -15 -0.5 6.2
21 -15 3 -1.5 6.7
15 -21 -3 0.3 5.6
15 21 3 -1.8 6.1
5 -21 -15 258.67 9.7
-15 21 5 232.88 10.2
21 15 5 251.17 9.8
21 -15 -5 224.58 9.7
15 -5 -21 252.27 11
15 -21 5 268.27 11.2
5 -15 21 250.67 10.8
5 21 15 260.07 10.4
-5 15 21 241.68 10.2
21 5 -15 248.68 9.5
-5 -21 15 228.78 9.1
15 21 -5 261.07 10.2
15 21 5 239.38 9.8
5 -15 -21 252.07 11
15 -21 -5 287.07 10.7
-5 21 15 248.58 10.5
21 15 -5 242.08 10.8
21 -15 5 222.98 9.9
-15 5 21 249.68 10.7
5 -21 15 242.08 10.4
5 15 21 258.87 10
21 -5 -15 266.87 10.2
15 -7 -21 355.56 12.9
21 -15 -7 357.36 14
7 -15 21 326.47 12.9
15 -21 7 382.16 14.5
7 -21 -15 343.07 12.8
21 15 7 357.56 13.1
-15 21 7 347.17 14.4
-7 15 21 362.86 14.2
7 21 15 359.36 13.8
15 21 -7 343.87 13.6
21 15 -7 366.26 12.3
7 -21 15 292.67 12.2
7 15 21 357.46 13.2
15 21 7 360.96 13.6
21 -7 -15 331.57 13.8
15 -21 -7 345.97 13.5
7 -15 -21 355.26 12.7
-15 7 21 356.76 14.8
-7 21 15 340.17 14
21 -15 7 333.17 14.4
15 -21 9 26.5 7.7
9 21 15 21.3 7
-15 21 9 17.6 7.5
9 -15 21 18.4 8.4
15 21 -9 23.1 6.7
15 9 21 16.1 6.4
9 -21 -15 22.3 6.4
-9 15 21 24.8 7.3
21 -15 -9 17.5 7
15 -9 -21 20.3 6.5
21 15 9 22.4 6.7
15 21 9 23 7
21 -9 -15 27.2 7.3
21 15 -9 19.4 5.6
9 -15 -21 12.5 6.4
15 -21 -9 16.6 6.2
9 15 21 23.6 6.8
9 -21 15 23.1 7.7
-15 9 21 18.2 7.9
-9 21 15 19.7 7.5
21 -15 9 19 7.7
15 -11 -21 362.56 14
11 21 15 346.17 14.2
15 -21 11 365.36 15.6
21 -15 -11 353.56 14.9
-11 15 21 369.26 15.8
15 11 21 362.96 13.9
21 15 11 352.76 14.1
-15 21 11 344.47 15.4
11 -21 -15 372.86 13.8
11 -15 21 379.56 14.4
15 -21 -11 372.16 14
15 21 11 360.56 14.6
11 -15 -21 378.16 14
11 15 21 354.56 13.8
-11 21 15 360.26 15.5
21 -11 -15 336.87 14.6
11 -21 15 344.47 13.5
21 -15 11 364.06 15.7
-15 11 21 372.06 16.1
-13 15 21 73.39 9.5
21 15 13 68.69 8.1
21 -15 -13 66.09 8.4
21 -13 15 72.09 9.8
15 -21 13 77.49 9.6
15 -13 -21 60.99 7.9
15 13 21 78.29 7.9
13 -21 -15 63.49 7.5
13 21 15 63.59 8
13 -15 21 56.89 10
-15 21 13 68.89 8.9
15 -21 -13 85.89 8.2
21 -13 -15 70.39 8.7
-15 13 21 77.49 9.7
-13 21 15 77.19 9.1
13 15 21 89.59 7.9
21 13 15 60.49 7.7
21 -15 13 66.49 9.2
15 21 13 64.39 8.1
13 -15 -21 67.59 7.9
13 -21 15 75.39 9.7
15 -15 -21 56.79 8.3
15 15 21 59.79 8
-15 15 21 55.69 9.7
15 -15 21 55.29 10.9
21 -15 -15 52.79 8.5
21 -15 15 68.59 10.3
21 15 15 64.79 8.7
15 21 15 58.59 8.5
15 -21 -15 57.09 7.7
15 -21 15 50.09 9.8
-15 21 15 57.39 9.5
21 17 1 189.88 9.4
1 21 17 185.68 9.4
21 -17 -1 204.28 10.3
-1 17 21 186.68 9.5
17 -21 1 168.28 8.8
17 21 -1 195.68 9.4
17 -1 -21 202.48 8.3
1 -21 -17 193.58 8.7
21 1 -17 192.48 8.2
21 17 -1 182.18 9.1
1 17 21 178.38 9.2
1 -21 17 181.68 9.3
21 -17 1 205.88 10.4
-1 21 17 204.58 9.8
-1 -17 21 205.68 8.2
17 -21 -1 207.48 9.9
17 21 1 177.28 9.6
21 -1 -17 188.88 8.7
21 3 -17 5.7 5.2
17 21 -3 6.9 7
-3 17 21 4.2 6.9
3 -17 21 6.8 7.5
17 -3 -21 8.4 6.2
21 -17 -3 4.4 6.4
21 17 3 4.1 6.4
-3 -21 17 5.3 5.3
17 -21 3 6 6.9
3 -21 -17 8.9 6
3 21 17 2.1 6.5
3 -21 17 3 7.2
3 17 21 2.8 6.5
17 21 3 1.8 6.6
21 -3 -17 3.7 6.5
21 -17 3 4.2 7
-3 21 17 5.8 6.7
17 -21 -3 1.9 6.6
21 17 -3 8.1 6.6
17 -5 -21 175.18 8.8
21 -17 -5 156.88 9.2
21 17 5 174.38 9
-5 17 21 182.68 9.9
5 21 17 179.08 9.3
5 -17 21 173.28 10.1
17 21 -5 162.48 9.4
17 -21 5 167.68 9.6
5 -21 -17 164.78 8.6
17 21 5 177.68 9.5
21 -5 -17 169.88 8.9
5 -21 17 151.98 9.8
5 17 21 182.08 9.4
5 -17 -21 198.78 8.9
17 -21 -5 165.48 8.8
21 -17 5 163.38 10
21 17 -5 159.18 8.7
-5 21 17 168.48 9.4
21 17 7 312.87 11.6
-7 17 21 311.77 12.1
17 -21 7 289.57 12.2
7 21 17 265.67 10.8
7 -21 -17 285.47 12.5
7 -17 21 292.17 12.7
17 21 -7 291.27 11.1
21 -17 -7 277.67 11.4
17 -7 -21 301.17 11.1
17 21 7 268.17 11
21 -7 -17 287.27 11.4
-17 7 21 297.37 12.8
7 17 21 286.57 11.2
21 17 -7 285.07 10.5
17 -21 -7 318.07 11.9
-7 21 17 246.68 10.8
7 -21 17 270.77 12.2
21 -17 7 281.17 11.7
7 -17 -21 290.07 12.5
-17 21 9 36.1 7.7
17 21 -9 48.4 7.7
17 -9 -21 58.79 7.9
17 9 21 56.29 7.3
21 -17 -9 54.29 8.1
21 17 9 48.5 7.7
-9 17 21 51.69 8.4
9 21 17 48.6 7.8
9 -17 21 47.1 9.3
9 -21 -17 59.09 7.3
17 -21 9 50.29 8.5
21 17 -9 46.9 6.9
21 -9 -17 47.3 7.6
9 17 21 54.79 7.5
-17 9 21 47 9.1
21 -17 9 45.2 8.1
9 -21 17 48.8 9.2
17 21 9 47 7.9
-9 21 17 50.99 8.5
9 -17 -21 45.3 7.4
17 -21 -9 53.99 8
17 -11 -21 258.57 11.2
-17 21 11 270.17 12.9
21 -17 -11 251.37 11.8
11 -17 21 249.58 13.2
17 -21 11 254.67 12.4
-11 17 21 253.37 12.3
11 -21 -17 269.17 11
21 17 11 249.88 11.4
11 21 17 269.67 11.3
17 11 21 269.97 11.1
21 -17 11 270.07 12.9
17 -21 -11 279.97 11.9
11 -21 17 230.28 12.3
17 21 11 263.87 11.8
11 17 21 264.07 11.3
-11 21 17 245.18 11.8
11 -17 -21 261.17 11
-17 11 21 275.57 13.1
21 -11 -17 270.37 11.9
13 21 17 18.1 7.8
-13 17 21 18.9 9.5
-17 21 13 24.8 9.5
17 13 21 21.7 7.9
21 -17 -13 22.4 8.4
17 -21 13 31.5 9.6
21 -13 17 23.5 10.1
13 -17 21 27.2 10.9
13 -21 -17 23.2 7.9
21 17 13 25.5 8.1
17 -13 -21 21.4 8.4
13 17 21 15.6 7.5
17 21 13 23.2 8.3
21 -13 -17 26.1 8.2
-17 13 21 23.9 10.2
-13 21 17 30.1 9.5
13 -17 -21 22.2 7.9
21 13 17 22.7 8.1
13 -21 17 25.9 9.8
17 -21 -13 27.6 7.6
21 -17 13 24 9.9
21 -17 -15 156.58 10.4
15 -17 21 169.28 12.7
21 -15 17 185.78 12.8
17 -15 -21 184.78 10.9
15 -21 -17 191.68 11
17 -21 15 161.68 11.9
-17 21 15 180.38 12
-15 17 21 168.48 11.8
17 15 21 172.38 10.4
21 17 15 193.38 10.8
15 21 17 180.48 10.8
17 -21 -15 188.88 10.6
-15 21 17 175.18 11.8
17 -15 21 188.88 13.4
21 -17 15 160.88 12.3
21 -15 -17 187.58 11.2
17 21 15 210.18 11.5
15 17 21 136.59 9.6
-17 15 21 163.98 12.5
21 15 17 196.48 11.1
15 -21 17 180.38 12.6
15 -17 -21 188.58 11
17 21 17 98.39 10.1
21 17 17 121.49 10.4
17 -21 -17 110.69 10.5
21 -17 -17 104.59 10.6
21 -17 17 96.09 12.3
17 -21 17 110.39 12.3
17 -17 -21 133.09 11.1
-17 17 21 115.09 12.6
17 -17 21 109.59 13.2
17 17 21 110.79 10.3
-17 21 17 102.49 11.9
19 -21 1 636.54 19.3
-1 19 21 662.63 19.8
21 19 1 644.84 19
19 21 -1 661.63 19.6
19 -1 -21 629.44 18
1 21 19 612.44 19.5
21 -19 -1 636.84 19.6
21 1 -19 623.04 17.6
1 19 21 655.73 19.6
-1 -19 21 616.04 17.9
19 -21 -1 616.84 19.4
21 -1 -19 641.74 18.1
21 -19 1 627.54 19.7
21 19 -1 636.84 19
19 21 1 609.94 19.3
-1 21 19 640.34 19.5
3 -21 -19 348.77 13.6
19 -3 -21 367.06 14
19 -21 3 359.66 15.4
21 19 3 355.06 14.5
3 21 19 338.77 14.9
21 -19 -3 354.36 15
-3 19 21 348.27 15.3
19 21 -3 351.36 15.2
21 -3 -19 362.66 14
-3 21 19 378.46 13.8
19 -21 -3 357.06 14.9
3 19 21 343.17 14.9
21 -19 3 315.77 12.8
21 19 -3 352.26 14.9
19 21 3 373.76 15.2
19 -21 5 59.79 8.5
21 19 5 57.19 7.8
19 -5 -21 59.99 8
5 21 19 60.89 8.2
21 -19 -5 63.79 8.5
19 21 -5 64.29 8.6
5 -21 -19 57.69 7.4
-5 19 21 60.39 8.6
19 21 5 54.89 8.4
-5 21 19 47.3 7.9
5 19 21 59.59 8.1
5 -19 -21 63.29 7.4
21 -19 5 69.49 9
19 -21 -5 68.29 8.4
21 19 -5 61.19 8.3
21 -5 -19 66.79 7.9
19 -21 7 5.6 8.5
21 19 7 8.3 8
7 -19 21 7 9.5
21 -19 -7 9.3 8.1
19 -7 -21 8.7 7.8
7 -21 -19 13.5 7
7 21 19 6 7.8
-7 19 21 11.7 8.4
19 21 -7 4.5 8.5
21 -19 7 8 8
21 19 -7 5.1 7.9
7 19 21 12.6 7.5
21 -7 -19 5.7 7.8
7 -19 -21 5.8 7
19 21 7 8.5 7.8
19 -21 -7 1.3 7.6
7 -21 19 14 9.4
-7 21 19 6.8 8.1
9 -21 -19 335.77 12.1
21 19 9 296.87 12.2
19 21 -9 303.07 11.9
19 -21 9 314.47 13.5
9 21 19 290.77 12.1
21 -19 -9 330.57 13
-9 19 21 315.27 13.6
19 9 21 317.37 11.7
9 -19 21 319.27 14.2
19 -9 -21 305.87 12.5
9 19 21 312.27 12.1
9 -19 -21 321.07 12
9 -21 19 320.07 14.1
21 -19 9 262.47 12.2
19 21 9 272.67 11.7
-9 21 19 296.07 12.8
19 -21 -9 340.77 13.2
21 -9 -19 329.97 12.5
21 -19 -11 1050.29 28
19 -11 -21 1057.89 28.1
11 -21 -19 1048.7 27.3
21 19 11 1035.2 27.6
11 21 19 968.8 27.6
19 11 21 1001.6 27
-11 19 21 1033.4 29.2
11 -19 21 1102.19 30.5
19 -21 11 1068.09 29.1
-11 21 19 1054.79 29.1
21 -19 11 1039.3 29.1
19 -21 -11 1048.5 27.7
19 21 11 1066.09 27.8
21 11 19 1054.59 27.3
11 19 21 1030.1 27.6
11 -21 19 1105.99 29.8
21 -11 -19 1058.09 27.9
-19 11 21 1082.49 30
11 -19 -21 1039.9 27.3
13 -21 -19 418.86 16.9
21 -19 -13 429.96 17.8
19 -21 13 441.86 17
-13 19 21 472.05 17.1
19 13 21 404.86 17.2
13 -19 21 482.15 17.8
21 19 13 426.56 17.1
21 -13 19 448.96 17.1
-19 21 13 472.65 17.3
13 21 19 418.36 17.5
19 -13 -21 419.36 18.2
13 -19 -21 439.96 17.1
13 19 21 428.26 17.5
21 -19 13 473.95 17.5
21 -13 -19 430.06 17.9
-19 13 21 433.66 17.1
19 -21 -13 418.16 17.3
-13 21 19 371.96 15.2
21 13 19 415.56 17
13 -21 19 465.95 17.6
19 21 13 432.66 17.4
-19 21 15 1 10.1
-15 19 21 2.8 11.1
21 19 15 -0.4 8.7
19 15 21 -1.2 8.9
19 -21 15 2.2 11
15 -19 21 4 12.2
21 -15 19 -4.7 12
21 -19 -15 -7.6 9.2
19 -15 -21 3.3 9.8
15 21 19 2.5 9
15 -21 -19 1.5 9.2
21 -15 -19 9.4 9.7
19 -15 21 -3.1 12.2
21 15 19 5.8 9.3
-15 21 19 -2 10.9
15 -21 19 2.2 11.8
19 -21 -15 7.2 8.3
15 19 21 2.6 8.6
21 -19 15 -5.9 11.2
15 -19 -21 -5.1 9.2
19 21 15 4.7 9.7
-19 15 21 -0.5 11.5
21 -19 -17 5.2 10.4
19 17 21 8.1 9.4
19 -21 17 0.9 12.5
19 -17 -21 7.4 10.5
17 21 19 8.9 10.5
21 -17 19 2 12.7
-17 19 21 8.4 12.4
17 -19 21 9.2 13.1
21 19 17 8.6 9.3
-19 21 17 5.2 11.2
17 -21 -19 8.3 10.5
-19 17 21 2.2 13
-17 21 19 -0.8 12.2
21 17 19 10.4 9.8
17 -21 19 -3.2 13
21 -17 -19 8.5 10.7
19 21 17 3.7 9.9
19 -17 21 11.1 13.4
19 -21 -17 8.7 10.3
17 -19 -21 11.9 10.6
21 -19 17 4.2 12.5
17 19 21 3.7 10
-19 19 21 639.24 22.4
-19 21 19 600.84 22.1
19 -21 -19 568.74 23.2
19 -21 19 593.74 22.3
19 -19 -21 626.74 23.4
19 -19 21 635.14 22.9
19 19 21 551.04 21.4
19 21 19 559.04 22.7
21 -19 -19 547.95 23
21 -19 19 586.94 22.3
21 19 19 579.14 21.9
-1 -21 21 1456.55 35
-1 21 21 1463.65 36.4
1 21 21 1471.75 36.3
21 -21 -1 1508.65 36.5
21 -21 1 1487.25 36.4
21 -1 -21 1498.65 35.2
21 21 -1 1454.55 36.2
21 21 1 1456.75 36.3
-3 21 21 1369.46 34.5
3 21 21 1344.87 34.2
21 -21 -3 1343.97 34.3
21 -21 3 1343.67 34.5
21 -3 -21 1406.26 33.6
21 21 -3 1402.26 34.3
21 21 3 1388.96 34.3
-5 21 21 450.25 18.3
5 -21 -21 456.55 16.5
5 21 21 458.65 17.6
21 -21 -5 461.65 17.5
21 -21 5 451.85 18.6
21 -5 -21 472.25 17.5
21 21 -5 440.66 18.1
21 21 5 467.95 17.5
-7 21 21 68.39 9.1
7 -21 -21 92.79 8.9
7 21 21 77.89 9
21 -21 -7 101.99 9.9
21 -21 7 103.29 10.7
21 -7 -21 97.99 9.9
21 21 -7 96.79 10.4
21 21 7 97.49 9.5
-9 21 21 789.32 24.9
9 -21 -21 822.12 23.2
9 21 21 782.22 23.5
21 -21 -9 824.22 23.9
21 -21 9 798.02 24.8
21 -9 -21 798.42 24
21 21 9 771.22 23.3
-11 21 21 1991.7 48.6
11 -21 -21 2031.6 47.2
11 -21 21 2075.69 49.4
11 21 21 1981.8 47.4
21 -21 -11 2022.4 47.5
21 -21 11 2023.8 48.5
21 -11 -21 1979.6 47.7
21 11 21 1965.1 46.8
21 21 11 1919.11 47.4
-13 21 21 1200.78 34
13 -21 -21 1267.47 32.5
13 -21 21 1288.27 35.5
13 21 21 1223.38 32.5
21 -21 -13 1271.07 32.7
21 -21 13 1252.07 34.5
21 -13 -21 1282.97 33.4
21 13 21 1249.68 32.3
21 21 13 1228.18 32.8
-15 21 21 142.99 13.9
15 -21 -21 137.69 11.7
15 -21 21 124.69 14.8
15 21 21 110.69 11.4
21 -21 -15 145.79 12
21 -21 15 120.39 13.6
21 -15 -21 119.49 12.1
21 -15 21 118.89 14.5
21 15 21 127.29 11.2
21 21 15 93.69 10.7
-17 21 21 157.58 15
17 -21 -21 141.39 12.3
17 -21 21 150.58 16.1
17 21 21 156.68 12.6
21 -21 -17 128.99 11.8
21 -21 17 144.39 15.5
21 -17 -21 156.98 13.5
21 -17 21 135.19 15
21 17 21 167.68 12.7
21 21 17 134.69 12.4
-19 21 21 912.61 33.2
19 -21 -21 928.31 29.1
19 -21 21 976.5 33.7
19 21 21 889.01 28.6
21 -21 -19 904.51 29.3
21 -21 19 929.91 32.6
21 -19 -21 952.4 30
21 -19 21 974.1 33.4
21 19 21 858.81 28.2
21 -21 -21 1490.55 41.5
21 -21 21 1482.85 44
0 -22 0 4549.04 101.19
0 0 22 4603.94 100.99
0 22 0 4691.33 101.69
-2 -22 0 2092.99 46.8
-2 22 0 2120.59 47.4
0 -2 22 2036 46.4
0 2 22 2050.69 46.6
2 -22 0 2121.39 46.9
2 22 0 2070.49 47.3
0 22 2 2102.89 47.4
2 0 22 2065.79 46.6
0 -22 2 2121.69 46.8
0 22 -2 2038.6 47.3
-2 0 22 2004.9 46.5
0 -22 -2 2126.79 46.9
-2 22 -2 1256.07 29.8
-2 22 2 1284.77 29.9
-2 -2 22 1240.88 28.6
-2 2 22 1273.77 28.9
-2 -22 -2 1237.28 29
-2 -22 2 1202.68 29
2 22 -2 1226.38 29.7
2 22 2 1217.98 29.7
22 -2 -2 1226.68 30
2 2 22 1241.88 28.9
2 -2 22 1263.97 28.8
2 -22 2 1235.58 29.2
2 -22 -2 1260.87 29.1
4 22 0 870.81 23.1
4 -22 0 964.8 22.9
0 4 22 951.7 22.5
4 0 22 919.61 22.4
22 -4 0 968.6 23.8
0 -4 22 933.81 22.1
22 0 -4 909.21 23.5
0 -22 4 947.91 22.7
0 22 -4 893.51 23.2
0 22 4 974.2 23.4
-4 -22 0 902.81 22.4
-4 22 0 947.71 23.5
0 -22 -4 924.51 22.6
-4 0 22 950.1 22.3
4 2 22 642.14 17.2
-4 -2 22 709.23 16.9
4 22 -2 662.03 18.1
-4 22 2 712.13 18.5
-2 4 22 703.63 17.5
-2 -22 4 661.83 17.3
-4 -22 -2 690.93 17.3
22 -4 -2 662.03 18.5
2 -4 22 667.93 16.9
2 22 4 688.03 18.1
4 -22 2 665.43 17.6
-2 22 -4 701.53 18.4
2 -22 -4 662.63 17.3
-2 22 4 714.53 18.4
2 4 22 667.83 17.3
4 -22 -2 671.73 17.5
2 -22 4 684.73 17.7
2 22 -4 626.44 18
-4 -22 2 692.13 17.2
-4 22 -2 669.13 18.4
-2 -22 -4 683.43 17.4
22 -2 -4 643.64 18.3
-2 -4 22 675.03 16.7
4 22 2 677.83 18
-4 2 22 669.83 17.3
22 -4 -4 888.11 22.8
-4 22 4 902.01 22.9
4 22 -4 867.61 22.6
-4 -4 22 905.71 21.1
-4 4 22 863.81 21.9
4 -22 -4 901.81 22
4 4 22 908.41 21.9
4 22 4 931.91 22.6
-4 -22 -4 916.01 21.9
-4 -22 4 861.61 21.6
-4 22 -4 887.41 22.8
4 -22 4 910.21 22.2
0 22 6 -1.8 5.1
0 6 22 0.4 4.4
6 -22 0 -0.7 4.3
-6 -22 0 0 4.1
-6 22 0 -3.4 5.3
0 -6 22 -3 3.8
22 -6 0 0.5 5.5
6 22 0 -2 5
22 0 -6 0.4 5.3
-6 0 22 2.3 4.3
0 -22 -6 -0.2 4.2
0 -22 6 0.7 4.4
0 22 -6 3.4 5.5
6 22 -2 24.1 5.5
6 -22 2 24.6 5.1
-2 6 22 25.9 5
-2 -22 6 24.8 4.7
-6 -22 -2 22.6 4.5
2 22 6 23.8 5.4
6 2 22 26.1 4.8
-6 22 2 33.9 5.8
22 -6 -2 25.4 5.9
-6 -2 22 27.6 4.4
2 -22 -6 28.2 4.8
-2 22 -6 27.4 5.8
22 2 -6 21.9 5.8
22 -2 -6 27.5 5.7
-2 -22 -6 26.3 4.6
-2 22 6 26.5 5.4
-6 2 22 28.3 4.9
2 -22 6 24.8 4.8
2 22 -6 21.5 5.6
-6 -22 2 21.2 4.4
-6 22 -2 32.2 5.9
-2 -6 22 28.8 4
22 -6 2 23.9 6
6 -22 -2 19.5 4.6
6 22 2 23.4 5.3
2 6 22 23.3 4.7
6 -22 4 75.49 5.9
-6 -4 22 73.19 4.7
-6 -22 -4 70.89 5.4
22 -6 -4 66.29 6.4
6 22 -4 66.29 6.2
-6 22 4 76.19 6.6
22 4 -6 73.19 6.7
4 22 6 72.19 6.2
6 4 22 70.99 5.5
-4 -22 6 63.69 5.2
4 -22 -6 58.49 4.8
-4 6 22 61.19 5.7
-6 4 22 63.99 5.7
6 22 4 60.09 6
-4 -22 -6 60.79 5.1
4 6 22 73.99 5.4
-6 22 -4 78.99 7
-4 22 6 71.79 6.3
-6 -22 4 72.49 5.3
4 -22 6 66.79 6
4 22 -6 58.49 6.3
6 -22 -4 63.09 5.2
22 -4 -6 64.39 6.3
-4 -6 22 71.79 4.5
-6 6 22 1392.76 33.7
6 22 6 1474.25 34.1
-6 -22 6 1369.96 33.1
6 22 -6 1407.46 33.9
6 -22 -6 1515.75 33.8
6 -22 6 1453.45 33.9
6 6 22 1504.45 33.7
22 -6 -6 1377.86 34.2
-6 22 6 1524.75 34.5
0 -22 -8 642.44 16.6
8 22 0 589.74 17.3
22 -8 0 634.24 17.8
8 -22 0 630.34 17.2
-8 22 0 677.43 17.9
0 22 8 667.53 17.6
-8 0 22 642.34 16.4
0 -22 8 599.74 16.7
0 8 22 640.14 17
22 0 -8 626.84 17.5
0 22 -8 573.14 17.5
22 -8 -2 281.17 11.7
-8 -2 22 282.57 9.6
22 2 -8 271.97 11.3
2 -22 -8 269.27 10.2
8 22 -2 255.77 11.3
-2 -22 8 273.87 10
2 22 8 297.57 11.4
-8 22 2 280.57 11.8
8 -22 2 280.57 11
-2 8 22 273.87 10.7
-8 22 -2 277.77 11.7
8 22 2 253.37 11.2
-2 -22 -8 272.87 10.1
2 8 22 280.07 10.5
2 -22 8 270.17 10.7
22 -2 -8 258.77 11.4
-8 2 22 273.87 10.5
8 -22 -2 281.57 10.7
2 22 -8 255.87 10.1
-2 22 8 289.07 11.4
22 -8 2 277.07 11.8
-2 -8 22 287.67 8.8
8 -22 4 109.69 7
-4 -22 8 110.09 6
-4 8 22 110.99 6.7
-8 22 4 114.39 7.7
22 4 -8 124.49 7.3
4 22 8 110.89 7.1
8 4 22 114.99 6.3
22 -8 -4 110.49 7.3
4 -22 -8 103.79 6
8 22 -4 92.89 6.9
8 22 4 118.99 7.2
22 -4 -8 93.49 7
-8 4 22 111.99 6.8
-4 -22 -8 115.39 6.1
4 -22 8 105.89 6.6
-4 22 8 104.29 6.8
4 8 22 106.69 6.3
8 -22 -4 96.19 6
22 -8 4 120.49 7.9
4 22 -8 102.99 7.1
8 -22 6 470.65 14.5
22 6 -8 491.05 14.7
6 22 8 465.35 14.8
-6 -22 8 465.15 13.2
8 6 22 473.85 13.9
-8 22 6 472.55 15.1
-6 8 22 449.26 14.5
6 -22 -8 474.15 13.8
8 22 -6 457.15 14.7
22 -8 -6 469.25 15.1
8 22 6 477.75 14.6
22 -6 -8 466.65 15.1
6 22 -8 442.06 14.5
22 -8 6 479.75 15.5
6 -22 8 438.46 14.4
8 -22 -6 461.25 14
6 8 22 491.15 13.9
-6 22 8 498.85 15.3
-8 6 22 449.86 14.4
8 -22 -8 3.1 4.8
8 22 -8 -4.1 5.9
8 8 22 4 5.1
8 22 8 2.6 5.7
22 -8 -8 4.8 6.2
22 8 -8 6.9 6.2
-8 8 22 0.2 5.8
-8 22 8 -1.5 6
8 -22 8 6.6 5.7
-10 22 0 1797.82 40.4
22 0 -10 1697.23 39.8
0 22 10 1718.83 40.1
10 -22 0 1760.52 39.9
10 22 0 1558.04 39.7
-10 0 22 1752.22 39.1
0 -22 -10 1706.73 39.5
0 -22 10 1736.83 39.5
22 -10 0 1739.83 40.3
0 10 22 1737.43 39.7
2 22 10 1489.95 34.6
-10 -2 22 1506.25 33.3
22 2 -10 1494.75 34.3
22 -10 -2 1458.55 34.8
10 22 -2 1374.46 34.3
10 -22 2 1447.26 34.4
-2 -22 10 1420.06 33.7
-2 10 22 1450.95 34.3
-10 22 2 1532.25 35
2 -22 -10 1422.96 34
22 -10 2 1479.35 34.9
10 -22 -2 1472.85 34.4
-2 -10 22 1453.15 32.8
-2 -22 -10 1452.15 33.9
2 -22 10 1425.76 34.2
-10 2 22 1575.24 34.1
-2 22 10 1469.35 34.6
10 22 2 1424.86 34.4
2 10 22 1485.15 34.2
22 -2 -10 1400.86 34.5
-4 -22 10 1122.39 26.1
22 4 -10 1109.79 26.8
4 -22 -10 1101.09 26.6
10 22 -4 1083.49 27
4 22 10 1134.89 27.2
22 -10 -4 1101.99 27.5
-10 22 4 1152.48 27.6
10 -22 4 1136.39 27.2
-4 10 22 1091.89 27
-4 -22 -10 1113.99 26.5
-4 22 10 1133.59 27.4
4 -22 10 1044.2 26.9
22 -4 -10 978.6 27.1
10 -22 -4 1125.49 26.9
22 -10 4 1065.09 27.6
4 10 22 1157.88 26.8
10 22 4 1127.39 27.1
-10 4 22 1096.49 26.9
-10 22 6 89.69 7.5
6 22 10 75.09 6.9
6 -22 -10 74.69 5.8
22 -10 -6 100.39 7.8
10 22 -6 89.39 7.3
-6 10 22 84.69 7.1
-6 -22 10 84.79 5.6
22 6 -10 96.19 6.8
10 6 22 97.39 6.7
10 -22 6 98.09 7.3
22 -6 -10 75.29 7.2
6 22 -10 92.19 7.1
-10 6 22 71.79 7
10 22 6 89.29 7
-6 22 10 100.19 7.6
6 -22 10 78.19 6.9
22 -10 6 94.49 8
10 -22 -6 92.29 6.6
6 10 22 84.59 6.1
10 8 22 954 23.6
10 -8 -22 884.51 23.2
22 -10 -8 925.51 24.3
8 22 10 932.31 24
10 22 -8 948.11 23.8
10 -22 8 966.3 24.2
8 -22 -10 965.2 23.5
-10 22 8 989.4 24.6
22 8 -10 964.2 23.4
-8 10 22 947.41 24.1
22 -10 8 956.9 24.9
10 -22 -8 954.8 23.6
-10 8 22 884.91 24.2
8 -10 -22 878.41 23.3
8 -22 10 938.81 24.2
22 -8 -10 879.41 24.2
10 22 8 975.2 24.1
8 10 22 961.4 23.5
-8 22 10 980 24.7
8 22 -10 925.11 23.5
22 10 -10 3258.07 69.79
-10 22 10 3166.78 70.89
10 -22 -10 3126.39 70.29
22 -10 -10 3092.89 70.69
10 22 10 3255.77 70.59
10 22 -10 3247.28 69.89
-10 10 22 3035.5 70.59
10 10 22 3153.18 70.29
10 -22 10 3148.19 70.79
10 -10 -22 2980.2 69.99
-12 0 22 2074.69 45.6
0 22 12 2046.7 46.5
22 -12 0 2001.2 46.7
0 12 22 2012.7 46.2
12 22 0 1913.91 46.2
22 0 -12 2047.9 46.1
0 -22 -12 2009.6 45.9
12 -22 0 2007.5 46.3
0 -12 22 2058.59 45.7
0 -22 12 1996.8 45.8
12 -22 2 1429.66 33.3
2 22 12 1442.86 33.4
-12 22 2 1422.36 33.8
-2 12 22 1375.16 33.1
2 -12 22 1449.76 33.2
22 -12 -2 1361.16 33.6
2 -22 -12 1403.56 32.7
22 2 -12 1446.06 32.8
12 22 -2 1297.27 33.1
-2 -22 12 1376.86 32.3
-2 -22 -12 1416.46 32.6
-2 22 12 1398.26 33.4
2 12 22 1390.56 33
2 -22 12 1379.46 33
22 -2 -12 1357.46 33.1
-12 2 22 1383.96 32.9
12 22 2 1351.96 33.1
22 -12 2 1453.95 33.7
-2 -12 22 1331.37 31.3
12 -22 -2 1418.86 33.2
12 22 -4 1053.79 26.3
-12 22 4 1077.99 27
12 -22 4 1078.99 26.5
22 -12 -4 1052.89 26.8
4 22 12 1039.2 26.5
-4 -22 12 1047.9 25.2
22 4 -12 1160.68 25.8
-4 12 22 1007.2 26.4
4 -22 -12 1081.69 25.8
12 -22 -4 1035.3 26.2
4 12 22 1073.09 26.1
-12 4 22 1048.1 26.3
22 -4 -12 1002.1 26.3
-4 22 12 1040.4 26.6
22 -12 4 1059.49 27
12 22 4 1062.89 26.3
4 -22 12 1047.4 26.2
-6 -22 12 269.27 9.9
22 6 -12 289.67 11.5
12 -22 6 291.77 12.6
12 6 22 284.17 11.5
-6 12 22 284.37 12.5
22 -12 -6 323.87 11.8
6 22 12 303.37 12.5
-12 22 6 335.27 12.3
12 22 -6 300.07 10.9
6 -22 -12 295.77 11.4
12 -6 -22 291.07 11.4
-12 6 22 279.17 11
-6 22 12 274.07 10.8
6 -22 12 212.28 10.3
12 22 6 298.47 12.4
6 12 22 283.17 11.6
22 -6 -12 274.17 11
12 -22 -6 284.47 11.8
22 -12 6 328.97 12.2
8 -22 -12 1069.59 26.9
-12 22 8 1100.09 28
-8 12 22 1135.09 27.8
12 -22 8 1074.19 27.7
22 8 -12 1105.29 26.2
12 22 -8 1138.29 27.2
8 22 12 1101.69 27.5
12 -8 -22 1065.89 26.8
12 8 22 1129.39 27
22 -12 -8 1096.99 27.7
22 -12 8 1150.38 28.3
22 12 -8 1092.69 26.1
-8 22 12 1084.19 27.9
8 -12 -22 1081.69 26.9
22 -8 -12 1041.9 27.5
12 22 8 1130.69 27.4
12 -22 -8 1121.39 27.2
8 -22 12 1065.59 27.6
-12 8 22 1094.69 27.9
8 12 22 1111.19 27
12 10 22 2586.64 57.39
12 22 -10 2395.86 56.69
-12 22 10 2567.24 57.99
10 22 12 2617.04 57.69
22 -12 -10 2582.94 57.79
12 -22 10 2609.84 57.99
-10 12 22 2538.25 57.99
10 -22 -12 2555.44 57.29
12 -10 -22 2443.06 57.19
12 -22 -10 2573.34 57.39
10 -12 -22 2417.16 57.09
12 22 10 2560.94 57.59
-12 10 22 2473.95 57.89
22 -10 -12 2474.65 57.69
22 12 -10 2520.05 56.19
22 12 -10 2412.76 56.59
-10 22 12 2650.14 58.09
10 -22 12 2550.84 57.99
22 -12 10 2654.83 58.39
10 12 22 2549.44 57.29
12 -22 -12 2694.23 60.29
12 -22 12 2680.63 61.09
12 22 12 2765.72 60.59
-12 12 22 2647.24 60.99
22 -12 12 2709.13 61.39
-12 22 12 2635.14 60.89
12 12 22 2649.43 60.19
12 -12 -22 2589.14 60.19
22 -12 -12 2649.63 60.69
0 -22 -14 760.32 19.6
0 -14 22 720.13 19.6
0 22 14 747.93 20.6
14 -22 0 740.23 20.4
14 22 0 767.62 20.5
22 14 0 714.53 19.6
0 -22 14 733.23 19.9
22 0 -14 768.42 20.1
22 -14 0 750.02 21
0 14 22 747.03 20.4
-2 14 22 302.47 11.2
2 -14 22 299.97 11.1
14 -22 2 293.17 12.8
22 14 2 301.57 11.9
2 -22 -14 289.17 11.6
22 -14 -2 323.07 12.1
14 22 -2 290.17 11.1
22 2 -14 288.87 12
-2 -22 14 275.87 11.4
2 22 14 260.77 10.7
22 -14 2 331.77 12.3
22 14 -2 349.17 11.9
2 -22 14 306.17 12.7
-2 -22 -14 277.37 11.4
-2 22 14 294.97 12.8
2 14 22 283.57 12.6
-14 2 22 303.37 13.1
14 22 2 288.17 12.7
22 -2 -14 303.67 12.8
14 -22 -2 297.57 12.5
22 4 -14 33.2 5.9
-14 22 4 32.4 7.5
-4 -22 14 31.6 5.5
22 14 4 37.1 6.4
4 -22 -14 34.9 5.9
4 -14 22 38.6 7.7
4 22 14 27.7 6.7
14 -4 -22 34.3 6
22 -14 -4 37.6 7.3
-4 14 22 36.9 6.9
14 22 -4 28.5 7
14 -22 4 34.9 6.9
14 -22 -4 37.4 6.4
22 -14 4 30.7 7.4
-4 22 14 35.8 6.8
4 14 22 35.5 6.6
14 22 4 39.8 7
22 -4 -14 28.9 6.8
4 -22 14 35 7.1
22 14 -4 31.8 6.2
-14 4 22 35.6 7.5
14 22 -6 133.89 8.6
6 -22 -14 121.79 7.2
-6 14 22 132.69 8.8
6 -14 22 127.89 9.5
14 -6 -22 132.29 7.7
6 22 14 127.29 8.4
22 6 -14 136.19 6.8
14 -22 6 125.99 8.8
22 14 6 134.29 8.1
-14 22 6 141.99 9.2
22 -14 -6 127.89 8.6
6 14 22 130.49 8
22 14 -6 136.59 7.7
-6 22 14 125.99 8.7
14 22 6 124.69 8
-14 6 22 126.39 9
22 -6 -14 117.29 8.5
14 -22 -6 131.19 8.4
22 -14 6 136.49 9.3
6 -22 14 108.59 8.6
-8 14 22 46.5 7.6
14 -22 8 47 7.7
8 -22 -14 43.8 6.5
22 -14 -8 49.7 7.7
14 8 22 51.59 7
14 -8 -22 48.7 6.9
22 14 8 46.6 7
14 22 -8 41.8 7.6
-14 22 8 39.4 7.4
8 -14 22 30.8 8.6
8 22 14 39.6 7.2
22 14 -8 46.7 6.4
8 -22 14 37.6 8
14 22 8 41.5 7.3
8 -14 -22 49.1 6.8
-14 8 22 47.8 8.3
8 14 22 51.19 6.9
14 -22 -8 38.5 6
-8 22 14 44.9 7.8
22 -14 8 44.9 8
22 -8 -14 36.4 7.4
14 10 22 705.43 19.7
14 22 -10 665.03 18.9
-14 22 10 676.33 20.8
-10 14 22 699.43 20.9
10 -22 -14 702.63 19.5
10 -14 22 649.24 21.7
14 -22 10 709.43 21
22 -14 -10 685.73 20.4
10 22 14 696.43 20.1
14 -10 -22 703.03 19.7
22 14 10 700.23 19.6
14 22 10 713.23 20.1
22 -14 10 670.33 21
-10 22 14 698.63 21
10 -22 14 672.63 20.9
-14 10 22 709.83 21.4
14 -22 -10 712.83 19.7
22 -10 -14 681.23 20.3
10 14 22 714.43 19.6
22 14 -10 676.43 19.1
10 -14 -22 703.63 19.5
12 -22 -14 980.5 25
12 -14 22 973.4 27.4
-14 22 12 988.3 26.4
14 -12 -22 977 25.3
22 14 12 977.3 25.3
-12 14 22 960.2 26.6
22 -14 -12 952.4 25.8
14 -22 12 950.5 26.3
14 12 22 972.9 25.1
22 -12 14 937.31 27
12 22 14 941.41 25.6
12 -14 -22 967.2 25.2
12 14 22 972.5 25
22 -14 12 998.8 26.7
14 22 12 988.4 25.5
-12 22 14 938.81 26.4
22 -12 -14 959.5 25.8
-14 12 22 958.5 26.7
14 -22 -12 999.7 25.1
12 -22 14 943.61 26.4
22 -14 -14 239.68 11.4
22 -14 14 236.08 12.5
14 22 14 233.48 10.9
14 -14 22 245.08 13.3
14 -22 14 224.68 12
14 -14 -22 257.57 11.3
14 -22 -14 231.18 10.6
14 14 22 256.67 11.2
22 14 14 297.27 11.8
-14 22 14 252.07 12.1
-14 14 22 271.37 13.2
0 -16 22 286.07 12.8
16 22 0 305.97 11.8
0 22 16 308.77 13.6
22 -16 0 348.27 12.8
16 -22 0 314.17 13.6
0 -22 16 337.27 12.3
0 16 22 301.77 11.5
22 0 -16 305.67 12.7
0 -22 -16 299.57 12.3
22 16 0 298.77 13
16 -22 2 103.79 8.1
-2 16 22 115.49 8.5
2 -22 -16 117.79 7.4
22 16 2 119.59 8.2
22 -16 -2 91.09 8.1
16 22 -2 103.99 8.4
16 -2 -22 118.49 7.3
2 22 16 104.19 8.2
22 2 -16 106.89 7.1
2 16 22 95.59 7.6
-2 22 16 105.19 8.4
22 -16 2 109.09 8.8
22 -2 -16 105.09 7.9
22 16 -2 109.39 7.8
2 -22 16 113.69 8.4
16 22 2 103.09 8.2
16 -22 -2 120.39 8.3
16 -22 4 31.9 7.3
4 -22 -16 35.8 6.5
22 4 -16 37.8 5.7
-4 16 22 42.9 7.7
16 22 -4 37.9 7.8
22 16 4 37.3 7.1
4 22 16 27.3 7.2
-4 -22 16 42.2 5.7
22 -16 -4 44 7.6
4 -16 22 36.8 8.5
16 -4 -22 46 6.7
16 -22 -4 45.1 7.3
4 -22 16 41.6 7.9
-4 22 16 40.9 7.2
22 16 -4 43.2 7
22 -4 -16 42.1 7.4
16 22 4 39.2 7.4
4 16 22 32.7 7.1
-16 4 22 37.5 8.6
22 -16 4 41.1 8
22 -16 -6 597.64 18.7
22 16 6 615.24 18.1
6 -22 -16 589.84 17.5
16 22 -6 603.24 18.7
16 -22 6 598.34 18.9
6 -16 22 590.64 19.7
-6 16 22 603.64 19.1
6 22 16 597.24 18.5
16 -6 -22 612.84 17.8
6 -22 16 583.44 19.1
6 -16 -22 594.84 17.6
22 -6 -16 578.04 18.4
22 16 -6 605.54 17.6
-6 22 16 602.54 18.6
16 22 6 591.84 18.1
16 -22 -6 604.34 18.3
-16 6 22 605.24 19.8
6 16 22 597.94 18.1
22 -16 6 600.24 19.3
16 8 22 45.6 7.2
8 22 16 56.29 7.9
22 -16 -8 47.3 8.1
22 16 8 47.9 7.7
8 -22 -16 44.5 7
-16 22 8 35.7 7.5
16 -22 8 55.29 8.7
16 22 -8 48 8.3
16 -8 -22 46.6 7.7
8 -16 22 46.6 9.2
-8 16 22 33.6 8.1
16 -22 -8 37.5 7.4
-16 8 22 43 9.2
22 -16 8 43.7 8.4
8 16 22 51.29 7.5
22 -8 -16 48.1 8
8 -16 -22 48.5 7.3
16 22 8 48.6 7.8
-8 22 16 42.4 8.4
8 -22 16 28.7 8.6
22 16 -8 43.3 7
16 -22 10 296.67 13
-16 22 10 297.67 12.9
22 16 10 311.67 12.2
10 -16 22 283.57 13.6
16 -10 -22 303.87 11.6
16 10 22 322.27 12
10 22 16 293.87 11.9
-10 16 22 281.17 12.6
22 -16 -10 314.37 12.8
10 -22 -16 297.67 11.3
10 -22 16 271.87 12.7
-16 10 22 299.97 13.4
16 22 10 281.27 11.8
16 -22 -10 244.68 10.6
-10 22 16 274.37 12.4
10 16 22 297.97 12
22 -16 10 288.17 12.8
10 -16 -22 307.67 11.7
22 -10 -16 267.87 11.8
12 22 16 210.98 10.9
-12 16 22 199.28 12
-16 22 12 205.18 11.4
16 -22 12 201.18 11.9
12 -22 -16 214.88 10.4
22 -16 -12 236.48 11.6
12 -16 22 217.78 12.9
16 -12 -22 217.48 10.9
16 12 22 228.78 10.7
22 16 12 220.98 11.1
12 -16 -22 228.38 10.9
22 -16 12 183.38 11.2
22 12 16 225.18 10.4
22 -12 -16 176.18 10.5
16 22 12 201.68 10.8
-16 12 22 196.48 12.2
-12 22 16 190.98 11.3
12 -22 16 191.68 11.8
12 16 22 223.78 10.9
16 -22 -12 186.88 9.9
-16 22 14 -5.8 9.1
-14 16 22 -1.6 10
16 -22 14 -0.9 10
22 16 14 -0.4 8.4
14 -16 22 9.5 11.2
16 -14 -22 -1.3 8.6
14 22 16 4.8 8.2
14 -22 -16 -2.5 7.5
22 -14 16 -4.1 10.1
22 -16 -14 0.6 8.3
16 14 22 2.4 7.7
16 22 14 2.2 8.5
14 -22 16 4.4 10.2
14 -16 -22 5.7 8.4
22 -14 -16 2.7 8.5
16 -22 -14 3.4 7.8
16 -14 22 -0.9 10.8
-14 22 16 0.5 9.5
22 -16 14 -2.1 9.8
22 14 16 1.4 8.2
-16 14 22 1.8 10.4
14 16 22 4.2 8
22 16 16 100.39 10
16 -16 -22 84.99 10.2
22 -16 16 69.19 11.2
-16 22 16 85.19 11.2
16 -16 22 101.19 12.8
16 -22 16 87.59 11.7
16 16 22 76.59 9.1
16 22 16 80.99 9.9
22 -16 -16 82.99 9.8
-16 16 22 83.89 11.8
16 -22 -16 68.99 9
18 22 0 461.85 16.6
0 18 22 463.25 16.6
18 -22 0 465.95 16.4
22 0 -18 446.86 15.2
22 18 0 461.75 16.1
0 -18 22 433.46 15.5
22 -18 0 446.86 16.9
0 22 18 451.55 16.6
18 -2 -22 212.68 9.5
-2 18 22 200.88 10.5
-2 -22 18 196.08 8.9
22 2 -18 204.78 8.8
22 18 2 227.38 10.5
2 22 18 196.88 10.2
22 -18 -2 207.58 10.8
18 -22 2 218.28 10.9
18 22 -2 200.58 10.6
2 -22 -18 225.18 9.7
18 -22 -2 227.18 10.9
22 -18 2 180.28 10.5
-2 22 18 203.78 10.6
2 18 22 218.28 10.6
22 18 -2 183.28 9.9
18 22 2 187.68 10.3
22 -2 -18 202.68 9.8
18 22 -4 11.5 8.4
22 18 4 11.5 7.1
22 -18 -4 8.5 7.8
18 -4 -22 12.7 7.5
-4 18 22 5.7 7.9
4 -22 -18 12.1 6.7
4 22 18 13 7.7
18 -22 4 14.6 7.8
22 -4 -18 5.1 7.4
22 18 -4 10.5 7.6
4 18 22 10.4 7.4
18 -22 -4 10.6 7.5
-4 22 18 10.4 8.1
22 -18 4 7.1 8.2
18 22 4 11.3 7.8
6 -22 -18 144.79 8.5
22 -18 -6 148.69 9.9
18 22 -6 130.09 10
22 18 6 144.59 9.4
18 -22 6 147.39 10.3
-6 18 22 139.59 10
18 -6 -22 158.98 9.5
6 22 18 147.09 9.6
22 -18 6 116.19 9.1
22 18 -6 130.79 9.1
6 -18 -22 164.28 9.1
-6 22 18 132.69 9.2
18 22 6 135.39 9.4
22 -6 -18 141.99 9.4
6 18 22 152.68 9.5
6 -22 18 139.99 10.6
18 -22 -6 159.38 9.6
8 22 18 3.9 7.8
18 -8 -22 4.3 8.1
22 18 8 3 7.6
22 -18 -8 4.7 8.1
-8 18 22 -1 8.6
18 -22 8 5.5 8.7
8 -22 -18 2.5 7
18 22 -8 1.7 8.8
8 -18 22 2.8 10.2
-8 22 18 3.2 8.2
8 -22 18 9.2 9.6
8 18 22 2.2 7.7
-18 8 22 4.1 10
8 -18 -22 2.1 7.3
22 18 -8 -0.2 7.7
22 -18 8 0.6 8.4
18 22 8 2.6 8.1
18 -22 -8 3.9 7.5
22 -8 -18 -3.6 7.9
-10 18 22 396.06 15.2
18 10 22 383.76 15.5
10 22 18 387.46 16.5
-18 22 10 403.66 17.6
10 -22 -18 394.96 15.5
18 -22 10 390.96 15.4
10 -18 22 417.76 16.5
22 18 10 392.96 16.2
18 -10 -22 394.56 16.6
22 -18 -10 417.76 16.8
10 18 22 376.96 16.1
10 -18 -22 411.96 16.1
22 -18 10 395.06 15.1
-18 10 22 439.46 16.6
18 22 10 377.56 16.7
-10 22 18 402.36 15
10 -22 18 406.86 15.5
22 -10 -18 388.56 16.8
18 -22 -10 408.26 16.2
-12 18 22 382.06 15.3
-18 22 12 340.37 14.2
18 -22 12 422.76 16.1
18 12 22 378.86 16.5
12 -22 -18 408.96 16.4
12 -18 22 418.56 17.1
22 18 12 391.06 16.8
12 22 18 389.56 16.9
18 -12 -22 401.36 14.5
22 -18 -12 446.46 15.6
-12 22 18 427.96 16
12 -22 18 389.56 16
12 18 22 396.56 16.8
18 -22 -12 408.06 16.5
22 -18 12 379.96 15
18 22 12 398.56 17.2
22 -12 -18 395.96 17.2
22 12 18 395.76 16.4
12 -18 -22 404.56 14.6
-18 12 22 428.76 17
18 14 22 4.1 8.8
14 -22 -18 0.7 8.8
22 18 14 4.5 8.8
-18 22 14 1.3 10.3
18 -14 -22 -3 9.5
14 -18 22 7.6 12.4
14 22 18 5.9 8.7
-14 18 22 5.6 10.9
22 -18 -14 4.9 9.5
22 -14 18 6.1 11.4
18 -22 14 3.5 10.6
14 -18 -22 10.6 9.4
14 -22 18 1.1 11.2
22 14 18 0.1 8.5
14 18 22 1.2 8.9
-14 22 18 2.3 10.2
22 -18 14 -3.2 11
18 -14 22 -1.3 11.8
-18 14 22 -2.5 11.6
22 -14 -18 1.8 9.2
18 -22 -14 8 9
18 22 14 1.9 9.4
18 -16 -22 74.49 10.7
16 -18 22 77.19 13.5
18 -22 16 69.09 12.6
18 16 22 68.09 9.6
16 22 18 62.29 10.4
-18 22 16 59.39 12.3
22 -16 18 58.99 12.8
16 -22 -18 70.99 10.6
-16 18 22 67.09 12.5
22 -18 -16 66.99 11
22 18 16 79.29 10.6
22 -16 -18 71.19 11
18 -22 -16 65.19 10
16 -18 -22 66.89 10.4
-16 22 18 57.59 11.5
16 18 22 58.59 9.8
16 -22 18 65.09 12.8
22 -18 16 56.99 11.9
18 22 16 69.29 10.5
18 -16 22 82.89 13.5
22 16 18 75.79 10.1
-18 16 22 64.49 12.7
18 -18 22 -1.6 14
18 -22 -18 7.3 10.7
18 -22 18 7.2 13.3
22 -18 18 10.2 13.5
22 18 18 8.9 10
18 22 18 5.1 11
-18 22 18 4.9 12.7
18 18 22 -2.5 10.1
-18 18 22 -3.2 13.2
18 -18 -22 5.1 11.4
22 -18 -18 -1.7 11
22 -20 0 950.7 26.3
22 0 -20 972.9 24.9
20 -22 0 963.4 26.3
22 20 0 971 26.2
0 22 20 939.31 26.2
0 20 22 923.61 26.3
20 0 -22 951 24.3
20 22 0 1014 26.5
2 22 20 919.81 25.6
20 -22 2 930.31 25.6
22 -20 -2 931.11 25.7
20 22 -2 938.61 26
22 20 2 914.41 25.4
-2 20 22 918.81 25.9
20 -2 -22 931.61 24.7
20 -22 -2 915.41 25.6
2 20 22 901.11 25.6
20 22 2 936.71 25.7
-2 22 20 953.9 26
22 -20 2 937.61 26.1
22 -2 -20 924.51 24.8
22 20 -2 942.81 25.7
4 22 20 437.26 17.4
22 -20 -4 432.06 17.7
-4 20 22 436.56 18.1
20 -4 -22 477.45 17
20 -22 4 450.05 17.8
20 22 -4 469.55 18.4
22 20 4 459.15 17.2
4 -22 -20 462.55 16.3
-4 22 20 459.45 17.9
4 20 22 434.16 17.4
20 22 4 453.75 17.8
22 20 -4 457.45 17.9
22 -20 4 422.36 18.2
22 -4 -20 456.15 17
20 -22 -4 443.86 17.2
-6 20 22 20.5 9.3
22 -20 -6 28.1 8.7
22 20 6 23 8.6
6 -22 -20 27.9 7.6
20 -22 6 29.6 9.4
20 -6 -22 28.5 9
20 22 -6 22.1 9.8
6 22 20 32.7 8.7
20 22 6 38.2 9.4
22 20 -6 28.2 9.4
6 20 22 29.8 8.7
20 -22 -6 25.4 8.3
22 -6 -20 25.3 9.1
-6 22 20 32.3 8.9
6 -20 -22 21.3 7.9
22 -20 6 27.8 9.5
8 22 20 115.39 9.6
-8 20 22 125.89 11.2
8 -22 -20 127.99 9.6
20 22 -8 113.99 11.1
20 -22 8 116.39 10.8
22 20 8 116.19 10.4
22 -20 -8 158.98 11
20 -8 -22 127.79 10.4
22 20 -8 128.49 10.7
20 22 8 134.99 10.7
-8 22 20 105.39 10.6
22 -8 -20 135.69 10.6
8 -20 -22 127.79 9.6
22 -20 8 140.59 11.5
8 20 22 119.59 9.9
20 -22 -8 123.69 10.3
-10 20 22 1068.79 30
22 20 10 1070.39 28.6
20 -22 10 1103.69 30.2
10 22 20 1067.29 28.8
20 -10 -22 1077.29 29.3
22 -20 -10 1086.79 29.2
10 -22 -20 1083.29 28.3
20 10 22 1036.9 28.1
22 -20 10 1060.29 30
10 -22 20 1099.59 31.1
22 -10 -20 1112.99 29.3
-10 22 20 1082.39 30.2
20 -22 -10 1064.89 28.9
10 20 22 1048.5 28.7
10 -20 -22 1091.09 28.7
20 22 10 1060.29 29.1
22 -20 -12 1349.07 34.7
12 -20 22 1386.36 37.2
22 20 12 1316.57 34.3
-12 20 22 1325.47 36.1
12 22 20 1336.17 34.4
12 -22 -20 1354.26 34
20 -22 12 1391.06 35.9
20 -12 -22 1363.06 35
20 12 22 1356.86 34.1
22 12 20 1295.27 33.9
22 -12 -20 1404.86 35
20 22 12 1325.87 34.6
12 -22 20 1372.06 36.6
20 -22 -12 1366.86 34.4
22 -20 12 1325.37 35.6
12 -20 -22 1371.76 34.3
-12 22 20 1370.86 35.9
12 20 22 1328.97 34.2
22 -20 -14 205.08 12
20 -14 -22 275.77 13.9
14 -22 -20 299.67 13.3
22 -14 20 246.68 15.6
22 20 14 283.57 13.7
14 22 20 248.08 12.8
-14 20 22 245.68 14.9
20 -22 14 231.28 14.6
14 -20 22 269.07 16.5
20 14 22 267.17 12.9
20 22 14 211.58 12.7
22 -20 14 269.57 15.1
14 20 22 232.48 12.6
-20 14 22 260.97 16.2
-14 22 20 260.47 14.9
22 -14 -20 271.77 14.3
20 -14 22 257.97 15.9
20 -22 -14 239.58 12.6
22 14 20 287.87 13.6
14 -20 -22 264.37 13.1
14 -22 20 240.58 15.6
22 20 16 5.8 11.1
20 -22 16 18.8 13.5
20 -16 -22 10.6 11.8
16 -20 22 0 14.9
20 16 22 12.3 10.2
22 -20 -16 2.8 11.2
16 -22 -20 9.9 10.7
16 22 20 7.9 10.8
-16 20 22 4.7 13.3
22 -16 20 7.9 13.7
-20 16 22 14.4 14.2
22 -16 -20 1.7 11.4
16 20 22 13.2 10.5
-16 22 20 6.4 12.9
16 -20 -22 7.6 10.8
22 16 20 14.3 10.6
22 -20 16 7.6 12.9
20 -22 -16 -1.4 10.2
20 -16 22 11.3 14.5
20 22 16 15.7 11.4
16 -22 20 16.1 13.8
20 18 22 219.98 13.7
18 22 20 219.78 14.3
22 -18 20 230.28 16.8
20 -22 18 234.88 16.5
20 -18 -22 277.17 15.8
22 -20 -18 258.77 15.3
-20 22 18 266.37 17.7
-18 20 22 226.18 16.9
18 -22 -20 258.17 14.9
18 -20 22 251.77 18.4
22 20 18 232.98 14.6
-18 22 20 193.48 15.9
-20 18 22 232.38 17.1
18 -22 20 257.27 17.8
22 -18 -20 266.37 15.8
20 -22 -18 258.17 15.1
20 -18 22 217.48 17.6
20 22 18 221.58 14.3
18 20 22 258.77 14.7
22 -20 18 253.77 17.7
18 -20 -22 237.98 14.8
-20 20 22 930.11 34.8
-20 22 20 928.61 34
20 -22 -20 951.1 30.7
20 -22 20 921.91 34.2
20 -20 -22 952 30.5
20 -20 22 1035.5 35.7
20 20 22 953.3 29.2
20 22 20 922.71 30.6
22 -20 -20 918.31 31.3
22 -20 20 966.7 34.9
22 20 20 887.61 29.2
0 22 22 1417.06 36.5
22 -22 0 1472.65 36.4
22 0 -22 1468.35 34.9
22 22 0 1419.76 36.6
-2 22 22 1392.86 35
2 22 22 1325.67 34.5
22 -22 -2 1365.76 34.7
22 -22 2 1322.17 34.6
22 -2 -22 1315.17 33.7
22 22 -2 1366.16 35
22 22 2 1379.76 34.8
-4 22 22 692.73 23.2
4 22 22 704.93 22.7
22 -22 -4 749.03 22.7
22 -22 4 700.93 23.1
22 -4 -22 711.33 22.4
22 22 -4 705.63 24
22 22 4 768.42 23.4
-6 22 22 18.2 10.1
6 -22 -22 23.7 9.1
6 22 22 32.6 9.7
22 -22 -6 20.6 9.4
22 -22 6 25.8 10.5
22 -6 -22 25.3 10.6
22 22 -6 23.8 11.6
22 22 6 24.7 10.5
-8 22 22 178.88 12.7
8 -22 -22 184.38 11
8 22 22 155.08 11.4
22 -22 -8 193.58 12.2
22 -22 8 166.58 11.8
22 -8 -22 199.68 12.8
22 22 -8 173.98 13.1
22 22 8 174.58 11.5
-10 22 22 1427.06 37.4
10 -22 -22 1398.86 35.4
10 22 22 1325.67 35.7
22 -22 -10 1390.06 36
22 -22 10 1427.96 37
22 -10 -22 1436.16 36.7
22 10 22 1396.96 35.2
22 22 10 1365.56 35.8
-12 22 22 1722.53 44
12 -22 -22 1762.12 42.4
12 22 22 1640.94 42.2
22 -22 -12 1704.13 42.4
22 -22 12 1751.82 43.9
22 -12 -22 1721.13 43.2
22 12 22 1711.63 41.9
22 22 12 1711.63 42.5
-14 22 22 579.54 25.4
14 -22 -22 596.24 22.7
14 -22 22 576.54 22.4
14 22 22 546.15 22
22 -22 -14 572.64 22.4
22 -22 14 580.94 24.9
22 -14 -22 586.44 24.2
22 -14 22 539.75 21.6
22 14 22 579.04 21.9
22 22 14 555.74 22.6
-16 22 22 95.99 15.5
16 -22 -22 103.19 12.9
16 -22 22 96.59 17
16 22 22 109.39 12.8
22 -22 -16 95.39 13.2
22 -22 16 88.79 14.9
22 -16 -22 104.89 14.3
22 -16 22 93.09 16.2
22 16 22 103.89 12.4
22 22 16 86.59 12.3
-18 22 22 274.17 18.8
18 -22 -22 293.27 16.3
18 -22 22 266.37 19.8
18 22 22 287.57 16.6
22 -22 -18 247.98 15.3
22 -22 18 298.57 19.5
22 -18 -22 306.97 17
22 -18 22 299.87 20.1
22 22 18 213.78 14.7
-20 22 22 902.61 36.9
20 -22 -22 907.61 32.5
20 -22 22 899.91 36.8
22 -22 -20 932.81 33.1
22 -22 20 938.91 36.5
22 -20 -22 931.51 33.5
22 -20 22 976.2 38
22 -22 -22 1204.08 39.2
22 -22 22 1233.98 44.1
-1 -23 -1 2601.94 58.99
-1 -23 1 2631.94 58.99
-1 -1 23 2603.54 58.69
-1 1 23 2644.14 58.79
-1 23 -1 2713.33 59.59
-1 23 1 2740.73 59.69
1 -23 -1 2732.33 59.09
1 -23 1 2632.44 58.99
1 -1 23 2538.55 58.69
1 1 23 2488.85 58.79
1 23 -1 2691.03 59.59
1 23 1 2737.23 59.59
-3 -23 -1 1041.9 25.2
23 -3 -1 1076.79 26.5
1 23 3 1080.29 26.1
-3 23 1 1069.79 26.2
3 1 23 1029.5 25.2
-1 3 23 1039.4 25.2
1 -3 23 1047.1 24.9
-1 23 -3 1042.8 26.1
-1 -23 3 1048 25.2
3 -23 1 1051.99 25.4
3 23 -1 1034.9 26
1 -23 -3 1067.69 25.3
-3 -1 23 1055.09 25
3 -1 23 1013.9 25.1
-1 -3 23 1055.19 24.8
-3 -23 1 1025.3 25.2
23 -1 -3 1002.7 26.3
-3 1 23 1074.59 25.1
-1 -23 -3 1064.59 25.3
3 -23 -1 1099.29 25.5
1 3 23 1050.99 25.2
-1 23 3 1082.09 26.2
3 23 1 1109.19 26.1
1 -23 3 1026.9 25.3
1 23 -3 1006.3 25.9
-3 23 -1 1125.89 26.2
3 23 3 909.91 22.2
23 -3 -3 824.32 22.4
3 3 23 873.21 21.3
-3 -23 -3 864.31 21.3
-3 -23 3 850.31 21.2
-3 -3 23 921.51 20.8
-3 3 23 843.32 21.4
-3 23 -3 863.21 22.3
-3 23 3 896.81 22.4
3 -23 -3 861.71 21.4
3 -23 3 801.82 21.5
3 -3 23 860.51 21.1
3 23 -3 832.82 22.2
-1 5 23 3.6 4.8
-5 -23 -1 1.3 4.4
-1 23 -5 1.5 5.5
-1 -23 5 1.8 4.4
5 -23 1 1.5 4.7
5 23 -1 -1.2 5.5
1 -23 -5 3.9 4.5
1 23 5 1.6 5.4
23 1 -5 -5.7 5.8
5 1 23 1.3 4.5
23 -5 -1 2 5.7
1 -5 23 -1.9 4.2
-5 -1 23 0.8 4.5
-5 23 1 4.4 5.7
1 -23 5 0.3 4.6
-1 -5 23 1.7 4.2
-5 23 -1 -3.6 5.4
23 -5 1 -4.1 5.9
-5 -23 1 0.4 4.5
23 -1 -5 -5.6 5.7
5 -1 23 -4 4.7
1 5 23 0.5 4.7
-1 23 5 -0.1 5.1
5 23 1 -0.2 5.3
-5 1 23 1.6 4.8
-1 -23 -5 -3.9 4.3
5 -23 -1 2.9 4.8
1 23 -5 -0.3 5.5
5 3 23 -1.7 4.6
5 23 -3 1.1 5.6
-3 -23 5 0.6 4.6
3 23 5 3.1 5.3
-5 -23 -3 2.8 4.4
23 3 -5 7.2 5.9
-5 23 3 -2.2 5.3
5 -23 3 1 4.9
-3 5 23 1.6 5.1
3 -23 -5 3.4 4.2
-3 23 -5 0.7 5.9
23 -5 -3 5.4 5.8
-5 -3 23 -3.2 4.4
3 23 -5 2.4 5.7
-3 -23 -5 -1.7 4.4
5 23 3 5.4 5.4
3 5 23 2.9 4.7
5 -23 -3 -0.3 4.5
-3 23 5 0.3 5.5
-3 -5 23 -0.2 4.1
3 -23 5 0.9 4.7
-5 3 23 3.7 4.9
-5 23 -3 5.3 5.8
-5 -23 3 6.9 4.6
23 -3 -5 2.2 6
-5 -5 23 724.83 17.4
5 5 23 726.53 18.5
-5 -23 5 682.23 18.1
5 23 -5 675.83 19.4
5 23 5 726.33 19.2
23 -5 -5 679.23 19.5
5 -23 5 694.93 18.9
-5 -23 -5 711.53 18.2
5 -23 -5 736.33 18.4
-5 23 5 771.02 19.7
-5 23 -5 690.73 19.7
-5 5 23 653.83 18.6
1 23 7 114.69 7.2
-1 23 -7 86.09 7.4
-1 -23 7 109.29 6.4
1 -23 -7 108.09 6.2
23 1 -7 112.09 7.7
-7 23 1 110.69 7.5
7 23 -1 106.39 7.3
-1 7 23 134.39 7.1
-7 -1 23 124.79 6.4
7 1 23 125.99 6.8
23 -7 -1 119.99 7.8
7 -23 1 112.19 7.1
7 -23 -1 102.59 6.3
7 23 1 106.59 7.1
23 -1 -7 105.19 7.3
-7 1 23 116.19 6.6
-7 23 -1 138.59 8.1
23 -7 1 126.19 8
-1 -7 23 129.89 5.9
-1 -23 -7 113.59 6.2
1 -23 7 106.39 6.7
1 23 -7 101.99 7.5
-1 23 7 111.49 7.1
-7 -23 1 106.09 6.1
1 7 23 122.99 6.8
23 -7 -3 5.4 5.7
7 3 23 10 4.9
23 3 -7 5.5 6.2
3 -23 -7 7.2 4.9
7 23 -3 8.8 5.7
-3 7 23 7 5.4
3 23 7 7.1 5.6
-3 -23 7 7.2 4.8
-7 -3 23 5.1 4.5
-7 23 3 10 6
7 -23 3 7.9 5.4
-3 23 7 9.7 5.7
3 -23 7 4.7 5.2
-7 3 23 6.3 5.3
-3 -7 23 8.5 4
3 23 -7 11.8 6.1
-3 -23 -7 6 4.7
7 23 3 -2.8 5.5
3 7 23 7.9 4.8
-7 23 -3 2.1 5.9
7 -23 -3 6 4.9
-7 -23 3 5.9 4.8
23 -3 -7 6 5.9
23 -7 3 10.5 6.3
7 23 -5 708.13 19.9
7 -23 5 709.93 19.5
-5 -23 7 718.23 18.5
-5 7 23 708.73 19.3
5 -23 -7 734.83 19
5 23 7 755.72 19.8
7 5 23 758.12 19.1
23 -7 -5 723.63 20.1
23 5 -7 732.43 20
-7 23 5 735.13 20.1
7 23 5 754.92 19.9
-7 -23 5 710.53 18.4
5 -23 7 719.23 19.4
-5 23 7 741.93 20.2
5 7 23 717.33 19
7 -23 -5 737.93 19
5 23 -7 717.23 19.8
-7 5 23 706.73 19.3
-5 -23 -7 739.63 18.8
23 -7 5 743.63 20.3
23 -5 -7 686.93 20
7 23 -7 568.74 17
-7 -23 7 564.54 15.5
-7 7 23 546.75 16.7
-7 23 7 589.14 17.5
7 -23 -7 580.84 16.1
7 -23 7 567.24 16.7
7 7 23 585.44 16.3
23 -7 -7 564.64 17.4
7 23 7 595.14 17.1
9 23 -1 935.71 24.9
1 -23 -9 979.4 24.2
9 -23 1 982.4 24.8
-9 -1 23 1027.2 24
23 -9 -1 975.8 25.3
-1 9 23 986.8 24.7
23 1 -9 955.4 24.9
-1 -23 9 965.4 24.2
1 23 9 997.1 25.1
-9 23 1 1037.3 25.4
-1 -9 23 998.3 23.3
-1 23 9 1011.9 25.1
23 -1 -9 945.21 25
1 -23 9 964.6 24.5
1 9 23 993.4 24.5
-9 1 23 1076.59 24.4
-1 -23 -9 994 24.3
9 23 1 959.6 24.9
23 -9 1 997.9 25.4
-9 23 -1 1031.5 25.5
9 -23 -1 993.2 24.7
-3 9 23 566.34 16.3
9 23 -3 561.34 16.8
23 -9 -3 560.34 17.1
-9 -3 23 577.44 14.9
-3 -23 9 559.84 15.6
3 -23 -9 569.94 15.8
9 3 23 598.34 16
23 3 -9 570.84 16.8
-9 23 3 578.64 17.1
3 23 9 568.34 16.8
9 -23 3 558.94 16.5
9 -23 -3 559.64 16.1
-9 3 23 555.04 16.3
-3 -23 -9 565.54 15.7
-3 23 9 571.24 16.8
23 -9 3 540.75 17.2
-3 -9 23 563.64 14.2
9 23 3 571.54 16.8
3 9 23 574.84 16.2
23 -3 -9 507.45 16.9
3 23 -9 539.95 17
3 -23 9 534.15 16.4
5 23 9 9.9 6.1
5 -23 -9 9.4 4.9
-5 -23 9 9.8 5
-5 9 23 10.2 6.1
-9 23 5 13.3 6.3
9 23 -5 9.4 6.5
23 -9 -5 8.2 6.5
23 5 -9 5.7 6.3
9 -23 5 7.6 5.9
9 5 23 4.2 5.1
-9 5 23 13.9 6.2
5 23 -9 11 6.6
-5 23 9 3.9 6
23 -5 -9 16.8 6.5
9 -23 -5 18.9 5.6
5 9 23 9.2 5.1
23 -9 5 7 6.8
5 -23 9 15.1 5.9
9 23 5 9.4 6.1
-9 23 7 2.4 6.5
23 7 -9 8.5 6.5
-7 9 23 -0.1 6.2
23 -9 -7 3 6.4
7 -23 -9 3.5 5.1
9 23 -7 -0.6 6.7
7 23 9 -2.3 6
9 -23 7 3.4 5.9
9 7 23 -2.7 5.6
9 23 7 4.3 6.1
-9 7 23 1.1 6.5
9 -23 -7 1.5 5.3
23 -7 -9 -0.6 6.6
23 -9 7 2.9 7
7 -23 9 3.8 6.1
-7 23 9 0.7 6.5
7 9 23 -0.8 5.4
7 23 -9 2.9 6.6
9 23 9 927.41 23.4
9 -23 -9 872.21 22.7
9 -23 9 931.01 23.6
9 23 -9 857.61 23.2
-9 9 23 858.91 23.6
9 9 23 910.41 22.9
23 -9 -9 851.61 23.7
-9 23 9 929.11 23.8
23 9 -9 898.31 23.1
-1 -23 11 1420.76 33.5
11 -23 1 1443.56 34.1
-1 11 23 1466.15 34
23 1 -11 1430.76 34
1 -23 -11 1396.66 33.5
23 -11 -1 1446.66 34.5
-11 23 1 1456.45 34.6
1 23 11 1467.75 34.3
11 23 -1 1420.86 34.2
-11 -1 23 1446.16 33.1
23 -11 1 1406.56 34.5
11 -23 -1 1449.26 34
11 23 1 1441.36 34.2
-1 -23 -11 1429.06 33.5
-1 -11 23 1435.96 33.4
1 11 23 1402.06 33.8
1 -23 11 1359.56 33.6
-1 -11 23 1427.66 32.5
-1 23 11 1399.56 34.3
-11 1 23 1479.45 33.6
23 -1 -11 1422.96 34.1
23 -11 -3 964.7 25
23 3 -11 1024.9 24.3
11 -23 3 972.9 24.4
-11 23 3 961.9 25
-3 11 23 949.11 24.4
-3 -23 11 969.9 23.4
11 23 -3 889.61 24.6
3 -23 -11 963.5 23.8
3 23 11 967.7 24.6
23 -3 -11 925.71 24.6
3 -23 11 940.41 24.3
-3 -23 -11 945.41 23.6
11 23 3 931.51 24.5
23 -11 3 988.2 25.1
-11 3 23 963.4 24.3
-3 23 11 934.61 24.6
11 -23 -3 943.41 24.2
3 11 23 963.2 24.2
-5 -23 11 168.18 7.4
23 -11 -5 146.29 8.8
23 5 -11 170.88 8.4
5 23 11 173.88 8.8
11 -23 5 147.19 8.3
11 5 23 175.78 8.3
-11 23 5 160.98 9.2
11 23 -5 160.28 8.9
-5 11 23 163.48 8.8
5 -23 -11 144.19 7.4
5 11 23 170.38 8.5
11 23 5 148.99 8.6
5 -23 11 154.48 8.8
23 -5 -11 125.79 8.7
-11 5 23 146.59 8.7
23 -11 5 139.59 9
-5 23 11 155.18 8.9
11 -23 -5 129.09 7.5
7 -23 -11 386.16 13.3
-11 23 7 382.86 14.8
23 7 -11 379.36 13.7
-7 11 23 379.16 14.6
23 -11 -7 375.86 14.8
11 7 23 400.96 13.6
11 -23 7 376.36 14.3
11 23 -7 386.66 14.8
7 23 11 401.36 14.4
23 -11 7 404.66 15.5
11 23 7 386.26 14.2
11 -23 -7 384.56 13.5
7 11 23 402.16 13.5
-7 23 11 407.86 15
7 -23 11 386.66 14.5
-11 7 23 395.56 14.9
23 -7 -11 351.36 14.6
-9 11 23 1612.04 38.5
11 23 -9 1623.64 37.8
9 23 11 1599.24 38.1
11 9 23 1634.84 37.8
11 -9 -23 1598.44 37.6
23 9 -11 1610.84 37.3
9 -23 -11 1560.84 37.6
-11 23 9 1663.03 38.6
23 -11 -9 1598.84 38.4
11 -23 9 1630.04 38.4
23 -9 -11 1547.95 38.3
-11 9 23 1682.63 38.5
11 -23 -9 1565.54 37.7
9 -23 11 1584.14 38.4
11 23 9 1648.04 38.2
23 -11 9 1618.44 39
-9 23 11 1650.83 38.7
9 -11 -23 1587.84 37.6
23 11 -9 1557.94 37.7
9 11 23 1613.34 37.7
23 -11 11 2598.24 59.59
11 11 23 2560.44 58.39
11 -23 11 2523.85 59.09
23 11 -11 2590.74 57.29
23 -11 -11 2600.74 58.99
11 23 11 2732.03 58.99
23 11 -11 2475.25 57.69
11 -11 -23 2552.84 58.39
-11 23 11 2577.24 59.19
-11 11 23 2655.23 59.19
1 23 13 1004.2 26
23 -13 -1 983.5 26.3
1 -13 23 1072.19 25.9
-1 13 23 1024 25.9
-1 -23 13 1020.1 25.2
23 1 -13 1024.6 25.5
13 -23 1 1022 25.8
13 23 -1 1012.7 26
1 -23 -13 1017 25.1
1 13 23 988.2 25.8
-13 1 23 1010.6 25.5
-1 23 13 997.1 26
-1 -23 -13 1020.1 25.2
1 -23 13 989 25.5
-1 -13 23 1021.5 24.8
13 23 1 1023 26.1
23 -13 1 1014.2 26.3
13 -23 -1 1008.4 25.8
23 -1 -13 1018.1 25.8
3 -23 -13 331.57 12.2
23 -13 -3 347.97 14.1
-3 13 23 330.47 13.6
-3 -23 13 323.27 12.1
13 23 -3 325.77 14
23 3 -13 345.67 13
13 -23 3 343.07 13.5
3 -13 23 330.77 14.3
3 23 13 322.47 13.6
-13 23 3 335.47 14.1
23 -13 3 327.47 14.2
-13 3 23 333.07 14
13 -23 -3 333.87 13.2
23 -3 -13 322.17 13.9
3 -23 13 333.27 13.6
13 23 3 330.87 13.6
-3 23 13 332.17 13.7
3 13 23 334.27 13.1
-5 13 23 10.1 6.8
-13 23 5 6.7 7.1
5 23 13 8.9 6.6
13 23 -5 7.8 7.4
23 -13 -5 0 6.7
5 -13 23 9.3 7.9
23 5 -13 7.1 6.4
5 -23 -13 4.4 5.5
13 -23 5 11.5 6.8
5 -23 13 4.4 6.8
23 -13 5 3.4 7.4
-5 23 13 11 6.7
13 -23 -5 5.7 6
5 13 23 2.9 6.2
23 13 -5 15.1 6.2
13 23 5 5.2 6.8
-13 5 23 6.5 7.4
23 -5 -13 7.8 6.9
13 7 23 69.79 7
-7 13 23 82.29 8.2
-13 23 7 70.69 8.3
13 -23 7 77.59 7.9
7 -23 -13 75.49 7
23 7 -13 78.19 6.8
23 -13 -7 62.69 7.6
13 -7 -23 78.39 7.4
7 23 13 73.29 7.8
13 23 -7 81.39 8.4
-13 7 23 62.69 8.3
7 -23 13 70.49 8
7 13 23 75.99 7.2
13 -23 -7 72.19 7.3
-7 23 13 86.09 8.3
13 23 7 87.79 8.1
23 -7 -13 77.19 8.2
23 13 -7 77.99 7.1
23 -13 7 78.99 8.3
13 9 23 684.63 19.8
9 23 13 712.43 20.4
13 -9 -23 704.73 19.7
9 -23 -13 715.53 19.5
-13 23 9 715.43 20.8
23 -13 -9 696.23 20.8
13 -23 9 730.23 20.8
-9 13 23 698.23 20.8
13 23 -9 686.53 20
9 13 23 685.83 19.5
-9 23 13 706.33 21.2
23 -13 9 707.93 21.5
9 -23 13 677.13 20.7
9 -13 -23 686.83 19.7
13 -23 -9 686.23 19.7
-13 9 23 695.53 21.1
23 -9 -13 693.23 20.6
13 23 9 717.33 20.3
23 13 -9 686.63 18.6
11 -23 -13 1294.17 31.5
-11 13 23 1362.66 32.8
11 23 13 1242.28 32.1
-13 23 11 1281.57 32.6
13 -11 -23 1264.47 31.8
13 -23 11 1309.77 32.8
23 -13 -11 1298.37 32.4
13 11 23 1319.87 31.7
23 -11 13 1323.67 33.1
11 -13 -23 1309.67 31.6
-13 11 23 1237.28 32.8
11 -23 13 1312.87 32.8
23 -11 -13 1261.07 32.3
11 13 23 1306.37 31.6
13 -23 -11 1276.67 31.6
13 23 11 1320.47 32.2
23 -13 11 1273.27 33.1
-11 23 13 1286.97 32.7
13 13 23 960.1 25.7
23 13 13 990 26
23 -13 -13 997.2 26.7
23 -13 13 1022.4 27.9
-13 23 13 984.5 27
13 23 13 992 26.5
13 -23 13 1012.1 27.5
-13 13 23 980.1 27.5
13 -13 -23 990.5 26.2
23 15 1 300.17 11.1
15 -23 1 265.47 10.8
23 -15 -1 271.07 11.1
1 23 15 288.87 11.5
-1 15 23 263.67 11
15 23 -1 297.47 11.5
1 -23 -15 272.17 11.9
23 1 -15 279.47 10.5
-1 23 15 252.37 10.9
15 23 1 272.97 11.2
1 15 23 252.27 10.8
1 -23 15 279.47 11
23 15 -1 305.87 10.9
23 -15 1 234.88 10.6
23 -1 -15 290.47 10.9
-1 -15 23 253.07 9.7
15 -23 -1 272.47 11.2
-1 -23 -15 267.97 10.1
23 15 3 3.1 6.7
15 -23 3 3.9 6.9
-3 15 23 -1 7.2
23 3 -15 4 6.5
23 -15 -3 2.1 7.4
15 23 -3 -4.8 7.6
3 -23 -15 -2.5 6.1
3 23 15 2.1 7
23 15 -3 3.9 6.9
3 15 23 2.9 6.9
23 -15 3 0 7.6
-3 23 15 0.4 6.5
15 23 3 3 7.2
23 -3 -15 -1.5 7.1
15 -23 -3 0.1 6.5
3 -23 15 -4.7 7.5
-15 3 23 -1.8 7.9
-15 23 5 444.86 16.6
-5 15 23 457.95 16.3
5 23 15 436.16 16.1
15 -23 5 439.86 15.9
23 5 -15 439.06 14.2
15 23 -5 422.66 16.4
15 -5 -23 447.86 14.9
5 -15 23 422.66 17.1
-5 -23 15 410.06 13.4
5 -23 -15 435.26 14.6
23 15 5 437.76 15.2
23 -15 -5 442.56 16.3
15 23 5 428.96 15.7
23 -5 -15 416.96 15.9
-15 5 23 448.06 17.1
5 15 23 403.06 15.3
23 -15 5 458.85 16.7
15 -23 -5 462.65 15.6
-5 23 15 429.56 15.8
23 15 -5 436.86 15.1
5 -23 15 440.16 16.4
-15 23 7 246.78 12.2
15 -7 -23 233.78 10.3
-7 15 23 233.98 11
15 7 23 251.47 10.3
15 -23 7 208.98 10.6
23 15 7 212.28 10
7 23 15 208.08 10.3
23 -15 -7 220.38 11
7 -15 23 227.48 11.8
15 23 -7 228.68 11
7 -23 -15 211.98 9.6
23 15 -7 224.18 9.7
7 -23 15 225.48 11.5
15 23 7 230.48 10.9
15 -23 -7 217.38 10.1
-7 23 15 206.18 10.6
7 -15 -23 213.38 9.8
23 -15 7 244.38 11.9
7 15 23 251.17 10.5
23 -7 -15 244.58 11.1
-15 7 23 233.58 11.5
9 -23 -15 60.49 7.6
15 -9 -23 69.79 8.4
-9 15 23 56.69 8.8
15 9 23 67.09 7.9
-15 23 9 69.09 9.1
15 -23 9 57.29 8.4
23 15 9 56.09 8.3
9 23 15 60.89 8.2
15 23 -9 53.39 8.7
9 -15 23 52.29 10.3
23 -15 -9 57.09 8.5
23 15 -9 62.39 7.3
15 -23 -9 73.89 8.1
23 -9 -15 53.29 8.4
9 -15 -23 62.29 7.9
9 -23 15 57.19 9.2
9 15 23 63.09 7.8
-15 9 23 59.79 9.6
23 -15 9 68.79 9.6
-9 23 15 66.99 8.9
15 23 9 65.79 8.6
-15 23 11 436.16 17.4
23 -15 -11 436.46 16.9
11 -23 -15 440.26 15.8
15 -23 11 441.26 17.8
15 -11 -23 423.76 16.5
-11 15 23 432.36 17.9
23 15 11 404.96 16.1
11 -15 23 393.46 16.1
15 11 23 422.36 16
11 23 15 424.26 16.6
23 -11 -15 421.56 17
-15 11 23 433.66 18.4
15 -23 -11 410.66 15.6
-11 23 15 426.26 17.6
15 23 11 423.26 16.5
23 -15 11 425.26 17.7
11 -15 -23 428.66 16
11 15 23 414.56 15.7
11 -23 15 426.46 18.1
15 -23 13 123.89 11.2
23 -15 -13 91.09 9.9
15 -13 -23 115.29 9.7
13 -15 23 124.19 12.5
-15 23 13 105.39 10.1
13 -23 -15 94.39 8.7
23 -13 15 114.59 11.3
13 23 15 100.49 9.3
-13 15 23 109.39 10.9
23 15 13 102.29 9
15 13 23 109.09 9.3
23 -13 -15 108.89 9.7
13 -23 15 99.49 10.7
13 15 23 101.29 9
13 -15 -23 121.89 9.6
-13 23 15 113.69 10.5
23 13 15 123.29 9.4
15 23 13 104.29 9.2
-15 13 23 118.49 11.1
23 -15 13 95.59 10.2
15 -23 -13 108.79 8.6
15 15 23 -2.6 8.4
15 23 15 -4 8.9
23 -15 -15 0.9 8.9
15 -15 23 -1 11.8
15 -15 -23 -2.9 9
15 -23 15 9.2 10.5
-15 15 23 3.4 10.5
23 15 15 -1.7 8.8
23 -15 15 -2 10.6
-15 23 15 2.2 9.8
15 -23 -15 -3.9 8.1
1 -23 -17 165.38 8.8
17 -23 1 136.99 9.4
-1 17 23 136.59 9.4
23 -17 -1 159.68 10.2
23 17 1 147.49 9.3
1 23 17 154.48 9.6
23 1 -17 141.89 8.7
17 23 -1 150.58 10.1
23 -17 1 127.29 9.5
1 17 23 135.39 9
-1 23 17 142.09 9.5
23 17 -1 134.59 8.8
-1 -17 23 137.69 7.9
23 -1 -17 142.49 9.1
17 -23 -1 133.19 8.9
17 23 1 135.99 9.7
23 17 3 9.4 7.7
17 -23 3 10.7 7.7
17 23 -3 -3.5 8.6
-3 17 23 11.5 7.8
23 3 -17 10.3 6.6
3 23 17 11.2 7.8
3 -23 -17 8.3 6.4
-3 -23 17 7.3 6.5
17 -3 -23 10 7.3
23 -17 -3 11.4 7.8
17 -23 -3 14.7 7.4
23 17 -3 11.3 7.6
3 17 23 10.8 7.6
17 23 3 9.7 8
23 -17 3 11.8 8.6
23 -3 -17 12.2 7.8
-3 23 17 5.4 7.6
23 -17 -5 439.36 17.2
23 17 5 469.55 16.8
-5 17 23 464.25 17.6
17 23 -5 458.85 17.9
17 -23 5 465.05 17.2
5 23 17 471.05 17.1
17 -5 -23 484.35 16.2
5 -23 -17 474.05 15.8
5 -23 17 440.66 18.1
23 17 -5 450.65 16.4
17 -23 -5 460.45 16.6
23 -17 5 470.15 18
17 23 5 459.25 17.1
-5 23 17 443.36 17.1
23 -5 -17 471.95 16.8
5 17 23 470.85 16.8
7 23 17 325.27 12.8
-7 17 23 311.77 13
17 23 -7 302.47 12.9
7 -23 -17 329.77 11.9
23 17 7 303.17 12.3
23 -17 -7 341.97 13.3
17 -23 7 288.97 12.6
17 -7 -23 331.77 12.4
23 17 -7 298.77 11.8
7 -23 17 285.37 13.2
7 17 23 271.17 11.7
17 -23 -7 306.57 12.4
23 -7 -17 318.87 12.6
7 -17 -23 348.77 12.2
-7 23 17 293.87 12.9
-17 7 23 300.87 14.1
17 23 7 310.87 12.6
23 -17 7 298.57 12.9
-17 23 9 32.8 9.2
17 -23 9 28.5 9.3
23 17 9 42.5 8.6
9 -17 23 32.9 10.8
17 23 -9 45.7 9.6
17 9 23 33.6 8
9 23 17 40.6 8.7
17 -9 -23 31.6 8.8
9 -23 -17 36.9 7.7
23 -17 -9 27.7 8.5
-9 17 23 30.9 9.2
-17 9 23 46.2 10.5
-9 23 17 30.5 9.3
9 -17 -23 40.4 8.4
23 -9 -17 24 8.7
9 -23 17 31.6 9.9
23 17 -9 34.6 8
9 17 23 36.2 8.1
17 -23 -9 28.4 7.3
17 23 9 37.2 8.6
23 -17 9 33.7 9.6
11 -23 -17 207.28 10.6
17 -11 -23 189.48 11.2
-11 17 23 178.88 12.2
-17 23 11 176.48 11.4
11 23 17 197.18 11.2
23 17 11 198.48 11.2
17 11 23 196.38 10.9
23 -17 -11 204.98 11.6
17 -23 11 169.08 11.5
11 -17 23 192.78 13
17 23 11 173.98 10.8
-11 23 17 198.48 12
23 -11 -17 193.78 11.1
23 -17 11 183.58 11.9
11 -23 17 191.68 12.5
11 -17 -23 204.68 10.6
11 17 23 196.48 10.8
17 -23 -11 195.48 10.8
-17 11 23 200.98 12.8
13 -23 -17 2.5 8.8
13 23 17 13.1 8.7
-13 17 23 0.6 10.6
17 13 23 9.3 8.5
-17 23 13 -1.9 10.5
13 -17 23 9 11.5
23 17 13 11 9.3
17 -13 -23 11.1 9.3
17 -23 13 14.7 10.3
23 -13 17 -2.9 10.8
23 -17 -13 13 9.7
23 -17 13 0.2 10.1
-13 23 17 11.5 10.1
17 -23 -13 9 8.8
-17 13 23 6.9 11.4
23 13 17 3.2 8.1
23 -13 -17 2.2 9.2
13 -17 -23 7.7 9.1
13 17 23 6.7 7.9
13 -23 17 8 10.7
17 23 13 8.9 9.2
-15 17 23 89.09 12.5
23 -15 17 92.49 12.3
17 15 23 75.49 9.2
23 17 15 70.79 10.4
15 -17 23 90.49 14
15 -23 -17 95.09 10
15 23 17 85.49 10.2
-17 23 15 94.69 12
23 -17 -15 75.19 10.3
17 -23 15 86.49 12.3
17 -15 -23 86.69 10.7
23 -17 15 91.49 12.7
17 23 15 79.09 10.6
15 -23 17 89.39 12.5
15 -17 -23 96.49 10.8
-17 15 23 94.79 13.1
15 17 23 80.29 9.5
23 -15 -17 72.09 10.3
17 -23 -15 94.99 10.2
23 15 17 81.99 10.2
17 -15 23 87.79 13.6
-15 23 17 95.59 11.9
17 -17 -23 154.48 12.2
23 -17 17 151.88 14.2
-17 17 23 145.69 14.3
17 17 23 113.19 10.4
17 -23 -17 149.49 12
17 -23 17 144.59 14
23 -17 -17 154.68 12.7
17 23 17 139.29 11.7
17 -17 23 142.29 14.9
-17 23 17 160.88 13.8
23 17 17 154.48 11.9
-1 19 23 412.86 17.3
1 23 19 407.96 17
19 -23 1 390.86 16.7
23 -19 -1 394.56 17.1
23 1 -19 392.96 15.2
23 19 1 414.36 16.5
19 23 -1 419.16 17.9
19 -23 -1 417.56 16.9
19 23 1 403.26 17.3
-1 23 19 402.46 17.1
23 -1 -19 431.66 16.1
23 19 -1 432.66 16.9
1 19 23 413.96 17
23 -19 1 406.86 17.4
19 -23 3 112.79 10
3 23 19 108.49 9.3
-3 19 23 112.19 10
3 -23 -19 118.99 8.6
19 23 -3 109.19 10.7
19 -3 -23 134.49 9.5
23 -19 -3 97.99 9.1
23 19 3 114.59 10
23 19 -3 94.19 9.8
3 19 23 113.09 9.6
19 -23 -3 85.39 8.7
19 23 3 95.89 9.8
-3 23 19 97.59 9.8
23 -19 3 119.69 10.6
23 -3 -19 94.29 9.4
23 -19 -5 13 8.6
5 23 19 15 8.7
23 19 5 12 8.8
5 -23 -19 14.6 7.4
-5 19 23 21.3 9
19 23 -5 9.1 9.9
19 -5 -23 8.8 9
19 -23 5 11.4 8.8
19 -23 -5 10.6 8.4
23 19 -5 5.5 9
23 -19 5 8.6 8.9
-5 23 19 6.9 8.6
5 19 23 14.5 8.4
23 -5 -19 12.5 9
19 23 5 12.2 8.8
19 -7 -23 13.3 9.2
23 -19 -7 1.2 8.9
19 -23 7 10.6 9.1
23 19 7 10.8 8.5
7 23 19 3.9 8.6
-7 19 23 2.8 9.4
7 -23 -19 5.1 7.8
19 23 -7 15.4 10.8
7 19 23 8.1 8.1
23 19 -7 12.7 9.5
19 23 7 8.6 9.1
-7 23 19 0.4 8.7
19 -23 -7 7 8.3
23 -7 -19 12.3 9.3
7 -19 -23 0.7 8.4
23 -19 7 7 9.7
-9 19 23 163.18 11.9
19 -9 -23 185.58 11.3
23 -19 -9 151.18 11.2
19 9 23 162.68 10.2
19 23 -9 141.49 11.5
19 -23 9 170.98 12.1
9 -23 -19 180.68 10.3
23 19 9 174.08 11.4
9 23 19 173.88 11.1
19 -23 -9 167.98 10.5
23 19 -9 161.38 10.7
-9 23 19 157.98 11.8
9 19 23 162.68 10.7
19 23 9 144.19 11
9 -23 19 156.28 14
23 -9 -19 166.68 11.4
9 -19 -23 175.18 10.5
23 -19 9 137.19 11.1
11 -23 -19 695.23 21.3
11 23 19 691.63 22.3
19 -23 11 665.03 23.7
23 -19 -11 693.83 22.4
19 -11 -23 666.43 22.7
23 19 11 628.54 21.7
19 11 23 685.03 21.3
-11 19 23 676.33 23.8
11 -23 19 678.83 24.6
23 -19 11 660.43 23.8
19 -23 -11 710.43 21.8
-11 23 19 661.33 23.6
23 -11 -19 691.53 22.8
-19 11 23 698.63 25.8
19 23 11 650.13 22.4
11 -19 -23 694.63 21.8
11 19 23 662.73 21.7
23 11 19 696.03 21.5
23 19 13 143.79 10.8
-13 19 23 161.38 13.1
19 -23 13 184.68 13.6
13 -19 23 163.08 15.1
19 -13 -23 185.98 12.4
19 13 23 171.98 11.5
23 -13 19 146.59 13.7
13 -23 -19 164.28 11.2
-19 23 13 169.98 13.1
23 -19 -13 189.18 12.8
13 23 19 186.38 12.2
23 -13 -19 163.98 12.2
19 -23 -13 201.48 12.2
13 -19 -23 176.88 12
23 -19 13 164.78 13.4
-13 23 19 173.38 13.1
-19 13 23 172.18 14.9
13 19 23 180.08 11.6
23 13 19 169.38 11.1
13 -23 19 178.48 14.3
19 23 13 167.48 12.2
19 15 23 16.5 10
19 -15 -23 17.7 11.1
23 19 15 5.7 9.8
15 23 19 12.5 10.5
15 -19 23 5.2 14.7
23 -19 -15 9.8 10.1
-15 19 23 11.1 12.5
19 -23 15 9.3 12.7
23 -15 19 3.4 13.4
15 -23 -19 3.6 10
-19 23 15 18.1 12.6
23 -19 15 13.9 13
15 -19 -23 11.8 10.6
15 19 23 14.7 10.2
15 -23 19 9.4 13.5
19 23 15 5.3 10.9
19 -15 23 16 14.5
23 -15 -19 6.1 11.1
-15 23 19 7.1 12.2
19 -23 -15 7.2 10.4
23 15 19 12.4 10.5
-19 15 23 6.7 14.3
-17 19 23 12.9 14.3
23 -19 -17 5.7 11.1
19 -17 -23 25.4 12.3
19 17 23 5.6 10.7
19 -23 17 11.9 14.3
17 -23 -19 1.5 11.5
23 -17 19 10.5 13.5
17 -19 23 13.9 15.9
-19 23 17 12.9 13.9
23 19 17 9.5 11
17 23 19 9.1 11.4
23 -17 -19 12.7 11.8
19 -17 23 9.3 14.8
23 17 19 11.7 11.3
23 -19 17 17.9 14.3
17 19 23 14.5 11.2
19 -23 -17 18.9 11.8
17 -19 -23 18.5 11.9
17 -23 19 11.7 14.6
19 23 17 11.8 11.8
-19 17 23 11.7 15.1
-17 23 19 13 13.5
19 -19 -23 132.89 14.4
23 -19 19 139.39 16.1
19 -23 19 120.89 16.7
-19 19 23 137.29 17.4
23 -19 -19 145.59 14.2
23 19 19 112.69 12.7
-19 23 19 117.69 15.4
19 -23 -19 149.39 14.2
19 -19 23 135.89 17.6
19 23 19 138.09 13.5
-1 21 23 1091.09 29.3
21 -1 -23 1073.59 27.8
23 1 -21 1027 27.4
21 23 -1 1092.59 30
23 21 1 1089.59 29.5
23 -21 -1 1106.29 29.3
1 23 21 1079.19 29.3
21 -23 1 1053.69 29.3
23 -1 -21 1066.99 28.3
-1 23 21 1057.79 29.4
21 23 1 1134.79 29.8
23 21 -1 1085.19 29.6
1 21 23 1092.89 29.5
23 -21 1 1072.89 29.3
21 -23 -1 1052.99 29.3
21 -3 -23 724.93 22.7
-3 21 23 743.33 23.8
21 23 -3 747.73 24.4
23 -21 -3 722.93 23.2
23 21 3 746.73 23.3
3 23 21 738.33 23.1
21 23 3 720.73 23.5
21 -23 -3 726.03 22.8
23 21 -3 763.92 24
3 21 23 740.43 23.2
23 -21 3 744.43 23.6
-3 23 21 723.53 23.6
23 -3 -21 770.32 23.1
5 23 21 120.69 10.8
23 -21 -5 113.69 10.7
-5 21 23 96.39 11.2
21 -5 -23 120.09 11
21 -23 5 108.29 11
5 -23 -21 109.49 9.6
21 23 -5 113.79 12.6
23 21 5 122.09 11.6
-5 23 21 100.99 11
23 21 -5 98.59 11.8
23 -21 5 102.69 10.8
5 21 23 114.59 10.7
21 23 5 106.89 11.1
23 -5 -21 110.69 11
21 -23 -5 115.29 10.4
7 23 21 13.6 9.5
23 -21 -7 12.8 9.4
7 -23 -21 18.3 8.6
21 23 -7 6.2 12
-7 21 23 10.8 10.1
23 21 7 3.2 9.8
21 -7 -23 12.8 10.5
21 -23 7 16.7 10.4
23 -21 7 13.1 10.2
23 21 -7 9.7 11.6
23 -7 -21 21.1 10.7
21 -23 -7 14.1 9.8
7 -21 -23 6.8 9
21 23 7 9.4 10.4
7 21 23 14 9.4
-7 23 21 6.1 10.1
21 -9 -23 523.45 21.1
9 -23 -21 523.35 19.5
21 -23 9 508.15 21.8
23 -21 -9 502.25 20.5
21 9 23 506.55 19.2
23 21 9 491.75 20.1
9 23 21 486.05 20.2
-9 21 23 519.95 21.6
23 -21 9 529.15 21.7
-9 23 21 491.85 21.6
21 23 9 515.05 20.8
9 21 23 488.55 20
21 -23 -9 513.85 20.2
9 -21 -23 511.75 19.7
23 -9 -21 538.75 21.1
23 -21 -11 1509.75 37.5
21 11 23 1436.96 36.4
11 23 21 1429.86 37.3
21 -11 -23 1465.95 38.1
23 21 11 1452.65 37.4
11 -23 -21 1509.95 36.8
-11 21 23 1446.76 38.7
21 -23 11 1445.46 38.3
21 23 11 1439.06 37.5
11 -21 -23 1473.05 37
-11 23 21 1446.06 38.6
11 21 23 1399.66 37
23 11 21 1415.56 36.5
23 -21 11 1511.95 38.4
23 -11 -21 1508.15 37.9
21 -23 -11 1459.75 37.1
23 21 13 780.42 25.7
13 23 21 793.62 25.3
-13 21 23 778.42 27.9
21 -13 -23 792.32 26.8
21 13 23 795.92 24.7
23 -21 -13 791.02 25.5
21 -23 13 790.72 27.7
23 -13 21 810.92 28.8
13 -23 -21 813.32 25.3
23 -21 13 778.12 27.6
13 21 23 739.73 24.9
13 -21 -23 807.82 25.3
23 13 21 774.72 24.4
13 -23 21 773.92 29
21 23 13 774.52 26.3
23 -13 -21 820.32 26.7
-13 23 21 780.22 27.4
23 -21 -15 94.59 12.9
23 -15 21 95.09 15.8
21 -15 -23 87.19 13.3
-15 21 23 88.69 14.2
21 -23 15 101.59 14.7
21 15 23 84.79 11.6
15 -21 23 92.79 16.7
15 23 21 75.19 12.3
23 21 15 70.99 11.7
15 -23 -21 78.49 11.9
-15 23 21 77.59 14.1
21 -15 23 98.49 16.6
21 23 15 73.19 12.9
15 -21 -23 81.39 12.5
23 -15 -21 88.29 13.4
21 -23 -15 66.89 11.4
15 -23 21 89.79 16.4
23 -21 15 77.89 14.2
15 21 23 85.19 11.7
23 15 21 92.89 12.3
21 -23 17 58.19 16.1
23 -21 -17 42.6 13.2
23 -17 21 40.6 15.9
17 23 21 50.69 12.4
21 17 23 42.5 10.9
17 -21 23 47.4 17.4
-17 21 23 46.8 16.1
17 -23 -21 39.4 12.9
21 -17 -23 47.5 14.2
23 21 17 40.4 12.5
21 -23 -17 41.2 12
23 -17 -21 54.99 14.4
23 17 21 34.8 12.2
17 -21 -23 41.8 13.6
23 -21 17 29.1 15.9
-17 23 21 54.69 15.5
21 23 17 46.4 13.6
17 21 23 46.6 12.7
21 -17 23 53.79 17.4
17 -23 21 32.6 16.9
23 -19 21 404.96 20.9
21 -23 19 366.76 21.1
-19 21 23 388.76 21.8
19 -21 23 374.36 22.4
23 -21 -19 455.15 19.9
19 -23 -21 371.46 17.5
21 -19 -23 385.96 19
-19 23 21 362.36 21.2
19 -21 -23 394.26 18.5
19 -23 21 371.36 21.7
23 -19 -21 443.26 20.1
21 -19 23 368.36 21.7
21 -23 -19 396.36 18.6
23 -21 19 361.06 20.5
21 -23 -21 878.11 33.5
21 -23 21 856.21 38.1
21 -21 -23 926.51 33.5
21 -21 23 900.41 39.2
23 -21 -21 882.31 33.8
23 -21 21 887.31 37.3
-1 23 23 1013.9 30
1 23 23 1045.4 29.6
23 -23 -1 1003.5 29.4
23 -23 1 1058.99 29.6
23 -1 -23 1033.4 28.5
23 23 -1 1059.09 30.8
23 23 1 1075.29 30.4
-3 23 23 480.25 17.3
3 23 23 462.65 20.4
23 -23 -3 479.35 20.4
23 -23 3 452.65 19.8
23 -3 -23 470.25 20.6
23 23 -3 484.05 18.5
23 23 3 471.55 18
-5 23 23 16.8 11
5 23 23 12.3 10.7
23 -23 -5 11.4 10
23 -23 5 18 11
23 -5 -23 13.9 11.9
23 23 -5 16.8 13.7
23 23 5 17.4 12
-7 23 23 -5 10.8
7 -23 -23 -1.4 10.2
7 23 23 -2.2 10.8
23 -23 -7 4.8 10.7
23 -23 7 4.9 11
23 -7 -23 -2.2 12.3
23 23 -7 -9.4 14.2
23 23 7 -6.8 11.5
-9 23 23 335.37 16.9
9 -23 -23 383.76 15.4
9 23 23 314.77 14.7
23 -23 -9 335.57 15
23 -23 9 354.26 17
23 -9 -23 396.76 17.2
23 9 23 381.76 14.9
23 23 9 365.66 16.3
-11 23 23 1073.09 33.6
11 -23 -23 1136.89 30.8
11 23 23 1111.09 31.3
23 -23 -11 1080.99 31.2
23 -23 11 1105.09 33.1
23 -11 -23 1100.09 33
23 11 23 1043.3 29.9
23 23 11 1053.59 31.7
-13 23 23 505.85 20.4
13 -23 -23 451.85 17.6
13 23 23 477.65 18.3
23 -23 13 404.76 18.8
23 -13 -23 517.35 20.1
23 -13 23 462.05 20.6
23 13 23 403.46 16.7
23 23 13 485.05 19.2
-15 23 23 77.39 16.4
15 -23 -23 84.89 14
15 23 23 60.19 13.8
23 -23 -15 58.89 12.9
23 -23 15 56.59 15.2
23 -15 -23 88.19 16.2
23 -15 23 74.29 17.1
23 15 23 97.29 14.6
23 23 15 73.29 14.4
-17 23 23 27.3 17.8
17 -23 -23 18.1 15.1
17 -23 23 11.1 19.9
23 -23 -17 -0.9 13.8
23 -23 17 5.4 17.3
23 -17 -23 8.8 16.2
23 -17 23 19.4 19.4
19 -23 -23 178.08 17.4
19 -23 23 144.39 22.3
23 -23 -19 153.38 17.7
23 -23 19 149.29 20.7
23 -19 -23 154.08 18.5
23 -19 23 190.18 22.7
0 -24 0 2838.02 63.39
0 0 24 2775.12 63.19
0 24 0 2922.51 64.09
-2 -24 0 1539.55 35.2
-2 24 0 1552.34 36
0 -2 24 1460.45 34.8
0 2 24 1361.46 34.9
2 -24 0 1499.85 35.2
2 24 0 1550.84 36
2 0 24 1415.46 34.9
-2 0 24 1605.84 35
0 -24 -2 1580.74 35.3
0 -24 2 1573.34 35.2
0 24 -2 1560.94 35.9
0 24 2 1553.04 36
2 2 24 1125.59 27.2
-2 -24 -2 1160.88 27.2
-2 -24 2 1123.39 27.2
-2 -2 24 1114.09 26.8
-2 2 24 1132.09 27.2
-2 24 -2 1159.18 28.2
-2 24 2 1168.58 28.4
2 -24 -2 1155.48 27.3
2 -24 2 1163.68 27.4
2 -2 24 1101.29 27
2 24 2 1119.89 28
24 -2 -2 1141.19 28.5
2 24 -2 1154.38 28.3
-4 0 24 34.4 5.4
0 -24 4 27.6 5.1
0 24 -4 25.5 6.5
0 24 4 26 6
0 -24 -4 30.3 5.3
-4 -24 0 30.3 5.3
-4 24 0 29.1 6.4
4 -24 0 30.3 5.4
4 24 0 25.9 6.2
24 0 -4 28.3 6.8
24 -4 0 35.3 7
0 -4 24 30.1 5
0 4 24 27 5.6
4 0 24 22.9 5.2
4 24 -2 16 6.1
2 24 4 27.7 5.9
4 -24 2 20.6 5.3
-4 -24 -2 23.3 5
-2 24 -4 18 6.6
-2 4 24 15.4 5.4
24 2 -4 20.4 6.7
4 2 24 19.9 5.2
2 -24 -4 17.1 5.2
-4 24 2 18.9 6.1
24 -4 -2 19.8 6.6
-4 -2 24 24.4 5.1
2 -4 24 20.1 5
-2 -24 4 17.2 5
2 4 24 20.9 5.1
4 -2 24 12.7 5.2
-4 2 24 16.6 5.3
4 24 2 15.3 6.2
2 -24 4 17.3 5.4
-2 -4 24 21.6 4.8
-2 24 4 17.9 6
-4 -24 2 17.5 4.9
-4 24 -2 20 6.5
2 24 -4 17.7 6.4
-2 -24 -4 20.8 4.9
4 -24 -2 15.9 5
24 -2 -4 22.3 6.7
-4 -24 4 777.92 20.8
4 -24 -4 862.21 21
4 -24 4 838.22 21.2
4 4 24 850.21 21.1
4 24 -4 778.52 22
4 24 4 892.11 22
24 -4 -4 842.52 22.2
-4 24 4 859.61 22.3
-4 -24 -4 838.82 20.9
-4 24 -4 808.42 22.2
-4 -4 24 871.71 20.4
-4 4 24 718.43 21
-6 -24 0 27.2 5.1
6 0 24 30.4 5.5
24 -6 0 24.7 6.4
0 24 -6 22.7 6.7
-6 24 0 22.9 6.3
0 -6 24 30.2 5.1
0 6 24 23.1 5.4
6 -24 0 24.6 5.4
6 24 0 25.5 6.3
24 0 -6 26.1 6.8
0 -24 -6 23.8 5.1
-6 0 24 29.1 5.6
0 -24 6 24.2 5.5
0 24 6 30.3 6.5
-2 6 24 19.7 5.8
-6 -24 -2 23.3 5.2
2 -6 24 19.9 5.1
2 -24 -6 21.7 5.3
6 2 24 16 5.2
24 -6 -2 10.7 6.4
-6 -2 24 12.3 5.2
-2 -24 6 12 5.1
-2 24 -6 19.8 6.6
6 -24 2 16.4 5.5
6 24 -2 16.7 6.3
-6 24 2 18 6.1
2 24 6 11.8 6
24 2 -6 18.4 6.8
2 24 -6 10.7 6.6
24 -6 2 18 6.7
24 -2 -6 18.1 6.4
2 -24 6 15.3 5.7
6 -24 -2 19.2 5.2
-2 24 6 22.1 6.4
-2 -24 -6 22.5 5.3
-6 2 24 22.6 5.7
-6 -24 2 12.4 4.8
-6 24 -2 15.2 6.5
6 24 2 12.5 6.1
-2 -6 24 16.4 4.7
2 6 24 22.4 5.6
4 -24 -6 737.63 19.4
24 4 -6 754.02 20.7
-6 24 4 773.02 20.6
6 24 -4 723.73 20.5
24 -6 -4 735.53 20.7
-6 -4 24 778.92 18.5
4 24 6 768.12 20.3
6 4 24 752.72 19.5
6 -24 4 753.82 19.9
-6 -24 -4 725.93 19.1
-4 6 24 702.43 19.7
-4 -24 6 733.03 19.1
6 24 4 766.52 20.3
24 -4 -6 699.63 20.5
4 -24 6 741.13 19.7
4 24 -6 715.43 20.4
6 -24 -4 750.22 19.5
-6 -24 4 712.23 19
-6 24 -4 718.53 20.7
-4 24 6 769.32 20.7
-4 -6 24 767.32 18.3
-4 -24 -6 720.33 19.1
4 6 24 733.03 19.4
-6 4 24 692.53 19.6
24 -6 4 773.92 21
-6 6 24 545.55 16.7
6 -24 6 570.34 16.9
6 6 24 586.04 16.3
6 24 -6 565.94 17.4
6 24 6 591.74 17.2
24 -6 -6 547.45 17.6
-6 24 6 585.64 17.6
-6 -24 6 564.94 15.8
6 -24 -6 562.44 16.1
0 -24 8 417.66 13.8
8 -24 0 426.06 13.9
-8 0 24 414.56 13.6
0 -24 -8 429.76 13.4
24 -8 0 417.76 15.1
-8 24 0 436.96 15.2
0 24 8 442.06 14.6
0 8 24 423.26 14
0 -8 24 433.96 12.6
8 24 0 406.06 14.7
24 0 -8 423.16 15
-8 24 2 229.18 10.2
8 -24 2 229.98 9.4
-8 -2 24 228.28 8.3
-2 -24 8 196.98 8.5
24 2 -8 205.18 9.5
8 24 -2 184.88 9.4
2 24 8 194.18 9.1
8 2 24 222.58 8.7
-2 8 24 211.28 9
2 -24 -8 214.28 8.6
24 -8 -2 196.18 9.3
24 -2 -8 183.58 9.3
2 -24 8 173.18 8.6
-2 -8 24 208.98 8.8
-2 24 8 183.68 8.9
8 24 2 193.18 9.5
-2 -24 -8 219.08 8.8
24 -8 2 212.58 10.2
2 24 -8 204.38 9.8
-8 2 24 224.98 9.1
8 -24 -2 205.18 9
-8 24 -2 215.88 9.9
2 8 24 215.88 8.9
8 -24 4 295.87 12.4
-4 -24 8 299.07 11.4
-4 8 24 308.47 12.4
24 4 -8 306.07 13.2
8 24 -4 311.67 13.4
-8 24 4 317.37 13.2
4 24 8 300.47 12.7
8 4 24 298.37 11.6
24 -8 -4 312.77 13.3
4 -24 -8 292.17 11.5
-4 24 8 286.47 11.2
4 -24 8 285.47 12.4
4 24 -8 310.67 13.3
-4 -24 -8 303.87 11.3
8 -24 -4 293.27 11.7
4 8 24 316.07 11.8
-8 4 24 290.47 10.8
24 -4 -8 269.37 11.5
8 24 4 306.17 11.4
24 -8 4 309.77 12.2
6 -24 -8 314.47 11.8
6 24 8 311.07 13.2
8 6 24 310.47 12.2
24 -8 -6 276.77 11.3
-6 8 24 296.17 12.8
-8 24 6 312.97 13.5
8 24 -6 313.77 11.8
24 6 -8 316.97 11.6
-6 -24 8 299.47 11.4
8 -24 6 311.37 12.9
-8 6 24 296.07 13
6 -24 8 318.17 13
6 24 -8 317.97 11.7
6 8 24 331.67 12.2
8 -24 -6 323.77 11.8
8 24 6 319.17 13.1
24 -8 6 341.07 12.8
24 -6 -8 276.37 11.5
-6 24 8 330.77 13.8
8 -24 -8 8.4 5.6
8 -24 8 11.7 6.4
8 24 -8 7.5 7.3
-8 24 8 11.6 6.9
8 24 8 9.3 6.7
24 -8 -8 5.7 7.2
24 8 -8 10.1 7.5
-8 8 24 13.3 6.9
8 8 24 8.4 5.7
10 -24 0 822.52 21.5
0 10 24 780.62 21.4
-10 24 0 830.42 22.3
0 24 10 784.62 21.9
24 -10 0 825.92 22.2
0 -10 24 831.02 20
0 -24 10 802.22 21.2
10 24 0 822.82 22
24 0 -10 801.12 21.9
-10 0 24 818.62 21.1
0 -24 -10 775.02 20.8
2 24 10 633.74 18.6
-10 24 2 639.24 19
-10 -2 24 640.74 17.1
24 -10 -2 613.74 18.9
10 -24 2 664.93 18.4
-2 -24 10 619.44 17.5
2 -24 -10 636.44 17.5
-2 10 24 635.54 18.3
10 24 -2 651.93 18.9
24 2 -10 623.74 18.7
2 10 24 617.94 17.8
24 -2 -10 605.14 18.8
-2 -10 24 625.54 16.1
2 -24 10 603.64 18
10 -24 -2 655.63 18.1
-10 2 24 677.33 18.3
10 24 2 660.73 18.9
24 -10 2 648.54 19.1
-2 24 10 623.94 18.7
-2 -24 -10 637.64 17.4
24 4 -10 0.2 6.8
4 -24 -10 5.2 5.5
4 24 10 -1.6 6.3
10 4 24 4.8 5.7
-4 10 24 3.4 6.4
10 24 -4 1.1 7.1
10 -24 4 -0.6 6.1
-4 -24 10 0.8 5.7
24 -10 -4 0.4 7.1
-10 24 4 2.1 6.8
24 -10 4 8 7.4
-4 24 10 1.7 6.3
4 -24 10 7.7 6.5
10 -24 -4 0.1 5.4
10 24 4 0.2 6.7
4 10 24 4.2 6
-10 4 24 2.1 6.7
-4 -24 -10 2.6 5.6
24 -4 -10 1 7.1
24 6 -10 4.2 6.9
6 24 10 4.6 6.7
-6 10 24 4.7 6.7
-6 -24 10 5.2 5.4
10 6 24 2 5.9
10 24 -6 3.4 7.4
-10 24 6 3.3 6.7
6 -24 -10 7.2 5.3
10 -24 6 7.2 6.6
24 -10 -6 7.1 6.8
10 -24 -6 7.5 5.3
-10 6 24 11.1 7.1
24 -6 -10 7.4 7
-6 24 10 7 7
6 10 24 2.2 6
24 -10 6 6.7 7.5
6 -24 10 8 7
10 24 6 4.4 6.8
-10 24 8 321.67 12.4
8 24 10 293.07 11.6
10 -24 8 279.57 11.2
24 8 -10 287.47 11
-8 10 24 279.77 11.5
8 -24 -10 253.97 10.2
24 -10 -8 248.88 11.3
10 24 -8 298.57 11.6
10 8 24 268.97 10.4
-10 8 24 274.27 11.5
8 24 -10 283.37 11.2
8 10 24 278.77 12.3
24 -8 -10 264.97 11.3
10 -24 -8 283.17 12
8 -24 10 278.67 11.5
24 -10 8 304.37 12.5
10 24 8 285.77 11.5
-8 24 10 281.57 11.6
24 -10 -10 1184.08 30.1
10 24 -10 1158.48 29.6
10 24 10 1212.08 30
10 10 24 1178.38 29.2
24 -10 10 1157.68 30.7
24 10 -10 1192.18 29.4
-10 24 10 1182.88 30.3
10 -24 -10 1216.88 29.1
10 -24 10 1230.68 30.2
-10 10 24 1156.68 30.3
12 -24 0 921.01 24.1
-12 0 24 974.5 23.7
0 24 12 948.01 24.6
0 -24 12 906.01 23.8
0 12 24 914.41 24.1
24 0 -12 908.11 24.4
0 -24 -12 935.91 23.5
0 -12 24 944.91 23.8
12 24 0 924.01 24.7
24 -12 0 886.71 24.8
2 24 12 512.85 16.8
-12 24 2 503.25 17.3
12 -24 2 517.55 16.5
2 -24 -12 512.35 15.6
12 24 -2 522.05 17.3
2 -12 24 526.85 17.3
24 2 -12 514.45 16.7
24 -12 -2 510.75 17.4
-2 -24 12 534.45 15.8
-2 12 24 501.15 16.8
24 -12 2 512.05 17.4
2 -24 12 514.95 16.7
-12 2 24 515.35 16.8
12 -24 -2 521.75 16.6
24 -2 -12 508.35 17
-2 24 12 535.95 17
2 12 24 534.15 16.5
-2 -24 -12 518.95 15.5
12 24 2 526.25 17.3
12 4 24 -0.2 6.3
24 -12 -4 2 7.1
12 -24 4 -5.3 6.4
12 24 -4 1.4 7.6
-4 12 24 -1 6.9
4 24 12 2.6 6.8
24 4 -12 -1.2 6.9
-12 24 4 -3 7.2
4 -24 -12 0.7 5.8
24 -12 4 7 7.2
12 24 4 1.7 7.1
4 12 24 -1.7 6.3
4 -24 12 3.4 7.2
24 -4 -12 6.8 7.2
-12 4 24 1.3 7.2
-4 24 12 3.5 6.7
12 -24 -4 4.6 5.8
24 -12 -6 60.69 8.3
12 -24 6 53.49 7.8
-12 24 6 58.19 8.2
24 6 -12 60.09 7.4
12 6 24 45.5 6.7
-6 12 24 57.39 8
12 24 -6 58.29 8.6
6 24 12 61.69 7.7
6 -24 -12 55.99 6.3
-12 6 24 60.49 8.4
-6 24 12 57.59 8.1
24 -6 -12 57.59 7.9
12 -24 -6 47.4 6.4
24 -12 6 50.19 8.1
6 12 24 58.59 7.3
12 24 6 48.1 7.7
6 -24 12 48.5 7.7
12 -24 8 348.67 14.9
12 8 24 358.56 14
-12 24 8 354.16 15.2
12 24 -8 358.16 15.7
8 -24 -12 349.57 13.5
24 -12 -8 356.96 15
8 24 12 333.27 14.8
-8 12 24 348.87 13.1
24 8 -12 344.47 13.8
8 -24 12 305.97 12.7
12 -24 -8 354.16 13.6
24 -8 -12 343.77 15.1
8 12 24 336.47 13.8
-12 8 24 362.96 13.7
24 12 -8 350.26 13.2
-8 24 12 405.06 14.1
12 24 8 333.47 14.7
24 -12 8 389.36 14.4
12 -24 10 893.61 24.5
10 24 12 885.21 24.1
12 -10 -24 893.71 23.6
12 10 24 905.41 23.6
24 -12 -10 885.91 24.7
24 10 -12 897.61 22.8
12 24 -10 845.22 23.9
10 -24 -12 895.41 23.3
-10 12 24 857.41 24.8
-12 24 10 877.81 24.7
24 12 -10 884.61 23.7
-12 10 24 901.11 25
24 -12 10 903.61 25.4
10 -24 12 881.51 24.7
-10 24 12 903.51 24.7
12 24 10 892.11 24.4
24 -10 -12 864.11 24.4
10 12 24 880.01 23.5
10 -12 -24 890.81 23.6
24 12 -10 866.11 22.4
12 -24 -10 864.41 23.4
12 -24 -12 977.2 24.8
12 -24 12 950.8 26.4
24 -12 12 936.91 27.1
-12 12 24 957 26.8
12 12 24 892.21 24.8
12 -12 -24 946.01 25.3
12 24 12 960.2 25.7
24 -12 -12 959.9 26
-12 24 12 939.81 26.1
0 -24 -14 320.17 13.1
0 -24 14 333.37 14.2
24 -14 0 376.76 13.9
0 24 14 350.76 12.8
0 14 24 322.47 12.3
14 -24 0 316.87 14.1
24 14 0 332.77 13.5
24 0 -14 344.37 12.4
14 24 0 336.27 12.9
0 -14 24 310.97 13.9
24 14 2 50.29 7.6
14 24 -2 50.99 8.5
2 -24 -14 48.7 6.6
2 24 14 64.49 8
24 -14 -2 50.69 7.7
14 -24 2 53.09 7.8
-2 14 24 51.69 7.9
24 2 -14 61.09 7.8
24 14 -2 51.69 7.5
-2 24 14 55.89 7.8
2 14 24 46 7.5
14 -24 -2 49.7 7.2
14 24 2 45.3 8.3
24 -2 -14 49.5 8
2 -24 14 48.2 8
-14 2 24 54.49 8.3
24 -14 2 55.29 8.5
-4 14 24 345.07 15
24 -14 -4 347.87 15.3
-14 24 4 334.17 13.1
14 -24 4 333.77 14.6
24 4 -14 342.37 14
4 -24 -14 338.47 13.1
4 24 14 359.76 14.9
14 24 -4 333.87 13.1
24 -4 -14 347.27 12.8
4 -24 14 359.46 13.2
4 14 24 333.67 14.2
14 -24 -4 352.36 14.4
-4 24 14 326.57 12.9
24 -14 4 349.37 13.5
-14 4 24 379.46 13.4
24 14 -4 322.47 13.8
14 24 4 343.17 14.9
14 -24 6 232.68 11.3
24 6 -14 234.38 9.6
24 14 6 231.08 10.4
6 -24 -14 212.58 9.4
14 6 24 214.78 9.7
14 24 -6 234.28 11.5
-14 24 6 247.28 11.9
6 24 14 220.98 10.8
-6 14 24 223.68 11.1
24 -14 -6 250.57 11.5
6 -14 24 229.48 12.2
6 -24 14 231.88 11.5
6 14 24 242.28 10.4
14 24 6 230.08 10.9
14 -24 -6 266.97 11.2
24 -6 -14 232.18 11
24 -14 6 256.07 12.1
-14 6 24 232.68 11.6
-6 24 14 200.18 10.3
24 14 -6 238.68 10.1
-14 24 8 0.9 7.7
-8 14 24 -4.1 8.3
14 -24 8 1.5 8.1
14 24 -8 -0.9 9
14 8 24 -1.2 6.7
24 -14 -8 -1.3 7.9
24 14 8 -1.5 7.5
8 24 14 -1.2 7.7
8 -24 -14 0.9 6.8
8 -14 24 4 9.7
14 -8 -24 3.9 7.5
-14 8 24 1.3 8.8
-8 24 14 -3.6 8.2
24 14 -8 0.9 6.9
14 24 8 0.4 7.8
8 14 24 0.9 7.3
24 -14 8 6.5 8.4
14 -24 -8 2.6 7
24 -8 -14 0.6 7.9
8 -24 14 4.3 8.4
-14 24 10 156.98 10.6
14 -10 -24 179.78 10
24 -14 -10 164.58 10.6
24 14 10 179.78 9.9
14 -24 10 147.19 10.4
14 24 -10 141.89 9.9
10 -24 -14 147.99 8.9
14 10 24 152.68 9.6
-10 14 24 165.18 11
10 -14 24 155.08 12.1
10 24 14 160.88 10
14 -24 -10 138.29 8.5
-10 24 14 170.48 10.9
10 -14 -24 184.68 10
10 -24 14 173.28 11.1
14 24 10 164.68 10.1
24 -14 10 186.98 11.7
24 14 -10 157.18 8.6
-14 10 24 164.48 11.4
24 14 -10 147.79 9.8
24 -10 -14 162.88 10.5
10 14 24 166.88 9.6
14 -12 -24 265.67 11.8
14 12 24 271.57 11.8
24 14 12 243.28 11.4
-14 24 12 210.08 11.5
12 24 14 225.08 11.3
14 -24 12 255.87 13
12 -14 24 269.57 13.9
24 -14 -12 214.18 11.6
12 -24 -14 262.87 11.3
24 -12 14 264.27 13.6
-12 14 24 252.27 13.4
24 -12 -14 244.58 12.2
12 -14 -24 277.27 11.8
12 -24 14 256.67 13.2
24 -14 12 241.28 12.9
12 14 24 273.97 11.9
-12 24 14 258.67 12.7
14 24 12 253.87 12.2
14 -24 -12 278.77 11.6
-14 12 24 252.77 13.6
14 24 14 4.8 9.1
14 -24 -14 9.3 7.5
24 -14 14 5.5 10.3
14 -14 24 3.7 11.4
14 -24 14 2.2 10.1
24 -14 -14 -1 9.5
24 14 14 7.9 8.2
-14 24 14 5.4 9.6
-14 14 24 -0.5 10.3
14 14 24 7.3 8.3
14 -14 -24 6.9 9.5
0 24 16 66.79 8.4
24 -16 0 54.99 8.9
0 -16 24 48.8 8.2
0 -24 -16 65.89 7.6
24 0 -16 65.29 8.5
16 -24 0 55.89 7.8
16 24 0 66.69 9.4
24 16 0 70.59 8.4
0 16 24 52.09 8
-2 16 24 2.7 8.1
16 24 -2 3.1 8.7
24 16 2 2.7 7.9
24 2 -16 7.5 7.5
2 24 16 8.7 7.7
24 -16 -2 4.4 8.4
16 -24 2 7.3 7.6
2 -24 -16 4.8 6.5
24 16 -2 0.8 7.8
-2 24 16 6 7.8
2 16 24 0.4 7.6
16 24 2 -2.6 8.4
16 -24 -2 7.2 7.6
24 -16 2 7.4 8.5
24 -2 -16 2.6 7.9
24 16 4 822.42 22.9
4 24 16 830.22 23.4
4 -24 -16 826.92 22.3
-4 16 24 821.92 23.6
16 24 -4 852.41 24.1
24 4 -16 828.32 21.7
16 -24 4 827.12 23.3
-4 -24 16 786.52 21.3
24 -16 -4 824.42 23.7
-16 4 24 872.61 24.8
24 -16 4 803.72 24
16 -24 -4 823.92 23
24 -4 -16 794.42 23.3
24 16 -4 808.12 22.5
-4 24 16 823.52 23.4
4 16 24 835.92 23.2
16 24 4 808.42 23.5
16 -24 6 791.72 22.9
6 -24 -16 811.02 21.7
16 24 -6 779.02 23.7
16 -6 -24 807.12 22.1
24 -16 -6 788.32 23.2
-6 16 24 788.52 23.3
6 24 16 774.92 22.8
24 16 6 792.72 22.5
24 -16 6 792.62 23.5
24 -6 -16 778.42 23
16 24 6 779.02 22.9
6 16 24 767.32 22.4
-6 24 16 775.82 23
16 -24 -6 773.52 22.4
-16 6 24 802.32 24.4
6 -24 16 795.32 23.6
24 16 -6 756.32 22
16 24 -8 115.79 10.9
16 -8 -24 136.89 10
-8 16 24 121.19 10.5
16 8 24 156.08 9.8
24 -16 -8 114.59 10
16 -24 8 123.59 10.4
8 24 16 138.49 10.1
24 16 8 137.69 10
8 -24 -16 135.99 9.1
-16 24 8 129.99 11
24 16 -8 130.19 9.3
8 -24 16 127.29 10.9
24 -16 8 123.19 10.8
-16 8 24 123.99 11.6
8 16 24 111.19 9.1
24 -8 -16 132.99 10.5
16 -24 -8 103.89 8.3
16 24 8 138.79 10.2
-8 24 16 132.79 10.6
16 10 24 44.1 8.7
16 -24 10 37 9.6
-16 24 10 41 9.9
-10 16 24 37.6 10.1
10 24 16 28.1 9.1
16 -10 -24 37.7 9.3
10 -24 -16 50.99 8.4
10 -16 24 30.7 11.3
24 16 10 38.5 8.7
24 -16 -10 39.8 9.4
24 -10 -16 40.1 9.8
10 -24 16 37.5 10.4
24 -16 10 41.6 9.2
16 -24 -10 35.2 7.9
-16 10 24 41.2 11
-10 24 16 43.4 10
10 16 24 33.6 8.6
16 24 10 41.7 9.2
10 -16 -24 41.4 8.7
24 16 12 7.4 8.7
16 12 24 2.2 8.2
12 -24 -16 2.5 8.6
-12 16 24 -0.8 10.8
12 24 16 4.4 9.1
24 -16 -12 9.7 9.7
12 -16 24 6.5 12.2
16 -12 -24 -3.1 9.5
24 -12 16 1.4 10.6
-16 24 12 0.4 9.8
16 -24 12 6 10.3
16 24 12 6.4 9.4
24 -12 -16 6.8 9.7
12 -24 16 2.5 11.1
16 -24 -12 4.6 8.5
-12 24 16 1.8 10
24 -16 12 0.9 10.3
12 -16 -24 1.3 8.8
-16 12 24 5.7 11.3
12 16 24 2.3 7.8
24 -16 -14 83.79 10.8
-16 24 14 88.59 11.3
16 -14 -24 99.39 10.9
16 -24 14 79.39 12.1
-14 16 24 91.49 12.1
24 -14 16 81.69 12.5
16 14 24 77.19 9.6
14 -16 24 90.09 13.4
24 16 14 96.19 10.7
14 24 16 97.09 10.8
14 -24 -16 104.29 10.2
-16 14 24 90.79 12.9
24 14 16 80.49 9.8
14 -16 -24 113.99 11
14 -24 16 82.99 12.3
24 -14 -16 83.59 10.6
16 -14 24 88.79 13.4
14 16 24 65.79 8.7
16 -24 -14 87.59 9.6
-14 24 16 88.59 11.2
24 -16 14 86.99 12.1
16 24 14 79.99 10.2
-16 24 16 222.48 13.6
24 16 16 227.28 12.3
24 -16 -16 222.28 13.1
16 24 16 214.18 13
16 16 24 260.17 13
-16 16 24 253.67 15.8
24 -16 16 226.28 14.3
16 -24 -16 206.88 11.3
16 -24 16 235.08 14.5
16 -16 -24 270.67 13.8
16 -16 24 247.58 16.2
24 -18 0 104.29 10.2
0 24 18 82.59 9.4
18 24 0 77.09 10.2
0 18 24 86.49 9.5
18 -24 0 95.59 9.4
24 18 0 86.59 9.3
24 0 -18 98.39 9.2
-2 18 24 -0.3 8.3
18 -24 2 4.7 8.5
24 -18 -2 3.5 8.7
24 18 2 5 8.2
2 24 18 2.1 8.1
24 2 -18 -6.7 7.7
18 24 -2 -6.5 9.9
2 -24 -18 -2.1 7.6
2 18 24 2.4 8.5
18 24 2 3.3 9.4
18 -24 -2 -3.8 8.3
24 -2 -18 -6.7 8.5
-2 24 18 1.1 8.8
24 -18 2 5.4 9.1
24 18 -2 -1.9 8.7
18 -24 4 353.46 13.8
18 -4 -24 386.26 16
24 18 4 375.56 16.4
4 24 18 371.76 14.1
18 24 -4 385.86 15.2
-4 18 24 405.76 14.9
24 -18 -4 420.96 15
4 -24 -18 375.36 15.4
24 -4 -18 353.56 14.1
24 18 -4 377.16 14.1
4 18 24 339.17 13.4
24 -18 4 411.66 15.7
18 -24 -4 386.16 16.4
18 24 4 383.06 14.8
-4 24 18 369.56 14.2
18 -24 6 326.27 13.8
24 -18 -6 342.77 13.9
6 -24 -18 350.56 15.4
24 18 6 360.46 13.9
18 24 -6 347.87 15
18 -6 -24 405.16 14.1
-6 18 24 347.37 14
6 24 18 393.36 14.5
24 -18 6 287.17 13
24 -6 -18 350.26 13.9
18 -24 -6 360.86 13.7
6 18 24 346.37 13.6
-6 24 18 391.06 15
24 18 -6 348.77 13.6
18 24 6 354.76 14.1
18 -8 -24 23.5 9.7
24 18 8 24.4 8.9
24 -18 -8 25.8 9.4
-8 18 24 26.4 10.1
18 8 24 30 8.7
18 -24 8 18.1 9.2
18 24 -8 23.6 11.3
8 -24 -18 26.2 8.3
8 24 18 24.4 9
8 -18 -24 20.2 8.8
24 -18 8 19 9.2
-8 24 18 17.2 9.6
-18 8 24 22.9 12.1
24 -8 -18 21.5 9.8
8 18 24 26.3 8.6
18 24 8 17.1 9.5
18 -24 -8 19.4 8.5
24 18 -8 18.8 9.4
10 -24 -18 79.39 9
18 -10 -24 82.39 10.8
18 -24 10 89.09 11.5
24 -18 -10 92.89 10.9
18 10 24 92.99 9.9
10 24 18 65.99 10
-10 18 24 66.99 11.3
24 18 10 74.19 9.7
18 24 10 62.09 10.2
-10 24 18 69.59 11
10 -18 -24 72.59 9.8
24 -18 10 82.59 11.7
18 -24 -10 63.29 8.5
10 18 24 79.99 9.5
-18 10 24 69.29 12.8
24 -10 -18 77.79 10.9
10 -24 18 75.89 12
18 -12 -24 39.5 11
12 24 18 34.5 10.1
24 18 12 40.5 10.4
18 -24 12 45 11.7
-12 18 24 33.6 12
18 12 24 24.9 9.8
-18 24 12 29.6 11.5
12 -24 -18 36.6 9.4
24 -18 -12 21.8 10.5
12 -18 -24 40.7 10
24 -12 -18 30.6 10.3
24 12 18 32 9.5
12 18 24 35.4 9.5
24 -18 12 36 11.8
12 -24 18 23.6 12.4
18 -24 -12 32.7 9.8
-12 24 18 35.8 11.2
18 24 12 31.6 10.2
-18 12 24 30 13.1
-14 18 24 97.49 13
-18 24 14 73.69 11.6
24 18 14 104.69 11.6
18 -14 -24 120.49 12.4
14 24 18 99.89 11.4
18 -24 14 102.99 12.9
24 -18 -14 103.89 12.2
14 -18 24 95.49 14.8
14 -24 -18 112.59 11.2
18 14 24 87.39 10.2
24 -14 18 107.89 13.4
24 -14 -18 111.79 12.3
18 24 14 103.69 11.5
14 -18 -24 112.89 11.7
24 -18 14 102.19 12.4
14 -24 18 95.09 13.7
-18 14 24 92.39 14.4
14 18 24 105.19 11.3
18 -24 -14 87.29 10.2
24 14 18 126.09 11.4
-14 24 18 109.69 13
18 -14 24 93.89 14.7
16 -24 -18 290.37 14.1
-18 24 16 266.47 16.1
24 -16 18 310.97 17.3
18 -24 16 255.67 15.7
24 18 16 250.77 13.7
18 16 24 296.97 14.4
16 -18 24 273.37 17.7
18 -16 -24 313.37 15.4
24 -18 -16 280.57 14.9
-16 18 24 282.27 17
16 24 18 243.68 14.1
16 -24 18 281.37 17.5
-16 24 18 269.57 15.7
18 -24 -16 241.18 13.4
24 -18 16 269.77 16
24 16 18 269.07 13.9
-18 16 24 277.87 17
18 24 16 268.87 14.3
16 -18 -24 304.17 15.1
18 -16 24 280.87 17.8
16 18 24 240.98 12.6
24 -16 -18 300.97 15.2
18 -18 -24 101.19 13.7
18 24 18 75.19 12.8
18 -18 24 92.19 17.3
18 -24 -18 104.79 12.9
18 -24 18 92.99 16.1
24 18 18 88.19 12.8
-18 18 24 92.29 16.1
-18 24 18 73.79 15.3
18 18 24 65.99 10.9
24 -18 -18 89.69 13.3
24 -18 18 91.99 15.5
24 20 0 455.85 18.8
24 0 -20 427.56 17.6
20 -24 0 429.36 18.4
24 -20 0 440.06 18.7
0 20 24 461.85 16.4
20 24 0 448.56 16.8
0 24 20 454.85 16
24 -20 -2 323.57 14.1
2 24 20 273.47 13.2
20 24 -2 305.37 14.5
24 2 -20 289.97 11.5
24 20 2 269.37 13
-2 20 24 287.87 13.4
20 -24 2 310.87 13.7
24 -2 -20 309.97 13.1
20 24 2 270.07 13.7
24 20 -2 293.87 13.7
2 20 24 289.77 13.3
24 -20 2 263.67 12.9
-2 24 20 291.57 13.3
20 -24 -2 291.07 13
20 -24 4 -4 8.8
-4 20 24 4.1 9.7
4 24 20 7.8 9.7
24 -20 -4 2.6 9.5
4 -24 -20 7.1 8.5
20 -4 -24 3.7 9.8
20 24 -4 5.1 11.6
24 20 4 7.9 10.2
24 -20 4 3.9 10.1
-4 24 20 3.1 9.2
20 24 4 7.1 10.3
24 -4 -20 -3.9 10.1
20 -24 -4 2.7 9.2
24 20 -4 2.4 10.6
4 20 24 7.8 9.3
24 20 6 4 10
20 24 -6 4.2 12
20 -24 6 -1.5 9.1
-6 20 24 0.3 10.2
20 -6 -24 2.5 10.6
6 24 20 2.3 9.7
24 -20 -6 -1.6 9.6
6 -24 -20 -1.9 8.4
24 -6 -20 -0.3 10.4
24 20 -6 2.1 10.9
-6 24 20 10.7 10.2
24 -20 6 0.4 10.3
20 24 6 6.6 10.1
20 -24 -6 2.9 9.5
6 20 24 10.8 9.4
-8 20 24 34.5 11.2
20 8 24 40.5 9.4
24 -20 -8 19.7 9.7
8 -24 -20 37.7 9.5
8 24 20 25.8 10.3
24 20 8 42.7 10.9
20 -24 8 27.3 11
20 24 -8 24.2 12.7
20 -8 -24 34.9 11.2
-8 24 20 17.5 10.8
24 -8 -20 34.5 11
24 20 -8 30.4 11.5
8 -20 -24 28.2 9.6
24 -20 8 42.5 11.5
20 -24 -8 35.8 10.1
8 20 24 25.9 9.9
20 24 8 27.6 10.6
10 -24 -20 511.75 19.3
-10 20 24 493.45 18.5
20 -24 10 497.15 21.6
24 -20 -10 509.25 21
10 24 20 489.45 20.5
24 20 10 479.15 20.1
20 10 24 492.85 18.9
20 -10 -24 527.75 21.9
20 -24 -10 503.15 19.8
-10 24 20 511.25 22.3
20 24 10 481.05 20.9
24 -10 -20 542.65 21.7
10 20 24 485.75 20
10 -20 -24 491.05 19.8
20 12 24 522.15 20.2
24 20 12 510.95 21
-12 20 24 523.55 20
24 -20 -12 521.45 21.4
12 24 20 518.05 21.3
20 -24 12 501.65 19.1
12 -24 -20 506.95 20.3
20 -12 -24 524.95 23
20 -24 -12 523.55 20.4
24 12 20 503.95 19.5
-12 24 20 535.55 23.2
24 -12 -20 576.84 22.3
20 24 12 521.25 21.9
12 -20 -24 542.95 21.1
12 20 24 515.35 20.6
24 -20 12 433.16 17.8
14 24 20 9.4 11.6
20 14 24 17.1 10.6
24 -20 -14 10.1 11.5
14 -24 -20 20.8 11.2
24 -14 20 16.8 14.4
-14 20 24 10.1 13.6
20 -24 14 16.3 13.4
20 -14 -24 8.1 12.5
24 20 14 8.7 11.7
24 -14 -20 12.5 12.5
-14 24 20 4.3 12.7
-20 14 24 16 15.9
20 -14 24 14.3 15.3
14 -20 -24 15.5 11.8
20 24 14 13.4 12.1
24 14 20 7.7 10.9
14 20 24 11.2 11.2
20 -24 -14 16.9 11.4
14 -24 20 10.8 14.7
24 -20 14 8.2 13.8
24 -20 -16 28.2 12.7
-16 20 24 36.1 15.3
20 -24 16 22.8 15
20 16 24 26.3 10.6
24 -16 20 29.7 15.7
20 -16 -24 28.6 13.9
16 -24 -20 29.3 12.1
24 20 16 29.5 12.8
16 24 20 13 12.3
16 -20 24 31.9 17.6
24 -20 16 40.6 15.4
-16 24 20 31.9 13.9
20 -16 24 28.3 16.7
16 -24 20 33 16.1
24 16 20 33.6 12.1
-20 16 24 44 17.5
16 -20 -24 22.1 12.9
16 20 24 29.4 11.8
20 -24 -16 31.3 11.3
24 -16 -20 28.1 13.5
20 24 16 28.4 12.8
24 -18 20 -0.2 16.3
20 -24 18 14.8 16.8
24 20 18 3.8 12.4
18 24 20 7.5 14.4
-20 24 18 31 15.5
-18 20 24 10 17
18 -24 -20 13.6 13.6
20 -18 -24 3.5 14.6
24 -20 -18 6.7 14.2
18 -20 24 14.2 18.8
24 18 20 12.5 13.6
24 -18 -20 18.8 15.4
18 -24 20 6.3 17.4
-18 24 20 19.5 16.2
24 -20 18 14.8 16.1
20 -18 24 27.6 18.5
18 -20 -24 12.6 14.5
-20 18 24 15.3 18.6
20 -24 -18 5.3 13.2
20 24 18 7.2 13.2
20 -24 -20 331.27 18.5
20 -24 20 308.27 21.8
20 -20 24 345.87 23.6
24 -20 20 292.57 22
-20 20 24 313.27 22.1
20 -20 -24 335.77 19.5
24 -20 -20 368.36 20.2
0 24 22 973.1 28.3
24 -22 0 961.5 28.1
22 -24 0 954.5 28.2
0 22 24 963.6 28.3
24 0 -22 926.71 27
22 24 0 952.8 29.4
24 22 0 972.7 29
24 -22 -2 684.93 23.4
24 22 2 671.43 24.4
2 24 22 695.13 23.5
22 -24 2 672.03 22.9
-2 22 24 653.63 23.7
22 24 -2 658.93 25.6
24 -22 2 668.33 23.3
2 22 24 679.63 23.5
22 -24 -2 653.93 23
-2 24 22 680.33 23.8
24 22 -2 692.63 24.9
22 24 2 668.33 24.5
24 -2 -22 648.34 23
22 -24 4 109.59 12.1
24 22 4 99.49 12.2
4 24 22 107.99 10.9
22 24 -4 104.69 14.3
-4 22 24 94.79 11.8
22 -4 -24 121.79 12.7
24 -22 -4 89.29 10.7
24 22 -4 91.69 13.6
22 24 4 92.99 12.4
-4 24 22 97.19 11.9
24 -22 4 93.59 11.5
4 22 24 103.69 11.7
24 -4 -22 126.79 12.7
22 -24 -4 99.59 11
22 -6 -24 3.4 12.2
24 -22 -6 0.6 10.7
6 -24 -22 0.4 9.4
-6 22 24 1.3 11.5
24 22 6 3.2 11.7
22 -24 6 1.2 11.2
22 24 -6 -3.9 14.1
6 24 22 -6.4 10.4
24 -6 -22 2.6 12.3
22 24 6 0.1 11.4
6 22 24 -1.6 10.8
-6 24 22 -3.7 10.5
24 22 -6 0 13.5
24 -22 6 -7 11.4
22 -24 -6 4.7 10.4
22 -8 -24 62.99 13.3
24 -22 -8 70.69 11.7
22 -24 8 56.99 11.8
-8 22 24 69.09 12.7
24 22 8 48.5 11.5
8 -24 -22 58.29 10.7
22 8 24 67.39 10.8
8 24 22 57.69 11.5
22 24 -8 57.49 15
22 24 8 57.69 12.3
-8 24 22 66.69 12.7
24 -22 8 78.79 13
8 -22 -24 57.39 10.9
24 -8 -22 72.99 13.1
24 22 -8 53.79 14.1
22 -24 -8 73.69 11.6
24 22 10 675.83 24.8
10 24 22 690.43 24.6
10 -24 -22 740.03 24.1
-10 22 24 720.43 27.2
24 -22 -10 714.33 25.3
22 -24 10 706.63 26
22 10 24 693.53 23.4
22 -10 -24 732.73 26.7
24 -10 -22 740.43 26.5
10 -22 -24 706.13 24.3
22 24 10 728.13 25.9
22 -24 -10 718.43 24.4
24 10 22 695.93 23.4
10 22 24 689.73 24.8
-10 24 22 719.03 26.7
24 -22 10 720.03 26.5
12 24 22 711.53 25.2
12 -24 -22 731.33 24.9
22 -24 12 711.13 27.5
24 -22 -12 687.13 24.9
22 -12 -24 717.43 27.6
24 22 12 677.53 25.7
-12 22 24 712.23 28
22 -24 -12 688.13 25
12 22 24 687.33 24.9
24 -22 12 719.03 27.4
-12 24 22 693.53 27.9
24 12 22 699.83 23.9
24 -12 -22 723.03 27.4
22 24 12 708.63 26.4
12 -22 -24 717.93 24.9
24 22 14 106.19 13.8
22 14 24 121.89 12.8
14 -24 -22 111.79 13.5
22 -24 14 95.79 15.2
14 24 22 127.39 14
24 -14 22 112.39 16.9
22 -14 -24 125.69 16
24 -22 -14 110.99 13.4
-14 22 24 109.39 16.3
24 14 22 117.09 12.9
22 -14 24 112.89 17.4
24 -14 -22 108.79 15.3
22 -24 -14 105.19 12.9
-14 24 22 98.79 15.8
14 22 24 109.49 13.6
24 -22 14 105.99 15.3
22 24 14 118.69 14.4
14 -22 -24 121.89 14.2
22 -16 -24 -3 16.3
16 -24 -22 6.4 14.2
-16 22 24 -3.7 16.8
24 22 16 1.1 14.8
24 -16 22 -4.6 17.7
24 -22 -16 2.2 12.9
22 -24 16 -0.2 16
16 -22 -24 3.2 14.4
24 -16 -22 -3.9 15.6
22 24 16 -16.4 14.6
24 -22 16 3.6 16.1
22 -24 -16 -3.3 12.9
-16 24 22 5.7 16.4
16 -24 22 9.7 18.7
22 -16 24 2.9 18.3
-18 22 24 5 18.9
18 -22 24 12.5 20.9
24 -18 22 21 19.7
22 -24 18 12.7 18.9
24 -22 -18 21.9 15.7
18 -24 -22 26.8 15.1
22 -18 -24 18 17.4
22 -24 -18 9 14.9
24 -18 -22 16.7 17
18 -22 -24 27.7 16.3
18 -24 22 19.6 20.1
24 -22 18 17.8 19.2
22 -18 24 7.3 19.8
20 -22 24 297.67 25.1
22 -20 -24 272.97 21
24 -20 -22 289.07 21.4
20 -24 22 306.57 25
20 -22 -24 297.87 20.8
22 -20 24 314.17 25.7
0 24 24 446.16 18.2
24 -24 0 529.45 18.9
24 24 0 472.35 19.9
-2 24 24 172.58 13.3
2 24 24 152.48 13.4
24 -24 -2 159.08 13.2
24 -24 2 144.99 12.5
24 -2 -24 169.58 14.7
24 24 -2 163.48 16.2
24 24 2 150.58 15.4
-4 24 24 30.6 12.7
4 24 24 35.3 12.4
24 -24 -4 47.5 12.2
24 -24 4 28.4 11.7
24 -4 -24 40.3 14.3
24 24 -4 32.2 16.3
24 24 4 27.5 13.4
-6 24 24 84.19 12.8
6 24 24 95.99 13.3
24 -24 -6 92.59 12.4
24 -24 6 80.89 12.5
24 -6 -24 117.49 15.3
24 24 -6 79.29 17.7
24 24 6 91.19 14.3
-8 24 24 4.3 13.9
8 -24 -24 0.3 11.9
8 24 24 -0.2 12.5
24 -24 -8 4.6 12.7
24 -24 8 1.2 13.5
24 -8 -24 1.9 15
24 24 8 -6.5 13.8
-10 24 24 210.28 16.8
10 -24 -24 241.38 14.8
10 24 24 249.97 15.5
24 -24 -10 225.38 15.3
24 -24 10 242.68 16.9
24 -10 -24 254.07 17.7
24 10 24 224.28 14
24 24 10 217.28 16.5
-12 24 24 157.88 17.4
12 -24 -24 163.68 14.6
24 -24 12 131.89 16.3
24 -12 -24 155.68 17.3
24 24 12 128.09 15.6
-14 24 24 -2.4 16.7
14 -24 -24 -6.7 14.8
24 -24 -14 -5.9 14.8
24 -24 14 -2.2 17
24 -14 -24 0.1 17.6
24 -14 24 -9.5 19.1
24 24 14 2 15.9
16 -24 -24 34.9 16.5
24 -16 -24 53.09 19.6
24 -16 24 42.6 20.5
18 -24 24 8.1 24.3
24 -18 -24 -4.4 19.9
-1 -25 -1 1580.74 36.2
-1 -25 1 1577.54 36.2
-1 -1 25 1546.75 35.8
-1 1 25 1529.95 36
-1 25 -1 1595.54 37
-1 25 1 1597.04 37.1
1 -25 -1 1572.44 36.2
1 -25 1 1571.24 36.2
1 -1 25 1447.86 35.8
1 1 25 1502.35 35.9
1 25 -1 1576.14 37.1
1 25 1 1566.74 36.9
-3 -25 -1 1.5 5.1
3 -25 1 -0.1 5.2
1 -25 -3 -0.4 5.1
-3 25 1 3.6 6.4
-1 25 -3 -1.6 6.6
-1 3 25 -2.3 5.4
1 -3 25 -1.5 5.2
3 1 25 -0.8 5.2
25 -3 -1 2.1 6.9
1 25 3 2.8 6.4
3 25 -1 0.5 6.7
-1 -25 3 -1 5.2
-3 -1 25 1.7 5.4
25 1 -3 2.7 6.7
3 25 1 0.8 6.4
-3 -25 1 -0.6 5.1
3 -1 25 -4.2 5.4
1 3 25 0.2 5.3
1 25 -3 5.4 6.6
1 -25 3 -2.8 5.2
-1 25 3 -3.7 6.5
-3 25 -1 -0.9 6.3
3 -25 -1 -1 5
25 -1 -3 -0.7 7.1
-3 1 25 -4.7 5.5
-1 -25 -3 0.5 5.1
-1 -3 25 2 5.2
-3 3 25 546.05 16.5
3 25 3 595.14 17.5
25 -3 -3 583.84 18
3 25 -3 563.44 17.8
-3 25 3 593.44 17.7
3 -25 -3 580.24 16.2
3 -25 3 579.24 16.4
3 -3 25 569.64 16.1
3 3 25 568.84 16.3
-3 -25 -3 578.74 16.2
-3 -25 3 522.75 16.1
-3 -3 25 592.74 15.9
-3 25 -3 581.64 17.8
-5 -25 -1 85.59 6.4
5 1 25 92.79 6.8
25 -5 -1 87.59 8
1 25 5 91.89 7.4
-5 25 1 99.39 7.8
5 25 -1 88.99 7.8
-1 5 25 87.69 7
1 -5 25 94.59 6.5
25 1 -5 72.39 8
5 -25 1 88.29 6.5
-1 -25 5 79.69 6.5
-5 -1 25 93.59 6.7
-1 25 -5 82.39 7.8
1 -25 -5 88.99 6.4
-1 -5 25 99.89 6.3
-5 1 25 102.59 7
-1 25 5 99.29 7.9
-1 -25 -5 85.79 6.5
1 -25 5 83.59 6.8
1 25 -5 91.49 8.2
25 -5 1 93.49 8.4
5 -1 25 99.49 6.6
5 -25 -1 95.69 6.7
-5 -25 1 84.69 6.6
-5 25 -1 94.69 7.6
1 5 25 91.59 7.1
5 25 1 96.19 7.8
25 -1 -5 72.19 7.8
-3 -25 5 960.5 23.3
-3 25 -5 904.51 24.6
-3 5 25 939.81 23.6
5 3 25 949.01 23.4
-5 -25 -3 932.41 23.1
3 -25 -5 956.4 23.4
3 -5 25 923.81 22.9
5 -25 3 933.41 23.6
-5 -3 25 961.4 22.8
5 25 -3 925.61 24.5
25 3 -5 858.01 24.6
25 -5 -3 913.31 24.6
-5 25 3 948.71 24.5
3 25 5 980.2 24.3
3 -25 5 915.91 23.6
-5 -25 3 879.61 23.1
-3 -25 -5 924.21 23.2
-5 3 25 902.01 23.5
-3 -5 25 966 22.6
5 -3 25 899.81 23.1
3 5 25 930.81 23.4
-3 25 5 933.41 24.5
5 -25 -3 919.11 23.3
-5 25 -3 905.01 24.5
25 -5 3 968.3 24.9
5 25 3 942.81 24.3
25 -3 -5 877.61 24.4
3 25 -5 910.11 24.4
5 25 -5 1345.37 33.7
-5 -25 5 1351.76 32.8
-5 -5 25 1415.76 32.1
-5 5 25 1360.36 33.2
-5 25 -5 1419.36 34.1
5 25 5 1393.76 33.8
25 -5 -5 1397.66 34
5 -25 5 1382.16 33.2
5 5 25 1436.36 33
-5 -25 -5 1395.06 32.8
-5 25 5 1440.76 34.1
5 -25 -5 1395.06 32.9
-7 25 1 157.38 8.8
7 -25 1 161.48 8.3
-1 -25 7 150.28 7.8
25 -7 -1 150.18 9.2
7 25 -1 146.09 8.9
-7 -1 25 158.58 7.8
1 -7 25 151.68 7.3
25 1 -7 143.49 9.2
1 25 7 145.89 8.5
7 1 25 153.98 7.8
-1 25 -7 150.18 9.2
-1 7 25 151.38 8.3
1 -25 -7 161.28 8
7 -25 -1 147.19 8.1
-7 25 -1 154.38 9
-1 -25 -7 140.39 7.3
1 -25 7 138.99 8
1 25 -7 139.29 9.1
-7 1 25 155.88 8.2
25 -1 -7 145.59 9.4
-1 -7 25 163.98 7.2
-1 25 7 154.28 8.8
25 -7 1 153.38 9.3
1 7 25 153.58 8
7 25 1 143.69 8.8
7 3 25 272.37 11.4
25 -7 -3 237.98 10.5
3 -25 -7 263.27 9.8
-3 -25 7 247.28 9.6
-7 25 3 241.38 10.5
-3 7 25 241.48 10.1
-7 -3 25 250.97 10.7
7 -25 3 265.57 10
7 25 -3 249.38 10.9
25 3 -7 249.38 10.8
3 25 7 257.67 10.6
-7 3 25 248.68 10
3 25 -7 248.98 11
3 -25 7 228.98 9.8
-3 -25 -7 261.57 10.9
25 -7 3 244.78 10.9
3 7 25 274.27 10.4
7 -25 -3 234.38 9.3
7 25 3 253.57 10.8
25 -3 -7 230.48 10.9
-7 25 -3 225.98 10.3
-3 25 7 252.07 10.8
-3 -7 25 272.67 9.9
-7 -25 3 236.38 9.3
7 5 25 767.82 20.2
5 -25 -7 727.83 19.9
5 25 7 771.02 21
-7 25 5 715.93 21.2
-5 7 25 725.53 20.7
25 -7 -5 744.33 21.3
25 5 -7 782.02 21.5
-5 -25 7 740.93 19.7
7 25 -5 760.22 21.6
7 -25 5 747.53 20.7
25 -5 -7 733.73 21.2
-7 5 25 724.13 20.5
7 25 5 757.12 20.9
5 7 25 755.02 20.2
25 -7 5 719.73 21.7
-5 25 7 790.82 21.4
-5 -25 -7 736.73 19.8
5 -25 7 753.92 20.6
5 25 -7 714.33 21.3
-7 -25 5 738.43 19.7
7 -25 -5 788.72 20.1
-7 25 7 237.18 10.9
25 7 -7 224.78 10.9
25 -7 -7 192.88 10.1
-7 -25 7 223.68 9.1
-7 7 25 219.18 10.1
7 25 -7 225.58 10.6
7 25 7 236.68 10.3
7 7 25 213.88 9.2
7 -25 7 228.48 10.2
7 -25 -7 191.38 8.6
-9 25 1 320.97 12.2
-1 -25 9 279.27 12.2
-1 9 25 301.77 12.8
1 -25 -9 276.07 11.8
9 25 -1 288.07 11.5
9 -25 1 307.37 11.5
25 1 -9 279.47 11.7
9 1 25 288.67 12.1
1 25 9 299.57 11.6
-9 -1 25 305.57 12.3
25 -9 -1 286.77 11.7
1 -9 25 281.07 11.1
1 9 25 293.17 12.6
9 -25 -1 281.17 12.2
9 25 1 286.37 11.4
25 -9 1 322.67 12.6
1 -25 9 286.57 12.5
25 -1 -9 278.87 11.5
-9 25 -1 261.87 11
-1 25 9 335.37 12
-1 -9 25 287.17 10.8
-1 -25 -9 289.87 11.9
-9 1 25 298.17 10.9
-3 -25 9 67.69 6.9
-9 -3 25 73.39 6.3
25 3 -9 72.09 8.1
-3 9 25 70.29 7.8
-9 25 3 78.59 8
3 25 9 74.19 7.8
9 3 25 65.79 6.7
25 -9 -3 71.99 8.3
3 -25 -9 70.49 6.4
9 25 -3 71.79 8.2
9 -25 3 75.09 7.6
-9 3 25 76.79 7.7
9 25 3 72.29 7.9
3 25 -9 69.69 8.4
-3 25 9 65.49 7.5
25 -3 -9 65.39 8.1
3 9 25 66.19 7.1
25 -9 3 89.09 8.8
-3 -25 -9 74.89 6.6
9 -25 -3 69.09 7
3 -25 9 52.19 7.3
9 5 25 398.86 13.8
-5 9 25 376.06 14.7
25 5 -9 375.46 15.1
25 -9 -5 383.76 15.3
-9 25 5 396.16 15.2
9 25 -5 364.96 15.8
9 -25 5 389.46 14.5
5 -25 -9 370.66 13.4
5 25 9 385.16 14.8
-5 -25 9 385.76 13.4
9 25 5 388.96 15.2
5 -25 9 364.26 14.8
25 -5 -9 369.66 15.5
5 25 -9 377.36 15.7
-9 5 25 375.36 14.9
9 -25 -5 370.86 13.5
25 -9 5 393.86 15.9
-5 25 9 381.66 15.6
5 9 25 394.26 14
9 25 -7 33.3 8.1
25 -9 -7 31.8 8.2
-7 9 25 35.9 7.9
9 7 25 36.1 6.9
7 25 9 30.6 7.2
25 7 -9 33 8.1
7 -25 -9 41.9 6.7
9 -25 7 38.5 7.3
-9 25 7 29.1 7.1
7 25 -9 34.1 8.1
7 9 25 36.5 7
-9 7 25 34.1 8.1
9 25 7 41.2 7.7
-7 25 9 39.1 8
25 -7 -9 31.8 8
25 -9 7 23.7 8.1
9 -25 -7 28.2 6
7 -25 9 32.2 7.5
25 -9 9 110.19 9.5
9 25 -9 117.89 9.6
25 -9 -9 110.99 9.2
9 9 25 126.59 8.3
9 -25 9 113.39 8.8
25 9 -9 114.89 9.3
9 25 9 120.39 9
-9 9 25 122.19 9.6
-9 25 9 107.79 8.8
9 -25 -9 113.09 7.7
1 25 11 484.05 16.5
25 -11 -1 478.15 16.9
-1 11 25 468.65 16.1
11 -25 1 485.25 15.8
1 -25 -11 460.15 15
25 1 -11 463.45 16.5
11 25 -1 473.95 17
-1 -25 11 471.25 15.3
-11 25 1 465.05 16.8
-11 -1 25 472.05 15.2
-11 1 25 466.25 15.9
25 -11 1 492.85 16.8
25 -1 -11 451.35 16.8
-1 -11 25 434.76 13.7
-1 -11 25 457.55 15.8
-1 25 11 492.55 16.5
11 -25 -1 454.25 15.7
-1 -25 -11 461.05 14.8
1 11 25 454.55 16
1 -25 11 458.35 15.9
11 25 1 467.45 16.7
-11 25 3 0.8 7.4
11 3 25 -0.7 6.4
11 -25 3 1.7 6.9
3 25 11 2.5 6.8
-3 11 25 3.4 7.2
3 -25 -11 2.8 5.9
-3 -25 11 4.9 6.5
11 25 -3 6.7 8
25 3 -11 8.4 7.4
25 -11 -3 -5.4 6.9
11 25 3 2.9 7.4
3 11 25 4.5 6.4
25 -3 -11 -4.4 7.8
-11 3 25 1.1 7.5
11 -25 -3 2 6.5
3 -25 11 -1.8 7.2
-3 25 11 1.6 7.1
-3 -25 -11 0.3 6.2
25 -11 3 2 7.9
25 5 -11 52.49 8.2
11 5 25 61.29 7.3
5 25 11 54.59 7.8
25 -11 -5 55.49 8.5
-11 25 5 48.3 8.1
-5 11 25 43.9 7.8
5 -25 -11 50.59 6.8
11 -25 5 64.79 7.9
11 25 -5 47.3 8.8
25 -5 -11 53.09 8.5
-5 25 11 47.3 8.1
5 11 25 61.99 7.5
11 -25 -5 43 6.6
5 -25 11 49.1 7.9
25 -11 5 55.39 8.8
11 25 5 61.39 8.4
-11 5 25 53.69 8.4
-11 25 7 97.99 9.2
11 25 -7 80.09 9.5
7 25 11 86.79 8.6
11 -25 7 96.79 8.8
-7 11 25 72.79 8.8
25 7 -11 91.79 8.7
11 7 25 93.49 8
7 -25 -11 98.99 7.9
25 -11 -7 69.59 8.7
25 -7 -11 84.29 9
11 -25 -7 88.39 7.6
7 11 25 80.09 7.8
-7 25 11 86.59 9
11 25 7 84.09 8.6
7 -25 11 84.09 8.8
25 -11 7 85.19 9.3
-11 7 25 81.19 9.2
11 -25 9 332.37 13.1
-9 11 25 335.87 13.4
25 -11 -9 335.37 13.5
25 9 -11 333.47 12.4
9 -25 -11 340.77 13.6
11 25 -9 313.37 12.9
-11 25 9 366.86 14
9 25 11 323.97 12.8
11 9 25 323.17 14.1
9 11 25 328.97 14
25 11 -9 349.47 13.2
9 -25 11 300.67 12.8
-9 25 11 357.46 13.6
25 -11 9 357.06 14.4
11 -25 -9 333.17 13.7
11 25 9 329.77 12.8
25 -9 -11 336.87 13.3
-11 9 25 345.07 13.6
25 11 -11 522.85 16.6
25 -11 -11 559.54 19.3
11 -25 11 543.65 19.4
11 11 25 585.24 17.8
11 25 11 565.34 18.9
11 -25 -11 554.04 17.4
25 11 -11 526.25 18.2
-11 25 11 546.05 19.1
25 -11 11 563.84 20.1
-11 11 25 577.34 19.8
1 -25 -13 109.89 7.8
25 1 -13 114.69 9.1
13 -25 1 109.89 8.7
-1 13 25 102.19 8.6
1 25 13 99.29 8.7
25 -13 -1 116.49 10
13 25 -1 96.39 9.2
1 13 25 118.89 8.9
1 -25 13 100.19 8.7
13 -25 -1 103.19 8.7
13 25 1 116.79 9.4
25 -1 -13 103.49 9.1
-1 25 13 107.19 8.9
-1 -13 25 106.79 6.6
25 -13 1 106.99 9.5
-1 -13 25 111.79 8
-13 1 25 97.89 9
-1 -25 -13 116.39 7.7
25 3 -13 242.08 11
13 25 -3 253.87 11.9
-3 13 25 242.78 11.1
3 25 13 249.08 11.1
-13 25 3 254.17 12.2
3 -25 -13 259.47 10.3
13 -25 3 237.08 11.2
25 -13 -3 261.77 11.9
3 -25 13 250.77 11.2
25 -13 3 240.58 11.8
3 13 25 248.58 11
13 -25 -3 232.88 10.7
25 -3 -13 241.98 11.4
-3 25 13 211.08 10.5
13 25 3 238.28 11.5
-13 3 25 245.58 11.4
25 -13 -5 412.46 16.6
5 25 13 401.76 16.1
13 5 25 385.86 14.8
-5 13 25 413.26 16.4
-13 25 5 403.46 16.7
25 5 -13 401.86 15.8
5 -25 -13 412.26 14.4
13 -25 5 404.16 15.8
13 25 -5 421.26 17.6
5 13 25 403.16 15.5
13 -25 -5 400.46 15
5 -25 13 449.95 16.7
25 -5 -13 400.46 16.7
25 -13 5 408.06 16.7
25 13 -5 425.16 15.2
-13 5 25 385.66 17.1
-5 25 13 400.96 16.4
13 25 5 422.66 16.6
-13 25 7 17.7 8.2
13 -25 7 16.7 8.1
25 7 -13 20.4 7.9
-7 13 25 15.1 8.6
25 -13 -7 14.4 8.3
13 25 -7 5.6 9.5
13 7 25 13.8 7.4
7 25 13 20.4 8.2
7 -25 -13 14.2 7
13 25 7 17.3 8.2
7 13 25 19.3 7.5
25 13 -7 13.7 7.5
25 -7 -13 23.1 8.4
7 -25 13 15.8 8.9
25 -13 7 12.4 8.5
-7 25 13 15.7 8.6
-13 7 25 13.3 9.1
13 -25 -7 13.5 6.3
25 -13 -9 21.5 8.8
13 9 25 26 8
13 -25 9 22.7 8.8
-9 13 25 28 9.2
-13 25 9 32 8.3
13 25 -9 28.4 9.3
9 25 13 29.6 8.4
9 -25 -13 25.9 7.5
9 13 25 30.2 7.6
-13 9 25 23.1 10
9 -25 13 26.1 9.1
13 25 9 30.2 8.5
-9 25 13 26.6 9
25 13 -9 25.8 9.6
25 -9 -13 33.5 9
13 -25 -9 24.2 6.6
25 13 -9 24.6 7.9
25 -13 9 24.8 9
11 25 13 104.89 9.8
13 -11 -25 99.89 9.6
25 -13 -11 87.39 10
11 -25 -13 92.79 8.6
13 11 25 87.29 8.3
25 -11 13 85.99 10.8
-13 25 11 102.29 10.3
-11 13 25 109.19 10.8
13 -25 11 97.19 10.1
25 -11 -13 101.99 10.4
25 -13 11 93.59 10.6
13 25 11 107.79 10
11 -25 13 97.49 10.7
11 13 25 75.59 7.9
13 -25 -11 93.39 8.3
-13 11 25 95.79 10.8
11 -13 -25 109.79 9.6
-11 25 13 79.39 9.3
-13 13 25 43.5 10.9
13 -25 13 50.59 10.6
13 25 13 32.9 9.3
13 -25 -13 42.5 8.8
13 13 25 44.3 8.9
-13 25 13 34.3 10
25 -13 -13 41.3 9.8
13 -13 -25 48.6 9.7
25 -13 13 43.7 11.1
25 15 1 6.5 7.9
25 1 -15 3.1 8.3
15 -25 1 3.5 7.9
1 -25 -15 7.8 6.9
15 25 -1 0 9.1
1 25 15 6.5 7.9
-1 15 25 0.2 8
25 -15 -1 5.3 7.8
25 15 -1 2.5 7.9
-1 25 15 3.8 8.2
15 -25 -1 3.8 7.5
-1 -25 -15 4.6 6.8
15 25 1 0.7 9
25 -1 -15 3.4 8.4
25 -15 1 3.2 8.1
1 15 25 4.4 7.9
3 -25 -15 746.43 21.3
25 3 -15 761.72 22
15 25 -3 801.62 23.5
25 -15 -3 744.23 23.1
25 15 3 799.82 21.9
15 -25 3 779.42 22.2
-3 15 25 737.13 22.6
3 25 15 766.22 22.5
15 -25 -3 764.32 22.1
25 -3 -15 734.43 22.4
3 15 25 778.12 22.3
-15 3 25 745.43 23.5
25 -15 3 775.42 23
-3 25 15 745.53 22.5
25 15 -3 793.82 22.1
15 25 3 793.92 23.1
-15 25 5 1541.75 37.4
25 15 5 1514.35 36.4
15 25 -5 1537.35 37.6
15 -25 5 1482.05 37
-5 15 25 1489.95 37.2
25 -15 -5 1504.45 37.2
5 -25 -15 1483.55 35.9
5 25 15 1481.05 36.9
15 5 25 1490.55 36.2
25 5 -15 1499.25 35.7
-5 25 15 1493.25 36.9
15 -25 -5 1536.15 36.6
-15 5 25 1477.65 37.7
25 -15 5 1547.55 37.4
5 15 25 1436.26 36.5
25 -5 -15 1484.05 37
5 -25 15 1520.85 37.3
15 25 5 1471.05 37
25 15 -5 1550.44 36.4
15 -25 7 503.35 18.6
15 25 -7 517.55 20.3
25 -15 -7 534.65 19.1
15 7 25 507.85 17.1
-15 25 7 492.85 19
25 15 7 520.55 17.9
7 25 15 518.95 18.9
-7 15 25 495.75 19.4
7 -25 -15 495.65 16.9
7 -25 15 513.35 19.6
15 -25 -7 492.75 17.3
15 25 7 523.75 18.8
25 15 -7 496.25 17.4
-7 25 15 494.85 19.1
25 -15 7 502.55 19.5
25 -7 -15 502.55 18.8
-15 7 25 515.15 20.4
7 15 25 493.55 17.7
25 15 9 69.69 9.3
15 25 -9 68.79 10.7
-9 15 25 52.79 10.1
-15 25 9 76.99 10.1
9 25 15 60.29 9.5
15 -9 -25 70.59 9.5
15 -25 9 53.69 9.4
25 -15 -9 64.39 9.7
9 -25 -15 59.79 7.9
15 9 25 73.59 9.2
15 25 9 68.89 9.7
25 15 -9 66.79 8.9
9 -25 15 57.29 10.7
-9 25 15 54.99 9.5
25 -9 -15 58.49 10
15 -25 -9 53.39 7.6
-15 9 25 62.69 11.2
9 15 25 67.79 9
25 -15 9 68.39 10.8
-15 25 11 0 9.6
11 -25 -15 6.4 8.2
25 15 11 9.8 9.2
11 25 15 -3.3 9.1
15 11 25 4.7 8.4
15 -11 -25 10.9 9.5
25 -15 -11 8 9.4
11 -15 25 -3.6 12
-11 15 25 12.6 10.5
15 -25 11 9.5 9.9
25 -15 11 3.2 10.4
11 15 25 6.9 8.8
-15 11 25 4.7 11.2
11 -25 15 -0.4 10.3
11 -15 -25 2 9
25 -11 -15 0.2 10
15 -25 -11 7.9 7.9
15 25 11 1.2 9.2
-11 25 15 7.9 9.8
13 -25 -15 107.99 9.9
-15 25 13 127.99 11.8
-13 15 25 131.69 12.6
25 -13 15 112.79 12.5
15 13 25 105.49 9.9
15 -13 -25 145.39 11.4
13 25 15 127.49 11.2
25 15 13 118.89 10.4
25 -15 -13 121.09 11.6
15 -25 13 101.19 11.6
13 -15 25 133.19 14.1
-13 25 15 113.09 11.3
25 -13 -15 117.79 11.4
13 -25 15 107.59 12
13 -15 -25 131.59 11
13 15 25 94.79 9
-15 13 25 118.49 12.7
25 -15 13 130.79 12.7
15 25 13 99.49 10.7
15 -25 -13 144.99 10.7
25 13 15 122.69 10.4
15 -25 15 419.46 17.9
25 15 15 487.95 16.6
15 -15 -25 491.95 17.1
25 -15 -15 381.56 16.2
-15 15 25 386.66 17.6
-15 25 15 399.56 16.6
15 -25 -15 437.86 18.2
15 25 15 438.76 16.7
25 -15 15 405.46 17.1
15 -15 25 461.95 19.3
15 15 25 421.86 15.8
17 -25 1 17.6 8.8
25 1 -17 19.5 8.9
-1 17 25 9.3 9
25 17 1 12.5 9.1
25 -17 -1 14.9 9.4
1 -25 -17 15.9 7.7
17 25 -1 22.2 10.3
1 25 17 12.9 9
17 -25 -1 16.9 8.5
25 17 -1 15.7 8.9
1 17 25 19.5 9
-1 25 17 17.5 8.3
17 25 1 13.6 9.7
25 -1 -17 14.9 9.1
25 -17 1 10.9 9.1
-3 17 25 729.23 22.6
17 25 -3 726.63 23.9
25 3 -17 701.23 20.9
3 -25 -17 734.13 21.1
3 25 17 709.53 22.4
25 -17 -3 758.32 23
17 -25 3 743.03 22.3
25 17 3 737.53 22.3
25 -3 -17 727.33 22.6
17 25 3 698.03 23
17 -25 -3 712.83 22
3 17 25 749.23 22.3
25 -17 3 728.63 23.1
25 17 -3 727.73 22.2
-3 25 17 728.73 22.6
17 25 -5 1297.87 34
25 17 5 1340.87 32.8
17 -25 5 1299.57 33.1
-5 17 25 1294.57 33.7
25 -17 -5 1300.17 33.3
5 25 17 1255.87 32.9
5 -25 -17 1264.67 32
17 -25 -5 1280.17 32.6
25 -17 5 1245.28 33.3
5 17 25 1280.27 32.7
17 25 5 1327.37 33.4
25 -5 -17 1281.77 33
-5 25 17 1252.87 33
25 17 -5 1270.77 32.6
7 -25 -17 435.36 16.7
17 -25 7 424.46 18.6
25 17 7 431.36 18.1
7 25 17 427.96 18.3
17 25 -7 406.36 16.8
25 -17 -7 443.16 18.9
-7 17 25 430.76 16.1
17 7 25 440.86 16.9
17 -7 -25 459.95 18.3
17 -25 -7 436.66 17.4
7 17 25 438.86 17.4
17 25 7 433.36 18.7
25 -7 -17 436.56 18.7
-17 7 25 450.25 17.5
25 17 -7 426.16 17.9
-7 25 17 417.46 16.1
25 -17 7 441.76 19.3
9 25 17 11.5 9.6
25 -17 -9 9.3 9.9
25 17 9 18.1 9.9
17 -9 -25 15.8 10
-9 17 25 19.5 10.5
-17 25 9 12.3 9.6
17 -25 9 9 9.8
17 9 25 14 9.1
17 25 -9 18.5 11.1
9 -25 -17 11.1 8.5
25 -9 -17 16.5 10
25 17 -9 22.4 9.6
25 -17 9 15.9 9.7
17 25 9 12.2 9.9
-9 25 17 15 10.4
9 17 25 16.9 8.7
17 -25 -9 15.3 8.9
9 -25 17 26.1 11.4
-17 9 25 16.4 12.1
-17 25 11 11.6 11.1
17 -25 11 8.3 10.6
17 11 25 11.8 9.2
11 25 17 5.3 9.9
-11 17 25 7.1 11.4
25 17 11 8.8 10.1
11 -25 -17 8.3 8.9
25 -17 -11 17.7 10.6
17 -11 -25 8.9 10.7
11 -17 -25 12.2 9.7
11 17 25 11.3 9.4
11 -25 17 20.8 12.1
25 -11 -17 5.4 10.3
-11 25 17 8.7 10.5
17 -25 -11 6.1 8.7
17 25 11 9.1 10.3
-17 11 25 8 12.7
25 -17 11 10.1 11.3
13 -17 25 173.48 15.9
-13 17 25 191.88 14.1
13 25 17 146.79 11.6
17 -25 13 189.58 14.6
-17 25 13 170.08 13.6
17 13 25 192.58 11.9
25 -17 -13 173.98 12.8
25 -13 17 177.48 14.2
17 -13 -25 188.58 13.1
25 17 13 187.58 12.5
13 -25 -17 189.68 11.7
13 -17 -25 189.28 12.3
17 -25 -13 163.28 11
25 -17 13 158.78 13.1
-13 25 17 187.18 13.4
13 17 25 188.38 12.4
17 25 13 177.88 12.8
25 13 17 160.58 11.2
13 -25 17 176.48 14.1
25 -13 -17 178.28 12.7
-17 13 25 181.08 15.5
-15 17 25 573.94 25.5
-17 25 15 571.84 24.4
15 -17 25 609.24 23.2
25 -15 17 615.34 25.2
15 25 17 590.54 22.7
15 -25 -17 598.04 22.3
25 -17 -15 594.54 23
25 17 15 593.74 22.9
17 -25 15 612.44 25.4
17 15 25 547.05 20.7
17 -15 -25 606.74 23.5
25 -17 15 599.54 25.3
17 -25 -15 596.44 21.9
25 -15 -17 586.84 23
-15 25 17 594.04 24.1
17 25 15 565.64 22.7
15 -17 -25 598.14 22.9
15 17 25 550.74 21.2
17 -15 25 623.84 22.8
-17 15 25 603.64 22.1
25 15 17 608.44 22.1
15 -25 17 600.04 25.6
25 -17 -17 575.04 23.9
17 25 17 550.44 23.3
17 -17 -25 583.04 24.1
17 17 25 532.65 21.6
25 17 17 548.45 23.2
25 -17 17 515.45 21.5
17 -25 -17 575.84 22.6
17 -25 17 597.84 22.6
-17 17 25 573.84 22.2
-17 25 17 560.94 21.1
17 -17 25 577.34 22.9
19 -25 1 24 8.8
-1 19 25 29.4 9.8
25 -19 -1 33.7 10.1
25 19 1 18.1 9.9
19 25 -1 26.7 11.5
1 25 19 25.9 9.9
25 1 -19 21.8 9.3
19 -25 -1 25 9.3
25 -1 -19 19.4 9.7
19 25 1 32.6 11.3
-1 25 19 29.2 9.4
1 19 25 30.1 10
25 19 -1 22.9 10.2
25 -19 1 26.8 10.1
19 -25 3 132.09 11.3
25 -19 -3 106.59 10.7
25 19 3 133.39 11.5
-3 19 25 125.89 11.5
3 -25 -19 131.79 9.8
19 25 -3 129.09 13
3 25 19 121.39 11.2
-3 25 19 124.59 10.7
19 -25 -3 130.69 10.6
25 -19 3 122.19 11.5
25 -3 -19 134.59 11.5
3 19 25 123.49 11.1
19 25 3 131.89 12.3
25 19 -3 136.29 11.6
5 -25 -19 301.37 12.3
19 25 -5 279.47 15.4
19 -5 -25 320.27 13.8
5 25 19 282.67 13.6
25 -19 -5 298.17 13.8
19 -25 5 276.47 13.8
25 19 5 304.77 14.1
-5 19 25 303.97 14.2
19 -25 -5 295.87 13.3
-5 25 19 258.57 13.1
5 19 25 328.17 14
25 19 -5 275.67 14
19 25 5 315.47 14.7
25 -5 -19 299.57 13.9
25 -19 5 277.07 13.5
-7 19 25 50.99 11.2
19 25 -7 44.6 13.5
19 -7 -25 51.29 11.2
19 -25 7 43.3 11.1
19 7 25 48.4 9.5
25 -19 -7 46.1 10.7
25 19 7 43.2 10.6
7 25 19 35.9 10.4
7 -25 -19 47.4 9.2
25 -7 -19 38.2 11
-7 25 19 48.5 11
25 19 -7 35.8 11.4
7 19 25 34.9 9.9
25 -19 7 33.7 10.6
19 25 7 41.4 10.9
19 -25 -7 39.7 9.5
19 25 -9 22.6 12.7
-9 19 25 24.5 11.8
25 -19 -9 31.3 11
19 -25 9 21.9 10.9
19 -9 -25 35.1 11.7
19 9 25 20.3 8.8
9 25 19 19.6 10.6
9 -25 -19 29 9.4
25 19 9 25.4 9.6
25 -9 -19 21.3 11.2
-9 25 19 19.5 11.5
9 19 25 17.8 10.2
19 -25 -9 22.5 9.5
19 25 9 34 11.4
25 -19 9 25.2 11.2
11 25 19 107.99 11.9
19 11 25 114.19 11.6
25 19 11 85.39 10.5
-11 19 25 97.99 13.4
19 -11 -25 110.29 12.9
11 -25 -19 103.29 11
19 -25 11 88.99 12.6
25 -19 -11 104.29 12.2
11 19 25 90.79 11.1
-19 11 25 94.89 15.5
19 25 11 88.89 12
19 -25 -11 75.49 9.8
-11 25 19 104.59 12.9
25 -11 -19 103.29 12.9
25 -19 11 78.59 11.7
11 -19 -25 123.29 11.5
-13 19 25 0.9 13.3
25 -19 -13 1.4 11.4
13 25 19 1.7 11.6
13 -25 -19 3.5 10.6
19 13 25 -9.3 10.3
19 -25 13 1.8 13.1
25 -13 19 7.2 13.7
25 19 13 -2 11.6
19 -13 -25 -0.6 13
-13 25 19 -7.5 12.4
19 -25 -13 3.4 10.3
25 13 19 1.4 10.8
19 25 13 -1.3 12
25 -13 -19 7 12.1
13 -19 -25 3.6 11.5
25 -19 13 -0.3 13
13 -25 19 -6.3 13.8
-19 13 25 -4.5 15.3
13 19 25 5.6 11
19 15 25 326.27 15.4
19 -15 -25 336.47 17.1
-15 19 25 293.57 17.5
15 25 19 329.27 16.1
-19 25 15 235.58 15.4
25 -19 -15 348.87 16.9
25 -15 19 341.67 18.2
25 19 15 337.57 16.4
19 -25 15 337.47 18.3
15 -25 -19 329.67 15.2
15 -19 25 344.17 20.6
-19 15 25 320.77 20.1
15 -19 -25 372.76 16.7
19 25 15 273.97 15.3
25 -15 -19 353.76 17.1
19 -15 25 333.67 20
15 -25 19 329.07 19.1
-15 25 19 319.87 17.2
15 19 25 303.87 15.2
25 -19 15 252.97 16.4
19 -25 -15 273.57 14.9
25 15 19 272.97 14.3
25 -17 19 206.98 17.8
25 19 17 164.68 14.2
25 -19 -17 213.58 16.2
-17 19 25 202.18 18.3
19 -17 -25 219.28 16.4
17 25 19 205.88 15.6
17 -19 25 211.78 19.8
19 -25 17 201.18 18
19 17 25 153.98 13.1
-19 25 17 181.88 16.5
17 -25 -19 196.08 14.6
-17 25 19 189.08 16.7
19 25 17 165.08 14.9
17 -19 -25 215.28 15.8
25 -19 17 203.28 17.8
17 19 25 165.48 13.2
19 -17 25 211.98 19.4
25 -17 -19 228.08 16
25 17 19 195.58 14.4
17 -25 19 173.48 17.9
-19 17 25 215.78 19.2
19 -25 -17 213.08 15.2
25 -19 19 3 17.6
19 -19 25 -5.6 19.7
25 -19 -19 0.3 15.9
19 -25 19 1.9 18.8
-19 19 25 3.1 19.1
19 -25 -19 -12.7 14.8
19 -19 -25 3 15.8
-19 25 19 6.5 17.9
1 25 21 298.97 14.3
25 1 -21 302.37 13.5
21 -25 1 291.17 13.6
-1 21 25 281.27 14.2
21 25 -1 322.37 16.4
25 21 1 351.66 15.7
25 -21 -1 360.96 15.4
25 -21 1 334.17 15.2
25 21 -1 300.87 15.5
-1 25 21 280.87 14.5
25 -1 -21 331.47 14.8
21 -25 -1 308.97 14.2
21 25 1 312.37 15.8
1 21 25 290.07 14.5
-3 21 25 40 11.2
3 25 21 35.8 11.3
25 -21 -3 36 10.5
25 21 3 32.2 11.4
21 -25 3 40.2 11.1
21 25 -3 31.2 13.7
21 25 3 36.5 12.2
25 -3 -21 34.3 11.7
21 -25 -3 30.7 10.3
25 21 -3 35.4 12.5
-3 25 21 40.4 11.2
25 -21 3 30.9 11
3 21 25 38.5 11.1
21 -25 5 23.4 11.4
25 -21 -5 15.2 11
5 25 21 14.6 10.8
-5 21 25 7.6 11
25 21 5 19.6 11.8
5 -25 -21 22.5 9.3
21 25 -5 18.8 14.1
21 -5 -25 27 12.3
25 -21 5 17 11.5
25 21 -5 24.6 13.1
21 25 5 17.1 12.2
-5 25 21 16.8 11.2
25 -5 -21 22.2 12.2
21 -25 -5 15 10
5 21 25 19.8 10.7
-7 21 25 -0.5 11.1
21 7 25 -3.5 10.2
7 25 21 -9.6 11
7 -25 -21 4.4 9.1
25 -21 -7 -4.5 11
21 -7 -25 -4.4 12.7
25 21 7 2.4 11.1
21 -25 7 2.6 10.3
21 25 -7 1 15
25 21 -7 -2.2 13.6
21 -25 -7 -2.4 10.8
-7 25 21 7.8 12
25 -21 7 -0.7 11.6
7 21 25 1.3 10.7
25 -7 -21 -4.8 12.5
21 25 7 -0.5 12
21 -9 -25 205.98 15.1
25 21 9 145.29 12.6
9 25 21 164.18 13.2
25 -21 -9 168.08 13.2
21 -25 9 156.38 13.9
-9 21 25 140.29 14
21 9 25 134.49 10.9
9 -25 -21 176.48 12.3
21 -25 -9 179.58 13.4
25 -21 9 166.58 14.3
9 -21 -25 170.68 12.7
-9 25 21 141.89 13.4
21 25 9 147.39 13.6
25 -9 -21 168.88 14.5
9 21 25 179.98 13.1
21 11 25 447.26 16.9
21 -25 11 387.86 17.8
11 -25 -21 399.26 16.2
-11 21 25 371.06 18.3
21 -11 -25 439.66 18.3
25 21 11 393.66 17.2
25 -21 -11 365.76 16.8
11 25 21 336.77 16.1
11 -21 -25 451.65 16.7
21 25 11 377.76 17.4
21 -25 -11 426.26 17.2
25 -11 -21 431.06 18.5
11 21 25 311.37 15.2
25 11 21 396.16 16
25 -21 11 399.26 18.2
-11 25 21 403.26 18.5
21 -13 -25 126.39 15.7
21 13 25 99.99 12.9
25 -13 21 93.49 16.2
-13 21 25 106.69 16
25 21 13 110.79 13.5
25 -21 -13 106.69 13.8
13 -25 -21 126.69 12.4
13 25 21 81.19 13.2
21 -25 13 111.59 15.3
-13 25 21 100.49 14.4
21 -25 -13 86.29 12.2
25 13 21 120.49 13
25 -13 -21 118.39 15.1
25 -21 13 97.79 15.1
21 25 13 98.39 14
13 21 25 88.29 12.2
13 -21 -25 134.79 13.7
15 -25 -21 44.8 13.3
21 -25 15 55.09 16.3
25 -15 21 41 17
25 21 15 44.2 14.6
-15 21 25 40.8 16.2
21 -15 -25 50.59 16
25 -21 -15 39.4 12.9
15 25 21 45.3 14.4
25 15 21 68.69 15.3
21 -15 25 39.4 19
21 -25 -15 53.09 13.4
15 -21 -25 51.59 14.2
25 -21 15 46.4 16.5
21 25 15 45.9 14.1
-15 25 21 42 15.6
25 -15 -21 39.3 15.3
25 -21 -17 37.5 15.9
21 -17 -25 38.1 17
17 -25 -21 35.6 14.8
-17 21 25 29.5 18.7
25 -17 21 30.8 18.5
21 -25 17 32.4 18.5
17 -21 25 48.7 20.5
17 -21 -25 34.4 15.9
17 -25 21 27 19.5
21 -17 25 32.6 20.4
25 -21 17 18.7 17.5
21 -25 -17 38.3 13.9
25 -17 -21 33.8 16.3
21 -19 -25 59.89 18.6
21 -25 19 53.89 20.7
-19 21 25 41.4 21.7
25 -21 -19 32.4 16.9
19 -21 25 42.1 22.7
19 -25 21 48.1 22.2
19 -21 -25 48 17.9
21 -19 25 49.6 22.2
25 -19 -21 51.29 18.1
25 -23 -1 470.45 18
25 23 1 438.56 18.7
23 -25 1 454.85 17.5
23 25 -1 407.96 19.5
-1 23 25 407.46 17.5
1 25 23 390.86 17.2
25 -23 1 406.76 17.2
23 -25 -1 447.06 17.3
25 -1 -23 428.36 17.7
-1 25 23 422.76 17.4
1 23 25 384.86 16.9
23 25 1 416.76 18.9
25 23 -1 428.06 18.9
3 25 23 17.9 12.1
-3 23 25 18.8 12.6
23 25 -3 14.5 15.8
25 -23 -3 26.3 12.1
25 23 3 12.8 13.8
23 -25 3 18.4 12.2
3 23 25 26.9 12.3
25 -3 -23 33.2 14
25 -23 3 28.4 12.2
-3 25 23 16.4 12.1
23 25 3 12.2 14.2
23 -25 -3 15.6 11.7
25 23 -3 17.7 15.2
23 -5 -25 68.89 14.9
25 -23 -5 41.9 11.4
5 25 23 60.89 12.6
-5 23 25 45.7 13.2
25 23 5 55.99 14.3
23 -25 5 55.49 13
23 25 -5 59.39 17.1
25 23 -5 68.19 16.4
25 -5 -23 69.39 14.8
23 -25 -5 54.89 11.8
25 -23 5 55.79 13.3
-5 25 23 73.89 12.8
5 23 25 52.79 12.5
23 25 5 50.69 14.1
25 23 7 10.7 13.8
23 25 -7 15.3 18
-7 23 25 13.8 13.2
7 -25 -23 13.3 11.2
25 -23 -7 5.3 12.5
7 25 23 7.7 12.5
23 -7 -25 13.4 14.8
23 -25 7 9.4 11.7
23 25 7 16.2 14.1
25 -23 7 17.4 13.3
-7 25 23 12 13.5
7 23 25 15 12.4
23 -25 -7 7.4 11.9
25 23 -7 8.7 17.2
25 -7 -23 15.7 14.8
25 23 9 100.79 14
9 -25 -23 113.09 13.3
25 -23 -9 113.09 14
23 -25 9 99.79 14.6
9 25 23 108.89 13.3
-9 23 25 109.89 15.4
23 9 25 115.99 12.9
23 -9 -25 130.49 16.5
25 9 23 115.69 12.8
23 25 9 109.29 15
23 -25 -9 111.79 13.5
25 -9 -23 132.29 16.4
-9 25 23 117.09 15.6
9 -23 -25 111.99 13
9 23 25 129.79 13.8
25 -23 9 113.49 15.1
23 -25 11 230.48 16.5
23 11 25 222.68 13.9
23 -11 -25 279.57 18.6
11 25 23 222.48 15.5
25 23 11 254.77 16.5
11 -25 -23 270.17 15.4
25 -23 -11 221.18 14.1
-11 23 25 275.97 18.6
11 -23 -25 261.57 15.3
25 -11 -23 279.47 18.2
25 -23 11 279.07 17.6
25 11 23 241.58 14.5
23 25 11 267.07 16.9
11 23 25 212.28 14.9
23 -25 -11 263.77 15.6
-11 25 23 212.98 16.6
23 -25 13 40.8 16.6
25 -13 23 30.8 17.9
23 -13 -25 45.2 17.4
-13 23 25 37.4 17
25 -23 -13 28.6 14.9
25 23 13 24 14.1
13 -25 -23 47.4 14.5
23 25 13 38.5 15.6
23 -25 -13 27.8 12.4
23 -13 25 43.6 18
13 -23 -25 58.09 15.1
25 -13 -23 47.1 17.5
25 -23 13 36.5 15.5
-13 25 23 46.3 17
25 -15 23 24.2 20
15 -25 -23 25.4 15.5
23 -25 15 37.5 18.5
23 -15 -25 36.5 18.2
-15 23 25 31.5 18.6
25 -23 -15 44.5 15.9
23 -15 25 26.4 20.1
15 -23 -25 27.1 15.9
25 -15 -23 27.2 18.5
23 -25 -15 31.4 16.2
23 -17 -25 53.29 19.8
17 -23 -25 66.59 20.3
25 -17 -23 52.19 19.9
23 -17 25 41.3 24.3
17 -25 23 7.8 24
23 -19 -25 15.5 21.5
19 -23 25 18.7 25.8
19 -25 23 17.9 25.1
25 -19 -23 2.1 22.4
-1 25 25 7.7 13.9
1 -25 25 7.8 15.4
1 25 25 10.4 13.6
25 -25 -1 20.1 13.3
25 -25 1 19.5 13.3
25 25 -1 9.7 17.5
25 25 1 6.9 16.9
-3 25 25 207.08 16.4
3 -25 25 237.38 19.8
3 25 25 231.98 15.8
25 -25 -3 261.17 15.6
25 -25 3 246.68 16.1
25 -3 -25 253.77 18.5
25 25 -3 226.08 20.8
25 25 3 238.48 18.6
-5 25 25 565.44 21.9
5 -25 25 613.24 25.9
5 25 25 598.04 26.2
25 -25 -5 592.44 25.6
25 -25 5 602.24 25.5
25 -5 -25 628.44 24.1
25 25 -5 567.74 26
25 25 5 540.45 22.4
-7 25 25 190.58 17.4
25 -25 -7 172.18 15.6
25 -25 7 180.18 16.8
25 -7 -25 214.58 19.8
25 25 -7 142.79 22.5
25 25 7 172.78 17.5
-9 25 25 -2.1 16.8
25 -25 -9 1.5 15
25 -25 9 0.1 15.9
25 -9 -25 0.2 18.8
25 25 9 2.4 16.2
11 -25 -25 18.3 15
25 -11 -25 2.8 19.6
25 25 11 0 17.1
25 -13 -25 100.39 20.8
25 -15 -25 369.96 24.9
0 -26 0 1525.35 35.6
0 0 26 1461.95 35.4
0 26 0 1572.04 36.7
-2 -26 0 155.98 8.1
-2 26 0 150.28 8.9
0 -2 26 151.18 7.8
0 2 26 142.39 8.1
2 -26 0 153.98 7.9
2 26 0 147.79 9.1
26 0 -2 136.89 9.6
0 26 2 161.78 9
2 0 26 135.99 7.7
26 -2 0 143.99 9.4
0 26 -2 135.39 9
-2 0 26 138.79 7.9
0 -26 -2 151.28 8
0 -26 2 137.59 7.7
2 -2 26 68.09 6.8
-2 26 2 70.69 7.9
2 -26 -2 72.19 6.8
2 -26 2 57.19 6.1
-2 -26 -2 73.29 6.6
-2 -26 2 64.99 6.5
-2 -2 26 70.39 6.5
-2 2 26 71.69 7
-2 26 -2 50.19 7.7
2 2 26 68.09 6.6
2 26 -2 71.29 8
2 26 2 67.09 7.9
26 -2 -2 72.59 8.4
4 -26 0 144.89 7.9
4 26 0 161.78 9.4
26 0 -4 140.09 9.4
0 4 26 164.18 8.3
26 -4 0 155.68 9.7
0 26 4 155.68 9
-4 -26 0 138.19 7.7
-4 26 0 152.38 9
0 -4 26 159.48 7.9
-4 0 26 157.58 8.2
0 -26 -4 169.78 8.2
0 -26 4 149.59 8.1
0 26 -4 149.09 9.3
4 0 26 161.28 8.1
-2 4 26 673.03 19.3
4 2 26 698.43 18.8
-4 26 2 695.23 20.5
-4 -26 -2 690.43 18.7
4 -26 2 693.83 19.1
-2 -26 4 660.73 18.7
-2 26 -4 649.34 20.3
4 26 -2 693.33 20.4
2 -26 -4 691.43 18.9
26 2 -4 640.24 20.6
26 -4 -2 691.43 20.5
2 26 4 706.33 20
2 -4 26 711.43 18.8
-4 -2 26 741.53 18.7
2 26 -4 711.83 20.3
26 -4 2 687.43 20.8
-2 -26 -4 685.73 18.7
-2 26 4 707.93 20.3
4 -2 26 669.63 18.8
-2 -4 26 717.63 18.4
4 26 2 691.93 20
26 -2 -4 664.93 20.3
2 -26 4 663.53 18.9
2 4 26 680.33 18.9
4 -26 -2 705.33 18.8
-4 26 -2 692.33 20.3
-4 2 26 695.73 19.1
-4 -26 2 660.73 18.7
-4 -26 4 1127.89 29.6
-4 4 26 1203.98 30.2
-4 26 -4 1224.08 31.2
-4 26 4 1271.57 31
4 -26 -4 1248.78 29.9
4 -26 4 1233.58 30.2
4 -4 26 1184.08 29.7
-4 -4 26 1338.07 29.4
4 26 4 1294.77 30.9
26 -4 -4 1231.28 31
4 4 26 1263.77 30
-4 -26 -4 1223.68 29.7
4 26 -4 1256.37 31
0 -6 26 42.8 6.3
0 6 26 40.8 6.8
6 -26 0 39.2 6.6
6 26 0 46 7.6
26 0 -6 44.9 8
6 0 26 43.4 6.8
-6 0 26 46.9 7
0 26 -6 42.5 8.3
-6 -26 0 46.7 6.6
-6 26 0 41.8 7.3
0 -26 -6 39.7 6.2
0 26 6 42.4 7.5
0 -26 6 35.5 6.4
26 -6 0 41.4 7.9
-6 -26 -2 467.45 14.8
2 -6 26 458.85 14.5
26 -6 -2 468.25 16.8
-2 6 26 467.45 15.5
-6 26 2 475.55 16.4
2 26 6 465.25 16.2
-6 -2 26 472.75 14.9
-2 26 -6 468.55 17
-2 -26 6 423.66 14.8
6 2 26 454.95 15.1
6 -26 2 482.75 15.2
6 26 -2 450.55 16.8
26 2 -6 433.16 16.7
2 -26 -6 487.95 14.8
6 -26 -2 474.25 14.9
26 -6 2 444.96 17.1
26 -2 -6 439.46 16.6
-6 -26 2 436.06 14.6
6 26 2 470.85 16.5
2 6 26 466.95 15.2
2 26 -6 446.26 16.8
-6 26 -2 473.35 16.8
-2 26 6 474.05 16.5
2 -26 6 455.45 15.1
-6 2 26 478.35 15.5
-2 -26 -6 484.25 14.8
6 -2 26 456.05 14.9
-2 -6 26 471.95 14.1
4 -26 -6 1415.86 33.2
6 26 -4 1405.76 34.5
26 -6 -4 1351.56 34.3
26 4 -6 1407.96 34.6
6 4 26 1358.46 33.2
6 -26 4 1399.56 33.5
-6 -4 26 1404.26 32.4
-4 6 26 1400.56 33.6
4 26 6 1436.86 34.1
-4 -26 6 1341.87 33
-6 26 4 1381.76 34.2
-4 26 6 1443.26 34.4
4 -26 6 1363.66 33.5
4 26 -6 1427.86 34.4
-4 -26 -6 1368.06 33.1
26 -6 4 1450.25 34.8
-6 -26 4 1337.37 32.9
4 6 26 1357.26 33.3
6 -26 -4 1386.66 33.1
-4 -6 26 1457.95 32.3
26 -4 -6 1332.97 34.2
-6 26 -4 1413.56 34.5
6 26 4 1409.06 34.1
-6 4 26 1379.56 33.5
-6 6 26 1418.36 34.3
26 6 -6 1441.66 35.1
-6 -26 6 1328.97 33.3
6 26 -6 1454.55 34.9
6 26 6 1415.66 34.5
26 -6 -6 1408.36 34.9
6 -26 6 1427.26 34.2
6 6 26 1402.66 33.8
-6 26 6 1468.25 34.8
6 -26 -6 1387.36 33.7
0 8 26 248.58 10.4
0 -26 -8 273.77 10.2
26 0 -8 251.77 11.7
26 -8 0 236.28 10.9
8 -26 0 246.78 10.2
8 26 0 289.37 11.7
-8 0 26 268.67 10.5
0 -8 26 277.37 9.8
0 26 8 268.07 11.4
8 0 26 276.37 10.4
-8 26 0 240.08 11
0 -26 8 239.28 10.4
26 -8 -2 -2.9 7.5
-8 26 2 5.8 7.7
-2 -26 8 2 6.4
-2 8 26 10.5 6.9
8 26 -2 6.8 7.9
8 2 26 3.9 6.3
26 2 -8 5.4 7.8
-8 -2 26 7 6.5
2 26 8 4.8 7
2 -26 -8 4.7 5.8
8 -26 2 8.2 6.5
2 -8 26 9.3 6.3
2 8 26 10.2 6.7
8 -26 -2 10.5 6.3
26 -8 2 4.5 7.9
8 26 2 8.2 7.6
2 26 -8 9.2 8.1
-8 2 26 7.2 7.1
26 -2 -8 3.8 7.5
-8 26 -2 7.1 7.2
-2 26 8 3.4 7.3
2 -26 8 3 6.6
-2 -8 26 10.3 5.7
-2 -26 -8 9.2 5.9
8 -26 4 441.96 15.9
-8 26 4 445.46 16.5
26 4 -8 454.25 17.1
26 -8 -4 458.65 16.8
4 -26 -8 457.55 14.9
8 4 26 456.05 15.2
-4 8 26 448.36 16.1
8 26 -4 472.35 17.5
4 26 8 444.86 16.3
-4 -26 8 439.76 14.9
4 -26 8 413.56 15.4
8 26 4 446.26 16.4
26 -8 4 466.75 17.3
-4 26 8 436.26 16.8
4 26 -8 440.96 17.4
4 8 26 463.25 15.4
26 -4 -8 449.95 17
-8 4 26 444.46 16.2
-4 -26 -8 455.65 14.7
8 -26 -4 456.65 14.8
26 6 -8 581.24 19.3
8 26 -6 573.74 19.4
8 6 26 553.34 17.6
-6 -26 8 546.95 16.9
8 -26 6 580.74 18.3
-6 8 26 600.64 18.6
-8 26 6 591.54 18.8
6 -26 -8 574.74 17.4
26 -8 -6 580.04 19.2
6 26 8 616.34 18.8
-8 6 26 595.44 18.7
26 -8 6 594.64 19.6
6 -26 8 565.34 18.7
6 26 -8 599.74 19.5
8 26 6 596.44 18.8
6 8 26 578.44 17.7
8 -26 -6 578.04 17.2
-6 26 8 594.94 19.1
26 -6 -8 565.94 19.2
-8 8 26 19.4 8.3
-8 26 8 21.8 8.2
26 -8 -8 20.3 8.7
26 -8 8 18.6 8.6
26 8 -8 11.4 8.8
8 8 26 17.9 6.5
8 26 -8 19.2 8.9
8 26 8 18.9 7.7
8 -26 -8 23 6.9
8 -26 8 14.7 7.8
0 -26 -10 304.87 12.8
10 26 0 310.87 12.7
0 26 10 317.07 12.4
26 -10 0 303.47 12.3
-10 26 0 317.97 12.9
0 -26 10 301.27 11.6
-10 0 26 326.17 11.7
0 -10 26 305.67 12.2
0 10 26 310.37 12
10 -26 0 302.37 13.4
26 0 -10 299.07 12.6
2 -26 -10 9 6.1
10 -26 2 5.8 7.1
10 26 -2 -1.6 8.4
-10 26 2 4.5 7.8
-10 -2 26 -0.9 6.8
2 26 10 -2.5 7.6
26 2 -10 2 8.1
26 -10 -2 4.9 8.2
10 2 26 7.1 6.8
-2 10 26 4.9 7.3
-2 -26 10 8.9 6.9
10 -26 -2 1.7 6.1
26 -10 2 -0.9 8.1
2 10 26 1.2 7
-2 26 10 5.2 7.1
26 -2 -10 6.8 8
-10 2 26 6 7.8
10 26 2 8.4 8.1
2 -26 10 7.4 7.3
-2 -26 -10 4.3 6.1
-2 -10 26 4.8 5.6
10 -26 4 178.08 9.7
-10 26 4 183.98 10
-4 10 26 188.48 10.4
10 26 -4 186.48 11
26 4 -10 201.18 10.8
4 -26 -10 197.48 9.3
10 4 26 214.78 10
26 -10 -4 168.68 10
4 26 10 201.88 10.4
10 26 4 190.98 10.6
4 10 26 185.78 9.5
-4 26 10 194.38 10.2
26 -10 4 186.38 10.8
-10 4 26 179.68 10.3
4 -26 10 179.48 9.9
10 -26 -4 197.18 9.5
26 -4 -10 201.68 11
-6 10 26 174.68 10.3
-10 26 6 149.88 9.9
6 -26 -10 165.28 8.7
10 26 -6 161.48 11
26 -10 -6 153.38 10
10 -26 6 148.09 9.6
10 6 26 142.59 8.9
26 6 -10 157.88 10.1
6 26 10 174.58 10
10 -26 -6 170.48 9.2
-6 26 10 192.98 10.8
26 -10 6 173.68 10.7
-10 6 26 163.08 10.5
6 10 26 176.08 9.6
6 -26 10 161.48 9.9
10 26 6 167.68 10.1
26 -6 -10 143.89 10.1
8 26 10 46.1 8.3
10 8 26 55.79 8
26 8 -10 40 9.2
-8 10 26 40.9 9.2
10 -26 8 42.8 8.3
10 26 -8 33.9 9.7
-10 26 8 39.4 8.5
8 -26 -10 44.5 7.6
26 -10 -8 44.1 9.2
10 -26 -8 48.8 7.3
26 10 -8 38.8 9.9
26 -10 8 41.9 9.5
-10 8 26 38.6 9.2
8 10 26 52.89 7.9
-8 26 10 42 8.7
8 -26 10 43.5 8.7
8 26 -10 46.3 9.7
10 26 8 39.4 8.7
26 -8 -10 45.1 8.8
-10 10 26 229.78 12.1
26 10 -10 248.28 11.9
26 -10 10 241.88 12.4
10 10 26 242.28 10.8
26 -10 -10 267.67 12.3
10 26 10 229.58 11.7
-10 26 10 200.88 10.8
10 -26 -10 193.38 9.3
10 -26 10 236.08 11.7
10 26 -10 240.88 12
0 26 12 102.69 9.2
12 -26 0 93.99 8.5
26 -12 0 103.39 9.9
0 -26 12 89.19 8.4
0 -26 -12 94.19 7.4
-12 0 26 96.49 8.8
12 26 0 101.49 9.8
0 -12 26 102.69 7.4
0 12 26 103.39 9
26 0 -12 87.79 9.5
2 26 12 59.99 8.6
-12 26 2 57.09 9.3
26 2 -12 41.3 9
12 26 -2 63.79 9.7
-2 12 26 54.99 8.5
12 -26 2 64.89 8.1
2 -26 -12 59.29 7.4
26 -12 -2 48.3 8.1
-2 26 12 48.5 8.2
26 -12 2 71.69 9.6
26 -2 -12 55.39 9
2 -26 12 56.99 8.5
12 26 2 58.49 8.9
-2 -26 -12 51.99 7.2
2 12 26 52.09 8.1
12 -26 -2 46.6 7.5
-12 2 26 61.99 8.9
26 -12 -4 465.15 17.8
12 26 -4 450.75 18.8
12 -26 4 478.55 16.9
-4 12 26 446.66 17.5
26 4 -12 464.85 17.6
4 -26 -12 455.65 15.7
-12 26 4 473.25 18.1
4 26 12 461.45 17.3
12 4 26 484.05 16.3
12 26 4 492.05 18.1
26 -12 4 453.55 17.8
26 -4 -12 466.15 17.9
-4 26 12 464.45 17.6
4 12 26 449.86 16.7
4 -26 12 487.85 17.7
-12 4 26 483.55 18.2
12 -26 -4 478.15 16.3
12 6 26 194.88 9.7
26 -12 -6 228.98 11.9
6 -26 -12 213.38 10
12 -26 6 196.58 10.2
-12 26 6 237.08 11.7
12 26 -6 217.08 12.4
6 26 12 196.18 10.8
-6 12 26 207.78 11.4
26 6 -12 209.88 11
6 -26 12 226.08 11.6
12 26 6 212.68 11.3
-6 26 12 227.08 11.6
-12 6 26 223.08 12
26 -12 6 222.58 12.1
26 -6 -12 217.18 11.5
12 -26 -6 206.88 10
6 12 26 223.48 10.8
26 8 -12 2.6 8.8
12 8 26 10.3 7.7
8 -26 -12 5.6 7
26 -12 -8 4.3 8.8
-8 12 26 6.3 9.2
-12 26 8 5.4 8.4
8 26 12 10.6 8.5
12 -26 8 9.6 8.6
12 26 -8 6.9 10.1
-8 26 12 12.2 8.8
26 -8 -12 -0.1 9.3
8 -26 12 10.3 8.9
26 -12 8 8.3 9.6
12 26 8 7.2 8.8
-12 8 26 10.8 9.7
8 12 26 5.7 8.1
26 12 -8 10.4 8.1
12 -26 -8 8.5 7.6
12 -26 10 26.2 9.4
12 10 26 35.7 8
-10 12 26 36.7 10.4
26 -12 -10 26.4 9.6
10 26 12 28.1 9.2
-12 26 10 38.4 9.5
26 -10 12 26.4 10
10 -26 -12 27 7.8
12 26 -10 37.6 10.4
26 10 -12 34.6 9.1
12 -26 -10 27.2 7.7
12 26 10 29.7 9.3
26 12 -10 24.6 8.4
10 12 26 27.1 7.5
-10 26 12 27.9 8.8
10 -26 12 24.7 9.5
26 12 -10 32.3 10.1
26 -12 10 38.9 10.2
26 -10 -12 34.4 9.5
-12 10 26 34.5 10.4
12 26 12 6.4 9.3
-12 26 12 -1.5 9.4
12 12 26 7 8.3
-12 12 26 7.5 11
26 -12 12 6.7 10.4
12 -26 12 6.9 9.9
12 -26 -12 8.1 8.1
26 -12 -12 0.5 9.8
14 26 0 -2.6 9.3
0 14 26 1.4 8.1
0 26 14 2.5 8.5
0 -14 26 -1.8 8.6
0 -14 26 1.8 6.9
26 14 0 -0.7 8.2
14 -26 0 0 7.8
26 -14 0 -2.2 7.8
26 0 -14 -1 8.7
0 -26 -14 2.1 6.9
26 -14 -2 364.86 14.2
2 -26 -14 346.17 14.7
2 26 14 362.66 13.9
-2 14 26 366.76 14
14 -26 2 351.36 13.5
14 26 -2 391.76 14.7
26 2 -14 370.76 13.7
26 14 -2 353.06 15.6
2 14 26 370.56 13.6
14 -26 -2 322.97 12.8
-2 26 14 369.16 14
-14 2 26 362.96 14.1
26 -14 2 373.26 14.8
14 26 2 352.16 14.2
26 -2 -14 355.56 14
26 -14 -4 1318.87 33.4
4 -26 -14 1278.37 31.8
14 26 -4 1320.67 33.9
14 -26 4 1250.87 32.6
26 4 -14 1281.47 32.6
-4 14 26 1281.47 33.2
-14 26 4 1321.87 33.4
14 4 26 1304.17 32.2
4 26 14 1308.67 33
4 -26 14 1322.27 33.4
26 -4 -14 1305.47 33.2
-4 26 14 1243.98 33
14 26 4 1320.37 33.6
26 -14 4 1312.87 33.4
4 14 26 1243.38 32.4
14 -26 -4 1288.97 32.3
26 14 -4 1332.47 32.3
-14 4 26 1339.87 33.6
14 6 26 1003.5 25.6
-6 14 26 914.91 27.1
14 -26 6 941.61 26.3
26 6 -14 966.2 25.9
6 26 14 951.5 26.8
26 -14 -6 956.5 26.8
-14 26 6 937.31 26.9
14 26 -6 990.7 28.1
6 -26 -14 975.4 25.3
-14 6 26 977.8 27.7
6 14 26 959.7 26.1
26 14 -6 960.8 25.8
14 26 6 972 27
-6 26 14 955.7 27
14 -26 -6 948.51 25.7
26 -14 6 941.71 27.2
6 -26 14 982.7 27.3
26 -6 -14 963.2 27.1
14 -26 8 138.39 10.8
14 8 26 148.69 10.3
8 -26 -14 124.99 9.1
-8 14 26 140.99 11.5
26 -14 -8 141.19 11.3
-14 26 8 140.29 11.2
14 26 -8 140.69 12
8 26 14 135.69 10.7
26 -8 -14 143.89 11.5
14 -26 -8 129.29 9.5
14 26 8 132.09 10.8
8 14 26 149.99 10.2
-14 8 26 131.19 12
8 -26 14 142.59 11.6
-8 26 14 123.49 10.5
26 14 -8 118.39 10
26 -14 8 159.18 12
14 -26 10 44.5 9.9
10 26 14 43.7 10
-14 26 10 37.9 9.9
14 26 -10 42.8 11
10 -26 -14 43 8.6
26 14 10 50.99 9.4
26 -14 -10 43.6 10.1
14 10 26 42.7 8.9
-10 14 26 47.3 11.1
10 -26 14 47.2 11.1
26 -14 10 44.7 10.1
26 14 -10 36.5 8.9
26 -10 -14 45.1 10.5
10 14 26 52.19 9
14 -26 -10 34.5 8
-10 26 14 43.9 10.1
26 14 -10 43.8 10.7
14 26 10 37.3 9.7
-14 10 26 49.6 11.6
12 -26 -14 62.09 9.4
14 -26 12 64.99 11
26 -12 14 54.79 11.8
-12 14 26 61.49 12.2
12 -14 26 60.19 13.5
12 26 14 51.99 10.5
14 -12 -26 58.59 10.5
14 12 26 57.69 9.2
26 -14 -12 57.69 10.6
26 14 12 53.39 9.9
-14 26 12 60.49 11
-12 26 14 58.19 10.8
26 -14 12 41.5 11.2
14 -26 -12 42.8 7.9
12 14 26 65.09 9.9
14 26 12 50.39 10.6
12 -26 14 46.7 11.8
-14 12 26 57.39 11.9
26 -12 -14 55.39 11.1
26 -14 14 293.17 15.5
26 14 14 274.47 13.3
14 -14 26 296.57 17.2
26 -14 -14 320.77 15.2
-14 14 26 299.67 16.1
14 -26 14 284.97 15.4
-14 26 14 272.77 14.2
14 -26 -14 301.57 13.2
14 14 26 317.67 13.9
14 -14 -26 320.57 14.2
14 26 14 309.97 14.4
0 16 26 115.79 10.4
16 26 0 121.99 11.7
26 -16 0 124.09 11.2
26 0 -16 119.79 10.6
0 26 16 113.69 10.3
16 -26 0 114.09 10
0 -26 -16 122.49 9.3
26 16 0 125.49 10.5
26 -16 -2 720.73 23.2
2 -26 -16 717.93 21.1
2 26 16 704.53 22.5
-2 16 26 686.73 22.7
16 -26 2 701.23 21.7
26 2 -16 684.13 22.1
16 26 -2 732.43 23.8
26 16 2 705.53 22
26 -2 -16 708.43 22.6
16 -26 -2 687.03 21.8
26 -16 2 694.03 22.7
26 16 -2 690.33 22.2
2 16 26 701.83 22.2
16 26 2 730.63 23.8
-2 26 16 723.13 22.6
4 26 16 2108.19 49.8
26 16 4 2097.59 49.4
-4 16 26 2087.89 49.9
26 -16 -4 2169.08 50.09
16 -26 4 2096.89 49.7
4 -26 -16 2142.79 49.1
16 26 -4 2180.18 50.69
26 4 -16 2028.1 48.7
16 26 4 2120.09 50.09
26 -4 -16 2142.89 49.8
-16 4 26 2152.38 50.89
16 -26 -4 2077.69 49.5
4 16 26 2076.69 49.6
-4 26 16 2060.29 49.8
26 16 -4 2060.99 49.2
6 -26 -16 1733.63 41.2
26 -16 -6 1756.62 42.6
16 6 26 1736.83 41.5
6 26 16 1790.92 42.4
16 -26 6 1712.73 42.4
-6 16 26 1691.33 42.8
16 26 -6 1595.74 43.3
26 16 6 1786.72 41.9
26 16 -6 1716.43 41.6
26 -6 -16 1725.23 42.5
26 -16 6 1706.33 42.8
-16 6 26 1784.92 43.6
6 16 26 1760.82 41.9
16 26 6 1781.32 42.7
-6 26 16 1735.83 42.7
8 26 16 375.36 14.9
16 -26 8 349.67 14.4
-8 16 26 391.76 15.8
16 26 -8 348.77 16.4
16 8 26 380.36 16.7
26 16 8 412.36 15
-16 26 8 420.56 16.6
26 -16 -8 376.56 15.5
8 -26 -16 385.76 16.3
8 16 26 374.56 14.5
26 16 -8 356.96 14.1
16 -26 -8 409.66 14.9
-8 26 16 350.46 14.9
26 -16 8 382.46 16
8 -26 16 391.76 16.5
16 26 8 368.36 15
26 -8 -16 378.26 15.3
-16 8 26 364.36 16.9
26 16 10 136.09 11
16 26 -10 119.79 12.4
-16 26 10 103.79 10.7
16 -10 -26 146.99 12
-10 16 26 128.09 12.6
10 -26 -16 134.69 10
26 -16 -10 114.79 11.5
16 10 26 133.59 10.8
16 -26 10 123.69 11.9
10 26 16 126.89 11.1
-10 26 16 133.49 12.1
-16 10 26 126.09 13.8
16 26 10 124.69 11.6
10 -26 16 139.39 13.4
16 -26 -10 148.09 10.9
26 -16 10 114.59 11.9
26 -10 -16 126.19 11.8
10 16 26 122.79 10.8
26 -12 16 336.97 16.6
12 26 16 351.26 15.2
12 -26 -16 401.76 14.8
-16 26 12 331.67 15.9
-12 16 26 331.87 16.6
26 -16 -12 343.57 15.4
16 -26 12 316.57 14.9
26 16 12 320.77 14.3
16 12 26 343.97 14.3
16 -12 -26 381.66 15.7
-12 26 16 370.86 16.2
12 -26 16 346.77 16.9
26 -16 12 312.77 15.6
-16 12 26 388.96 17.8
16 26 12 365.56 15.8
26 -12 -16 338.97 15.3
12 16 26 350.16 14.5
12 -16 -26 379.86 15
16 -26 -12 371.16 14.6
-14 16 26 722.23 27.7
14 -16 26 760.62 29.9
26 16 14 738.93 24.8
16 -14 -26 763.82 25.4
26 -16 -14 700.43 25.4
26 -14 16 712.63 27
14 26 16 723.13 25.2
14 -26 -16 744.83 24.1
-16 26 14 720.53 26.1
16 -26 14 714.33 26.7
16 -26 -14 725.73 23.7
-16 14 26 778.32 29
16 26 14 693.83 25.2
16 -14 26 783.42 29.3
14 -16 -26 746.03 25
-14 26 16 725.13 25.7
26 -16 14 734.63 27
26 14 16 703.73 23.8
14 16 26 757.82 23.6
26 -14 -16 748.13 25.6
14 -26 16 757.52 27
16 16 26 1066.69 30.6
16 -26 -16 1140.39 31.1
26 -16 16 1093.39 33.9
26 -16 -16 1130.69 32.5
16 26 16 1055.79 31.9
-16 16 26 1138.49 35.3
26 16 16 1091.69 31.3
-16 26 16 1018.2 32.7
16 -26 16 1126.39 34.2
16 -16 -26 1116.29 32
16 -16 26 1087.59 36.2
26 -18 0 6 10.3
26 0 -18 1.6 9.9
18 -26 0 0.6 9.5
0 26 18 4.6 10
18 26 0 -9.9 11.7
26 18 0 -1.3 9.8
0 18 26 -1.5 9.9
2 26 18 242.88 12.8
26 18 2 274.57 13.5
26 -18 -2 259.77 13.4
26 2 -18 261.47 12.5
18 -26 2 227.18 11.9
2 -26 -18 280.97 12.1
18 26 -2 262.87 14.9
-2 18 26 260.27 13.4
-2 26 18 271.37 12.8
26 -2 -18 249.88 13
18 -26 -2 252.87 12.6
2 18 26 244.08 12.9
26 18 -2 260.07 13.5
26 -18 2 270.57 13.9
18 26 2 273.47 14.5
4 26 18 865.51 25.8
18 26 -4 873.61 28.4
-4 18 26 825.52 26.6
26 18 4 883.61 25.4
26 -18 -4 857.81 25.9
4 -26 -18 894.61 24.5
18 -26 4 853.81 25.5
18 -26 -4 853.21 25.4
4 18 26 848.82 25.6
-4 26 18 817.12 25.4
26 -18 4 834.42 26
26 18 -4 849.52 25.9
18 26 4 862.41 26.9
26 -4 -18 839.52 26.1
26 -18 -6 552.44 21.7
6 -26 -18 569.44 19.9
26 18 6 554.14 21.1
18 -26 6 566.64 21.3
6 26 18 588.84 21.4
-6 18 26 567.34 22.5
18 26 -6 558.14 20.5
18 6 26 584.64 19.8
26 -6 -18 568.24 22
6 18 26 562.84 21
18 -26 -6 556.24 20.5
26 18 -6 536.25 21.7
26 -18 6 566.34 22
-6 26 18 585.34 21.8
18 26 6 580.94 22.2
18 26 -8 32.3 14.3
26 -18 -8 22.2 10.9
-8 18 26 32.8 11.6
18 8 26 33.9 9.5
8 26 18 30.2 10.4
26 18 8 37.1 10.9
8 -26 -18 28.6 9.4
18 -26 8 32.3 11.3
18 -8 -26 36.1 11.7
-18 8 26 26.1 14.5
26 -8 -18 25.6 11.6
-8 26 18 37.6 11.6
18 -26 -8 27.8 10.1
26 18 -8 23.9 11.7
8 18 26 26.1 10.2
26 -18 8 28.2 11.3
18 26 8 30.7 11.6
26 -18 -10 2.1 11.4
10 -26 -18 1 9.9
26 18 10 -0.2 11.1
10 26 18 -2.9 11
-10 18 26 -1.2 12.2
18 -26 10 4.1 11.8
18 -10 -26 0.2 12.2
18 10 26 1.6 10.2
18 -26 -10 1.8 10
18 26 10 8.4 11.7
-18 10 26 -0.2 14.5
26 -18 10 -0.6 11.9
26 -10 -18 -5.1 11.7
10 18 26 1.5 10.3
-10 26 18 -4.3 11.5
26 -12 18 45 13.8
12 26 18 54.49 11.9
18 -12 -26 41.8 12.7
26 18 12 43.1 11.7
-12 18 26 55.19 13.8
-18 26 12 48.3 13.1
18 -26 12 54.39 13.4
12 -26 -18 51.09 10.7
18 12 26 47.2 11
26 -18 -12 50.49 12.5
12 -18 -26 54.99 11.8
26 -12 -18 50.09 12.2
18 -26 -12 61.49 11.3
-12 26 18 50.79 12.4
12 18 26 29.9 11.2
-18 12 26 75.09 15.7
12 -26 18 35.9 14.4
26 12 18 56.29 10.9
18 26 12 44.2 12.1
26 -18 12 52.29 13.6
14 -26 -18 395.86 15.9
-18 26 14 351.46 17.2
18 -14 -26 503.75 19
-14 18 26 441.56 19.6
26 -14 18 434.76 19.5
18 -26 14 449.26 19.5
26 -18 -14 487.25 18.7
26 18 14 454.05 17.7
14 26 18 454.55 17.9
18 14 26 356.66 15.7
14 18 26 379.16 16.4
14 -26 18 433.16 19.6
14 -18 -26 494.25 18
26 -18 14 397.66 17.8
18 26 14 446.96 18.2
26 -14 -18 402.06 17.5
-18 14 26 402.96 20.3
18 -26 -14 448.16 17.3
26 14 18 440.66 17
18 -14 26 446.86 21
-14 26 18 454.75 18.8
16 -26 -18 842.82 27.4
26 18 16 777.22 27.3
18 -26 16 805.92 30.7
18 -16 -26 811.92 28.8
18 16 26 733.73 26
26 -18 -16 794.42 28.1
16 26 18 764.42 28
-18 26 16 777.42 29.4
-16 18 26 797.42 32.3
16 -18 26 809.42 33.9
26 -16 18 793.62 30.1
16 -18 -26 826.52 28.3
-18 16 26 766.12 32.8
26 -16 -18 798.82 28.3
18 26 16 778.42 28
-16 26 18 778.82 29.5
26 -18 16 777.82 30
26 16 18 824.02 27.2
16 -26 18 785.02 31.4
18 -16 26 806.72 33.5
16 18 26 751.92 26.7
26 -18 -18 314.77 18.9
26 -18 18 295.27 20.1
18 -18 26 311.97 22.6
-18 26 18 278.57 19.7
18 -26 18 259.07 19.4
18 -26 -18 317.47 17.2
-18 18 26 302.37 21.6
18 -18 -26 312.97 18.4
0 20 26 32.9 11.3
0 26 20 32 10.6
20 26 0 20.3 13.3
26 20 0 33.4 11.7
20 -26 0 32.8 10.9
26 -20 0 24.5 10.9
26 0 -20 32.6 11.5
26 -20 -2 10.2 10.2
26 20 2 14.6 11.8
20 26 -2 2.6 13.7
-2 20 26 14.9 11.3
20 -26 2 3.6 9.9
2 26 20 10.1 10.4
26 -20 2 9.2 10.6
26 -2 -20 12.4 11.8
-2 26 20 4.2 11.4
2 20 26 7.4 10.7
20 -26 -2 6.4 10.4
20 26 2 8.5 12.9
26 20 -2 4.2 12.2
-4 20 26 198.18 13.8
20 26 -4 191.08 16.1
26 -20 -4 194.28 13.3
20 -26 4 195.08 13.1
4 26 20 171.58 12.8
26 20 4 172.48 12.8
4 -26 -20 190.58 11.7
-4 26 20 206.28 13.1
4 20 26 167.78 12.3
20 -26 -4 184.38 12.3
20 26 4 201.68 14.7
26 -20 4 215.58 13.9
26 20 -4 185.48 14.4
26 -4 -20 214.08 13.9
26 -20 -6 145.09 12.8
20 6 26 159.08 11.7
26 20 6 132.69 12.2
6 -26 -20 140.59 10.7
20 -26 6 127.89 11.5
20 26 -6 143.29 16.2
6 26 20 146.69 12.1
-6 20 26 137.29 13.5
26 -6 -20 153.28 13.7
26 20 -6 138.19 14
6 20 26 143.69 12.3
20 -26 -6 161.88 12.6
-6 26 20 131.29 12.7
26 -20 6 158.38 13.4
20 26 6 137.59 13.5
26 -20 -8 -6.1 11.1
20 26 -8 -5.7 15.5
8 26 20 -4.1 11.1
26 20 8 -2.7 10.9
-8 20 26 -0.5 12.4
8 -26 -20 -7.3 10.3
20 8 26 2.8 9.7
20 -8 -26 3.7 13.3
20 -26 8 -2.8 12.2
20 -26 -8 -1 9
-8 26 20 2.7 12.4
8 20 26 -0.9 10.7
26 20 -8 -14.8 13.7
26 -20 8 1.6 12.3
20 26 8 -6 12.6
26 -8 -20 -4.2 12.8
10 -26 -20 58.79 11.5
10 26 20 58.19 12.5
20 -26 10 59.89 13.6
20 -10 -26 73.49 14.5
-10 20 26 70.09 14.3
20 10 26 71.79 11.4
26 -20 -10 73.69 12.9
26 20 10 51.49 12.3
20 -26 -10 56.29 11.1
26 -20 10 74.39 14.3
20 26 10 53.69 13.3
-10 26 20 83.99 13.8
10 20 26 60.79 12
26 -10 -20 63.09 13.8
12 -26 -20 28.2 11.7
26 -20 -12 28.1 13.4
20 -12 -26 30.7 14.8
12 26 20 32.5 12.7
-12 20 26 35.9 15.2
20 12 26 24.7 11.5
26 20 12 27 12.1
26 -12 20 21.3 15.5
20 -26 12 22.7 13.6
20 26 12 28.9 13.6
-12 26 20 24.3 13.7
20 -26 -12 37.1 11.4
26 12 20 38.8 11.6
26 -20 12 19 14.3
12 20 26 25.3 11.7
12 -20 -26 34.8 12.8
26 -12 -20 31.5 14.4
14 26 20 112.39 13.8
14 -26 -20 125.99 13
20 -14 -26 122.29 16.4
20 -26 14 129.99 16.9
-14 20 26 108.49 16.8
20 14 26 113.99 12.9
26 -20 -14 106.79 13.8
26 -14 20 112.99 17.2
26 20 14 135.69 15.1
14 20 26 108.19 13.7
26 -20 14 119.39 16.1
14 -20 -26 130.19 14.7
26 14 20 115.19 13.6
20 -26 -14 96.69 12.3
-14 26 20 88.29 15.2
26 -14 -20 111.69 15.6
20 26 14 141.59 15.5
20 -14 26 122.89 18.7
-16 20 26 396.96 22
20 -16 -26 457.25 21.1
26 20 16 403.26 19.4
26 -20 -16 405.66 19.9
20 -26 16 373.46 21.2
16 -26 -20 368.26 17.6
26 -16 20 333.07 21.2
20 -16 26 384.76 23.3
-20 16 26 366.26 23.3
-16 26 20 435.66 23.1
26 -16 -20 386.66 19.4
26 -20 16 398.86 21
16 -26 20 385.26 22.2
20 -26 -16 439.26 19.2
20 26 16 420.06 19.8
16 -20 -26 403.06 18.9
-18 20 26 54.09 20.9
20 -26 18 51.59 20.1
26 -20 -18 37.3 16.8
18 -20 26 48 22.5
20 -18 -26 61.89 18
26 -18 -20 28.1 17.3
18 -26 20 51.49 20.8
-20 18 26 44.5 21.7
18 -20 -26 51.99 17.4
20 -18 26 57.39 22
20 -20 -26 21 20.3
20 -26 20 8.8 23.4
26 -20 -20 0.6 19.2
20 -20 26 33.8 24.6
26 22 0 298.67 17
22 26 0 291.47 17.8
0 22 26 294.87 15.5
22 -26 0 296.37 15.2
26 0 -22 291.07 15.4
26 -22 0 267.77 14.4
0 26 22 286.57 15.4
-2 22 26 57.49 12.9
26 -22 -2 60.99 12.2
2 26 22 67.49 11.9
22 26 -2 59.39 16.5
26 22 2 67.79 14
22 -26 2 77.49 12.4
22 26 2 58.59 14.7
22 -26 -2 50.79 12
26 22 -2 62.79 14.9
26 -22 2 73.39 12.6
2 22 26 49.8 12.6
-2 26 22 66.19 11.7
26 -2 -22 59.09 13.7
26 22 4 20.2 13.4
-4 22 26 14.5 12.8
26 -22 -4 20.2 12.1
22 -26 4 17.6 12
22 26 -4 15.5 16.8
4 26 22 25.2 12.8
-4 26 22 13.2 11.1
4 22 26 17.4 12.3
26 22 -4 17 15.4
22 -26 -4 13.7 11.7
22 26 4 22.4 14.4
26 -4 -22 21.6 14.5
26 -22 4 23.6 11.8
-6 22 26 59.49 13.1
26 22 6 78.19 13.4
6 26 22 68.69 12.5
6 -26 -22 76.59 10.9
22 26 -6 78.19 18.7
26 -22 -6 65.19 12.4
22 -26 6 74.49 13.7
22 -6 -26 88.79 15.6
26 22 -6 58.19 16.9
22 -26 -6 72.49 12.7
26 -22 6 59.19 13.3
26 -6 -22 77.99 15
-6 26 22 74.19 13.5
6 22 26 72.99 13.1
22 26 6 78.69 14.6
22 8 26 9.8 11.4
-8 22 26 0.6 14.3
22 -8 -26 10.2 15.5
22 -26 8 14.2 13.4
8 -26 -22 8 12.2
26 22 8 8.3 13.8
26 -22 -8 3.8 12.7
22 26 -8 7.3 18.2
8 26 22 13.5 13.4
26 22 -8 6.2 17
22 -26 -8 2.7 10.5
26 -22 8 8.4 13.8
26 -8 -22 -1 15.2
22 26 8 18.9 14
8 22 26 18.5 12.6
-8 26 22 10.3 14.2
10 -26 -22 175.88 13.1
26 22 10 187.28 16.3
22 -26 10 165.48 16.1
22 -10 -26 199.48 18
10 26 22 187.98 15.1
26 -22 -10 179.58 15
22 10 26 196.78 14.4
-10 22 26 181.68 17.1
22 26 10 163.98 15.6
26 10 22 180.88 14
10 22 26 153.58 14.3
26 -10 -22 201.28 17.7
-10 26 22 159.08 16.1
22 -26 -10 149.19 13.7
26 -22 10 199.58 16.3
22 -26 12 115.89 16.7
26 22 12 135.49 15.7
-12 22 26 147.19 18.1
26 -22 -12 129.99 15.3
12 -26 -22 139.39 14.2
22 -12 -26 136.99 17.9
26 -12 22 117.09 18
26 -12 -22 137.99 17.4
12 -22 -26 146.39 15
22 -26 -12 98.49 13.8
26 -22 12 101.89 15.7
22 26 12 102.99 15.5
-12 26 22 108.49 15.4
22 -26 14 0.1 17.8
26 -22 -14 -4.3 15.7
14 -26 -22 14.9 14.2
22 -14 -26 6.2 17.8
26 22 14 9 16.3
26 -14 22 10.2 18
-14 22 26 1.7 18
22 -14 26 6.7 20
26 -22 14 2 17.2
14 -22 -26 13.5 15.5
26 -14 -22 10 18
22 26 14 12.8 16.5
22 -26 -14 0.6 13.6
22 -26 16 119.19 20.4
-16 22 26 114.09 21.8
26 -22 -16 136.39 20.3
22 -16 -26 135.99 20.1
26 -16 -22 144.39 20.4
16 -22 -26 147.39 18.1
22 -16 26 119.59 22.9
18 -22 26 6 27.5
22 -18 -26 7.3 21.3
18 -26 22 5.8 24.7
26 -18 -22 12.5 20.3
26 24 0 135.99 17.7
0 24 26 134.69 15.3
24 26 0 139.39 18.7
26 -24 0 117.09 14.3
24 -26 0 154.98 14.6
0 26 24 129.59 14.8
2 26 24 3.1 13.8
26 -24 -2 5.2 13.6
2 -24 26 -2.9 17.2
24 -26 2 2.3 12.9
26 24 2 2.5 16.2
-2 24 26 10.2 14.4
24 26 -2 -2 18.9
-2 26 24 1.5 13.9
2 24 26 0.4 13.9
26 24 -2 -2.3 18
24 -26 -2 1.6 11.9
26 -24 2 -2 13.3
24 26 2 3.5 16.9
26 -2 -24 -0.8 16.3
2 -26 24 -6.3 17.4
4 26 24 317.87 16.4
26 -24 -4 314.77 16.9
4 -24 26 307.57 21.9
26 24 4 286.67 18.7
24 -26 4 292.37 16.6
-4 24 26 295.77 17.4
24 26 -4 288.77 22.6
4 -26 24 309.07 21.6
26 -4 -24 309.67 19.7
4 24 26 313.77 17.1
26 -24 4 343.77 17.9
24 26 4 312.37 19.6
24 -26 -4 288.07 16
26 24 -4 293.07 21.6
24 26 -6 241.98 23.1
24 -26 6 278.87 17.2
-6 24 26 277.57 18
6 -24 26 278.97 22.6
26 -24 -6 251.37 16
26 24 6 299.07 18.6
24 -6 -26 305.07 20.3
6 -26 24 311.97 23.1
24 26 6 276.57 18.3
26 -24 6 241.98 16.6
6 24 26 231.98 16.4
26 -6 -24 286.17 20.1
26 24 -6 251.67 22.5
24 -26 -6 262.17 15.8
-6 26 24 262.57 17.4
26 -24 -8 26.2 14.8
24 -26 8 14.6 15.4
26 24 8 20.6 16.8
8 -26 -24 12.8 13.4
24 -8 -26 22.8 19.2
-8 24 26 -3.8 16.3
-8 26 24 20 16.3
26 -24 8 21.8 15.7
26 -8 -24 19.7 18.4
24 -26 -8 12.9 14.6
24 26 8 11.1 16.3
24 -26 10 -7.1 16.4
24 -10 -26 -0.6 19.5
-10 24 26 -0.5 17.3
26 -24 -10 4.2 15.7
26 24 10 2.3 16.6
10 -26 -24 7.1 14.4
24 26 10 2.9 16.7
26 -10 -24 7.6 19
24 -12 -26 5.7 20.4
26 24 12 -3 17.7
24 26 12 14.9 17.3
26 -12 -24 0.3 19.6
12 -24 -26 7.7 16.2
24 -14 -26 153.18 22.1
26 -14 -24 148.19 21.6
24 -16 -26 282.67 24.7
26 -16 -24 284.37 24.3
26 26 0 -0.3 21.1
26 26 -2 131.09 23.2
26 26 2 137.99 20.8
4 -26 26 759.72 30.7
26 26 -4 702.23 31.8
26 26 4 740.93 27.6
6 -26 26 511.85 29.4
26 26 6 525.05 24.9
8 -26 26 86.39 25.9
26 26 8 68.39 20.2
26 26 10 76.79 20.6
-1 -27 -1 177.88 8.6
-1 -27 1 185.18 9.1
-1 -1 27 190.88 8.9
-1 1 27 178.38 9
-1 27 -1 184.18 10.1
-1 27 1 178.68 10
1 -27 -1 180.68 8.6
1 -27 1 175.78 8.5
1 -1 27 193.78 9.1
1 1 27 189.88 9.2
1 27 -1 193.88 10.4
1 27 1 192.78 10.3
27 -1 -1 168.08 10.5
-3 -27 -1 135.69 8
3 -27 1 128.49 8.1
1 -27 -3 126.79 7.8
-3 27 1 127.99 9.4
-1 27 -3 140.69 9.9
-1 3 27 125.49 8.2
1 -3 27 129.19 8
3 1 27 115.19 7.8
27 -3 -1 143.29 10
1 27 3 138.09 9.3
3 27 -1 133.89 9.7
-1 -27 3 133.19 8.3
-3 -1 27 131.89 8.1
27 1 -3 125.59 10
3 27 1 122.19 9.4
-3 -27 1 132.59 7.9
3 -1 27 120.59 7.9
1 3 27 136.89 8.5
1 27 -3 116.99 9.3
27 -3 1 125.59 10
-1 27 3 143.19 9.7
-3 27 -1 133.59 9.3
1 -27 3 144.19 8.5
27 -1 -3 119.29 9.9
-3 1 27 134.99 8.5
-1 -27 -3 132.49 7.9
3 -27 -1 132.09 8.3
-1 -3 27 136.59 8
3 27 -3 600.14 19.5
3 27 3 604.74 19.1
27 -3 -3 601.34 19.6
-3 27 -3 585.94 19.4
-3 27 3 623.24 19.5
3 -27 -3 601.44 17.7
3 -27 3 603.04 17.8
3 -3 27 600.74 17.9
3 3 27 615.14 17.9
-3 -27 -3 607.84 17.7
-3 -27 3 581.04 17.7
-3 -3 27 626.94 17.8
-3 3 27 640.84 18.3
1 -27 -5 483.45 15.3
5 -27 1 471.75 15.6
-1 27 -5 470.15 17.6
1 27 5 498.45 17.1
5 27 -1 465.25 17.5
5 1 27 475.45 15.6
27 -5 -1 482.35 17.7
27 1 -5 452.15 17.7
-5 -27 -1 481.55 15.3
-1 5 27 490.35 16.2
1 -5 27 479.65 15.3
-5 27 1 475.35 17.2
-1 -27 5 463.75 15.6
-5 -1 27 471.85 15.8
1 -27 5 465.55 15.5
5 -1 27 468.65 15.7
-5 1 27 489.95 16.2
-1 -27 -5 471.85 15.3
27 -5 1 499.45 18.1
1 27 -5 493.25 17.6
-1 27 5 489.05 17.1
5 -27 -1 461.55 15.3
-5 -27 1 481.85 15.5
-5 27 -1 492.75 17.4
27 -1 -5 458.85 17.6
-1 -5 27 494.45 15.2
1 5 27 487.55 15.9
5 27 1 469.95 17.2
5 27 -3 1105.09 28.7
-5 -3 27 1081.19 26.6
-5 27 3 1114.19 28.2
3 -27 -5 1070.29 27
-5 -27 -3 1080.39 26.8
5 -27 3 1061.59 27.2
-3 -27 5 1023.5 26.8
-3 27 -5 1079.19 28.5
27 -5 -3 1083.79 28.4
3 -5 27 1053.69 26.7
27 3 -5 1074.49 28.8
5 3 27 1065.79 27
-3 5 27 1033.6 27.4
3 27 5 1062.69 28
27 -3 -5 1027.9 28.3
-5 3 27 1094.99 27.4
3 27 -5 1078.69 28.5
-3 27 5 1100.09 28.3
-3 -27 -5 1073.89 26.8
27 -5 3 1100.79 28.7
3 5 27 1085.59 27.1
-5 27 -3 1095.19 28.5
3 -27 5 1051.99 27.1
-3 -5 27 1120.29 26.5
5 -27 -3 1090.99 26.9
5 -3 27 1121.29 26.8
-5 -27 3 1018.1 26.7
5 27 3 1094.29 28.2
5 5 27 1741.33 40.7
-5 -5 27 1726.93 39.8
5 -27 -5 1773.12 40.6
-5 -27 -5 1744.83 40.4
5 27 -5 1693.83 41.8
5 -27 5 1734.13 40.9
5 -5 27 1734.63 40.4
-5 5 27 1720.83 41.1
27 -5 -5 1696.13 41.6
5 27 5 1742.23 41.5
-5 -27 5 1701.63 40.4
27 5 -5 1764.02 42.2
-5 27 5 1776.42 41.5
1 -27 -7 75.69 7.1
-1 -27 7 56.79 7.6
27 -7 -1 54.39 8.6
-1 27 -7 69.09 9.2
7 1 27 66.19 7.6
7 27 -1 67.79 9.2
-7 27 1 66.59 8.8
1 27 7 79.99 8.7
-1 7 27 67.99 8.2
7 -27 1 65.39 7.6
27 1 -7 68.19 9.1
-7 -1 27 76.49 7.9
1 -7 27 72.39 7.4
1 -27 7 66.99 7.8
7 27 1 68.09 9
7 -1 27 54.59 7.3
-1 27 7 81.79 8.7
7 -27 -1 61.89 7
-7 27 -1 70.69 8.9
1 27 -7 71.19 9.6
-1 -7 27 65.29 7.1
27 -1 -7 61.29 9.1
-7 1 27 67.39 8.1
-1 -27 -7 68.29 7.3
27 -7 1 58.49 9.2
1 7 27 63.79 8.1
7 27 -3 700.53 21.7
-3 -27 7 666.73 19.5
7 3 27 675.93 19.5
27 -7 -3 650.73 21.2
-3 7 27 663.93 20
3 -7 27 648.74 19
3 -27 -7 689.23 19.1
7 -27 3 689.33 19.7
-7 -3 27 639.44 18.9
3 27 7 672.43 20.5
-7 27 3 648.74 20.7
27 3 -7 683.13 21.1
-3 27 7 692.13 21.2
-7 3 27 680.13 20.2
3 7 27 679.83 19.8
3 -27 7 680.03 19.7
7 -3 27 676.73 19.4
-7 27 -3 668.03 21.2
27 -3 -7 678.13 21.1
-3 -7 27 683.13 18.5
7 27 3 692.53 20.9
3 27 -7 729.93 21.4
27 -7 3 675.93 21.5
7 -27 -3 670.33 19.2
-3 -27 -7 679.03 19
5 -27 -7 1495.95 35.6
5 27 7 1542.75 36.7
-5 -27 7 1508.45 35.6
7 5 27 1502.55 35.8
7 27 -5 1514.35 37.2
-7 27 5 1481.25 36.7
27 -7 -5 1459.45 37
27 5 -7 1442.46 37
-5 7 27 1486.15 36.4
7 -27 5 1516.55 36.1
27 -7 5 1544.35 37.3
-5 27 7 1499.85 36.9
5 -27 7 1455.95 36
7 27 5 1484.95 36.6
-7 5 27 1511.55 36.4
5 7 27 1510.05 35.9
7 -27 -5 1441.16 35.5
27 -5 -7 1441.66 36.7
5 27 -7 1573.34 37.2
27 -7 -7 1057.79 28.4
-7 27 7 1091.99 28.2
7 -27 -7 1025.8 26.7
7 -27 7 1067.49 27.8
7 7 27 1070.39 27.1
7 27 -7 1036.9 28.6
7 27 7 1040.1 28.1
27 -7 7 1079.09 28.7
27 7 -7 1063.29 29
-7 7 27 1043.2 28.1
27 -9 -1 195.28 11.5
27 1 -9 173.68 11
9 27 -1 185.88 11.1
1 27 9 184.88 10.5
9 -27 1 190.18 10.1
1 -9 27 187.88 9.2
-9 27 1 174.88 10.7
-1 9 27 187.78 10.2
-1 -27 9 186.18 9.8
9 1 27 198.38 10
1 -27 -9 171.58 8.7
-9 -1 27 199.68 9.7
9 -1 27 194.38 9.8
1 -27 9 182.78 9.7
-9 1 27 193.08 10.3
27 -1 -9 177.78 10.8
9 27 1 200.38 11.2
-1 27 9 173.98 10.5
9 -27 -1 178.78 9.4
1 9 27 179.88 9.9
-1 -9 27 193.68 8.8
-9 27 -1 194.78 11.5
27 -9 1 175.78 10.6
-1 -27 -9 204.48 9.5
3 27 9 15.8 7.9
-9 27 3 20.8 8.5
-3 9 27 17.9 7.9
-3 -27 9 20.4 7.4
27 -9 -3 22.2 8.8
3 -27 -9 11.8 6.8
9 -27 3 23.5 7.7
9 27 -3 20.1 9.2
9 3 27 16.9 7.3
27 3 -9 24.6 9
27 -9 3 18 9.1
-9 3 27 30.7 8.6
-3 -27 -9 24.1 6.6
3 9 27 23.3 7.6
-3 -9 27 23.5 6.3
9 27 3 18.5 8.6
9 -27 -3 18.1 6.5
3 -27 9 19.6 7.7
-3 27 9 20.3 8.2
27 -3 -9 25.5 9
9 5 27 315.37 11.9
27 -9 -5 337.67 14.1
9 -27 5 323.97 12.6
-9 27 5 299.87 12.6
-5 9 27 325.77 13
5 27 9 315.47 12.8
5 -27 -9 305.87 13.4
27 5 -9 313.97 13.3
9 27 -5 330.97 14
-9 5 27 319.57 13.1
27 -9 5 306.37 13.3
-5 27 9 354.96 13.7
9 27 5 308.97 12.9
27 -5 -9 309.07 13.5
5 -27 9 318.27 12.5
9 -27 -5 308.17 13.6
5 9 27 322.27 12.1
5 27 -9 320.57 13.8
-9 27 7 149.69 10.6
7 -27 -9 136.09 8.7
9 -27 7 144.09 10.3
9 27 -7 141.19 11.2
7 27 9 115.49 9.9
27 7 -9 132.39 11
-7 9 27 129.39 10.2
9 7 27 136.19 9
27 -9 -7 126.79 10.4
27 -9 7 139.59 11.1
9 27 7 121.79 10
-7 27 9 147.39 10.3
-9 7 27 119.79 10.6
7 -27 9 122.09 10.2
7 27 -9 127.69 11.3
9 -27 -7 130.29 8.6
27 9 -7 134.39 11.4
27 -7 -9 120.19 10.4
7 9 27 136.69 9.4
27 -9 9 144.59 11.5
27 9 -9 151.18 11.5
9 9 27 145.19 9.7
9 27 -9 153.08 11.6
9 -27 9 140.19 10.5
9 -27 -9 151.28 9.5
-9 9 27 146.99 11
-9 27 9 151.38 10.9
9 27 9 137.09 10.5
27 -9 -9 149.39 11
-11 27 1 10.9 8.8
1 -27 -11 5.7 6.8
-11 -1 27 11 8
11 -27 1 11.9 7.8
27 -11 -1 8.5 8.1
1 -11 27 7.2 7.1
11 1 27 8.1 7.5
1 27 11 6.2 8.1
27 1 -11 14.4 9.2
-1 11 27 4.3 8.1
11 27 -1 8 9.5
-1 -11 27 7.5 6.7
-1 -11 27 6 8.6
11 -27 -1 11.4 7
27 -11 1 5.1 8.8
1 11 27 7.7 8
-1 -27 -11 6 7
-11 1 27 12.3 8.6
1 -27 11 10.1 8
11 27 1 6.5 9.1
27 -1 -11 6.5 9.3
-1 27 11 4.8 7.8
11 27 -3 194.78 12
11 -27 3 179.08 10.1
3 -27 -11 181.78 9.5
-3 11 27 199.98 10.9
-11 27 3 183.78 11.2
27 3 -11 193.78 11.2
11 3 27 218.98 10.6
3 27 11 201.48 11.1
27 -11 -3 183.18 11.2
11 27 3 175.08 11.3
-11 3 27 198.88 11.3
27 -3 -11 203.28 11.8
27 -11 3 165.48 11
-3 -27 -11 215.88 9.8
3 -27 11 206.68 11.1
11 -27 -3 181.58 9.9
-3 27 11 171.68 10.4
3 11 27 156.18 9.8
11 27 -5 422.26 16
11 5 27 421.86 16.1
5 -27 -11 416.16 15.4
27 5 -11 414.26 15.2
-11 27 5 407.56 17.4
11 -27 5 418.76 16.8
27 -11 -5 411.26 17.6
5 27 11 424.76 17.4
-5 11 27 422.76 17.4
27 -5 -11 426.16 18.1
27 -11 5 415.16 17.9
5 -27 11 419.66 17.4
-11 5 27 402.66 15.3
5 11 27 414.86 16.4
-5 27 11 412.06 17.8
11 -27 -5 420.96 15.6
11 27 5 421.06 18
11 7 27 77.79 8.7
-7 11 27 88.79 10.4
7 27 11 92.59 9.5
7 -27 -11 96.69 8.6
11 27 -7 88.19 11
-11 27 7 89.19 10.1
27 -11 -7 83.09 9.9
11 -27 7 89.69 9.6
27 7 -11 85.79 10.3
27 -7 -11 86.39 10.2
-7 27 11 82.99 9.8
7 11 27 80.59 8.9
7 -27 11 75.19 10
11 27 7 86.09 9.9
-11 7 27 68.79 10.8
27 -11 7 92.09 10.6
11 -27 -7 79.19 8.4
9 27 11 59.69 9.7
27 9 -11 65.39 10.6
11 27 -9 44.4 11.2
27 -9 11 53.49 10.5
-11 27 9 55.29 10
27 -11 -9 54.89 10.1
9 -27 -11 51.69 8.3
11 9 27 61.39 8.7
-9 11 27 52.29 10.5
11 -27 9 52.59 9.8
11 27 9 48.4 9.9
11 -27 -9 52.79 8.3
27 -11 9 51.99 10.7
27 11 -9 44.4 11
-9 27 11 51.99 9.6
9 -27 11 50.09 10
9 11 27 54.99 9.1
27 -9 -11 57.49 10.2
-11 9 27 68.09 11.1
11 -27 11 19.7 10
11 11 27 26.6 8.7
27 11 -11 18.1 9
-11 11 27 14.3 10.9
27 -11 -11 21.9 10.3
-11 27 11 15.8 9.9
11 -27 -11 16.2 8.4
11 27 11 15.4 9.9
27 11 -11 16.7 10.5
27 -11 11 28.1 10.7
1 27 13 21.2 8.8
27 1 -13 16.1 9.7
27 -13 -1 14.1 9.4
1 -13 27 18.2 7.7
13 27 -1 19.9 10.4
13 -27 1 20.4 8.5
-1 13 27 18.9 8.8
1 -27 -13 23.4 7.4
1 13 27 21.1 8.6
-1 27 13 24.6 8.8
-13 1 27 18.6 9.7
13 -27 -1 16.3 8.3
27 -13 1 21.3 9.6
13 27 1 13.1 9.8
-1 -27 -13 18.9 7.6
27 -1 -13 12.9 9.8
-3 13 27 544.95 20.2
13 27 -3 600.54 22.3
13 3 27 583.44 18.6
3 -27 -13 566.44 18.4
13 -27 3 576.44 19.6
-13 27 3 576.94 20.4
3 27 13 595.24 20.2
27 3 -13 587.14 20.5
27 -13 -3 570.44 20.6
13 27 3 592.34 21.1
27 -3 -13 584.24 20.8
-3 27 13 567.34 19.9
13 -27 -3 574.44 18.9
-13 3 27 584.54 21.1
3 13 27 576.34 19.7
27 -13 3 561.04 20.4
13 5 27 855.91 24
27 -13 -5 857.21 25.7
5 -27 -13 855.81 23.7
5 27 13 903.91 25.1
27 5 -13 861.31 25.3
13 -27 5 873.31 25
-5 13 27 864.51 25.5
-13 27 5 823.62 25.4
13 27 -5 924.01 27
5 13 27 847.32 24.6
-13 5 27 844.42 26.3
13 27 5 911.31 25.8
13 -27 -5 839.02 24
27 13 -5 860.11 24.3
-5 27 13 870.51 25.5
27 -13 5 854.71 25.5
27 -5 -13 861.01 25.9
5 -27 13 916.41 25.8
-13 27 7 278.97 13.5
-7 13 27 266.77 13.4
13 -27 7 286.17 13.3
27 7 -13 264.77 12.8
7 27 13 302.27 13.2
27 -13 -7 261.47 12.8
7 -27 -13 270.77 11.3
13 7 27 309.07 12.7
13 27 -7 286.07 14.5
-7 27 13 297.67 13.7
7 13 27 258.37 11.8
7 -27 13 293.57 13.6
13 27 7 282.37 13.6
13 -27 -7 255.77 11.6
-13 7 27 259.47 14.1
27 -13 7 295.57 13.9
27 -7 -13 286.57 13.7
27 13 -7 284.57 12.6
-9 13 27 13 10.6
9 -27 -13 13.4 8.5
13 27 -9 10.4 11.8
13 -27 9 8.9 9.9
9 27 13 7.9 9.6
13 9 27 10 8.8
27 -13 -9 3.6 9.9
-13 27 9 17.2 10.2
27 9 -13 20.2 9.8
13 -27 -9 11.1 8.6
27 13 -9 7.7 11.5
-13 9 27 11.4 11.3
-9 27 13 8.9 9.8
27 -13 9 11.2 10.1
9 -27 13 5.4 10.3
13 27 9 16.4 10.1
9 13 27 10.9 9.1
27 -9 -13 10.8 10.2
27 13 -9 12.3 9.7
11 27 13 30 10.5
27 -13 -11 23.4 10.7
13 11 27 25.8 8.9
-13 27 11 27.9 10.5
-11 13 27 30.9 11.6
27 -11 13 39.1 11.7
11 -27 -13 29.5 8.7
13 -27 11 28.9 11
13 27 11 28.9 10.6
-13 11 27 23.3 12
27 13 -11 23.3 9.4
27 13 -11 27.3 11
11 -27 13 31.8 11.2
27 -11 -13 33.4 11.3
-11 27 13 34.5 10.7
13 -27 -11 17.9 7.6
11 13 27 29.2 9.6
27 -13 11 22.7 11.4
13 -27 -13 54.09 9.4
-13 27 13 60.99 11.8
-13 13 27 67.09 13.6
13 27 13 62.69 11.5
13 13 27 54.89 9.2
13 -27 13 70.09 12.2
27 -13 -13 61.99 11.7
27 -13 13 72.89 12.6
27 -15 -1 223.98 12.9
27 15 1 209.98 11.7
27 1 -15 213.58 12.5
15 27 -1 202.38 13.4
15 -27 1 192.18 11.1
-1 15 27 197.08 12.1
1 27 15 213.18 11.8
1 -27 -15 227.48 11
1 15 27 214.08 12.1
27 -1 -15 209.28 12.5
27 -15 1 189.38 12
15 -27 -1 221.38 11.8
27 15 -1 220.28 11.8
-1 27 15 195.38 11.6
15 27 1 221.48 13.3
3 27 15 1182.98 31.9
3 -27 -15 1238.38 30.7
15 27 -3 1232.28 33.7
-3 15 27 1248.18 32.3
27 15 3 1228.98 31.3
15 -27 3 1206.78 31.7
27 -15 -3 1195.98 32.5
27 3 -15 1187.58 31.8
27 -3 -15 1207.98 32.3
-3 27 15 1147.49 31.5
3 15 27 1221.28 31.7
27 15 -3 1225.38 31.6
-15 3 27 1175.68 33.1
27 -15 3 1165.98 32.4
15 -27 -3 1226.08 31.4
15 27 3 1240.38 32.8
27 -15 -5 1954.3 46.9
-5 15 27 1927.81 47
15 -27 5 1923.51 46.5
15 27 -5 1852.71 47.7
27 15 5 1963.4 46.2
5 27 15 1906.21 46.6
15 5 27 1924.21 45.9
5 -27 -15 2013.3 45.7
27 5 -15 1943.91 46
27 -5 -15 1920.21 47
15 -27 -5 1915.11 45.9
5 15 27 1913.21 46.3
27 15 -5 2015.8 46.3
-5 27 15 1932.01 46.9
-15 5 27 1946.31 47.6
15 27 5 2001 47.3
7 27 15 888.01 26.4
27 -15 -7 903.81 26.8
15 27 -7 896.61 29
27 15 7 929.91 25.7
15 -27 7 871.21 26.1
15 7 27 912.21 25.5
-15 27 7 879.11 26.7
-7 15 27 888.11 27.4
7 -27 -15 866.71 24.8
-7 27 15 853.21 26.7
7 15 27 884.91 25.7
-15 7 27 942.31 28.8
15 -27 -7 893.11 24.9
27 -7 -15 933.21 27
27 15 -7 837.42 25.5
15 27 7 904.71 27.2
27 -15 7 860.11 27.1
27 15 9 168.08 11.7
9 27 15 146.59 11.9
15 9 27 157.88 11.1
-15 27 9 152.48 12.6
-9 15 27 167.28 13.1
15 27 -9 146.69 14
15 -27 9 170.28 12.7
27 -15 -9 174.58 12.6
9 -27 -15 185.48 10.7
15 -27 -9 172.38 11.4
15 27 9 163.18 12.5
27 -9 -15 155.98 12.6
9 15 27 157.48 11.3
27 -15 9 159.08 11.5
27 15 -9 154.48 14.2
9 -27 15 169.68 13.4
-9 27 15 146.89 11.9
27 15 -9 147.39 11.6
-15 9 27 167.48 14.3
15 11 27 138.29 10.8
-11 15 27 138.89 13.8
11 27 15 171.38 12.5
27 -15 -11 158.78 12.9
27 -11 15 144.89 13.7
11 -27 -15 139.59 10.3
-15 27 11 144.49 12.7
27 15 11 160.98 11.9
15 -27 11 148.99 13
27 -15 11 157.68 13.4
-11 27 15 133.39 12.5
15 27 11 154.78 12.5
11 -27 15 155.98 13.6
11 15 27 155.18 11.7
-15 11 27 147.89 14.9
15 -27 -11 136.99 10.8
27 -11 -15 170.98 13.4
27 -15 -13 429.26 17.4
-15 27 13 350.86 15.9
13 -27 -15 395.46 15.2
15 13 27 419.76 15.7
-13 15 27 429.46 18.8
13 27 15 435.86 16.9
27 15 13 361.16 15.3
15 -27 13 407.76 17.7
27 -13 15 420.66 18
13 -27 15 410.86 17.7
27 13 15 401.36 15.4
13 15 27 362.26 14.9
27 -13 -15 365.16 16.6
-15 13 27 386.26 18.3
15 27 13 395.56 16.9
-13 27 15 420.26 17.4
27 -15 13 339.77 16.4
15 -27 -13 369.26 14.6
15 -27 15 726.53 27.6
27 -15 -15 691.43 26
15 15 27 710.03 23.9
-15 27 15 688.73 26.5
27 -15 15 696.03 27.2
-15 15 27 715.73 28.8
15 27 15 737.13 26.1
15 -15 -27 700.03 25.7
15 -15 27 726.23 31.2
27 15 15 685.23 24.2
15 -27 -15 711.33 24.1
1 27 17 219.98 13
27 1 -17 241.18 13.2
17 -27 1 231.88 12.6
27 -17 -1 292.07 14.3
-1 17 27 238.08 13.5
1 -27 -17 281.77 12.3
27 17 1 272.07 13.9
17 27 -1 263.37 15
1 17 27 237.98 13.1
27 17 -1 276.77 13.7
17 -27 -1 272.57 13.2
17 27 1 268.77 14.8
-1 27 17 230.28 12.8
27 -17 1 259.57 13.4
-3 17 27 1220.98 33
3 -27 -17 1195.08 31.2
27 -17 -3 1239.18 33
3 27 17 1246.58 32.6
17 -27 3 1213.08 32.2
17 27 -3 1200.08 34.7
27 3 -17 1166.38 31.7
27 17 3 1237.38 32.2
-3 27 17 1145.49 32.2
3 17 27 1229.48 32.4
27 -17 3 1189.88 32.6
27 -3 -17 1192.78 32.8
17 27 3 1248.48 33.9
17 -27 -3 1198.78 31.9
27 17 -3 1195.78 32
17 -27 5 1700.83 42.6
5 -27 -17 1727.63 41.6
27 17 5 1774.72 42.6
27 -17 -5 1744.43 43
17 27 -5 1732.93 44.9
5 27 17 1725.03 42.7
17 5 27 1720.83 41.8
-5 17 27 1753.62 43.4
-5 27 17 1686.23 42.9
27 -5 -17 1696.53 43.1
27 17 -5 1713.63 42.6
17 27 5 1756.52 43.5
17 -27 -5 1732.83 42
27 -17 5 1722.03 43.2
5 17 27 1692.13 42.4
7 -27 -17 732.53 22.7
-7 17 27 717.93 25.4
17 7 27 714.83 22.9
27 -17 -7 729.43 24.6
7 27 17 746.93 24.3
17 -27 7 707.93 24.2
17 27 -7 648.24 27.7
27 17 7 746.83 24
27 -7 -17 697.23 25
17 27 7 732.23 25.2
27 -17 7 751.42 25.1
-7 27 17 713.93 25
27 17 -7 694.83 24.4
-17 7 27 722.83 28.3
17 -27 -7 723.33 23
7 17 27 690.93 23.6
27 -17 -9 102.09 12.3
9 -27 -17 96.69 10
9 27 17 104.69 11.9
17 27 -9 80.09 14.5
17 9 27 86.89 11
-17 27 9 78.69 11.2
-9 17 27 98.49 13.2
27 17 9 102.89 11.9
17 -27 9 89.29 12.3
27 -17 9 74.89 10.9
27 17 -9 76.89 14.7
9 17 27 90.79 10.7
17 27 9 93.69 12.3
27 -9 -17 89.69 12.5
-17 9 27 96.59 15.3
27 17 -9 84.79 12.3
17 -27 -9 94.89 10.3
-9 27 17 90.89 12.8
11 -27 -17 157.98 11.5
-17 27 11 139.09 13.3
27 17 11 182.18 13.7
17 -11 -27 176.38 14.2
17 -27 11 146.19 13.3
-11 17 27 148.29 14.9
11 27 17 138.29 12.8
17 11 27 139.59 11.6
27 -11 17 171.18 14.3
27 -17 -11 187.18 14.2
17 27 11 171.68 14
27 -17 11 150.58 13.9
11 -27 17 168.38 16
-17 11 27 182.18 16.6
-11 27 17 173.08 14.1
17 -27 -11 128.09 10.5
11 17 27 158.08 12.3
27 -11 -17 163.18 14.4
13 -27 -17 515.75 20.9
17 -27 13 514.15 20.5
27 -13 17 499.15 20.4
17 -13 -27 574.44 19.6
17 13 27 485.75 20.6
27 17 13 524.65 22.7
13 27 17 451.45 18.2
27 -17 -13 488.85 19.2
-17 27 13 398.76 17.9
-13 17 27 549.15 21.1
17 27 13 423.16 18.3
27 -13 -17 522.05 19.9
-13 27 17 555.84 20.3
17 -27 -13 478.25 20.3
13 -27 17 494.55 20.4
-17 13 27 534.85 22.3
13 17 27 521.55 22.1
27 -17 13 477.05 19.3
27 13 17 508.05 21.5
27 -15 17 978.2 32.8
27 17 15 890.71 30.3
27 -17 -15 947.61 30.9
17 -27 15 992.1 32.7
-17 27 15 966.3 32.4
17 15 27 917.21 28.7
15 27 17 953.3 30.9
17 -15 -27 988.2 31.4
15 -27 -17 984.7 29.4
-15 17 27 962.4 33.7
15 17 27 915.31 29.3
27 -17 15 913.01 31.9
27 -15 -17 948.91 31.3
17 27 15 939.61 31.1
17 -15 27 976.6 36.3
-17 15 27 972.1 35.4
27 15 17 955.5 29.2
15 -27 17 982.6 33.1
15 -17 -27 981.8 30.6
-15 27 17 948.01 31.3
17 -27 -17 1034.1 31.8
-17 27 17 1029.7 34.4
17 27 17 1021.8 33.1
27 -17 -17 993.3 33.5
17 -17 -27 1043.7 33.9
-17 17 27 1060.39 37.7
17 -17 27 1021.9 38.3
27 17 17 1011.7 32.7
17 -27 17 1059.89 35.7
27 -17 17 1024.1 34.7
1 27 19 40.7 11.5
27 -19 -1 40.7 11.5
19 -27 1 53.69 11.3
19 27 -1 47.4 14.3
27 1 -19 44.9 11.8
-1 19 27 51.59 11.7
27 19 1 43.5 11.8
-1 27 19 32.1 10.8
27 -19 1 30.3 11.7
1 19 27 33.3 11.5
27 19 -1 37.2 12.2
27 -1 -19 45.1 12.5
19 -27 -1 31 10.7
19 27 1 40 13.7
19 -27 3 353.76 15.2
-3 19 27 420.46 16.9
27 19 3 394.36 16.2
3 27 19 409.06 16.3
3 -27 -19 420.76 14.8
19 27 -3 390.26 18.8
27 -19 -3 344.27 15.2
27 19 -3 378.86 17
3 19 27 421.36 16.8
27 -3 -19 404.56 17
19 -27 -3 462.65 16.9
19 27 3 405.06 17.8
-3 27 19 408.16 16.5
27 -19 3 439.26 17.5
-5 19 27 560.64 23.6
5 27 19 546.25 22.7
19 27 -5 560.64 22.1
19 -27 5 560.64 22.3
27 -19 -5 546.35 22.8
19 5 27 551.34 20.8
27 19 5 544.35 21.9
5 -27 -19 565.34 20.9
27 -5 -19 572.14 23.6
19 -27 -5 570.84 21.8
27 19 -5 557.44 24.2
-5 27 19 547.95 22.6
5 19 27 577.34 22.7
27 -19 5 567.04 23.3
19 27 5 574.74 24.5
-7 19 27 144.09 14.1
19 -27 7 159.98 13.6
19 7 27 144.89 11.6
19 27 -7 138.09 17
27 -19 -7 145.79 13.2
7 -27 -19 162.68 11.9
7 27 19 157.08 13.3
27 19 7 141.49 13.1
19 27 7 150.48 14.5
19 -27 -7 128.39 10.9
27 -7 -19 138.89 14
-7 27 19 134.69 12.9
27 -19 7 157.98 14.4
27 19 -7 150.28 15.2
7 19 27 145.09 12.5
-9 19 27 -12.3 13.5
19 27 -9 1.6 15.8
9 -27 -19 2.7 10.5
19 9 27 7.6 11.1
19 -27 9 -3.9 12.9
27 19 9 -0.5 11.8
27 -19 -9 -6.7 12.2
9 27 19 0.4 12.3
-9 27 19 -0.2 12.5
27 -19 9 -0.5 11.2
19 -27 -9 -0.5 11.2
19 27 9 -10.1 12.9
27 -9 -19 -4.4 13.2
9 19 27 -3.4 11.3
-11 19 27 88.09 14.9
27 -19 -11 -0.4 13.2
11 -27 -19 -2.5 11.1
11 27 19 1.2 12.9
19 -11 -27 -2.2 14.4
19 11 27 2.7 11.5
27 19 11 2.4 11.3
19 -27 11 -7.9 13.5
-11 27 19 -4.9 12.2
27 -19 11 -10.3 12.6
11 19 27 -8.3 12.1
27 -11 -19 3.1 13.7
19 -27 -11 4.5 10.9
19 27 11 -3.8 13.5
-19 11 27 -9.6 18.1
-13 19 27 145.59 17.5
19 -27 13 136.19 16.5
27 -13 19 129.29 17
13 -27 -19 146.69 13.3
13 27 19 112.19 14.2
27 19 13 147.29 15
27 -19 -13 116.39 14.2
19 13 27 131.19 13.2
19 -13 -27 165.98 16.4
19 -27 -13 123.89 12.4
-19 13 27 114.19 19.5
13 19 27 112.39 13.5
27 -13 -19 139.39 16.1
-13 27 19 120.69 15.1
27 13 19 119.59 13
27 -19 13 117.79 15.7
13 -19 -27 143.39 14.5
19 27 13 107.79 14.9
19 -27 15 685.13 25.2
27 19 15 628.04 25.9
-15 19 27 598.74 24.8
15 -27 -19 653.83 25.6
27 -15 19 615.44 24.5
27 -19 -15 643.74 23.4
19 -15 -27 671.73 28.8
27 -19 15 530.45 22.5
15 -27 19 637.34 25.9
19 27 15 629.94 23.1
19 -15 27 605.34 26.1
-19 15 27 591.34 26.3
15 -19 -27 641.14 27
-15 27 19 613.74 23.7
19 -27 -15 598.84 25.5
27 -15 -19 569.94 22.7
19 -17 -27 585.74 23
19 -27 17 520.45 24
-17 19 27 535.35 25.7
27 -19 -17 531.75 22.6
17 -19 -27 626.04 23.1
17 -27 19 502.55 24.8
27 -17 -19 503.45 22.6
19 -17 27 581.14 27
-19 17 27 544.45 26.5
27 -19 -19 129.39 19.4
19 -19 -27 115.19 19.7
19 -27 19 102.49 22.4
-19 19 27 107.29 23.8
19 -19 27 108.49 24.4
27 -21 -1 43.3 12.5
21 27 -1 33 16
27 21 1 49.3 13.7
1 27 21 41 12.3
21 -27 1 43.5 12.2
-1 21 27 38 12.9
27 21 -1 41.5 14.6
27 -21 1 55.29 12.8
27 -1 -21 40.6 14
21 -27 -1 42.8 11.8
-1 27 21 38.3 12.6
21 27 1 52.69 15.7
1 21 27 41.1 12.6
3 27 21 -3.7 12.4
-3 21 27 15.6 13.1
21 -27 3 11.8 12
27 21 3 11.8 13.8
21 27 -3 15.2 16.6
27 -21 -3 4.5 12.3
27 -3 -21 8.6 14.4
3 21 27 9 12.5
-3 27 21 9.3 11.9
21 27 3 14.2 14.7
27 -21 3 16.2 12.1
27 21 -3 19.5 15.1
21 -27 -3 9.2 12
27 21 5 122.69 14.3
21 27 -5 107.19 18.8
5 -27 -21 116.69 11.7
5 27 21 119.69 14
27 -21 -5 117.39 13.4
-5 21 27 96.59 14.2
21 -27 5 118.89 13.6
27 -21 5 112.79 13.7
27 21 -5 121.89 16.3
-5 27 21 129.19 14.1
5 21 27 119.99 13.8
21 -27 -5 135.19 13.4
21 27 5 123.79 15.5
27 -5 -21 139.29 15.7
27 21 7 35.9 13.5
7 27 21 33.1 13.4
21 27 -7 27.6 19.1
7 -27 -21 18 12
27 -21 -7 22 12.9
21 -27 7 14.9 12.2
21 7 27 28.7 11.6
-7 21 27 26.2 14
21 27 7 11.6 14.9
21 -27 -7 28.2 12.4
27 -7 -21 30 15.4
7 21 27 23.7 13
27 21 -7 27.2 17
-7 27 21 24 13.7
27 -21 7 31.4 13.7
27 -21 -9 50.99 14
27 21 9 43.8 13.7
21 9 27 57.89 12.7
9 -27 -21 47.3 11.8
-9 21 27 60.29 15.7
9 27 21 43.9 13.5
21 -27 9 32.9 13.4
21 -9 -27 53.59 16.6
27 -21 9 48.5 14
21 -27 -9 38.1 11.8
-9 27 21 46.6 14.5
27 -9 -21 56.39 15.9
21 27 9 52.09 15.1
9 21 27 45.6 13.4
11 -27 -21 132.19 14
21 11 27 143.49 15
21 -27 11 119.69 15.8
21 -11 -27 169.78 18.2
27 21 11 141.29 16
-11 21 27 133.99 17.7
27 -21 -11 118.09 14.9
11 21 27 123.09 15.5
21 27 11 133.59 16.4
27 -11 -21 139.99 17.2
21 -27 -11 102.69 12.9
-11 27 21 118.09 15.2
27 11 21 132.49 14.4
21 -27 13 5.2 15.6
27 21 13 4.2 15
27 -21 -13 13.6 15.2
27 -13 21 10.2 17.7
-13 21 27 2.1 17.1
21 -13 -27 -2.7 17.7
13 -27 -21 19.4 13.6
27 -13 -21 -2.8 17.5
21 27 13 5.8 16.1
21 -27 -13 7.4 13.5
27 -21 13 7 17.2
13 -21 -27 -0.5 15.2
-15 21 27 149.69 20.6
21 -15 -27 181.78 20.4
27 -21 -15 102.09 16.2
21 -27 15 116.29 18.5
15 -21 -27 154.38 17.5
27 -15 -21 139.99 19.8
21 -15 27 128.99 21.9
21 -17 -27 171.98 21.5
27 -17 -21 150.08 20.4
21 -17 27 125.39 24.2
17 -27 21 116.49 23.4
17 -21 -27 158.48 19.7
27 -23 -1 74.49 13.4
1 27 23 61.69 13.6
23 -27 1 82.49 13.3
-1 23 27 83.69 14.9
27 23 1 82.49 16.9
23 27 -1 94.89 19.6
1 23 27 80.69 14.2
27 -1 -23 87.19 16.8
1 -27 23 83.39 16.9
23 -27 -1 89.09 13.9
-1 27 23 93.19 14.5
23 27 1 91.09 18.5
27 23 -1 88.89 17.8
27 -23 1 102.69 14.7
23 -27 3 26.1 13.8
27 -23 -3 2.3 13.1
3 -23 27 10.5 18.5
3 27 23 19.8 13.3
-3 23 27 22.9 14.4
23 27 -3 16.5 19.8
27 23 3 27.8 16.5
27 -3 -23 19.3 17.4
27 23 -3 25.2 18.5
23 27 3 27.8 17
3 -27 23 7.2 19
27 -23 3 12.8 13.6
3 23 27 13.9 14.2
-3 27 23 11.8 14
23 -27 -3 22.6 13.4
27 -23 -5 208.68 16.2
5 -23 27 182.68 21.3
-5 23 27 192.78 16.9
5 27 23 200.08 16.8
23 -27 5 174.38 15.1
27 23 5 192.98 17.4
23 27 -5 176.98 22.9
5 23 27 178.38 15.8
27 -23 5 206.98 16.4
23 27 5 178.18 18.3
-5 27 23 197.68 15.9
5 -27 23 217.18 21.4
27 -5 -23 202.68 19.1
27 23 -5 181.68 20.8
23 -27 -5 198.88 15.3
27 23 7 60.99 16.2
23 -27 7 51.19 14.9
23 27 -7 53.09 23.1
-7 23 27 49.8 15.6
7 -27 -23 66.69 13.6
27 -23 -7 51.09 14.4
7 -23 27 57.39 21.9
-7 27 23 66.89 16.1
27 -23 7 47 15.3
23 27 7 60.29 17.1
27 -7 -23 70.19 18.4
23 -27 -7 63.09 13.3
27 23 -7 35 21.5
9 -27 -23 19.4 12.8
23 -9 -27 22.3 19.4
27 -23 -9 9.8 14.5
27 23 9 20.7 16
-9 23 27 -2.9 17.3
23 -27 9 2.5 15.4
27 -9 -23 26.1 18.8
27 -23 9 14.1 18.4
23 -27 -9 18 15.3
23 27 9 10.7 16.7
-11 23 27 58.69 19.3
23 -11 -27 58.19 20.4
27 23 11 53.49 16.3
27 -11 -23 72.19 19.9
23 27 11 74.39 18.2
23 -13 -27 -6.9 21.2
13 -23 -27 -1.9 16.7
27 -13 -23 -5.6 20.8
23 -13 27 2 22.4
23 -15 -27 101.59 23.7
27 -15 -23 100.29 22.6
25 27 -1 -10 22.9
27 25 1 8.4 20.5
27 25 -1 5.5 21.5
25 27 1 16.5 21.3
25 27 -3 232.28 25.4
27 25 3 208.68 20.9
27 25 -3 240.98 24.6
25 27 3 255.47 22.2
3 -27 25 202.58 23.9
5 -25 27 513.45 28.8
27 25 5 506.15 24
25 27 5 556.14 25.5
5 -27 25 519.95 28.5
7 -25 27 179.48 27
27 25 7 148.19 20
7 -27 25 142.69 25.9
25 27 7 163.28 21.4
27 25 9 21.6 20
9 -25 27 21.4 27.5
25 27 9 21.4 20.5
27 27 1 334.27 28.1
27 27 3 1371.86 49.4
27 27 5 1885.61 56.89
27 27 7 858.01 33
0 -28 0 904.21 23.7
0 0 28 898.71 23.8
0 28 0 903.61 25.1
-2 -28 0 87.09 7.7
-2 28 0 89.09 9.4
0 -2 28 85.29 8
0 2 28 83.39 8.3
2 -28 0 89.59 7.6
2 28 0 99.79 9.6
28 0 -2 81.19 9.9
-2 0 28 84.39 8.2
0 -28 -2 90.39 7.6
0 -28 2 88.09 7.9
0 28 -2 88.89 9.4
0 28 2 104.79 9.6
2 0 28 92.69 8.3
28 -2 0 93.99 10.2
-2 -28 -2 32.1 6.8
-2 -28 2 36.8 7
-2 -2 28 31 7.4
-2 2 28 35.8 7.9
-2 28 -2 27.5 8.5
-2 28 2 31 8.3
2 -28 -2 42.5 7.1
2 -28 2 39.5 7.2
2 -2 28 37.2 7.4
2 28 2 36 8.5
28 -2 -2 34.3 8.8
2 2 28 40.3 7.8
2 28 -2 33.8 9
4 -28 0 132.39 8
4 28 0 159.88 10.9
0 -4 28 154.08 8.8
0 4 28 147.39 9.5
-4 -28 0 131.49 8.5
-4 28 0 144.39 10
0 28 -4 166.48 11
0 28 4 161.58 10.6
4 0 28 161.68 9.3
28 -4 0 157.58 10.6
-4 0 28 161.38 9.5
0 -28 -4 145.09 8.6
0 -28 4 156.28 9.2
28 0 -4 148.99 11.2
-2 4 28 484.25 16.8
-4 -28 -2 464.45 15.9
2 -28 -4 471.95 15.9
4 -28 2 480.35 16
28 2 -4 474.65 19.1
2 28 4 500.95 18
-2 28 -4 511.15 18.3
4 2 28 470.55 16.1
28 -4 -2 463.95 18.3
4 28 -2 493.05 18.7
2 -4 28 476.15 16.1
-4 -2 28 458.35 16.4
-2 -28 4 484.75 16.2
-4 28 2 491.15 17.8
4 -28 -2 461.75 15.7
28 -4 2 496.55 18.7
2 28 -4 500.85 18.5
-4 28 -2 454.55 17.9
4 28 2 482.85 18.1
2 -28 4 464.45 16
-4 2 28 464.35 16.9
-2 -28 -4 462.55 15.9
2 4 28 467.75 16.4
4 -2 28 485.75 16.3
28 -2 -4 482.65 18.5
-2 28 4 477.15 18.3
-2 -4 28 480.15 16.1
-4 -28 2 476.85 16.1
4 -28 4 968.2 25.1
4 -28 -4 929.31 24.6
-4 4 28 978.6 25.5
-4 28 -4 974 26.7
-4 28 4 949.8 26
-4 -28 -4 943.91 24.5
-4 -28 4 953.4 24.9
-4 -4 28 912.31 24.4
28 -4 -4 928.11 26.5
28 4 -4 965.1 27.2
4 -4 28 931.81 24.9
4 28 4 927.61 26
4 28 -4 950.1 26.7
4 4 28 944.51 24.9
-6 28 0 127.79 10.4
-6 -28 0 103.39 8.4
28 -6 0 116.39 10.5
-6 0 28 118.29 9.1
6 28 0 123.89 10.2
28 0 -6 100.69 10.3
6 0 28 113.29 8.8
0 -28 6 103.49 8.5
0 28 -6 125.09 10.4
0 28 6 129.59 10
0 6 28 97.39 8.9
0 -28 -6 115.79 8.2
0 -6 28 115.49 8.4
6 -28 0 98.59 7.9
28 2 -6 428.96 18.2
-2 6 28 441.36 16.6
-6 28 2 433.36 17.5
2 -6 28 437.76 15.6
-6 -2 28 451.45 16.1
6 28 -2 462.85 18.7
28 -6 -2 455.85 18
2 -28 -6 443.96 15.3
6 -28 2 425.16 15.7
6 2 28 423.36 15.8
-6 -28 -2 436.56 15.7
-2 28 -6 411.06 15.9
2 28 6 454.15 17.1
-2 -28 6 427.56 16.1
-2 -28 -6 439.86 15.5
-6 -28 2 450.75 15.6
-2 28 6 448.06 17.9
28 -6 2 440.46 18.2
2 -28 6 406.96 15.9
2 28 -6 447.06 18.2
-6 28 -2 441.66 18.1
6 -2 28 444.26 15.8
28 -2 -6 438.56 18.2
2 6 28 439.06 16.3
6 -28 -2 437.26 15.4
-6 2 28 465.55 16.8
-2 -6 28 449.95 15.3
6 28 2 441.16 17.6
6 28 -4 1300.37 33.5
4 28 6 1311.07 32.8
-6 28 4 1281.87 32.8
6 -28 4 1290.37 31.9
28 4 -6 1258.47 33.3
28 -6 -4 1291.67 33.2
6 4 28 1314.67 31.8
-4 -28 6 1266.37 31.6
-6 -4 28 1269.97 31.1
4 -28 -6 1304.97 31.6
-4 6 28 1285.57 32.4
4 -6 28 1345.97 31.6
-4 -28 -6 1273.47 31.4
-6 4 28 1298.77 32.4
28 -4 -6 1269.57 33.2
4 28 -6 1297.67 33.4
6 -4 28 1302.67 31.6
28 -6 4 1287.57 33.5
-4 -6 28 1241.68 30.9
-4 28 6 1315.77 32.9
6 -28 -4 1248.98 31.5
4 -28 6 1298.87 31.9
4 6 28 1224.18 31.8
6 28 4 1304.57 32.9
-6 -28 4 1291.37 31.6
-6 6 28 1639.64 39.1
-6 28 6 1590.74 39.3
6 -28 -6 1599.84 38.2
6 -28 6 1605.64 38.7
6 6 28 1578.54 38.3
-6 -28 6 1586.54 38.1
28 -6 -6 1591.74 39.5
28 -6 6 1625.24 39.9
28 6 -6 1664.43 40.3
6 28 6 1565.74 39.2
6 28 -6 1618.74 39.9
0 28 8 90.89 9.5
8 0 28 80.99 8.3
28 -8 0 75.29 9.1
-8 0 28 80.09 9.3
0 -28 -8 87.79 8
0 -28 8 74.09 8.6
-8 28 0 90.79 9.7
0 -8 28 86.69 8.1
0 8 28 88.49 9
28 0 -8 74.39 10.3
8 -28 0 90.69 8.6
8 28 0 72.79 10
28 2 -8 16.7 9.9
-8 -2 28 13.1 8.2
2 28 8 22 8.6
8 2 28 13.9 7.8
28 -8 -2 11.4 9
-8 28 2 21.1 8.8
-2 -28 8 18.8 8.1
8 28 -2 29.4 10
8 -28 2 14.8 7.8
2 -28 -8 17.6 6.8
-2 8 28 14.1 8.3
2 -8 28 15.5 7.8
-2 -8 28 21.8 7.3
28 -2 -8 19.7 9.5
2 -28 8 20.5 8.1
2 8 28 21.2 8.1
8 -28 -2 12.5 6.5
-8 2 28 11.2 9
2 28 -8 18.9 9.9
8 28 2 18.6 9.2
28 -8 2 19.7 8.8
-8 28 -2 19.2 9.4
-2 -28 -8 13.6 7
8 -2 28 14.9 7.8
-2 28 8 19.8 8.7
8 4 28 497.05 17.4
28 4 -8 500.65 19.7
4 -8 28 518.45 17.3
8 -28 4 520.95 17.7
8 28 -4 493.05 20.7
4 28 8 506.05 18.7
-4 8 28 507.05 18.7
28 -8 -4 501.55 19.3
-8 28 4 509.15 18.8
4 -28 -8 513.45 16.9
8 -28 -4 491.35 16.8
-4 28 8 529.85 19.1
-4 -28 -8 502.85 16.9
4 28 -8 504.95 20.3
4 -28 8 518.95 18.1
4 8 28 504.95 17.6
28 -4 -8 485.25 19.4
8 28 4 535.55 19.1
28 -8 4 505.45 19.4
-8 4 28 509.55 19.1
6 28 8 875.91 25
6 -28 -8 827.92 23.4
28 -8 -6 828.02 25.4
8 6 28 863.51 23.8
8 28 -6 812.02 26.3
-6 8 28 862.61 25
-8 28 6 848.92 24.9
8 -28 6 863.01 24.5
28 6 -8 870.11 25.7
6 8 28 865.51 23.8
-8 6 28 872.11 25.2
28 8 -6 878.41 26.8
-6 28 8 838.02 25.1
8 28 6 867.51 25.1
28 -6 -8 856.61 25.4
6 28 -8 921.91 26.4
8 -28 -6 835.92 23.1
6 -28 8 872.81 24.3
28 -8 6 876.11 26
-8 28 8 225.98 12.2
-8 8 28 203.08 12.5
8 8 28 227.68 11.3
8 28 8 199.38 11.7
28 -8 -8 183.68 12
28 -8 8 231.38 13.1
28 8 -8 195.88 13.1
8 -28 8 215.98 12
8 -28 -8 212.38 10.7
8 28 -8 203.48 13.2
28 0 -10 287.57 13.3
10 28 0 276.47 13.2
0 -28 -10 250.27 10.8
0 10 28 259.67 12.3
10 -28 0 232.58 10.8
10 0 28 257.47 11.3
0 -28 10 256.47 11.6
0 28 10 225.08 11.3
-10 28 0 266.97 13.2
0 -10 28 260.37 10.8
28 -10 0 297.67 13.8
-10 0 28 285.77 12.3
28 -10 -2 33.5 9
10 28 -2 37.9 10.3
10 -28 2 37.1 8.4
-2 10 28 27.8 9
2 -10 28 34 8.1
-10 28 2 21.7 9.3
2 -28 -10 32.8 7.4
10 2 28 35.4 8.1
28 2 -10 28 10
2 28 10 34.6 8.9
2 -28 10 32.3 8.8
28 -10 2 44.1 10.1
28 -2 -10 19.8 9.9
-2 -28 -10 37.3 7.4
10 28 2 41.1 10
10 -28 -2 32.1 8.2
2 10 28 27.8 8.6
-10 2 28 32.9 9.8
-2 28 10 31.2 9
-2 -10 28 33.4 7.4
10 4 28 117.29 9.4
4 -28 -10 122.29 8.9
4 28 10 114.89 10.2
28 -10 -4 102.29 10.1
10 -28 4 115.39 9.9
10 28 -4 130.49 12.3
-10 28 4 107.19 10.2
-4 10 28 105.89 10.3
28 4 -10 112.09 11.3
10 -28 -4 117.19 9.1
4 10 28 123.99 9.7
-10 4 28 115.99 11
10 28 4 106.79 10.8
28 -4 -10 117.99 11
4 -28 10 115.09 10.2
28 -10 4 121.79 10.9
-4 28 10 101.29 10.4
10 6 28 174.28 10.5
6 28 10 184.08 11.6
6 -28 -10 202.58 10.4
10 28 -6 176.88 12.9
-10 28 6 188.48 12
28 -10 -6 186.58 12.2
10 -28 6 194.78 11.3
28 6 -10 182.68 12.6
-6 10 28 191.48 12.2
28 -6 -10 189.88 12.2
6 -28 10 188.88 11.7
28 -10 6 197.68 12.7
-10 6 28 181.08 12.3
10 28 6 181.88 11.7
6 10 28 187.18 11
-6 28 10 167.48 11.2
10 -28 -6 193.78 10.2
-10 28 8 -1.6 9.4
10 28 -8 -4.1 11.5
8 -28 -10 -2.4 7.9
8 28 10 3 9.4
-8 10 28 6.5 10.6
28 8 -10 -2.3 10.9
28 -8 10 1.9 10.4
10 -28 8 4.4 9.4
10 8 28 -1 8.3
28 -10 -8 -3 10
-10 8 28 2.4 10.7
28 -10 8 6.9 10.2
8 10 28 3.3 8.4
8 -28 10 -1.8 9.9
10 28 8 -5.4 9.7
10 -28 -8 -1.1 8.1
-8 28 10 0.5 9.4
28 10 -8 4.8 11.6
28 -8 -10 -3.1 10
-10 28 10 211.18 12.4
-10 10 28 202.18 13.4
10 28 -10 189.08 13.8
10 28 10 205.58 12.4
28 10 -10 190.98 13.4
10 -28 -10 192.58 10.6
10 -28 10 204.38 12.6
10 10 28 204.08 11.5
28 -10 10 202.58 13.6
28 -10 -10 215.08 13.2
0 28 12 44.3 9.6
0 -12 28 48.5 8.2
0 12 28 50.89 9.4
0 -28 -12 61.99 8.1
28 -12 0 48.8 10.3
12 -28 0 54.09 8.8
12 28 0 50.49 11.1
28 0 -12 45.6 10.7
-12 0 28 58.19 10.1
2 -28 -12 19.7 7.9
12 28 -2 22.5 11.3
2 28 12 16.8 9.2
12 2 28 14.5 8.2
-12 28 2 17.1 8.8
28 -12 -2 7.9 9
2 -12 28 14.6 8.6
-2 12 28 12 9.6
12 -28 2 18.3 8.8
28 2 -12 21.3 10.6
28 -12 2 9.7 9.1
-12 2 28 16.6 10.4
-2 28 12 29 9.4
12 28 2 16.2 10.2
28 -2 -12 16 10.4
2 12 28 17.4 9
-2 -28 -12 17.2 7.5
12 -28 -2 8.1 8.1
-4 12 28 378.96 14.7
-12 28 4 352.46 14.5
12 -28 4 374.36 14.1
28 -12 -4 381.96 15.4
4 -28 -12 363.16 15.3
28 4 -12 378.56 15.2
12 28 -4 377.46 16.1
4 28 12 328.87 13.9
12 4 28 326.27 13
-12 4 28 372.16 15.2
28 -4 -12 378.56 15.4
4 12 28 385.76 14.5
28 -12 4 320.37 13.8
12 -28 -4 358.86 15.8
-4 28 12 362.26 14.6
12 28 4 357.16 15
4 -28 12 376.76 14.8
12 28 -6 246.58 14.9
12 -28 6 252.17 12.5
-12 28 6 243.48 13.1
-6 12 28 249.18 13.4
28 6 -12 247.68 13.5
12 6 28 223.48 11.6
28 -12 -6 253.07 13.2
6 28 12 256.67 12.9
6 -28 -12 258.67 11.4
28 -12 6 263.77 13.8
6 12 28 243.18 12
6 -28 12 270.17 13.3
-12 6 28 253.87 14.1
-6 28 12 218.58 12.4
12 28 6 243.18 13.5
12 -28 -6 264.57 12
28 -6 -12 279.67 13.6
12 28 -8 9.4 12.5
-12 28 8 7.9 10.1
12 8 28 8.2 8.8
12 -28 8 18.4 10
8 28 12 1.2 10.3
8 -28 -12 6.5 8.4
28 8 -12 12.4 11.2
-8 12 28 6.5 11.3
28 -12 -8 10.6 10.5
-12 8 28 5.3 11.7
28 12 -8 17.2 12.8
8 -28 12 3.7 10.5
8 12 28 12.2 9.3
12 -28 -8 8.5 8
28 -12 8 5.3 10.9
-8 28 12 14.9 10.2
12 28 8 1.8 10
28 -8 -12 14 10.9
10 -28 -12 20.4 9.1
-12 28 10 28.1 10.9
12 28 -10 20.3 12.6
28 -10 12 11.7 11.6
12 -28 10 20 10.6
10 28 12 23.6 10.7
-10 12 28 21.5 12.1
28 -12 -10 22.8 11.4
28 10 -12 27.4 11.5
12 10 28 17.3 8.7
28 12 -10 30 10.8
28 12 -10 18.5 12.4
28 -10 -12 23.5 11.3
-10 28 12 26.4 10.6
28 -12 10 27.2 11.5
10 12 28 30.5 9.8
12 -28 -10 22 8.8
10 -28 12 23.3 11.1
-12 10 28 25 12.5
12 28 10 27.5 11.1
12 28 12 7.2 11.4
-12 12 28 4.9 13.2
12 -28 12 -9 11.5
28 -12 12 8.3 12.2
-12 28 12 1.9 11.2
12 -28 -12 2.4 9.3
28 -12 -12 -1.7 11.6
12 12 28 2 9.2
28 -14 0 6.1 9.3
14 28 0 1.9 11.7
0 28 14 6.1 10.1
0 14 28 -1 9.8
14 -28 0 5.5 9
28 0 -14 -9.1 11.1
0 -28 -14 -1.9 8.2
0 -14 28 3.8 8.3
28 14 0 -4.7 9.8
14 28 -2 194.28 13.9
2 28 14 173.38 12.1
14 -28 2 174.78 11.5
28 2 -14 191.78 13
2 -28 -14 178.68 9.9
14 2 28 190.48 11.2
-2 14 28 193.48 12.5
28 -14 -2 170.38 12.1
28 -14 2 190.78 13.1
2 14 28 182.18 11.8
14 28 2 190.88 13.1
-2 28 14 151.18 11.1
-14 2 28 195.58 13.4
14 -28 -2 199.88 11.5
28 14 -2 181.98 11.8
28 -2 -14 201.88 13.1
4 28 14 958.9 27.7
28 -14 -4 972.5 28.3
14 -28 4 991 27.6
-4 14 28 960.4 27.9
14 28 -4 926.71 30.1
4 -28 -14 931.21 26.2
14 4 28 947.11 26.3
28 4 -14 950.5 28.3
28 14 -4 1025.2 27.4
14 -28 -4 959.3 26.6
4 14 28 916.81 27.3
28 -4 -14 970.4 28.6
28 -14 4 977.3 28.3
-14 4 28 983.7 29.4
14 28 4 993.2 29
-4 28 14 949.21 27.9
14 -28 6 827.82 25.4
6 28 14 834.02 25.4
14 6 28 823.92 24.3
28 -14 -6 799.42 25.7
6 -28 -14 853.61 23.9
14 28 -6 846.62 28.5
28 6 -14 812.12 25.8
-6 14 28 844.62 26.4
-6 28 14 817.42 26
6 14 28 796.12 24.9
-14 6 28 828.12 27.9
14 28 6 834.72 26.6
28 14 -6 823.42 25.1
28 -14 6 848.52 26
28 -6 -14 824.12 26.5
14 -28 -6 792.92 24
-8 14 28 207.18 14
14 -28 8 183.78 12.7
8 -28 -14 213.18 11.3
14 28 -8 179.28 15.2
28 8 -14 204.58 12.5
28 -14 -8 214.88 13.6
-14 28 8 192.18 13.4
14 8 28 215.18 12.2
8 28 14 210.08 12.9
8 -28 14 223.08 13.9
28 14 -8 193.58 12.7
14 28 8 207.48 13.6
28 14 -8 199.48 15.7
28 -8 -14 198.68 13.4
8 14 28 217.68 12.1
-8 28 14 198.48 13.3
14 -28 -8 184.58 10.9
-14 8 28 210.68 15
28 -14 8 187.18 13.1
28 -14 -10 16.9 11.7
-14 28 10 16.4 11.2
-10 14 28 17.3 12.8
10 -28 -14 11.3 9.2
28 -10 14 13.4 12.3
14 -28 10 18.3 11.5
28 14 10 14.7 10.6
10 28 14 10.4 11.2
14 10 28 14 9.5
14 28 -10 11 13.7
28 14 -10 21.3 11.1
28 -14 10 10.9 11.8
14 28 10 21.9 11.6
10 14 28 16.9 10.2
28 14 -10 18.4 13.2
10 -28 14 15.8 12.3
28 -10 -14 13.9 12.2
-14 10 28 16.9 13.5
14 -28 -10 12.3 9.2
-10 28 14 16.7 11.4
28 -12 14 32.7 13.3
12 -28 -14 40 10.5
14 12 28 28.4 9.8
-14 28 12 33.8 12.2
28 14 12 34.1 11.2
28 -14 -12 30.1 12.5
14 -28 12 26.8 12.5
-12 14 28 33.6 13.9
12 28 14 36.3 12.1
14 28 12 30.6 12.4
28 -12 -14 25.9 12.5
-14 12 28 31.7 14.7
28 -14 12 29.4 12.9
12 14 28 21.3 10.5
12 -28 14 31.2 12.9
-12 28 14 27.5 11.6
14 -28 -12 31.2 9.8
14 14 28 124.29 11.6
14 28 14 162.18 14.1
-14 28 14 148.39 13.5
28 -14 -14 158.88 14.5
28 -14 14 167.08 15.6
14 -28 -14 177.98 12.6
14 -28 14 152.18 15.1
-14 14 28 154.78 16.3
28 14 14 150.18 12.9
0 16 28 52.49 11.2
16 28 0 52.99 12.9
16 -28 0 47.1 10.5
28 16 0 49.1 11.7
28 0 -16 41.7 12.1
28 -16 0 46.9 10.8
0 28 16 51.19 10.6
2 -28 -16 306.47 12.5
28 -16 -2 300.27 15
28 2 -16 280.57 14.8
16 28 -2 325.97 16.6
16 -28 2 302.97 13.9
2 28 16 280.27 14.1
28 16 2 324.07 14.8
-2 16 28 289.37 14.6
28 -16 2 280.07 14.2
16 28 2 318.87 16.1
2 16 28 302.97 14.5
-2 28 16 279.27 14
28 -2 -16 282.47 15.2
16 -28 -2 303.07 13.6
28 16 -2 308.27 14.6
28 -16 -4 1264.27 34.9
16 28 -4 1355.66 37.5
28 4 -16 1278.77 34.1
16 4 28 1315.47 33.6
-4 16 28 1281.47 35.1
16 -28 4 1301.77 34.4
4 -28 -16 1307.17 33.1
4 28 16 1274.57 34.6
28 16 4 1321.07 34
28 -4 -16 1290.67 35.3
4 16 28 1276.47 34.1
-4 28 16 1269.07 34.3
28 -16 4 1294.77 34.7
16 28 4 1307.57 35.7
28 16 -4 1289.47 34.4
6 28 16 1177.48 32.3
16 28 -6 1089.79 35.1
16 6 28 1158.28 31
6 -28 -16 1145.09 30.6
28 16 6 1188.68 31.6
16 -28 6 1159.18 32
28 -16 -6 1155.58 32.5
-6 16 28 1176.18 33
28 -6 -16 1170.98 33.1
16 28 6 1198.58 33.6
28 16 -6 1122.49 32.2
-16 6 28 1170.68 35.1
28 -16 6 1145.99 32.6
-6 28 16 1149.89 32.7
6 16 28 1146.09 31.7
16 -28 8 299.17 15.3
16 8 28 314.77 14.2
8 -28 -16 295.77 13.4
16 28 -8 264.27 17.7
-16 28 8 233.38 13.7
-8 16 28 280.07 15.4
8 28 16 297.17 14.8
28 16 8 298.87 14.2
28 -16 -8 258.67 15
-16 8 28 290.07 17.7
8 16 28 274.57 14
28 -8 -16 289.17 15.6
28 16 -8 288.27 15.1
16 28 8 284.97 15.4
-8 28 16 312.07 15.5
16 -28 -8 317.97 13.8
28 -16 -10 18.2 12.5
28 16 10 26.8 11.8
10 28 16 27.8 12.2
16 10 28 29.9 10.6
-16 28 10 26 12.6
16 -28 10 21.6 12.7
16 28 -10 21.5 14.8
-10 16 28 28 13.6
10 -28 -16 27.5 10.1
-16 10 28 39.5 15.6
28 -16 10 20 12.9
-10 28 16 16.7 12
16 28 10 22.9 12.7
16 -28 -10 31.9 10.2
10 16 28 25.6 11.4
28 -10 -16 18.9 13
16 12 28 161.58 12.9
28 -12 16 170.48 15.9
28 -16 -12 161.28 14.2
-16 28 12 147.79 14.4
-12 16 28 176.98 16.7
12 -28 -16 171.18 12.6
16 -28 12 125.39 14.4
12 28 16 181.78 14.1
28 16 12 168.28 13.9
16 -28 -12 166.28 12.9
28 -12 -16 154.48 14.5
12 16 28 151.08 13.1
-12 28 16 129.39 13.3
-16 12 28 165.78 17.4
12 -28 16 155.88 16.3
28 -16 12 145.49 14.7
16 28 12 157.18 14.4
28 -14 16 385.06 19.2
16 14 28 413.26 17
14 28 16 360.06 17.9
-14 16 28 374.76 20.1
16 -28 14 364.86 18.5
14 -28 -16 434.96 16.5
28 -16 -14 375.16 18
28 16 14 370.56 17
-16 28 14 341.67 18
-16 14 28 384.06 21.1
14 16 28 337.57 15.9
28 -16 14 378.76 18.9
14 -28 16 392.66 19.9
-14 28 16 354.96 17.5
16 28 14 325.57 17.2
28 14 16 351.06 15.8
28 -14 -16 372.46 18
16 -28 -14 410.86 16.4
16 -14 28 400.86 22
28 -16 16 652.13 24.2
16 -28 16 592.14 23.7
28 16 16 653.93 26.7
-16 28 16 680.13 28.5
16 -28 -16 640.74 25.5
28 -16 -16 686.43 24.1
-16 16 28 662.93 26.3
16 28 16 571.14 22.6
18 -28 0 231.08 13.2
18 28 0 224.98 16.2
0 28 18 195.48 13.7
28 0 -18 216.28 14.2
28 -18 0 173.18 13.1
28 18 0 205.68 13.8
0 18 28 211.78 13.7
2 -28 -18 542.75 20.1
18 -28 2 570.94 22.2
28 18 2 548.55 22.3
28 -18 -2 548.55 22.9
18 28 -2 554.14 21.6
-2 18 28 550.94 23.2
28 2 -18 508.95 22.5
2 28 18 542.85 22.6
18 -28 -2 550.14 21.7
28 -2 -18 552.14 24
18 28 2 551.64 20.6
28 -18 2 563.34 23
-2 28 18 536.95 21.9
2 18 28 538.65 22.4
28 18 -2 544.85 23.1
28 18 4 1331.97 35.8
4 28 18 1276.97 35.9
18 4 28 1340.57 34.6
28 -18 -4 1362.76 36
-4 18 28 1318.17 36.7
18 28 -4 1342.17 39.6
4 -28 -18 1378.46 34.6
18 -28 4 1353.26 35.7
28 -18 4 1349.27 36.4
28 -4 -18 1369.66 36.9
18 28 4 1333.47 37.8
28 18 -4 1316.37 36.6
-4 28 18 1277.07 35.6
4 18 28 1287.17 35.7
6 28 18 1044 31
18 6 28 995.6 29.5
28 -18 -6 1036.8 31.3
-6 18 28 1042.8 32
28 18 6 1054.49 30.9
6 -28 -18 1070.29 29.3
18 28 -6 1047.7 35.9
18 -28 6 1034.2 30.5
6 18 28 1062.09 30.5
28 -18 6 1014.6 31.3
28 18 -6 990.3 31.9
18 28 6 1071.19 32.5
28 -6 -18 1047.5 32.2
-6 28 18 1104.79 31.3
8 28 18 282.27 15.3
8 -28 -18 297.87 14.1
18 8 28 305.97 14.9
18 28 -8 259.17 19.2
18 -28 8 295.67 15.9
28 18 8 293.77 15.4
28 -18 -8 276.27 15.5
-8 18 28 292.77 16.6
28 -18 8 282.07 15.9
28 18 -8 262.17 16.6
18 28 8 288.27 16.4
18 -28 -8 296.97 14.4
-8 28 18 304.77 16.2
8 18 28 281.97 14.8
28 -8 -18 306.57 17
28 -18 -10 51.49 13.4
10 -28 -18 51.29 11.3
18 10 28 60.99 11.9
18 -28 10 40.9 13.5
-10 18 28 58.59 15
28 18 10 53.99 13.4
10 28 18 57.79 13.5
-10 28 18 50.89 13.3
18 -28 -10 44.7 11.3
10 18 28 42.5 12.2
28 -10 -18 49.1 14.8
28 -18 10 52.39 14.4
18 28 10 50.39 14.2
-18 10 28 51.39 18.2
28 18 12 175.08 15.2
-18 28 12 165.98 15.9
28 -18 -12 162.08 15.2
18 -28 12 197.88 16.8
-12 18 28 178.78 17.5
12 28 18 150.78 14.8
28 -12 18 197.38 17.2
18 12 28 186.08 13.8
12 -28 -18 183.58 13.4
-18 12 28 188.98 20
18 -28 -12 213.28 14.2
28 12 18 176.48 14.1
28 -18 12 196.98 16.6
12 18 28 188.68 13.9
28 -12 -18 171.08 15.7
18 28 12 174.18 15.5
-14 18 28 580.74 24.4
18 -14 -28 700.63 23.5
14 -28 -18 651.63 25
28 -14 18 614.84 23.8
14 28 18 618.04 26.9
18 -28 14 591.24 23.6
28 18 14 615.64 26.5
28 -18 -14 658.53 23.5
28 -18 14 595.04 23.5
14 -28 18 603.94 24.4
18 28 14 514.45 22
18 -28 -14 609.54 25.2
-18 14 28 609.54 26.3
18 -14 28 547.75 26
28 -14 -18 538.95 22
28 14 18 612.84 24.8
18 -28 16 962.1 36.2
-16 18 28 954.3 39.3
28 -18 -16 894.51 33.7
18 -16 -28 996.4 34.1
18 -16 28 969.4 40.4
16 -28 18 955.1 37.1
28 -16 -18 900.61 33.4
16 -18 -28 941.51 33.5
-18 16 28 943.11 39.1
18 -18 -28 853.41 33.2
18 -18 28 647.04 31
18 -28 18 796.42 29.8
28 -18 -18 767.42 33.1
-18 18 28 719.83 30.3
0 20 28 18 12.9
20 28 0 8.6 16.5
28 0 -20 12.9 13.9
28 -20 0 17.8 12.1
28 20 0 8.2 14
20 -28 0 14.5 11.8
0 28 20 6.2 11.6
28 20 2 -2.5 13.6
-2 20 28 -0.4 13.3
20 28 -2 -7.2 16.9
2 28 20 -1.2 12.5
28 -20 -2 -1.5 11.8
2 -20 28 5.6 15.1
20 -28 2 -3 12.3
20 28 2 2.2 15.8
20 -28 -2 4.7 11.3
-2 28 20 1.2 11.8
28 -20 2 -6.5 13
2 20 28 -7.7 12.8
28 20 -2 -0.3 14.5
28 -2 -20 -8.7 14.4
4 -28 -20 131.39 12.4
20 28 -4 114.09 19.1
28 -20 -4 120.39 14.1
4 28 20 114.69 13.7
20 -28 4 125.39 14
28 20 4 111.29 14
-4 20 28 107.99 14.4
20 -28 -4 109.59 12.9
-4 28 20 110.69 14
28 -4 -20 109.29 15.4
28 20 -4 102.39 16
28 -20 4 100.39 13.4
20 28 4 128.99 16.6
4 20 28 110.89 13.7
20 28 -6 91.99 20.4
6 28 20 100.39 13.9
28 20 6 102.49 14
20 -28 6 105.39 13.6
6 -28 -20 139.69 12.9
-6 20 28 109.09 15.3
28 -20 -6 133.19 14.3
20 6 28 123.99 13
20 -28 -6 114.99 13.3
20 28 6 119.19 15.8
-6 28 20 101.99 14.3
28 -20 6 108.99 13.4
28 20 -6 104.09 17
6 20 28 124.29 14
28 -6 -20 117.59 16.3
8 -28 -20 0.9 10.5
-8 20 28 9.8 15.1
28 -20 -8 -4.5 13.7
28 20 8 -0.7 13.8
20 8 28 -0.8 12.5
20 28 -8 10.1 19.7
8 28 20 2.2 12.7
20 -28 8 -0.5 14.1
20 -28 -8 -1 11.6
8 20 28 6.3 13.4
20 28 8 -1.8 14.8
28 -20 8 8.3 14.7
-8 28 20 -1.3 14.4
28 20 -8 -8.8 17.2
28 -8 -20 -13.5 15.7
10 -28 -20 89.19 13.3
10 28 20 82.39 14.9
20 10 28 94.89 13.8
28 -20 -10 89.29 15.1
-10 20 28 86.19 16.9
28 20 10 79.49 14.1
20 -28 10 80.99 14.5
28 -20 10 95.29 16
20 -28 -10 92.79 13.4
10 20 28 97.69 14.1
20 28 10 77.49 16.1
-10 28 20 98.79 15.5
28 -10 -20 104.09 16.9
28 -12 20 31.6 17.2
20 -28 12 44.8 16.8
12 -28 -20 49.5 13.6
28 20 12 49.1 14.6
28 -20 -12 31.2 15.2
20 -12 -28 45.4 18.1
-12 20 28 45.7 18.1
28 -12 -20 40 17.5
28 -20 12 50.69 17.1
20 -28 -12 34.5 12.8
20 28 12 44.5 16.4
20 -14 -28 81.39 19.5
28 -20 -14 48.4 15.9
20 -28 14 74.19 18.7
-14 20 28 40.8 19.6
20 -14 28 64.89 22.2
28 -14 -20 57.79 18.5
-16 20 28 253.07 23.8
20 -28 16 230.38 22
20 -16 -28 303.97 22.5
28 -20 -16 307.57 21.2
28 -16 -20 275.37 20.8
-20 16 28 290.87 27.6
16 -28 20 211.48 24
16 -20 -28 286.87 20.5
20 -16 28 264.37 24.7
20 -18 -28 166.68 22.7
28 -18 -20 148.99 22
-20 18 28 173.38 29.2
20 -18 28 169.08 27.1
18 -20 -28 171.38 22.3
18 -28 20 155.58 26.2
28 22 0 128.79 17.9
0 -28 22 135.89 17
22 -28 0 156.48 14.5
28 -22 0 123.69 14.1
22 28 0 162.18 19.7
0 28 22 123.89 14.6
0 22 28 122.19 15.3
-2 22 28 59.19 15.4
22 -28 2 64.99 14.3
28 22 2 56.99 16.7
22 28 -2 51.09 20.1
28 -22 -2 68.19 14.4
2 28 22 64.59 14.5
-2 28 22 51.39 14
28 -22 2 59.09 14.6
2 -28 22 71.89 18
28 -2 -22 58.09 17.1
22 28 2 57.39 18.5
28 22 -2 64.29 18
2 22 28 60.29 14.4
22 -28 -2 60.99 12.9
22 -28 4 11.7 13.7
-4 22 28 6.2 15.6
4 -22 28 5.4 19.7
22 28 -4 23.3 21.3
28 22 4 14.6 15.5
4 28 22 12.1 15.1
28 -22 -4 7.1 14.1
28 -22 4 22.6 14.4
4 22 28 2.2 14.3
22 -28 -4 16.1 13.4
22 28 4 24.6 17.4
28 -4 -22 19.4 17.8
28 22 -4 22 18.7
-4 28 22 15 13.6
4 -28 22 6.6 19.4
28 -22 -6 65.69 15.1
28 22 6 62.59 15.7
22 -28 6 63.69 14.9
-6 22 28 56.69 15.4
6 -28 -22 75.09 13.6
22 28 -6 58.49 23.4
6 -22 28 73.39 21.8
22 6 28 79.89 14.9
22 -28 -6 74.69 14.1
22 28 6 74.19 17.3
28 22 -6 64.49 20.9
28 -6 -22 68.79 18.7
28 -22 6 63.79 15.6
6 22 28 86.59 15.3
8 -22 28 6.7 22.9
28 -22 -8 5.4 15.3
-8 22 28 -2.4 17.1
8 -28 -22 3 13
28 22 8 -3.6 16.8
22 -28 8 4.8 15.3
22 28 8 -1 17.7
28 -22 8 -1.9 16.8
22 -28 -8 -5.5 13.6
28 -8 -22 -0.4 18.6
-10 22 28 186.48 20.1
22 -10 -28 231.38 21.8
28 -22 -10 197.58 17.8
28 22 10 196.18 18.5
22 -28 10 171.98 18.7
28 -10 -22 190.18 20.6
22 28 10 194.98 19.6
22 -12 -28 185.48 22.4
28 -12 -22 159.38 21
22 -14 -28 6.7 22.4
22 -14 28 3.1 24.8
28 -14 -22 3.6 22
24 28 0 153.58 23.6
28 24 0 134.49 21.3
24 28 -2 17.8 24.4
28 24 2 32.7 19.9
28 24 -2 25.5 22.2
2 -28 24 4.4 23.3
24 28 2 12.6 21.7
28 24 4 113.79 19.9
24 28 -4 107.69 26.9
24 28 4 109.19 21
4 -28 24 135.79 24.4
28 24 -4 135.49 26
28 24 6 154.88 20.2
6 -24 28 165.78 27
24 28 6 174.28 21.1
6 -28 24 184.78 26.3
28 24 8 5 20.2
8 -24 28 7.8 27.5
8 -28 24 12.6 26.2
28 -8 -24 13 24.5
24 28 8 6.1 20.9
28 -10 -24 22.2 25.4
28 26 2 430.96 28.1
26 28 2 434.36 28.8
28 26 4 1422.66 48.6
26 28 4 1354.76 49.8
28 26 6 1227.58 45.4
26 28 6 1203.78 47.1
-1 -29 -1 785.62 21.9
-1 -29 1 808.62 22.2
-1 -1 29 820.22 22.5
-1 1 29 786.92 22.5
-1 29 -1 820.42 23.8
-1 29 1 815.92 23.9
1 -29 -1 773.22 21.9
1 -29 1 779.02 22.1
1 -1 29 769.62 22.3
1 1 29 753.62 22.4
1 29 -1 798.62 24.1
1 29 1 799.22 24.2
29 -1 -1 792.12 24.6
29 1 -1 780.72 24.7
-3 -29 -1 4.3 7.4
1 -29 -3 3.9 7.3
3 1 29 -5.7 7.7
-3 29 1 1.1 8.8
1 29 3 1 9.4
-1 3 29 -3.8 8.3
1 -3 29 2.5 7.9
29 -3 -1 0 9.2
-1 -29 3 1.9 7.7
3 -29 1 -5.8 7.5
3 29 -1 -6.3 9.3
-1 29 -3 -2.4 9.2
-3 -1 29 -2.3 8.1
29 1 -3 -0.9 10
29 -3 1 2.7 9.8
3 -1 29 2.2 7.7
-3 29 -1 7.8 8.8
1 3 29 -0.5 8.2
29 -1 -3 -2.1 9.5
-3 1 29 -3.5 8.4
-1 -29 -3 2.6 7.1
3 -29 -1 -3.1 7
3 29 1 -6.4 9.5
-1 29 3 2.5 9.2
-3 -29 1 4.1 7.6
1 -29 3 6.7 7.8
1 29 -3 -2.2 9.1
-1 -3 29 -3.3 7.7
3 29 -3 280.87 13.3
3 29 3 282.97 13.1
29 -3 -3 285.77 13.5
3 3 29 283.07 11.8
-3 -29 -3 281.17 11.5
-3 -29 3 278.87 11.6
-3 -3 29 283.17 11.7
-3 3 29 296.37 12.3
-3 29 -3 274.17 13.4
-3 29 3 280.27 12.9
3 -29 -3 246.68 10.8
3 -29 3 254.77 10.9
3 -3 29 286.37 11.7
29 3 -3 298.47 14.1
29 -3 3 279.57 13.6
-5 -29 -1 73.09 8.4
-5 29 1 63.49 10
5 29 -1 79.69 10.7
-1 5 29 70.69 9
29 -5 -1 62.99 10
29 1 -5 66.29 10.3
1 29 5 67.39 9.8
1 -5 29 69.39 8.6
-1 -29 5 70.59 8.6
-1 29 -5 76.19 10.9
5 1 29 77.59 8.7
1 -29 -5 76.49 8.1
5 -29 1 61.09 7.5
-5 -1 29 70.39 9.4
-5 1 29 71.89 9.7
-1 -29 -5 79.99 8.3
-1 29 5 72.19 10.2
29 -1 -5 62.49 10.7
29 -5 1 74.49 10.5
5 29 1 76.29 10.2
5 -29 -1 63.19 7.4
-5 -29 1 71.39 8.2
-5 29 -1 60.59 9.7
-1 -5 29 72.59 8.7
1 -29 5 57.59 8.5
1 29 -5 55.59 10.4
5 -1 29 76.49 9
1 5 29 75.59 9
3 -29 -5 517.75 17.2
-5 29 3 547.25 19.4
-3 -29 5 533.55 17.8
3 -5 29 532.35 17.7
-3 29 -5 523.95 20.4
29 3 -5 503.65 20.5
5 29 -3 520.45 20.5
3 29 5 498.35 19.3
29 -5 -3 521.25 19.9
5 3 29 508.55 17.6
-3 5 29 510.35 18.7
5 -29 3 513.65 17.8
-5 -29 -3 495.45 17.1
-5 -3 29 514.65 18
3 29 -5 502.95 20.2
5 29 3 510.05 19.6
29 -3 -5 505.55 20
-5 -29 3 520.45 17.3
-3 -29 -5 506.05 17.2
5 -29 -3 515.45 17.1
3 5 29 515.35 18.1
-5 3 29 497.25 19
3 -29 5 502.75 17.6
-3 29 5 530.55 19.4
29 -5 3 521.45 20.7
5 -3 29 538.55 18
-5 29 -3 503.95 20
-3 -5 29 509.35 17.6
5 -29 5 944.81 25.9
5 -29 -5 948.21 25.4
5 5 29 945.91 26
5 29 -5 1016.2 28.1
5 29 5 959.9 27.3
-5 -29 5 948.61 25.6
29 -5 -5 965.6 27.5
-5 -5 29 945.51 25.1
29 5 -5 1014.6 28.8
29 -5 5 914.31 28
-5 5 29 973.6 26.8
-5 29 5 929.61 27.2
-5 -29 -5 977.1 25.6
5 -5 29 979.1 25.8
1 -29 -7 2.9 7.2
-7 29 1 7.8 9.2
-1 -29 7 0 8.1
-7 -1 29 2.5 9.1
-1 7 29 5.7 8.7
1 29 7 1.1 9.1
7 1 29 9.1 8.2
7 -29 1 6.4 8
29 -7 -1 7.3 9.8
29 1 -7 4.4 10.4
7 29 -1 3.4 10.1
1 -7 29 7.9 8.1
-1 -29 -7 6.6 7.6
1 29 -7 6.1 10.1
-1 -7 29 9.7 8.3
1 -29 7 1 8.6
7 29 1 2.4 9.7
29 -1 -7 10.7 10.3
-7 29 -1 6.7 9.5
-7 1 29 11 9.5
1 7 29 3.6 8.5
7 -29 -1 9 7.7
-1 29 7 -5.5 9
7 -1 29 5 8.4
29 -7 1 0.5 9
29 3 -7 329.77 15
3 29 7 319.27 13.9
3 -7 29 325.27 12.8
29 -7 -3 331.07 14.7
7 29 -3 311.77 14.7
7 -29 3 326.67 13.3
7 3 29 324.97 12.7
-3 -29 7 329.97 13
-3 7 29 341.47 14
3 -29 -7 341.77 12.6
-7 29 3 296.47 13.6
-7 -3 29 331.77 12.7
3 -29 7 304.97 12.7
-7 3 29 318.17 13.8
7 -3 29 333.07 12.7
7 -29 -3 291.57 12.1
3 7 29 333.87 13.4
29 -3 -7 330.17 15
7 29 3 322.77 14.1
29 -7 3 312.97 14.3
-3 29 7 351.76 14.3
3 29 -7 326.87 14.8
-3 -7 29 346.07 12.2
-3 -29 -7 306.37 12.2
-5 7 29 946.21 26.8
7 5 29 924.71 25.5
5 -7 29 893.41 25.5
5 -29 -7 949.51 25.1
7 29 -5 946.31 28.4
-7 29 5 917.91 26.7
29 -7 -5 933.61 27.1
5 29 7 945.21 27
29 5 -7 935.11 27.9
7 -29 5 921.41 25.9
-5 29 7 961.3 26.8
29 7 -5 945.51 28.7
29 -7 5 964.7 27.8
5 -29 7 935.91 26.1
7 29 5 933.01 27.1
7 -5 29 938.31 25.5
7 -29 -5 934.61 25.2
5 7 29 935.31 25.7
29 -5 -7 927.91 27.4
-7 5 29 936.71 27.1
5 29 -7 924.51 28.2
7 29 -7 810.22 26.9
7 7 29 855.41 23.9
7 -29 7 833.42 24.3
-7 29 7 869.61 25.3
-7 7 29 828.72 25.6
7 29 7 850.01 25.4
29 -7 -7 815.42 25.8
29 -7 7 832.52 26.2
29 7 -7 816.62 26.7
7 -29 -7 812.22 23.3
9 -29 1 231.18 11.7
29 -9 -1 253.67 13.6
9 29 -1 214.38 13.3
-9 29 1 227.58 12.4
9 1 29 216.78 11.1
-1 9 29 211.28 11.7
1 -9 29 212.98 11
1 -29 -9 237.48 11
1 29 9 179.88 11.2
-9 -1 29 211.88 11.7
29 1 -9 215.28 13
-1 -9 29 232.08 10.8
-9 29 -1 238.98 12.9
-1 -29 -9 211.78 10.5
-1 29 9 207.98 12.2
1 -29 9 237.08 12
29 -1 -9 220.28 13.4
9 -1 29 197.58 10.9
-9 1 29 222.08 12.5
1 9 29 207.18 11.7
9 29 1 224.88 13
9 -29 -1 239.98 11.2
29 -9 1 197.18 12.4
-9 29 3 15.7 9.9
9 29 -3 18.6 11.7
9 -29 3 10.3 8.8
29 -9 -3 15.1 10
3 -9 29 10.7 8.7
29 3 -9 4.2 10.9
3 29 9 12.7 9.7
3 -29 -9 17.6 7.9
-3 9 29 15 10
9 3 29 13.5 8.9
-3 -29 -9 7.6 7.8
3 -29 9 13.4 9.1
29 -3 -9 15.1 10.5
-9 3 29 10.6 10.4
9 -29 -3 11.7 7.7
29 -9 3 17.8 10.2
3 9 29 13.3 9.2
9 -3 29 21.1 9.1
9 29 3 20.9 10.2
-3 29 9 16.9 10
29 5 -9 300.47 14.9
5 -29 -9 317.97 12.5
9 -29 5 297.47 12.9
9 29 -5 301.97 15.2
29 -9 -5 341.47 15
5 29 9 293.27 13.7
9 5 29 308.27 12.7
-9 29 5 327.67 14.3
-5 9 29 297.27 13.8
-5 29 9 317.87 14.1
5 -29 9 318.37 13.8
9 29 5 299.47 14.2
29 -9 5 299.07 14.5
5 9 29 298.97 12.8
9 -29 -5 291.97 12.2
-9 5 29 333.97 14.6
29 -5 -9 312.57 14.7
-9 29 7 226.78 12.8
7 -29 -9 225.58 11
7 29 9 210.78 12.6
29 -9 -7 243.58 13.9
9 -29 7 226.68 12.4
9 29 -7 207.58 14.4
29 -7 9 228.48 13.4
-7 9 29 238.68 13.4
9 7 29 184.68 10.8
29 7 -9 195.68 13.8
29 -9 7 221.98 13.5
-9 7 29 225.48 13.5
7 -29 9 221.18 12.3
7 29 -9 218.48 14.3
29 9 -7 226.98 15.1
7 9 29 241.58 12.4
9 -29 -7 235.68 11.7
-7 29 9 203.18 12.4
9 29 7 200.68 12.5
29 -7 -9 230.58 13.4
29 9 -9 10.1 12.6
-9 9 29 13.2 11.6
-9 29 9 15.4 10.3
9 -29 -9 16.5 8.8
29 -9 9 25.1 11.1
9 9 29 14.5 9.4
29 -9 -9 21.2 11
9 -29 9 18.2 10.6
9 29 -9 12.5 12.9
9 29 9 11.5 10.5
1 -11 29 379.26 16.7
29 -11 -1 417.36 16.8
1 29 11 372.46 15
-11 29 1 410.86 16.5
29 1 -11 429.46 16.6
-1 11 29 428.66 15.9
1 -29 -11 402.96 16.5
11 1 29 406.66 15
11 29 -1 421.66 17
-11 -1 29 434.96 14.8
11 -29 1 395.66 15.1
-1 29 11 328.07 14.4
11 -29 -1 387.46 17
-11 1 29 381.66 15.7
1 11 29 378.26 14.8
11 29 1 415.96 16.4
29 -1 -11 434.26 16.7
-1 -29 -11 383.76 16.3
11 -1 29 398.86 17.1
29 -11 1 474.65 17.3
-1 -11 29 381.56 15.9
3 -29 -11 10.8 8
3 -11 29 9.3 9.4
11 -29 3 7.1 9.4
11 29 -3 13.8 12.2
-11 29 3 8.5 9.1
29 3 -11 8.1 11.4
11 3 29 4.4 9.1
29 -11 -3 8.4 9.9
-3 11 29 9.4 10.2
3 29 11 8.4 10.2
11 29 3 9.6 11
11 -29 -3 8.5 8.1
-11 3 29 19.5 11.3
-3 29 11 5.4 9.7
29 -3 -11 7.3 11.1
29 -11 3 1.8 10
3 11 29 7.8 9.4
-11 29 5 32.3 10.5
-5 11 29 37.2 11.2
29 5 -11 30.6 11.9
29 -11 -5 34.5 10.4
11 5 29 40.6 9.7
11 29 -5 37.7 12.9
5 29 11 44.4 10.4
5 -29 -11 33.2 8.3
11 -29 5 35.5 10.1
-5 29 11 42.4 10.3
-11 5 29 28.9 11.8
5 -29 11 39.6 10.5
29 -5 -11 34.6 11.2
5 11 29 35.8 9.6
11 -29 -5 31.5 8.4
29 -11 5 52.49 11.3
11 29 5 29.5 10.9
29 7 -11 -7.6 12.1
11 -29 7 2.3 10.3
-11 29 7 -2.3 9.6
-7 11 29 1 11.3
11 7 29 2.9 9.2
7 29 11 0.1 10.4
7 -29 -11 1.3 8.4
11 29 -7 -8.4 12.8
29 -11 -7 -2.2 11
-7 29 11 1.3 10.1
29 -11 7 -7.7 10.6
7 -29 11 -3.4 10.8
7 11 29 -1.3 9.6
-11 7 29 3.2 12.2
11 -29 -7 2.7 8.3
11 29 7 -0.5 10.9
29 11 -7 11.1 13.3
29 -7 -11 1.6 11.5
11 -29 9 151.48 12.6
29 -11 -9 144.79 13.1
9 -29 -11 152.48 10.7
11 29 -9 157.58 14.8
-11 29 9 133.29 12
9 29 11 125.29 12
11 9 29 170.08 11.7
-9 11 29 155.68 13.8
29 9 -11 132.29 13.7
29 -9 11 146.19 13.2
11 29 9 135.19 12.5
-11 9 29 131.19 13.8
-9 29 11 127.29 12
29 -11 9 127.79 13.1
29 11 -9 138.49 14.4
9 11 29 141.89 11.2
11 -29 -9 120.39 10.1
9 -29 11 151.78 12.7
29 -9 -11 154.18 13.1
11 -29 11 350.06 15.8
29 11 -11 314.97 14.5
29 -11 11 313.77 15.8
11 11 29 324.47 14
-11 29 11 276.97 13.9
11 -29 -11 293.97 12.8
29 11 -11 317.47 16.1
-11 11 29 307.77 16.5
11 29 11 322.87 15.3
29 -11 -11 318.87 15.8
1 -13 29 100.39 10.3
13 29 -1 101.89 13.4
13 -29 1 91.49 10
-1 13 29 92.49 11.5
13 1 29 97.49 10.1
29 -13 -1 112.99 12.5
29 1 -13 106.89 12.8
1 -29 -13 98.89 9.3
1 29 13 94.59 10.5
1 13 29 91.49 11.2
29 -1 -13 89.59 12.7
-1 -29 -13 98.09 9.6
-1 29 13 96.89 11
-13 1 29 93.29 12.5
13 29 1 93.39 12.9
29 -13 1 85.59 11.7
13 -29 -1 98.79 10.1
29 -13 -3 62.99 11.8
13 3 29 76.29 10.1
3 29 13 67.99 10.9
29 3 -13 72.29 12.7
3 -29 -13 72.09 9.4
-3 13 29 51.69 11.4
3 -13 29 64.69 10.5
13 29 -3 64.79 13.6
13 -29 3 62.29 10.3
29 -3 -13 61.59 12.5
13 29 3 72.09 12.4
29 -13 3 76.29 12
-13 3 29 66.39 13
3 13 29 60.99 10.6
13 -29 -3 59.99 9.6
-3 29 13 56.09 11.1
29 -13 -5 281.67 14.8
29 5 -13 270.87 14.9
13 29 -5 274.37 16.8
13 -29 5 265.87 13.8
13 5 29 302.97 13.6
-5 13 29 285.77 14.7
-13 29 5 244.98 13.9
5 29 13 262.97 13.9
5 -29 -13 286.87 12.4
29 -5 -13 291.67 15.2
5 13 29 272.37 13.8
-5 29 13 293.17 14.3
13 -29 -5 289.17 13.3
29 13 -5 275.27 14
-13 5 29 278.07 15.8
29 -13 5 234.88 13.5
13 29 5 286.17 15.2
7 -29 -13 88.79 9.5
-13 29 7 90.19 11.9
13 7 29 89.09 10.7
13 -29 7 88.49 11.5
-7 13 29 89.99 12.7
29 7 -13 94.09 12.8
13 29 -7 85.19 14.8
29 -13 -7 83.09 12.2
7 29 13 74.99 11.3
13 -29 -7 95.19 10.5
-13 7 29 91.59 14.1
-7 29 13 81.79 11.8
7 -29 13 94.99 13.1
29 -13 7 87.69 12.4
29 -7 -13 97.79 13
7 13 29 86.69 10.9
13 29 7 87.19 12.5
29 13 -7 98.79 12.2
-9 13 29 6.7 12.6
29 -13 -9 5.9 12
13 9 29 3.9 9.8
29 9 -13 0.7 12.5
13 -29 9 5.3 11.5
9 -29 -13 -1.5 9
-13 29 9 0.4 10.9
29 -9 13 11.2 12.2
13 29 -9 7.4 15
9 29 13 0.2 11.8
13 29 9 11.9 11.6
29 -13 9 0.5 11.5
13 -29 -9 6.9 9.6
29 -9 -13 10.5 12.7
29 13 -9 -0.2 14.7
-13 9 29 1.7 14
-9 29 13 7 11.5
9 -29 13 10.2 12.4
29 13 -9 4.2 12
9 13 29 5.5 10.7
-13 29 11 76.99 12.6
13 11 29 67.89 10.7
11 -29 -13 88.39 11
-11 13 29 61.09 14.6
13 -29 11 94.59 13.4
29 -13 -11 71.89 13.1
11 29 13 68.39 12.1
29 -11 13 68.99 13.7
13 -29 -11 68.99 9.7
-11 29 13 71.69 12.2
11 13 29 59.49 10.7
-13 11 29 86.49 14.8
29 13 -11 78.79 12.3
29 -11 -13 69.49 13.3
29 13 -11 73.59 14.2
11 -29 13 79.29 14
13 29 11 80.99 13.1
29 -13 11 57.59 12.6
29 -13 13 43.2 14.5
13 13 29 36.2 11.8
13 -29 -13 56.69 11.3
29 -13 -13 31.5 13.8
-13 29 13 32.8 11.9
-13 13 29 51.69 15.9
13 -29 13 25.8 13.4
13 29 13 45.3 13
29 1 -15 16.8 12.8
29 -15 -1 16.7 11.8
1 -15 29 18.5 10.4
15 29 -1 6.8 13.8
29 15 1 14.6 11.5
1 -29 -15 18.5 9.3
15 -29 1 13.6 10.6
1 29 15 9.7 10
-1 15 29 21.7 11.3
15 29 1 22.9 13.1
15 -29 -1 17.5 10.5
1 15 29 17.6 10.9
29 15 -1 9.3 11.4
29 -15 1 23.3 11.2
29 -1 -15 1.7 12.7
-1 29 15 17 10.5
3 -29 -15 201.28 11.5
29 3 -15 178.98 14.1
-3 15 29 194.88 13.7
15 -29 3 180.68 12.6
15 3 29 182.58 11.6
3 29 15 171.78 13
15 29 -3 202.08 16.4
29 -15 -3 179.68 13.5
29 15 3 191.68 13.3
29 15 -3 212.18 13.8
29 -15 3 155.78 12.5
15 -29 -3 157.68 10.6
3 15 29 170.68 12.2
-15 3 29 201.08 15.9
29 -3 -15 190.28 14.4
15 29 3 186.48 14.7
-3 29 15 179.38 13.1
15 29 -5 675.73 29.1
29 5 -15 656.33 25.1
29 15 5 701.53 23.8
15 5 29 689.53 23
29 -15 -5 666.23 25
5 29 15 681.33 24.4
15 -29 5 686.23 24.3
-5 15 29 707.63 25.6
5 -29 -15 705.63 22.4
5 15 29 661.53 24
29 -15 5 671.53 25
29 -5 -15 689.13 25.7
29 15 -5 689.83 24.6
-15 5 29 671.63 27.7
-5 29 15 686.43 24.8
15 -29 -5 689.53 22.4
15 29 5 701.13 26.3
7 -29 -15 357.76 14.1
15 29 -7 323.07 19
-15 29 7 299.17 15.8
-7 15 29 349.87 17.1
29 15 7 339.97 15.3
29 7 -15 327.27 15.3
15 7 29 366.86 15.4
29 -15 -7 350.66 16.5
7 29 15 350.26 16.1
15 -29 7 355.56 16
-15 7 29 345.47 18.8
15 -29 -7 340.27 14.4
29 -15 7 347.47 16.8
15 29 7 338.07 16.7
29 -7 -15 361.76 16.9
7 15 29 370.86 15.7
29 15 -7 346.57 16.3
-7 29 15 385.16 16.8
15 9 29 11.7 10.9
15 -29 9 18.5 12.4
9 -29 -15 11 9.9
-9 15 29 6.2 13.8
9 29 15 9 12.1
29 15 9 8 11.9
15 29 -9 21.5 16.2
-15 29 9 9.1 12.4
29 -15 -9 4.1 12.6
9 15 29 11 11.1
-15 9 29 3.3 15.8
29 -15 9 -0.4 12.8
29 15 -9 3.5 13.2
29 -9 -15 9.1 13.4
15 -29 -9 5.9 9.9
29 15 -9 8.2 16
15 29 9 0.9 13.1
-9 29 15 -0.9 11.9
-11 15 29 14.5 15.2
15 11 29 12.2 11
29 -15 -11 8.5 13.5
11 29 15 24.1 12.7
29 15 11 12.5 12.5
-15 29 11 15.2 12.7
29 -11 15 11.5 13.9
15 -29 11 17.3 14
11 -29 -15 4.6 10.5
11 -29 15 13.8 14.4
-15 11 29 15.1 16.3
-11 29 15 9.4 11.4
29 -15 11 7.7 13.7
29 -11 -15 3.3 13.8
11 15 29 20.7 11.8
15 -29 -11 10.6 10.9
15 29 11 18.1 13.5
15 -29 13 3.7 15
13 -29 -15 7.3 11.3
-13 15 29 19 16.3
15 13 29 2.9 10.9
29 -13 15 14.4 14.8
29 -15 -13 -8.1 14.2
13 29 15 4.1 13.8
29 15 13 13.2 12.3
-15 29 13 12.7 13.9
29 13 15 5.9 12.5
15 -29 -13 11.7 11.3
-15 13 29 0 17.3
15 29 13 -1.4 14.3
13 15 29 6.7 12.6
29 -15 13 13.9 14
13 -29 15 -0.5 15.3
29 -13 -15 -5.6 14.8
-13 29 15 11.9 14
29 -15 15 69.99 16
15 15 29 79.09 13.2
15 29 15 62.39 15.6
29 -15 -15 84.49 16.6
15 -29 15 78.39 17.8
-15 29 15 90.09 17.4
29 15 15 86.09 14.4
15 -29 -15 80.19 13.4
-15 15 29 81.99 18.4
-1 17 29 108.89 13.4
29 -17 -1 104.39 13
17 -29 1 103.79 11.5
29 1 -17 108.09 14.2
17 29 -1 126.89 16.4
1 29 17 111.19 12.8
29 17 1 111.09 13.5
29 17 -1 118.49 13.8
17 -29 -1 111.49 12.4
29 -17 1 99.59 12.7
1 17 29 128.09 13.4
29 -1 -17 120.49 14.7
17 29 1 118.69 15.3
-1 29 17 87.09 12
3 29 17 642.94 25.1
29 3 -17 661.53 25.7
3 -29 -17 690.03 22.7
17 -29 3 672.03 24.4
17 29 -3 671.63 24.5
-3 17 29 669.23 25.7
29 -17 -3 665.03 25.5
17 3 29 640.84 23
29 17 3 669.63 25.5
3 17 29 679.43 25
29 -17 3 663.63 25.2
29 -3 -17 661.73 26.4
17 -29 -3 668.13 23.3
17 29 3 710.53 28.2
29 17 -3 636.54 25.1
5 -29 -17 1230.28 33.1
29 -17 -5 1272.47 35.3
17 5 29 1293.27 33.6
17 -29 5 1262.47 34.8
29 17 5 1289.67 35.1
-5 17 29 1265.47 35.8
5 29 17 1194.68 35
17 29 -5 1244.28 39.8
17 -29 -5 1233.08 33.5
29 -5 -17 1250.77 36.2
17 29 5 1283.27 36.7
5 17 29 1223.18 34.5
29 17 -5 1219.98 35.8
-5 29 17 1249.28 35.3
29 -17 5 1240.08 34.8
29 17 7 749.23 26.3
17 -29 7 694.53 26
17 7 29 719.83 25
29 -17 -7 733.53 26.9
-7 17 29 729.23 28.6
17 29 -7 674.63 26.4
7 29 17 733.43 26.4
7 -29 -17 740.63 24.2
-17 7 29 724.03 26.6
7 17 29 673.73 25.4
29 -7 -17 688.33 27.8
-7 29 17 714.83 26.7
17 29 7 737.63 28.9
17 -29 -7 728.83 24.2
29 17 -7 669.23 27.6
17 -29 9 70.09 13.8
29 -17 -9 77.99 14
9 -29 -17 71.49 11.4
9 29 17 79.29 13.9
17 29 -9 66.79 18.2
29 17 9 96.49 14.3
-9 17 29 76.99 15.5
17 9 29 66.69 12.6
29 17 -9 67.99 15.2
-17 9 29 75.19 18.6
29 -17 9 99.99 14.8
29 -9 -17 79.89 15.1
29 17 -9 68.49 18
17 -29 -9 69.19 11.5
17 29 9 81.69 15
9 17 29 66.09 12.5
-9 29 17 93.39 13.9
-17 29 11 23.8 14.5
11 -29 -17 30.6 11.4
11 29 17 27.5 13.8
17 -29 11 33.3 15.1
29 -11 17 24.2 15.4
-11 17 29 8.5 16.2
29 17 11 31 13.9
17 11 29 23.8 11.1
29 -17 -11 33.9 14.6
29 -11 -17 27.9 15
-11 29 17 23.1 13.9
-17 11 29 22 18.7
11 17 29 29.1 12.9
29 -17 11 35.1 15.4
17 -29 -11 21.5 10.9
17 29 11 18.3 14.9
29 -13 17 168.58 17.9
13 29 17 155.28 16.3
29 17 13 155.68 15.4
29 -17 -13 171.68 16.9
13 -29 -17 164.98 13.8
17 -29 13 189.78 18.1
-13 17 29 173.28 19.2
17 13 29 135.89 13.5
-17 13 29 176.98 21
29 -13 -17 162.88 17
29 13 17 180.08 14.8
17 29 13 194.78 17.3
13 17 29 168.78 15.1
17 -29 -13 181.08 14.4
29 -17 13 162.98 16.6
17 -29 15 422.96 22.8
29 -17 -15 428.26 21.2
-15 17 29 436.66 23.3
17 -15 29 443.06 25.7
15 -29 17 398.86 22.5
29 -15 -17 418.86 21.1
-17 15 29 430.06 25
17 -29 17 762.62 28.9
29 -17 -17 774.82 32.9
-17 17 29 754.52 31
-1 19 29 29 13.5
19 -29 1 13.1 12.2
29 19 1 18.3 14
1 29 19 28.9 12.3
19 29 -1 25.7 17.4
29 1 -19 20.8 14.5
29 -19 -1 13.9 12.9
19 29 1 18.1 16.9
1 19 29 20.3 13.5
29 -1 -19 23.9 15.1
19 -29 -1 28.5 12.5
-1 29 19 15 12.4
29 19 -1 16.5 14.6
29 -19 1 16.2 12.9
29 -19 -3 176.88 14.6
3 -29 -19 199.18 12.7
29 19 3 200.58 16
3 -19 29 160.68 18.2
-3 19 29 185.58 15.8
19 29 -3 198.38 19.9
3 29 19 179.98 14.7
19 -29 3 177.78 14.5
3 19 29 188.78 15
19 29 3 213.48 17.5
29 -19 3 195.08 15.4
29 -3 -19 192.38 16.3
29 19 -3 178.68 17
19 -29 -3 192.58 13.8
19 -29 5 382.06 16.6
-5 19 29 422.96 19.2
19 5 29 418.86 17
19 29 -5 388.16 23.5
5 29 19 388.96 17.6
5 -29 -19 430.46 16.4
29 19 5 360.56 17.6
29 -19 -5 377.46 17.5
29 -19 5 429.96 18.4
5 19 29 446.56 18.4
-5 29 19 406.76 18.3
19 29 5 427.66 20.5
29 -5 -19 437.46 19.7
29 19 -5 406.06 20.3
7 29 19 222.28 15.8
-7 19 29 212.58 16.5
7 -29 -19 247.48 14.3
29 19 7 229.88 15.8
29 -19 -7 213.98 15.7
19 7 29 194.68 13.7
19 -29 7 219.48 15.8
19 29 -7 214.58 22.4
19 -29 -7 196.88 13.5
7 19 29 209.78 15.4
19 29 7 214.88 17.6
-7 29 19 240.78 16.7
29 -7 -19 227.38 17.4
29 19 -7 194.48 18.5
29 -19 7 248.38 17.2
19 9 29 -1.2 13.3
19 -29 9 -0.9 14.7
9 -29 -19 -1.5 11.8
29 -19 -9 3.6 14.9
29 19 9 7 15
9 29 19 10.4 14.1
-9 19 29 -7.9 16.4
29 -19 9 0.9 12.7
9 19 29 2.7 13.9
19 29 9 -1.1 16
19 -29 -9 -1.8 11
29 -9 -19 1.7 16.2
-9 29 19 0.6 14.8
11 -29 -19 32.2 13
29 -19 -11 14.9 15.7
19 -29 11 14.8 16.2
29 19 11 12.3 15.7
-11 19 29 21.1 18
29 -11 19 17.1 16.8
19 29 11 23.8 16.8
29 -11 -19 17.5 16.6
19 -29 -11 22.9 13.5
29 -19 11 15.1 15
19 -29 13 19.1 17.1
-13 19 29 25.4 20
29 19 13 17.8 15
29 -19 -13 9.2 17.4
29 -13 -19 16.1 18.1
-19 13 29 23.3 23.5
19 29 13 21.7 17.4
19 -29 15 285.47 22.1
-15 19 29 245.38 23.2
29 -19 -15 220.38 19
29 -15 -19 304.27 21.9
19 -15 29 273.17 25.1
-19 15 29 251.97 26.3
-17 19 29 438.76 28.8
19 -17 -29 514.95 26
-19 17 29 427.96 29.7
29 -17 -19 472.95 25.3
19 -17 29 415.46 29
17 -29 19 433.76 27.3
-1 21 29 223.38 16.7
29 -21 -1 252.87 17
1 29 21 218.58 17
29 21 1 204.18 17.8
21 -29 1 237.28 15.8
-1 -29 21 195.98 17.3
21 29 -1 230.28 21.8
1 -29 21 189.78 19.3
21 -29 -1 230.28 16
29 21 -1 231.38 19.4
29 -1 -21 207.68 18.9
-1 29 21 211.68 15.6
1 21 29 211.58 16.8
29 -21 1 202.38 15.7
21 29 1 217.88 21
-3 21 29 88.29 15.7
29 -21 -3 81.99 15.2
21 -29 3 79.39 14.7
29 21 3 78.29 16.4
21 29 -3 92.79 21.9
3 -21 29 74.39 19.4
29 -3 -21 79.49 18.3
29 -21 3 93.79 15.5
3 21 29 69.29 15.3
21 -29 -3 70.79 13.3
29 21 -3 77.09 18.9
3 -29 21 93.59 19.2
21 29 3 71.29 19.4
29 -21 -5 -2.7 14.4
21 -29 5 9.9 13.5
21 29 -5 5.3 23.6
5 -29 -21 -5.3 12.8
29 21 5 7.1 16.7
5 -21 29 -5.4 21.4
21 5 29 4.1 13.2
-5 21 29 -8 15.2
29 -21 5 11.9 15.3
29 -5 -21 -3.1 17.9
29 21 -5 -10.2 19.6
21 29 5 7.7 18.2
5 -29 21 1.6 19.8
21 -29 -5 7.2 13.4
5 21 29 -2.6 14.9
7 -29 -21 -5.5 12.1
-7 21 29 -6.3 16.1
29 21 7 0.9 15.7
7 -21 29 -2.6 23.2
21 29 -7 -10.6 25.4
21 -29 7 -1.2 14.6
29 -21 -7 -7.4 14.7
29 21 -7 5.2 22.7
29 -21 7 0.2 16.5
21 29 7 2.7 17.7
29 -7 -21 2.9 18.7
9 -21 29 99.49 24.6
-9 21 29 149.19 19.2
29 21 9 144.99 17.7
21 -29 9 124.19 16.5
29 -21 -9 148.29 16.9
21 29 9 167.88 19.6
29 -9 -21 162.88 20.1
-11 21 29 418.56 24
29 21 11 346.57 20.1
29 -11 -21 477.65 23.5
21 29 11 407.46 22.4
29 -13 -21 166.88 22
21 -13 29 181.48 25
21 -15 -29 2.3 24.2
29 -15 -21 -2.6 22.2
29 23 1 348.57 22.8
23 29 -1 322.57 26.4
29 23 -1 307.87 23.8
23 29 1 340.27 25
23 29 -3 89.59 26.6
29 23 3 69.89 20
29 23 -3 77.19 23.1
23 29 3 71.39 22.1
3 -29 23 45.9 23.3
29 23 5 28.8 19.6
5 -29 23 0.9 24
23 29 5 -0.5 21.2
29 23 7 4.8 19.8
7 -29 23 12.7 25.5
23 29 7 15 21.4
29 23 9 92.09 19.5
9 -23 29 110.39 30.1
29 -9 -23 115.49 25.2
23 29 9 103.89 22.1
29 -11 -23 346.07 29.3
29 25 1 2 25
25 29 1 21.4 27.2
29 25 3 240.28 25.7
25 29 3 243.98 27.4
29 25 5 631.94 29.2
25 29 5 648.94 31.1
29 25 7 409.06 27.3
25 29 7 385.36 28.3
0 -30 0 1639.94 38.7
0 0 30 1648.54 39
0 30 0 1534.85 40.1
30 0 0 1583.74 40.8
-2 -30 0 719.13 21.8
-2 30 0 709.33 23.7
0 -2 30 734.93 22.2
0 2 30 750.22 22.6
2 -30 0 729.23 21.8
2 30 0 755.52 24.6
30 0 -2 735.13 24.9
30 -2 0 761.42 24.7
0 30 -2 741.63 24
0 30 2 755.52 24.1
2 0 30 719.83 22.2
0 -30 2 762.92 22.1
0 -30 -2 738.03 21.6
-2 0 30 749.82 22.6
-2 30 -2 358.56 15.2
-2 2 30 347.27 13.9
-2 -30 -2 328.47 13
-2 -30 2 322.37 12.8
-2 -2 30 362.66 13.7
2 30 2 343.47 14.6
30 -2 -2 337.17 15.6
30 -2 2 321.27 14.9
30 2 -2 350.56 15.6
-2 30 2 304.57 14
2 -30 -2 317.07 12.4
2 -30 2 339.77 13.2
2 -2 30 333.77 13.3
2 2 30 332.67 13.3
2 30 -2 350.06 14.8
0 -30 -4 7.7 7.9
0 -30 4 7.6 8.8
0 30 -4 2.3 10.1
0 30 4 4 10
4 0 30 5.3 8.6
30 -4 0 -1.9 10.6
-4 0 30 4.8 9.7
-4 -30 0 4.8 8.1
-4 30 0 -0.5 9.7
0 -4 30 3.9 9
0 4 30 1.5 8.9
4 -30 0 2.9 7.6
4 30 0 -3.7 10.4
30 0 -4 5.9 10.6
4 30 -2 -6.2 10.4
4 -30 2 -5.1 8.5
-4 -30 -2 0.7 8.1
30 2 -4 0.4 11.3
30 -4 -2 1.1 10.4
-4 30 2 0.9 9.5
2 -30 -4 1.8 7.9
-2 -30 4 3.9 8.3
4 2 30 3.5 8.9
2 30 4 8.7 9.9
-4 -2 30 2.3 9.5
2 -4 30 0.5 8.9
-2 30 -4 4.7 10.5
-2 4 30 -0.7 9.4
4 -2 30 -2.1 8.8
30 -2 -4 5.4 11
4 30 2 3.6 10.1
4 -30 -2 6.5 7.9
30 -4 2 0.4 10.6
2 4 30 -0.9 8.9
-2 30 4 -0.4 9.5
-4 2 30 -7.7 9.7
-2 -30 -4 3.5 8
2 -30 4 6.7 9
2 30 -4 9.6 10.9
-4 30 -2 -3.8 10
-2 -4 30 6.3 9.3
-4 -30 2 8.9 8.3
30 -4 4 257.27 14
30 -4 -4 200.88 12.6
4 -30 -4 249.97 11.6
30 4 -4 252.17 14.4
4 30 4 224.08 13
-4 30 4 221.58 13
-4 -30 -4 220.38 10.9
-4 -30 4 239.08 11.6
-4 -4 30 221.78 11.8
-4 4 30 246.88 12.8
-4 30 -4 196.38 13
4 4 30 247.28 12.5
4 30 -4 227.38 13.6
4 -30 4 228.38 11.6
4 -4 30 223.28 11.8
-6 30 0 7.3 10.1
0 -6 30 3.8 9.1
0 6 30 17.3 9.7
0 30 6 3.7 10
6 0 30 -1.7 9.2
30 -6 0 6.2 10.7
0 30 -6 16.2 11
-6 0 30 5.9 10.1
0 -30 -6 6.9 8
0 -30 6 10.5 8.9
6 30 0 8 11
30 0 -6 6.4 10.9
6 -30 0 5.8 8.1
-6 30 2 12.9 10
2 30 6 14.4 9.9
6 30 -2 10.9 11.4
30 -6 -2 16.3 9.8
6 -30 2 15.5 8.7
30 2 -6 11.3 11.1
2 -30 -6 13.3 7.9
-2 6 30 12.6 9.9
2 -6 30 13.3 9.3
-2 -30 6 21.6 9.2
-6 -2 30 2.1 10
6 2 30 13.9 9.1
-6 30 -2 10 10
6 30 2 12 10.7
-6 -30 2 8.3 8.8
-6 2 30 4.5 10.4
-2 -30 -6 12.9 7.9
2 6 30 5.9 9.1
30 -6 2 18.3 11
6 -2 30 9.2 9.2
6 -30 -2 12.4 8
2 30 -6 13.3 11.3
30 -2 -6 5.5 11
-2 -6 30 12.5 9.3
2 -30 6 12.4 8.8
-2 30 6 15.3 10.3
4 -6 30 450.35 18.4
30 4 -6 455.35 17.8
6 4 30 429.36 17.7
4 30 6 454.15 19.5
4 -30 -6 452.65 17
-6 -4 30 447.56 18
6 30 -4 451.35 17.7
-6 30 4 388.16 15.7
30 -6 -4 487.55 17.8
-4 6 30 468.15 19.6
6 -30 4 471.05 17.7
4 6 30 451.55 18.4
-4 -6 30 432.56 17.5
6 30 4 450.45 19.8
30 -6 4 457.65 17.2
4 30 -6 471.15 17.7
-6 -30 4 462.35 17.9
-4 30 6 472.45 19.6
30 -4 -6 494.75 18.2
-6 4 30 451.25 19.8
6 -30 -4 463.45 17.5
6 -4 30 445.26 18.4
30 6 -4 459.95 18.3
4 -30 6 478.65 18.4
-4 -30 -6 450.45 17.2
6 -30 -6 834.22 24.2
-6 30 6 861.21 25.9
30 -6 6 859.81 27.1
6 30 -6 838.92 28
6 30 6 840.22 26.6
-6 6 30 851.11 26.5
30 6 -6 850.21 28
6 -6 30 866.31 24.8
6 6 30 880.81 24.8
6 -30 6 863.01 24.9
30 -6 -6 844.02 26.7
8 0 30 332.97 13.9
8 30 0 339.57 15.4
0 8 30 310.47 13.8
-8 30 0 304.47 14.7
0 -30 8 335.77 14.1
8 -30 0 319.27 12.8
30 0 -8 302.37 15.2
30 -8 0 327.87 15.3
0 30 8 326.87 14.7
0 -30 -8 344.47 13
-8 0 30 360.76 14.5
0 -8 30 302.57 13.1
8 2 30 74.79 9.9
2 -30 -8 84.69 9
8 30 -2 100.29 13.2
-8 -2 30 79.89 10.8
30 2 -8 79.99 12.4
2 -8 30 76.99 10.3
30 -8 -2 81.69 11.2
-2 8 30 94.79 11.3
-8 30 2 97.09 11.3
8 -30 2 81.89 9.8
2 30 8 79.59 10.7
-8 2 30 102.19 12.1
8 -30 -2 83.99 9.2
-2 30 8 80.39 11.3
2 8 30 85.09 10.3
30 -2 -8 84.09 12
30 -8 2 87.29 11.9
-2 -30 -8 78.99 9.2
8 -2 30 82.89 10.2
-2 -8 30 82.79 9.9
2 -30 8 75.79 10.1
8 30 2 82.29 11.6
-4 8 30 132.59 12
8 30 -4 113.89 13.2
-8 30 4 117.19 11.3
30 -8 -4 106.89 11.4
8 4 30 103.19 10.1
4 30 8 113.29 11.6
30 4 -8 116.69 12.9
4 -8 30 108.99 10.9
4 -30 -8 113.29 9.7
8 -30 4 109.19 10.2
30 -8 4 137.39 12.7
8 -4 30 113.49 10.5
-8 4 30 121.79 12.5
4 30 -8 116.99 13.6
8 -30 -4 124.29 10.2
4 -30 8 130.79 10.9
30 -4 -8 112.29 12.1
-4 30 8 104.29 11.5
4 8 30 122.59 10.8
8 30 4 116.89 11.8
30 -8 -6 485.65 17.9
-6 8 30 437.46 17.2
8 -30 6 466.05 19.4
8 30 -6 476.55 18.8
8 6 30 440.16 18.5
-8 30 6 452.15 17.5
6 -8 30 457.95 19
6 -30 -8 443.26 17.7
30 6 -8 478.35 18.6
6 30 8 412.76 16.8
30 -6 8 438.96 17.5
-8 6 30 452.55 17.7
8 -6 30 461.35 19.1
30 8 -6 478.45 19.3
8 30 6 450.65 17.4
30 -6 -8 459.95 18.1
6 -30 8 475.65 19.5
30 -8 6 450.55 17.7
8 -30 -6 455.85 17.5
6 8 30 472.05 18.8
6 30 -8 447.36 18.5
-6 30 8 453.95 19.9
8 -30 8 76.39 11
-8 8 30 82.49 12.9
8 -30 -8 82.99 9.7
30 8 -8 78.39 13.8
30 -8 8 73.99 12.4
8 8 30 75.09 10.1
8 30 -8 79.99 14
8 30 8 72.09 12
30 -8 -8 66.29 12.3
-8 30 8 79.79 11.7
10 30 0 761.12 26.3
30 0 -10 757.92 26.2
-10 0 30 738.63 24.7
10 0 30 747.73 23.4
30 -10 0 767.32 25.2
10 -30 0 744.33 23
0 30 10 762.62 24.5
0 -10 30 759.62 22.9
0 10 30 762.32 24.2
0 -30 -10 745.53 22.4
10 30 -2 435.46 17.8
10 -30 2 362.06 14.4
-10 30 2 436.86 17.1
2 30 10 321.97 14.7
2 -10 30 407.36 15.1
10 2 30 418.26 18.2
30 -10 -2 434.16 17.6
-2 10 30 396.06 15.8
30 2 -10 411.56 17.2
2 -30 -10 397.86 16.9
10 -30 -2 406.36 17
-2 -30 -10 405.96 16.9
2 10 30 417.16 15.8
30 -2 -10 409.06 17
10 30 2 422.96 17.3
30 -10 2 413.36 16.6
10 -2 30 415.96 18.1
-10 2 30 407.46 16.6
-2 30 10 382.66 15.4
4 30 10 4 9.7
10 -30 4 15.3 9.8
10 30 -4 15.1 13.4
30 -10 -4 14.7 11.5
-10 30 4 7.3 10.9
10 4 30 10.2 9.6
-4 10 30 10 11.4
4 -10 30 10.3 10.1
4 -30 -10 13 8.5
30 4 -10 12.3 12.4
4 -30 10 12.5 10.4
10 -30 -4 9.1 9
-10 4 30 17.6 12.3
30 -10 4 9.5 11.5
4 10 30 4.7 9.8
-4 30 10 5.6 10.9
10 30 4 17.2 11.7
30 -4 -10 21.6 12.1
6 -30 -10 18.6 9
10 6 30 19.9 9.8
-6 10 30 23.5 12
-10 30 6 26.9 10.6
30 6 -10 18.3 13.2
10 -30 6 21.1 10.3
10 30 -6 22.4 13.9
30 -10 -6 18.5 11.8
6 30 10 17.1 11.5
30 -6 -10 15 12.3
10 -30 -6 20.8 8
30 10 -6 20.1 14.6
6 -30 10 23.8 11.4
30 -10 6 16.7 11.7
10 30 6 17.1 11.5
-10 6 30 16.5 12.7
6 10 30 23.3 10.3
-6 30 10 16.7 10.7
10 8 30 68.89 11
-8 10 30 62.99 13.3
8 30 10 46.3 11.5
-10 30 8 46.1 10.9
30 8 -10 52.29 14
10 -30 8 61.09 11.4
10 30 -8 56.69 14.7
8 -30 -10 59.29 9.8
30 -10 -8 45.9 12.5
30 -8 10 57.99 12.7
10 30 8 60.29 12.2
-8 30 10 39.5 10.9
30 -10 8 57.79 12.4
8 -30 10 61.29 11.8
8 10 30 62.39 10.8
10 -30 -8 46.9 9.5
-10 8 30 55.39 13.7
30 -8 -10 49.99 12.4
30 10 -8 42.9 14.7
10 -30 -10 486.75 19.4
10 30 10 458.75 18.5
10 -30 10 497.65 18.7
-10 30 10 520.65 18.8
30 -10 10 478.15 19
30 -10 -10 473.75 18.6
30 10 -10 454.05 19.8
10 10 30 446.56 20
-10 10 30 462.35 19.7
12 0 30 809.32 24.4
30 -12 0 808.52 26.4
0 12 30 796.72 25.4
12 -30 0 805.62 24.3
12 30 0 840.02 28.7
0 30 12 762.02 25.1
-12 0 30 749.53 26.2
0 -30 -12 809.52 23.7
30 0 -12 809.62 27.5
0 -12 30 757.22 23.9
12 -30 2 343.07 14.6
-2 12 30 385.86 16
2 -30 -12 381.16 14.3
30 2 -12 345.37 17.1
2 30 12 377.26 15.6
30 -12 -2 381.36 16.6
12 2 30 355.46 14.4
2 -12 30 380.06 15
12 30 -2 388.86 18
30 -12 2 330.57 15.2
2 12 30 349.37 15
-12 2 30 376.56 17
-2 30 12 354.06 15.7
30 -2 -12 382.26 16.9
12 -30 -2 396.56 15.1
12 -2 30 376.36 15
12 30 2 377.36 17.1
4 -30 -12 28.5 9.3
12 -30 4 17.2 10.6
-4 12 30 11.4 11.7
30 4 -12 26.7 13.2
12 30 -4 20.9 14.7
-12 30 4 15 10.9
4 -12 30 21.8 10.9
30 -12 -4 10.3 11.8
4 30 12 11.1 11.2
12 4 30 28.8 10.5
30 -12 4 26.9 10.6
12 -30 -4 21.3 9.4
4 12 30 20.1 10.6
12 30 4 16.8 12.4
30 -4 -12 13.2 12.8
-4 30 12 16 11.5
-12 4 30 17 13.6
12 -30 6 -3.6 11.1
30 6 -12 4.5 13.6
12 6 30 4.6 10.1
6 -30 -12 -0.1 8.9
-12 30 6 1.1 11.4
30 -12 -6 12 12.2
12 30 -6 -4 15
-6 12 30 -6.6 12.7
6 30 12 -1.6 11.6
30 -6 -12 0.8 12.7
12 30 6 5.6 12.4
12 -30 -6 -0.4 9.6
6 12 30 1.1 10.7
-12 6 30 7 13.8
-6 30 12 7.2 11.5
30 -12 6 -5.5 12.2
-12 30 8 124.79 13.2
8 30 12 118.09 12.8
30 -8 12 122.59 13.8
30 -12 -8 122.79 13.4
12 30 -8 116.09 16.6
12 -30 8 124.29 12.8
30 8 -12 125.59 14.9
8 -30 -12 132.59 10.9
-8 12 30 151.88 15.1
12 8 30 132.39 12.1
-12 8 30 125.89 15.4
12 -30 -8 122.29 11
12 30 8 116.79 13.6
30 -8 -12 142.59 14.6
8 -30 12 140.09 13.7
30 -12 8 116.19 13.5
30 12 -8 114.19 13.5
-8 30 12 127.99 12.5
8 12 30 129.69 12.1
30 12 -8 119.79 16.5
12 -30 10 473.35 18.6
12 10 30 406.56 16.4
10 -30 -12 446.86 19.5
10 30 12 406.16 17.4
-12 30 10 368.66 17
-10 12 30 439.66 19.9
30 -12 -10 409.96 18.4
30 10 -12 403.96 19
30 -10 12 474.95 19.2
12 30 10 397.76 17.9
10 12 30 457.25 17.4
30 12 -10 435.26 20.1
30 12 -10 433.86 18.1
-12 10 30 437.06 20
-10 30 12 441.76 18
12 -30 -10 446.56 19.5
30 -10 -12 472.05 19
30 -12 10 430.46 18.8
10 -30 12 446.96 18.5
30 -12 12 633.94 22.2
-12 12 30 540.75 22.5
12 12 30 569.44 22.6
12 -30 -12 588.54 22.3
12 -30 12 567.34 21.2
-12 30 12 554.84 24.3
12 30 12 521.15 20.6
30 -12 -12 576.54 21.3
0 -30 -14 493.85 19.2
30 14 0 498.35 21.4
14 30 0 523.15 20.5
30 0 -14 495.95 19.5
14 -30 0 485.55 20
30 -14 0 457.65 18.4
0 30 14 489.25 20.9
14 0 30 493.65 20.4
0 14 30 477.95 18
2 30 14 114.29 12.4
-2 14 30 130.09 13.4
30 -14 -2 117.29 12.7
14 -30 2 135.69 12
2 -14 30 129.09 12.6
2 -30 -14 124.89 10.6
30 2 -14 130.39 14.7
14 30 -2 138.59 16.1
14 2 30 119.09 11.4
30 14 -2 129.99 13.1
-14 2 30 118.09 15.7
30 -14 2 105.29 11.4
14 -30 -2 128.59 11.6
-2 30 14 118.89 12.5
2 14 30 132.49 13
14 30 2 131.29 15
30 -2 -14 114.69 14.6
-4 14 30 23 12.6
30 -14 -4 21.6 12.3
4 30 14 23.7 12.2
14 4 30 33.7 11.4
30 4 -14 27.4 14
14 -30 4 30.1 11.7
14 30 -4 28.5 15.7
4 -30 -14 25.5 10.1
4 14 30 32.1 11.7
30 -14 4 20.8 12.3
-14 4 30 26.9 15.5
30 14 -4 23.4 12.8
-4 30 14 19.7 11.5
14 30 4 22 13.7
14 -30 -4 27.8 10.2
30 -4 -14 22.4 13.6
14 6 30 97.69 12
6 30 14 111.19 13.1
30 -14 -6 111.99 13.4
-14 30 6 83.69 12.3
-6 14 30 100.39 14
14 30 -6 95.79 17.6
6 -30 -14 113.09 10.8
14 -30 6 102.79 12.5
30 6 -14 106.19 14.9
30 -6 -14 102.69 14.5
14 -30 -6 122.29 11.7
-6 30 14 107.49 13.4
30 14 -6 110.09 14
30 -14 6 77.19 12.3
14 30 6 103.79 14.2
6 14 30 121.59 12.7
-14 6 30 101.59 16.7
-14 30 8 -0.8 11.2
14 8 30 2.8 11.3
8 -30 -14 2.2 9.6
-8 14 30 8.1 14.3
14 30 -8 8.7 17.1
14 -30 8 -1.3 12.5
30 -14 -8 12 13
30 8 -14 -1.2 14
8 30 14 8.7 12.6
30 14 -8 4.1 13.9
-8 30 14 7 12.2
30 -14 8 -3.3 12.5
14 30 8 9.7 13.7
14 -30 -8 1.8 10.5
8 14 30 2 11.8
30 -8 -14 4.4 13.6
30 14 -8 -2.1 17.6
-14 8 30 1.4 15.8
30 14 10 165.78 13.7
-10 14 30 167.38 16.6
30 -14 -10 187.28 15.4
14 10 30 157.18 12.8
14 -30 10 175.68 15.5
-14 30 10 149.99 14.6
30 -10 14 175.58 15.7
10 -30 -14 150.28 11.9
10 30 14 151.88 14.3
30 14 -10 146.69 17.9
10 14 30 156.38 13.5
30 -10 -14 188.88 16.5
-14 10 30 171.98 18
30 -14 10 143.59 14.8
14 30 10 158.28 15.3
10 -30 14 199.28 16.9
14 -30 -10 193.58 13.4
-10 30 14 137.59 13.8
30 14 -10 158.48 15.3
12 -30 -14 280.17 14.3
30 14 12 292.27 15.9
12 30 14 262.07 16.8
30 -12 14 271.97 17.6
-12 14 30 284.47 19.4
14 -30 12 283.47 17.4
-14 30 12 251.67 16
14 12 30 253.57 14.5
30 -14 -12 290.77 17.5
14 -30 -12 267.17 14.5
30 -14 12 247.38 16.4
14 30 12 258.07 17
12 14 30 309.47 15.9
12 -30 14 307.77 18.8
-14 12 30 273.97 19.9
30 -12 -14 295.37 18
-12 30 14 254.97 16.2
14 14 30 89.69 14.3
14 -30 -14 84.79 13.6
30 -14 14 94.69 16.6
30 -14 -14 76.09 16.5
14 -30 14 81.49 16.9
14 30 14 86.19 15.6
30 14 14 70.19 14
-14 14 30 73.99 19.6
30 0 -16 5 14.9
16 30 0 11 16.1
30 -16 0 8.6 11.9
30 16 0 5.9 13.7
16 -30 0 4.4 11.6
0 16 30 16 12.6
0 30 16 -1.9 11.8
-2 16 30 47.5 13.4
30 16 2 50.39 13.8
16 -30 2 43.8 12.3
2 -30 -16 54.49 10.4
30 2 -16 42.7 14.9
2 -16 30 46.4 12.9
16 2 30 55.99 11.9
16 30 -2 47.1 17.2
2 30 16 45.2 11.8
30 -16 -2 43.6 13.3
2 16 30 35.2 12.3
30 -16 2 31.7 11.8
16 -30 -2 27.1 10.5
30 16 -2 47.8 14.1
30 -2 -16 47.3 15.2
16 30 2 41.4 15.5
-2 30 16 38.8 11.5
16 -30 4 551.34 23.2
30 4 -16 493.95 20.2
16 30 -4 546.55 23.5
4 -30 -16 542.75 21
4 30 16 517.75 19.5
16 4 30 553.74 21.6
30 -16 -4 581.54 20.8
30 16 4 537.85 19.8
-4 16 30 542.75 21
30 16 -4 523.95 20.5
-4 30 16 506.35 19.5
16 -30 -4 507.45 21.7
30 -16 4 594.84 21.7
16 30 4 524.75 21.2
4 16 30 538.85 23.6
30 -4 -16 534.45 21.2
6 -30 -16 819.02 25.8
-6 16 30 806.42 29.6
6 30 16 808.42 28.2
16 6 30 780.72 26.9
30 -16 -6 834.62 28.9
30 16 6 919.11 27.8
16 -30 6 798.52 28.1
16 30 -6 742.03 28.2
30 -6 -16 847.62 30.3
16 30 6 823.42 30.7
-6 30 16 814.12 28.6
6 16 30 811.22 27.6
30 -16 6 757.32 28.2
30 16 -6 785.92 29.5
16 -30 -6 787.12 25.5
-16 6 30 816.82 34.3
8 30 16 161.48 14.6
16 30 -8 145.09 20.6
-8 16 30 152.18 16.7
16 -30 8 166.68 15.1
8 -30 -16 141.19 12.5
30 16 8 148.79 14.4
16 8 30 133.39 13.4
30 -16 -8 151.18 15.4
30 16 -8 123.19 16.5
-16 8 30 165.38 19.2
30 16 -8 138.69 20.7
30 -8 -16 162.88 16.9
16 30 8 142.79 16.1
8 16 30 137.99 13.9
-8 30 16 147.29 14.8
30 -16 8 156.58 15.6
30 -10 16 3.4 15.2
30 -16 -10 -1.1 14.7
-16 30 10 9.3 14.4
-10 16 30 -1.1 16.4
16 -30 10 -7.3 13.7
30 16 10 6.4 13.9
10 -30 -16 5.8 11.2
10 30 16 -1.4 14.4
16 10 30 -3.7 12.2
30 -16 10 3.4 15
-16 10 30 3.4 19.5
-10 30 16 -2 14
16 -30 -10 5.6 10.5
30 -10 -16 3.3 16.1
16 30 10 1.8 15.2
10 16 30 -2.1 13.1
-12 16 30 -5.3 18.2
30 -16 -12 -1.6 15.3
16 12 30 -1.2 13.4
12 -30 -16 3.2 12.4
16 -30 12 2.2 16.1
30 -12 16 7.4 16.3
30 16 12 6.4 14.8
12 30 16 7.9 15.2
16 -30 -12 -1.9 13.3
30 -16 12 -4.4 15.8
-16 12 30 21.3 20.1
30 -12 -16 -0.9 16.1
12 16 30 -1.9 13.7
16 30 12 -3 15.6
16 -30 14 29.9 17.6
30 16 14 19.3 15.5
30 -16 -14 27 17.2
-14 16 30 49.4 20.9
30 -14 -16 36.8 18
16 30 14 25 17
-16 14 30 29.7 21.7
14 -30 16 28.4 18.4
-16 16 30 284.87 24.8
16 -30 16 314.67 22.7
30 -16 -16 263.87 20.3
0 18 30 5.1 13.9
30 -18 0 4.8 13.8
0 30 18 13.9 12.8
30 18 0 9.1 14.3
30 0 -18 13 15.9
18 30 0 12.4 17.8
18 -30 0 14.8 12.7
18 2 30 32.1 12.8
2 30 18 20.2 12.6
30 18 2 18.5 14.4
-2 18 30 34.1 14.6
30 -18 -2 13.8 13.1
-2 -30 18 19.6 15.2
18 -30 2 18.9 12.8
18 30 -2 22.7 19.1
30 2 -18 16.4 15.5
18 30 2 11.2 17.2
30 18 -2 18 15.4
18 -30 -2 14.6 11.1
30 -2 -18 22.4 16.2
-2 30 18 24.3 13.3
30 -18 2 19.1 13.3
2 18 30 26.5 13.9
4 30 18 235.58 15.9
30 -18 -4 251.87 16.7
18 -30 4 245.48 15.8
18 4 30 259.77 15.3
18 30 -4 228.98 22.2
4 -18 30 230.38 20.6
4 -30 -18 227.48 13.7
-4 18 30 257.77 17.3
30 18 4 265.57 17.1
18 30 4 248.98 18.8
4 18 30 226.58 16.1
30 -18 4 256.27 16.9
30 -4 -18 227.38 18.1
18 -30 -4 280.37 15.6
30 18 -4 229.68 18.1
-4 30 18 217.88 16.2
6 30 18 339.27 17.3
30 -18 -6 371.66 18.6
18 6 30 367.76 16.8
18 30 -6 343.27 24.6
-6 18 30 399.16 19.5
30 18 6 392.76 18.8
6 -30 -18 383.56 15.9
6 -18 30 367.56 23.7
18 -30 6 322.47 17
6 18 30 366.26 17.7
18 -30 -6 309.97 15.2
30 -6 -18 369.96 20
30 -18 6 350.36 18.4
30 18 -6 337.97 20.3
18 30 6 379.36 19.8
-6 30 18 321.27 17.5
18 -30 8 27.4 14
-8 18 30 32.4 16.6
30 18 8 32.2 15.3
18 8 30 34.6 13.8
18 30 -8 21.8 22.1
8 30 18 35.4 14.8
30 -18 -8 27.1 14.8
8 -30 -18 31 13.2
8 18 30 39.4 14.4
30 18 -8 22 22.4
18 30 8 37.2 17.4
30 -18 8 35.5 14
30 18 -8 28.4 18.1
-8 30 18 32 16.7
18 -30 -8 26.8 11.6
30 -8 -18 35.3 17.1
30 -10 18 0.2 17.5
-10 18 30 26.9 18.2
18 -30 10 24.6 16.1
10 -30 -18 29.1 13.2
30 18 10 30.4 15.8
30 -18 -10 34.4 15.9
30 -18 10 19.4 13.9
30 -10 -18 46.3 17.3
-18 10 30 36.5 23
18 -30 -10 26.2 13.6
18 30 10 22.8 17.3
18 -30 12 13.4 16.8
-12 18 30 24.7 19.6
30 -18 -12 11.3 17.3
30 18 12 25.8 16.6
18 30 12 8.6 17.8
30 -12 -18 6.3 18
-18 12 30 14.3 23.7
-14 18 30 35.3 22.2
18 -30 14 46.2 19.1
30 -18 -14 44.6 18.8
18 -14 30 22.3 23.7
30 -14 -18 39.7 20
-18 14 30 26.2 25.2
18 -30 16 394.46 28
30 -18 -16 293.17 23.2
-16 18 30 338.87 27.3
-18 16 30 318.77 28.7
30 -16 -18 318.37 22.6
16 -30 18 322.77 25.5
0 20 30 156.08 16.7
20 30 0 152.08 21.2
30 0 -20 140.19 18.6
30 20 0 144.79 18.3
20 -30 0 166.38 15.4
0 -30 20 115.39 19.1
30 -20 0 143.69 16.1
20 -30 2 53.09 14.3
-2 20 30 65.99 16.4
30 -20 -2 81.59 15.7
30 20 2 61.59 16.9
20 30 -2 65.59 22.6
20 30 2 76.59 20.3
30 -20 2 63.09 14.7
2 20 30 61.89 15.6
30 20 -2 65.69 18.5
30 -2 -20 56.99 18.6
20 -30 -2 66.99 14.4
2 -30 20 64.99 19.3
30 20 4 3.6 17.1
-4 20 30 -1.9 16.1
4 -20 30 1.3 21.5
20 4 30 10.7 13.7
20 30 -4 -3.6 24
20 -30 4 1.1 13.9
30 -20 -4 9 15.1
20 30 4 -1.1 19
4 20 30 4.8 14.9
30 -20 4 -1.8 15.2
30 20 -4 9.5 19.7
20 -30 -4 -1.3 11.4
4 -30 20 9.8 19.8
30 -4 -20 -0.5 19
6 -20 30 21.4 23.9
20 -30 6 46.7 15.7
30 20 6 34.1 16
30 -20 -6 58.29 16.1
-6 20 30 44.3 17.4
20 30 -6 43.5 25.9
30 -6 -20 35 19.2
20 30 6 33 19
30 20 -6 31.9 21
-8 20 30 10 18.5
8 -20 30 -1.2 24.3
30 -20 -8 2 16.6
30 20 8 6.6 16.2
20 -30 8 8.5 16.3
30 -8 -20 16.2 19.6
20 30 8 13.8 18.9
30 -20 -10 259.67 21.2
30 20 10 248.58 19.7
-10 20 30 261.97 22.2
20 -30 10 259.67 21.1
30 -10 -20 279.87 22.1
20 30 10 271.37 21.4
-12 20 30 382.46 25.7
30 -12 -20 337.37 23.7
30 -14 -20 11.3 22
20 -14 30 25.4 26.5
30 22 0 794.82 30
22 30 0 762.22 32
22 30 -2 540.55 30.2
30 22 2 521.25 25.7
30 22 -2 521.05 26.8
22 30 2 550.34 27.8
30 22 4 163.78 20.9
4 -30 22 169.78 24.3
22 30 4 168.78 23.4
30 22 6 10.1 20
6 -30 22 2.4 24.7
22 30 6 10.1 22.2
30 22 8 103.89 19.7
22 30 8 109.59 22.6
30 24 2 28.1 24.5
24 30 2 25.5 27.4
30 24 4 45.8 24.5
24 30 4 42.3 27
30 24 6 137.69 24.4
24 30 6 156.38 26.8
-1 -31 -1 1327.27 33.5
-1 -31 1 1325.17 33.6
-1 -1 31 1337.47 34.3
-1 1 31 1330.77 34.5
-1 31 -1 1278.47 35.3
-1 31 1 1366.36 35.3
1 -31 -1 1355.06 33.5
1 -31 1 1339.27 33.8
1 -1 31 1358.06 34.1
1 1 31 1361.76 34.2
1 31 -1 1318.47 35.4
1 31 1 1312.47 35.4
31 -1 -1 1316.07 36.1
31 -1 1 1280.37 35.9
31 1 -1 1315.07 36.2
-3 -31 -1 470.15 17.8
1 -31 -3 464.75 17.6
3 1 31 441.16 18.8
-3 31 1 400.86 16.5
-3 -1 31 442.06 16.3
-1 3 31 460.15 19.6
1 -3 31 468.55 18.9
-1 -31 3 453.15 18.3
-1 31 -3 408.66 17
3 -31 1 461.55 17.9
3 31 -1 469.75 17.7
1 31 3 470.25 17.5
31 -3 -1 474.05 18.3
31 1 -3 436.16 17.5
3 -1 31 459.25 18.8
-3 31 -1 430.36 17.5
31 -1 -3 474.95 17.8
31 -3 1 445.26 17.7
-3 -31 1 443.56 18.2
1 -31 3 431.96 18.2
1 31 -3 433.26 17.2
3 31 1 451.75 17.5
-1 31 3 443.06 16.9
3 -31 -1 445.56 17.7
1 3 31 436.46 16.3
-1 -3 31 438.46 16
-3 1 31 452.95 19.8
-1 -31 -3 440.36 17.8
3 -31 -3 221.08 11.6
-3 31 3 202.58 12.6
-3 31 -3 204.88 14.1
-3 -31 -3 214.98 11.3
-3 -31 3 217.98 11.8
-3 -3 31 197.98 12.5
-3 3 31 226.08 13.3
31 3 -3 241.18 15.5
31 -3 3 205.58 13.9
3 31 3 209.58 13.8
31 -3 -3 209.48 13.9
3 3 31 192.58 12
3 31 -3 216.98 14.5
3 -31 3 223.08 12.4
3 -3 31 214.88 12.3
5 -31 1 -0.4 9.4
-1 5 31 3.9 10.5
1 -31 -5 -1.4 8.5
-5 31 1 13.2 10.9
31 -5 -1 1.5 11
-5 -31 -1 3.2 9.4
-1 -31 5 -0.2 9.6
5 31 -1 2.8 11.8
31 1 -5 -0.5 12
5 1 31 4.5 9.6
1 -5 31 0.9 10
-5 -1 31 -5.6 10.9
1 31 5 -6.6 11.1
-1 31 -5 9.7 12.1
-5 -31 1 5 9.2
-1 -5 31 -0.9 10.3
5 31 1 -7.7 11.6
-5 31 -1 8.2 10.9
1 -31 5 3.9 9.7
1 31 -5 3 12.4
-5 1 31 -1.8 10.9
5 -1 31 9 9.8
31 -1 -5 6.4 11.5
31 -5 1 -0.8 11.3
-1 -31 -5 9.3 8.5
5 -31 -1 -1.4 8.2
1 5 31 3.2 10.5
-1 31 5 3.7 11.1
3 31 5 25.1 11.2
31 3 -5 6.5 12.6
31 -5 -3 19.3 11.5
3 -31 -5 9.8 8.7
-5 -3 31 13.7 10.9
-3 5 31 10.7 11.1
3 -5 31 13.8 10.2
5 3 31 10.5 9.7
-5 31 3 9.3 10.5
5 -31 3 5.6 8.9
5 31 -3 19.7 12.6
-3 31 -5 7.2 12
-5 -31 -3 15.2 9.3
-3 -31 5 10.1 9.9
31 5 -3 -1.1 13.3
-5 31 -3 2.6 10.9
5 -31 -3 13.1 9
3 5 31 6.4 10.4
5 31 3 13 11.5
31 -3 -5 7.3 11.4
3 -31 5 13.3 9.4
-5 -31 3 10.3 9.6
5 -3 31 9.2 10.1
31 -5 3 -0.3 11.8
-3 -31 -5 11.3 8.8
-3 31 5 5.3 10.6
3 31 -5 9.7 12.6
-3 -5 31 6.5 10.7
-5 3 31 12.1 11.3
5 31 5 367.96 16.3
5 31 -5 412.36 18
-5 -5 31 419.36 15.3
31 5 -5 399.86 18.1
5 5 31 444.76 16.3
-5 5 31 425.06 16.9
-5 31 5 395.26 16.1
5 -31 -5 442.26 17.6
5 -31 5 413.36 18.2
5 -5 31 432.76 15.9
31 -5 -5 390.26 16.7
31 -5 5 410.86 17.3
-1 7 31 193.78 12.7
-7 -1 31 207.68 13.6
31 1 -7 205.88 14.9
7 31 -1 187.88 14.5
7 -31 1 175.58 10.8
7 1 31 197.78 12.4
31 -7 -1 174.18 12.7
1 -31 -7 188.58 11.2
1 -7 31 206.88 12.4
-7 31 1 196.88 13.7
1 31 7 197.38 13.3
1 31 -7 196.38 14.6
1 -31 7 221.08 12.9
-7 1 31 193.58 13.8
-1 -7 31 195.58 12.5
7 31 1 198.28 14.6
-1 -31 -7 177.78 11
-1 31 7 210.38 13.6
31 -1 -7 193.28 14
1 7 31 206.78 13
7 -31 -1 187.58 11.4
-7 31 -1 180.68 13.4
31 -7 1 198.58 13.7
7 -1 31 206.68 12.6
-7 31 3 6.2 10.8
3 -31 -7 2.5 8.9
31 -7 -3 5.8 11.9
31 3 -7 16 12.6
3 31 7 6 11.1
-3 7 31 5.7 11.4
7 3 31 0.7 10.2
-7 -3 31 3.7 11
7 -31 3 11.8 9.9
3 -7 31 8.4 10.5
7 31 -3 11.1 12.9
7 -3 31 5.7 10.6
31 -7 3 9.3 11.7
31 -3 -7 15.1 11.6
7 -31 -3 7.5 9.3
-7 3 31 3.8 12.1
-3 -31 -7 4.8 8.9
-3 31 7 8 11.1
-3 -7 31 5.7 10.4
3 -31 7 0.9 10.4
3 31 -7 -3.7 12.8
7 31 3 8.4 11.9
3 7 31 11.7 10.4
-7 31 5 312.77 15.3
5 -31 -7 299.17 13
31 -7 -5 275.97 14.8
5 -7 31 318.67 14.8
7 -31 5 342.37 14.7
7 31 -5 344.27 17.1
7 5 31 326.67 14.5
5 31 7 323.17 15.4
31 -5 7 310.47 16
31 5 -7 313.57 17.1
-5 7 31 309.27 15.4
7 -31 -5 293.37 13.1
5 -31 7 329.97 14.8
5 7 31 337.57 14.9
31 -7 5 327.37 16.2
-7 5 31 340.57 16.3
7 -5 31 339.17 14.6
7 31 5 306.57 15.7
31 -5 -7 333.57 16.6
5 31 -7 318.97 17.3
-5 31 7 284.87 14.6
31 7 -5 349.37 17.9
-7 7 31 223.68 15
7 -31 7 230.98 13.3
7 -31 -7 221.58 11.7
31 -7 7 190.28 14.4
31 7 -7 229.88 16.1
7 -7 31 214.58 13.2
7 7 31 215.58 13
7 31 -7 210.58 16.2
7 31 7 217.48 14.1
31 -7 -7 205.38 14.3
-7 31 7 170.18 12.1
-9 -1 31 754.12 25.8
1 -31 -9 759.72 23.5
-9 31 1 794.42 26
-1 9 31 737.03 25.3
31 1 -9 741.93 27.2
31 -9 -1 788.12 26.4
1 31 9 816.12 26
9 31 -1 754.42 27.9
1 -9 31 738.73 24.6
9 -31 1 760.42 23.8
9 1 31 770.82 24.5
9 -31 -1 777.42 23.5
-1 31 9 799.52 26.1
-1 -31 -9 778.82 23.3
31 -9 1 756.82 26.1
9 -1 31 735.53 24.8
9 31 1 834.72 28
-1 -9 31 721.23 24.2
-9 1 31 784.22 26.5
1 9 31 771.12 25.1
31 -1 -9 769.42 27.1
3 31 9 251.67 14.4
-3 9 31 259.37 14.5
31 -9 -3 210.78 13.6
9 31 -3 265.97 16.8
9 -31 3 240.58 12.9
9 3 31 290.17 13.4
31 3 -9 266.87 16.1
3 -31 -9 277.77 12.2
-9 31 3 253.47 14.6
3 -9 31 257.47 13.9
3 -31 9 275.47 14.4
31 -3 -9 254.37 15.6
9 31 3 269.57 15.6
-9 3 31 272.07 15.9
9 -31 -3 241.58 12.1
3 9 31 279.27 14.2
9 -3 31 280.97 13.5
31 -9 3 255.77 15.1
-3 -31 -9 251.87 12.3
-3 31 9 228.28 14
9 31 -5 14.4 14.7
5 31 9 8.1 11.6
9 5 31 15.9 10.8
5 -9 31 10.8 11.5
-9 31 5 18.3 11.6
-5 9 31 10.2 12.5
31 -9 -5 11.5 12.1
9 -31 5 11.4 10.8
31 5 -9 9.9 14
5 -31 -9 7.4 9.3
31 -5 -9 16.5 12.8
-5 31 9 9.6 11.5
9 -31 -5 13 10
-9 5 31 21.1 13.6
31 9 -5 3.6 15.5
9 -5 31 13.8 10.9
5 9 31 6.1 10.7
31 -9 5 15.1 12.4
5 -31 9 5.2 11.4
9 31 5 3.5 12.8
7 31 9 1.5 12.2
9 -31 7 -9.6 11.3
-7 9 31 1.1 13.2
-9 31 7 2.7 11.5
9 7 31 -2.5 10.6
31 -7 9 -0.4 12.6
31 7 -9 -3.4 14.8
7 -9 31 -5 11.8
9 31 -7 2.6 15.1
7 -31 -9 0.1 9.5
31 -9 -7 2.1 12.7
31 -7 -9 -1.3 13
7 9 31 -1.1 11.1
9 -31 -7 4.8 9.4
9 31 7 2.3 12.7
31 -9 7 -4.8 12.7
7 -31 9 -5.4 11.4
-7 31 9 3.7 11.5
-9 7 31 -0.7 13.8
31 9 -7 10.6 15.2
9 9 31 226.08 13.2
31 -9 9 272.47 16.2
-9 9 31 285.37 17.4
-9 31 9 283.57 15.7
9 -31 -9 300.97 13.9
31 9 -9 254.87 17.9
9 31 -9 256.87 18.5
9 31 9 302.77 16.2
9 -31 9 272.27 14.9
31 -9 -9 270.87 15.9
11 1 31 1130.79 31.4
1 31 11 1118.49 32.1
-1 11 31 1127.89 32.1
1 -11 31 1081.49 31.1
31 1 -11 1100.39 34.1
31 -11 -1 1079.89 32.9
1 -31 -11 1123.99 30.3
11 -31 1 1108.99 30.8
11 31 -1 1187.08 35.1
11 -1 31 1269.17 31.3
11 31 1 1156.38 34.1
31 -1 -11 1171.88 34.1
31 -11 1 1142.79 32.8
-11 1 31 1047.7 33.4
1 11 31 1136.39 32.1
11 -31 -1 1107.69 30.5
-1 -31 -11 1126.09 30
-1 31 11 1141.29 32.5
11 3 31 493.15 21.2
-11 31 3 498.95 19.1
-3 11 31 510.85 19.2
31 -11 -3 544.05 20.1
3 31 11 510.85 18.7
3 -31 -11 482.65 19.7
11 31 -3 552.24 21.3
3 -11 31 500.75 21.9
31 3 -11 490.35 20.1
11 -31 3 510.45 21.1
31 -11 3 573.14 20.2
11 -3 31 503.95 21
31 -3 -11 494.45 20.1
-3 31 11 469.65 18.6
3 11 31 491.05 21.7
11 -31 -3 480.05 20
11 31 3 488.75 19.8
-11 3 31 494.15 19.9
31 -11 -5 78.09 13.4
5 -11 31 72.59 12.4
5 -31 -11 79.69 10.1
5 31 11 61.39 12
-5 11 31 72.19 13.4
11 31 -5 83.19 15.8
31 5 -11 62.69 15.1
11 5 31 73.09 11.3
11 -31 5 77.99 12.1
-11 31 5 73.99 12.6
-11 5 31 65.29 15.1
11 31 5 71.79 13.9
31 -5 -11 74.39 13.9
11 -31 -5 71.39 10.3
-5 31 11 67.99 12.3
5 11 31 66.79 11.6
31 -11 5 60.19 13
31 7 -11 181.28 16.5
11 31 -7 160.18 17.6
7 31 11 181.08 14.1
11 -31 7 200.98 14.2
31 -7 11 154.18 14.8
11 7 31 191.48 13.3
7 -31 -11 163.98 11.8
31 -11 -7 166.18 15
-11 31 7 178.68 14.2
-7 11 31 184.08 15.6
11 31 7 182.58 15.1
7 11 31 168.68 13.1
31 11 -7 172.58 18.1
7 -31 11 162.78 14.2
-7 31 11 144.39 13.2
11 -31 -7 166.98 12.2
31 -7 -11 162.38 15.3
-11 7 31 163.18 16.6
31 -11 7 154.68 14.6
31 -11 -9 689.83 26.8
31 9 -11 563.34 23
11 -31 9 687.83 25.8
11 31 -9 573.84 24.4
9 31 11 659.83 26
11 9 31 626.44 23.3
9 -31 -11 650.63 22.6
31 -9 11 647.44 26.9
-11 31 9 588.74 24.5
-9 11 31 599.04 22.8
9 11 31 627.14 24.1
31 11 -9 572.34 23.6
11 -31 -9 628.14 22.5
-9 31 11 638.54 24.9
31 -11 9 620.84 25.8
9 -31 11 680.93 26.5
-11 9 31 641.34 23.7
31 -9 -11 678.53 27.5
11 31 9 647.34 26
31 11 -11 986 35.9
31 11 -11 1056.19 33.2
11 31 11 1111.49 33.7
11 11 31 1095.09 31.8
31 -11 -11 1133.89 34.6
31 -11 11 1097.59 33.6
11 -31 11 1143.19 34.2
-11 31 11 1075.49 32.8
-11 11 31 1073.39 36.4
11 -31 -11 1079.49 30.8
31 1 -13 1057.39 33.5
-1 13 31 1072.09 31.3
31 -13 -1 1041.2 31.4
13 1 31 1062.89 29.6
1 31 13 1001.2 30.7
13 -31 1 1037 29.6
1 -31 -13 1051.09 28.9
1 -13 31 984 29.8
13 31 -1 992.1 34.7
13 31 1 1081.69 34.5
-1 31 13 1019.2 31.2
-13 1 31 994.3 33.6
13 -1 31 998.7 29.7
31 -13 1 1028.2 31.7
31 -1 -13 1106.79 33.5
-1 -31 -13 1031.7 28.6
1 13 31 1007.6 31
3 31 13 309.07 15.9
3 -31 -13 343.67 14.3
13 3 31 352.16 15.9
13 31 -3 312.87 19.1
31 3 -13 335.07 18.1
13 -31 3 356.16 16
3 -13 31 298.97 16.2
31 -13 -3 284.47 15.8
-3 13 31 309.87 16.6
31 -13 3 371.56 17.5
13 -31 -3 298.47 13.8
-3 31 13 308.27 16.2
-13 3 31 309.07 18.7
13 31 3 339.67 18.4
3 13 31 347.17 16.4
31 -3 -13 343.77 18.1
5 31 13 20.8 12.7
13 31 -5 42.8 17.5
-13 31 5 18.9 12.4
31 5 -13 41.7 15.9
-5 13 31 41.2 14.4
5 -13 31 46 13.7
31 -13 -5 35.8 13.7
13 -31 5 39 12.2
13 5 31 38.5 11.9
5 -31 -13 37.7 10.7
-5 31 13 37.2 13.3
31 -5 -13 36.6 15
5 13 31 29.4 12.3
31 -13 5 30.7 12.4
13 -31 -5 43.1 11.1
13 31 5 42.8 14.4
31 13 -5 29.4 14.1
-13 5 31 23.8 16.1
-13 31 7 97.59 13.6
13 31 -7 102.39 18.9
13 7 31 102.29 12.4
-7 13 31 123.89 16
31 7 -13 100.19 16.4
13 -31 7 115.89 13.8
7 31 13 109.99 14
7 -31 -13 118.19 11.8
31 -13 -7 132.89 14.7
-7 31 13 114.99 13.7
31 -13 7 91.59 13.1
13 -31 -7 101.99 10.9
31 13 -7 126.89 15.4
31 13 -7 122.29 19.5
-13 7 31 122.89 17.5
31 -7 -13 118.19 15.8
7 13 31 95.09 13
13 31 7 114.39 15.1
31 -13 -9 475.75 19.7
13 31 -9 399.26 23.1
31 9 -13 420.36 20.3
13 -31 9 454.35 19.2
13 9 31 415.06 17.7
-9 13 31 423.46 20.5
31 -9 13 429.46 19.5
9 -31 -13 458.65 16.8
-13 31 9 413.96 18.7
9 31 13 436.26 18.7
13 -31 -9 359.86 15.3
31 -9 -13 458.15 20.3
31 13 -9 412.06 22.3
-13 9 31 425.36 21.8
9 13 31 457.85 17.9
13 31 9 393.56 19
31 -13 9 476.95 20
31 13 -9 437.56 19.3
9 -31 13 479.45 20.3
-9 31 13 420.16 18.4
31 -11 13 822.32 30.7
11 31 13 838.42 30.5
13 11 31 818.02 27.4
31 -13 -11 848.82 31.1
13 -31 11 851.41 30.6
-13 31 11 821.82 29.3
11 -31 -13 858.31 26.5
-11 13 31 800.32 33.8
11 -31 13 869.81 31.4
31 -13 11 834.72 30.6
-13 11 31 786.32 33.8
13 31 11 837.82 31.2
13 -31 -11 814.92 26.6
31 13 -11 755.62 33.3
31 13 -11 774.32 30
11 13 31 827.62 28.5
-11 31 13 776.32 28.6
31 -11 -13 823.42 31.1
13 -31 -13 820.82 27.6
13 13 31 787.32 28.7
31 -13 -13 784.42 31.6
31 -13 13 807.32 31
13 -31 13 833.82 32.7
-13 13 31 824.92 34.7
13 31 13 815.02 31.5
31 1 -15 119.39 16.6
15 1 31 122.99 13.4
15 -31 1 112.89 13.1
31 -15 -1 143.49 15.2
15 31 -1 118.09 18.2
1 -31 -15 115.79 12.1
1 31 15 103.79 13.7
-1 15 31 103.29 14.5
31 15 1 134.49 14.5
-1 31 15 105.39 13.4
31 -15 1 117.09 14.6
31 15 -1 107.39 14.8
15 -1 31 131.69 13.4
31 -1 -15 107.29 16.4
15 31 1 121.29 17.5
1 15 31 101.59 14.2
15 -31 -1 99.49 12.5
3 -15 31 20.8 14.1
-3 15 31 18.2 14.3
3 -31 -15 29.3 10.6
15 -31 3 19.5 12.8
31 15 3 29.3 13.7
3 31 15 12.1 12
15 31 -3 29.3 18.5
15 3 31 21.8 12.4
31 -15 -3 17.3 14
31 3 -15 30.5 15.9
31 -15 3 26.2 14.5
15 31 3 11.7 16.1
31 15 -3 28.2 15.1
-3 31 15 15.8 13.5
31 -3 -15 11.3 15.8
3 15 31 13.8 13.1
15 -31 -3 24.5 11.9
15 31 -5 320.87 22.3
15 5 31 297.77 15.4
5 31 15 289.67 16.3
31 15 5 350.46 17.2
15 -31 5 339.37 16.9
5 -31 -15 318.47 14.7
-5 15 31 339.27 18.2
31 -15 -5 343.07 17.8
31 5 -15 301.97 18.8
15 -31 -5 277.57 14.1
-5 31 15 312.17 16.7
-15 5 31 325.77 21.5
15 31 5 296.37 18.4
31 -15 5 264.67 15.7
31 15 -5 322.67 18.5
5 15 31 317.87 16.8
31 -5 -15 328.67 18.8
15 31 -7 138.39 21.1
7 -31 -15 136.19 12.4
-15 31 7 144.69 14.5
-7 15 31 147.39 17.6
7 31 15 147.99 15
31 15 7 145.49 15.2
15 7 31 141.49 13.8
31 -15 -7 129.89 15.3
15 -31 7 118.49 15
31 15 -7 144.49 17
31 -15 7 130.59 15
-15 7 31 140.09 20.7
7 15 31 125.99 14.1
15 31 7 149.59 16.9
31 -7 -15 148.49 16.9
-7 31 15 153.78 15.3
31 15 -7 117.09 21.5
15 -31 -7 152.88 13
31 -9 15 -3 15.9
-15 31 9 2.6 14.6
15 9 31 -0.1 12.6
-9 15 31 -2.5 16.9
31 15 9 2.6 13.9
31 -15 -9 5.3 15.4
15 31 -9 5.5 21.1
9 31 15 5.9 14.8
15 -31 9 5.7 14.7
9 -31 -15 5 11.2
-15 9 31 15.2 19.9
9 15 31 2.1 13.7
-9 31 15 13.8 14.5
15 31 9 24.2 16.1
31 15 -9 -24.5 20.2
31 15 -9 -5.5 16.9
15 -31 -9 11.6 12.4
31 -15 9 2.1 15
31 -9 -15 0.3 16.8
15 11 31 142.49 15.1
15 -31 11 135.29 17.3
11 -31 -15 127.79 13.6
31 -11 15 111.79 17.3
31 15 11 121.79 15.4
11 31 15 117.69 16.9
31 -15 -11 139.49 17
-11 15 31 127.59 19.5
31 -11 -15 124.19 18
15 -31 -11 163.98 14.7
-15 11 31 125.59 21.7
31 -15 11 126.49 16.4
11 15 31 108.19 14.9
15 31 11 103.99 17.4
-13 15 31 89.19 21.4
15 -31 13 80.49 18.3
31 -15 -13 64.39 17.8
31 15 13 71.39 16.2
-15 13 31 75.39 22.1
13 -31 15 71.79 19.9
31 -13 -15 71.99 18.5
15 31 13 58.19 17.6
31 -15 -15 24.2 19.7
15 -31 15 24.1 20.4
-15 15 31 37 23.5
17 -31 1 53.59 13.7
17 1 31 54.69 13.4
1 31 17 43.9 13.6
-1 -31 17 49 16.8
31 1 -17 56.39 17.5
17 31 -1 52.19 19.8
31 17 1 60.19 16
-1 17 31 53.89 15.3
31 -17 -1 39.8 14.7
31 -17 1 50.39 14.4
17 31 1 67.99 19.1
1 17 31 47.5 14.7
31 17 -1 58.39 16.1
-1 31 17 40.1 13.9
17 -31 -1 45.2 11.9
31 -1 -17 55.99 17.7
3 31 17 50.39 15
17 3 31 46.1 13.5
3 -31 -17 42.5 12.5
17 -31 3 50.39 14
3 -17 31 40.4 15.8
-3 17 31 46.5 15.8
31 17 3 51.49 15.4
-3 -31 17 46.3 15.5
31 -17 -3 53.79 14.9
17 31 -3 39 20.9
31 3 -17 40.8 17.1
3 -17 31 43.8 19.4
17 31 3 39.2 18.2
31 17 -3 38.5 16.2
17 -31 -3 49.7 12.9
3 17 31 34 15
31 -17 3 51.19 15.4
-3 31 17 50.69 14.8
31 -3 -17 49 17.4
31 17 5 298.97 18.2
5 -31 -17 298.57 15.1
17 31 -5 275.57 24.6
-5 17 31 268.17 18.3
5 31 17 269.87 17.2
5 -17 31 267.77 23.6
31 -17 -5 313.27 18.1
17 5 31 244.18 15.3
17 -31 5 277.27 16.8
17 -31 -5 257.97 15.2
31 17 -5 268.67 19.8
5 17 31 305.87 17.6
-5 31 17 321.57 18.3
31 -17 5 285.37 17.7
17 31 5 274.77 19.6
31 -5 -17 287.37 19.9
31 17 7 144.59 17
7 -17 31 108.79 23.8
17 31 -7 124.09 23.7
17 7 31 131.99 14.8
17 -31 7 120.09 16
-7 17 31 133.19 18
7 31 17 140.69 15.5
7 -31 -17 114.19 13.9
31 -17 -7 142.99 16.9
17 31 7 117.19 18.5
31 -17 7 138.09 17.6
17 -31 -7 129.39 14.2
31 17 -7 131.99 19.6
7 17 31 106.79 15.2
31 -7 -17 119.69 18.6
-9 17 31 1.5 18.5
31 -17 -9 17 16.2
31 -9 17 10.6 17.6
17 9 31 16.7 15.3
31 17 9 21.4 16.4
17 -31 9 13.3 16.4
17 31 9 19.6 18
31 -9 -17 7.9 18
-17 9 31 11.3 23.5
9 17 31 9.5 14.6
31 -17 9 13.2 17
17 -31 -9 16.8 14.4
31 17 11 87.39 17.5
-11 17 31 79.69 20.5
17 -31 11 88.89 17.7
31 -17 -11 96.59 18.5
31 -11 -17 87.09 18.8
17 31 11 82.99 18.8
-17 11 31 99.49 24.4
31 -17 -13 9.6 19
-13 17 31 9.7 21.9
17 -31 13 18.2 18.7
31 -13 -17 26.8 19.2
-17 13 31 16.1 24.7
17 -31 15 119.79 23.5
31 -17 -15 114.19 21.6
-15 17 31 119.09 25.3
15 -31 17 81.49 24.4
31 -15 -17 85.99 20.6
-17 15 31 113.29 27.7
31 19 1 199.38 18.6
-1 -31 19 195.88 19.8
-1 19 31 227.68 18.3
19 31 -1 232.58 23.9
31 1 -19 213.28 20.4
19 -31 1 240.38 16.9
31 -19 -1 209.48 17.2
19 1 31 230.88 16.4
1 -31 19 229.28 20.9
31 -1 -19 218.48 20.9
31 19 -1 215.68 19.8
19 -31 -1 253.87 17
1 19 31 189.38 17.5
31 -19 1 211.58 17.2
-3 19 31 19.1 17.3
19 31 -3 21.6 24.2
31 -19 -3 28.2 15.3
19 -31 3 27.8 14
3 -19 31 36.4 17.6
19 3 31 24.4 14.5
31 19 3 49.3 17.5
31 -3 -19 23 19.5
31 19 -3 38.1 19.8
19 -31 -3 28 14.2
3 -31 19 26.4 19.8
19 31 3 40.4 20.4
31 -19 3 37.6 16.5
3 19 31 31.7 16.1
31 19 5 0.7 15.9
19 -31 5 -10.3 15.4
31 -19 -5 8.7 16.2
5 -19 31 -5.2 23.8
-5 19 31 -3.5 18.1
19 31 -5 5.1 26.2
19 31 5 7 19.6
31 -5 -19 1.3 19.5
31 19 -5 -5 20.9
31 19 7 13.2 16.7
31 -19 -7 3.1 16.5
19 -31 7 -4.6 16.6
-7 19 31 8 18.4
7 -19 31 0.8 25.6
19 31 7 -9.6 19.8
31 -7 -19 4.2 19.8
19 -31 9 143.89 19
31 -19 -9 179.18 20.8
-9 19 31 134.99 21
9 -19 31 167.38 27.6
31 19 9 179.98 19.6
31 -9 -19 153.98 21.1
19 31 9 154.88 21.1
-11 19 31 474.15 26.2
31 -11 -19 416.36 24.5
19 -13 31 190.18 27.8
31 -13 -19 209.08 24.1
-19 13 31 169.78 31.1
21 31 -1 607.44 31.5
31 21 1 574.54 26
21 31 1 576.14 29.4
31 21 -1 572.84 27.5
31 21 3 276.27 22.4
21 31 -3 296.67 31.8
21 31 3 281.87 25.4
3 -31 21 295.67 26.1
31 21 5 59.19 20.9
21 31 5 52.29 22.9
5 -31 21 68.29 24.2
31 21 7 27.2 19.9
21 31 7 52.89 23
31 23 3 162.58 25.7
23 31 3 153.88 28.4
31 23 5 9.9 24.3
23 31 5 -3.8 26.6
0 -32 0 1767.22 43.2
0 0 32 1770.22 43.8
0 32 0 1823.32 44.9
32 0 0 1770.92 45.8
-2 -32 0 1181.28 31
-2 32 0 1105.29 32.7
0 -2 32 1117.49 31.8
0 2 32 1167.18 32.1
2 -32 0 1187.88 30.8
2 32 0 1090.29 33.3
32 0 -2 1109.49 33.6
32 0 2 1174.38 33.9
-2 0 32 1131.49 32.1
0 -32 -2 1167.28 30.7
0 -32 2 1181.68 31.1
0 32 -2 1184.98 33.4
0 32 2 1166.98 32.9
2 0 32 1154.68 31.6
32 -2 0 1135.69 33.2
32 2 0 1134.59 34.2
32 -2 -2 907.71 28.5
32 -2 2 870.91 28.9
32 2 -2 844.22 29.6
-2 2 32 843.12 27.3
2 -32 -2 841.42 25.2
2 -32 2 851.21 25.7
2 -2 32 838.82 26.5
2 2 32 866.51 26.6
2 32 -2 852.81 28.6
2 32 2 886.81 28.4
-2 -32 -2 864.11 25.4
-2 -32 2 870.11 25.9
-2 -2 32 864.61 26.7
-2 32 2 809.42 27.2
-2 32 -2 880.21 28
0 4 32 103.19 12.2
0 -4 32 112.29 12.6
32 0 -4 111.39 14.4
-4 32 0 102.59 13.4
4 -32 0 101.79 10.1
4 32 0 108.99 14
-4 -32 0 119.69 11.3
32 -4 0 110.49 13.6
4 0 32 116.09 11.7
-4 0 32 119.09 13.1
0 -32 -4 103.59 10.5
0 -32 4 108.89 11.6
0 32 -4 102.09 14.4
0 32 4 95.59 12.9
2 -32 -4 102.59 10.4
32 -2 4 99.69 13.8
-4 -2 32 106.59 12.9
2 -4 32 87.79 12.1
-4 -32 -2 106.69 10.9
32 -4 -2 93.79 13.5
-4 32 2 91.79 12.8
4 32 -2 100.99 13.9
2 32 4 114.29 13.4
-2 -32 4 106.29 11.4
4 2 32 102.59 12.2
32 2 -4 113.99 14.6
-2 32 -4 111.09 14.1
4 -32 2 90.59 10.5
-2 4 32 93.39 12.6
32 -4 2 93.19 13.4
4 -2 32 91.09 11.7
-2 32 4 97.69 12.6
32 4 -2 92.89 14.8
32 -2 -4 110.19 14
-2 -4 32 107.19 12.5
2 4 32 89.59 12.4
4 -32 -2 116.29 11.1
4 32 2 106.19 13.8
-4 32 -2 96.79 13.2
2 -32 4 90.19 10.6
2 32 -4 104.19 14.5
-4 -32 2 106.59 11
-4 2 32 100.29 13.2
-2 -32 -4 107.89 10.5
32 4 -4 21.3 14
4 32 4 7.2 12.2
32 -4 -4 12.4 12.7
-4 -32 -4 8.8 9.9
4 32 -4 7 13.4
-4 4 32 10.4 12.6
-4 32 -4 0.9 13.1
-4 32 4 10.3 11.9
4 -32 -4 7.2 9.4
4 -32 4 14.3 10.2
4 -4 32 12.7 11.3
4 4 32 9 10.9
32 -4 4 5.5 12.5
-4 -4 32 6.8 11.9
0 32 -6 127.89 14.9
0 32 6 136.19 13.5
6 0 32 120.49 11.9
32 -6 0 146.69 14.2
32 0 -6 156.68 15.5
6 -32 0 145.09 11.9
6 32 0 150.58 15.2
0 -32 6 165.18 12.6
-6 0 32 149.69 14.2
0 -32 -6 147.79 11.3
-6 32 0 134.69 13.7
0 -6 32 140.29 12.9
0 6 32 150.98 13.4
6 32 -2 85.69 14.3
6 2 32 104.09 12
6 -32 2 88.99 10.7
32 2 -6 92.19 14.2
2 32 6 88.99 12.9
2 -32 -6 99.49 10.5
-6 -2 32 90.09 13.3
32 -6 -2 89.19 13.3
-6 32 2 99.59 13.1
2 -6 32 108.39 12.5
-2 6 32 92.89 13.2
-2 -6 32 91.59 12.2
2 6 32 105.69 12.5
6 -32 -2 92.39 10.4
6 32 2 97.49 13.9
-6 2 32 90.59 13.9
32 -6 2 90.49 13.8
-2 32 6 92.69 12.8
6 -2 32 102.39 12.3
2 -32 6 96.29 11.4
2 32 -6 96.89 14.5
32 -2 -6 87.39 13.8
-2 -32 -6 97.09 10.4
-6 32 -2 100.69 13.9
4 -32 -6 45.2 10
4 32 6 46.9 12.4
32 -4 6 39.1 13.4
6 4 32 46.9 11.2
32 -6 -4 40.5 12.6
32 4 -6 55.49 15.1
6 -32 4 52.49 10.6
6 32 -4 46 14.4
-4 6 32 42.3 13.3
4 -6 32 40 12.1
-6 32 4 45.9 12.4
4 -32 6 51.29 11.1
4 32 -6 34.9 14.8
-4 32 6 40.7 12.3
32 -4 -6 37.3 13.2
6 -4 32 44.9 11.9
32 -6 4 56.99 13.4
4 6 32 41.4 11.5
32 6 -4 44.3 15.5
-6 4 32 39.6 13.7
-4 -6 32 41.3 11.7
6 32 4 47.4 13.3
6 -32 -4 48.4 9.9
6 6 32 117.29 12.2
6 32 6 110.59 13.4
32 6 -6 113.39 16.1
6 32 -6 118.39 15.9
32 -6 -6 119.99 14.4
32 -6 6 122.29 14.4
6 -6 32 115.19 13.2
6 -32 6 121.99 12.5
-6 32 6 109.59 12.8
-6 6 32 120.39 14.9
6 -32 -6 116.29 11
32 -8 0 642.14 25.1
8 0 32 642.04 23.8
-8 32 0 677.13 25.4
0 32 8 671.03 25.9
-8 0 32 648.24 26.4
32 0 -8 654.53 26.7
0 8 32 674.73 24.7
0 -8 32 692.83 24.2
0 -32 -8 643.84 22.1
8 32 0 700.73 28.1
8 -32 0 664.33 22.4
-2 8 32 433.26 17.8
32 -8 -2 412.26 17.8
8 2 32 426.36 16.4
32 2 -8 424.36 19.6
8 32 -2 434.36 19.6
2 -32 -8 436.56 18.7
-8 32 2 413.16 18.1
8 -32 2 431.36 16.4
-8 -2 32 388.06 17.2
2 32 8 411.46 17.7
2 -8 32 405.76 17
8 -2 32 442.16 17
32 -2 -8 430.76 19.1
-8 2 32 437.06 18.8
2 8 32 408.36 17.3
8 -32 -2 475.05 16.7
32 -8 2 450.65 18.8
-2 -8 32 419.56 16.5
-2 32 8 372.16 17.1
8 32 2 428.36 18.8
-2 -32 -8 433.76 18.6
-8 32 4 5.8 12
4 -8 32 -3.9 12.2
32 -8 -4 0.2 12.1
4 -32 -8 2.2 9.9
32 4 -8 0.2 14.9
4 32 8 -5 12.1
8 -32 4 -0.1 10.2
-4 8 32 4.5 13.4
8 32 -4 -7 15.4
8 4 32 4.8 11.2
32 8 -4 3.8 16.4
8 32 4 3.7 13.4
32 -4 -8 3.3 13.6
4 8 32 -3.8 11.8
8 -4 32 -3.2 12.2
8 -32 -4 -5 10.3
-8 4 32 -1.7 14.5
4 -32 8 10.7 11.8
32 -8 4 -5.4 13
-4 32 8 1.6 12.2
6 -8 32 17 12.8
-6 8 32 20.4 14.4
6 32 8 21.8 12.6
-8 32 6 17.5 12.5
8 32 -6 20.8 16
32 -8 -6 36.6 14.1
32 6 -8 13.2 15.6
6 -32 -8 13.9 10.2
8 6 32 19.6 12.1
8 -32 6 16.2 11.6
32 -6 8 15.9 13.4
8 -32 -6 22.6 10.6
32 -6 -8 25 14
-8 6 32 17.2 15.1
32 -8 6 10.3 13.1
32 8 -6 13.5 16.2
6 -32 8 19 11.7
6 32 -8 23.6 16.3
-6 32 8 16.2 12.3
6 8 32 28.9 12
8 -6 32 26.3 12.2
8 32 6 13.2 13.1
8 -8 32 29.3 13
8 8 32 24.2 12.5
32 8 -8 15.7 16.2
8 -32 -8 23.6 10.6
8 32 -8 22.6 17
8 32 8 24 13.4
32 -8 -8 7.8 14.4
32 -8 8 31.6 14
-8 32 8 10.9 12.2
-8 8 32 33.2 15.6
8 -32 8 19.9 12.4
0 32 10 1320.87 36.4
32 0 -10 1303.27 38.2
0 -10 32 1325.17 35.2
0 10 32 1307.57 36.1
10 -32 0 1315.77 34.5
32 -10 0 1299.47 36.8
10 0 32 1273.67 35.5
10 32 0 1333.67 38.9
0 -32 -10 1331.87 34.2
-10 0 32 1240.28 37.2
32 -10 -2 1029.4 31.7
10 32 -2 1001.6 34.6
32 2 -10 1074.59 33.2
-2 10 32 1031.3 31.1
10 -32 2 974.5 28.8
2 -10 32 957.3 30.2
-10 32 2 999.7 30.9
2 -32 -10 999.7 28.5
10 2 32 995.6 29.6
2 32 10 1007.8 30.9
10 -32 -2 990.6 28.5
32 -10 2 1013.7 31.4
2 10 32 995.7 30.4
10 32 2 946.71 33.1
32 -2 -10 1025.7 33.1
-2 32 10 1004.1 31.4
-2 -32 -10 981.7 28.3
-10 2 32 995.4 33
10 -2 32 1036.9 29.9
-4 10 32 223.58 15.8
32 -10 -4 201.68 15.1
4 -32 -10 202.78 12.1
-10 32 4 229.48 15.5
10 4 32 204.28 13.6
32 4 -10 199.48 17.3
10 -32 4 188.88 13.6
10 32 -4 218.28 18
4 -10 32 218.48 15.3
4 32 10 202.18 14.3
10 -4 32 230.68 14.6
4 10 32 216.08 14.3
10 -32 -4 212.78 13
-10 4 32 194.58 17.3
10 32 4 195.38 16.1
32 -10 4 200.38 15.2
-4 32 10 219.48 14.9
32 -4 -10 212.38 16.6
-10 32 6 125.39 14
-6 10 32 136.29 15.7
6 -10 32 128.79 14.3
6 32 10 131.09 14.4
32 6 -10 141.19 17
10 6 32 117.39 12.2
10 -32 6 138.39 13.5
10 32 -6 122.09 18.3
32 -10 -6 129.09 15.3
6 -32 -10 140.79 11.6
32 -6 10 128.69 14.6
-6 32 10 133.09 14.3
10 -6 32 138.09 13.8
6 10 32 134.89 13.6
10 32 6 134.09 15.5
-10 6 32 111.29 16.7
32 10 -6 160.48 19.4
10 -32 -6 148.29 12.5
6 -32 10 137.59 14.1
32 -10 6 109.19 13.8
32 -6 -10 128.89 15.8
32 -10 -8 383.26 18.7
10 32 -8 403.16 22.3
-10 32 8 310.27 16.2
8 -32 -10 439.46 16.2
10 -32 8 393.36 17.3
8 32 10 377.66 17.8
10 8 32 353.56 16.4
32 8 -10 402.06 21
32 -8 10 411.66 18.8
-8 10 32 440.06 20.5
32 -8 -10 404.66 19
32 10 -8 385.86 21.8
8 -32 10 451.95 18.7
-10 8 32 422.96 20.4
-8 32 10 436.16 18.6
10 32 8 407.76 19
32 -10 8 370.36 17.7
10 -32 -8 364.36 15.1
8 10 32 430.16 17.9
-10 32 10 1113.59 34.5
-10 10 32 1180.88 37.9
10 -32 -10 1178.68 32.3
10 10 32 1107.79 33.4
32 -10 10 1160.18 35.4
32 10 -10 1112.09 39.1
32 -10 -10 1140.79 36.2
10 -32 10 1209.48 34.9
10 32 10 1159.28 35.6
32 0 -12 1684.43 44.9
12 0 32 1640.64 42.2
0 -32 -12 1598.34 40.8
12 32 0 1728.33 46.2
32 -12 0 1609.54 43.3
0 12 32 1623.34 42.9
0 32 12 1664.03 43.2
12 -32 2 1185.38 32.6
2 32 12 1133.49 33.7
2 -32 -12 1161.48 31.5
12 32 -2 1146.19 38.1
32 2 -12 1175.18 36.7
12 2 32 1133.69 32.9
32 -12 -2 1121.19 34.2
2 -12 32 1092.69 33.5
-2 12 32 1164.58 34.6
32 -12 2 1132.59 34.2
-2 32 12 1151.78 34.2
2 12 32 1146.89 33.8
12 -32 -2 1147.59 31.6
12 32 2 1214.68 36.8
-12 2 32 1182.58 37.3
32 -2 -12 1188.38 36.3
12 -2 32 1116.39 32.5
4 -32 -12 318.37 14.6
12 -32 4 312.57 15.4
32 4 -12 346.97 20
12 4 32 331.97 15.8
12 32 -4 330.97 21.1
-12 32 4 299.07 16.3
-4 12 32 312.87 17.7
32 -12 -4 311.47 17.5
4 32 12 310.37 16.4
4 -12 32 307.37 17.4
12 -32 -4 286.37 13.9
12 -4 32 362.36 16.7
32 -4 -12 316.17 18.7
-4 32 12 359.36 17.6
4 12 32 340.07 16.8
12 32 4 336.77 18.6
-12 4 32 308.97 19.7
32 -12 4 318.87 17.4
12 6 32 331.87 16.3
-12 32 6 276.87 16.3
-6 12 32 410.16 20
32 6 -12 373.86 20.8
12 -32 6 322.87 16
12 32 -6 361.16 22
6 -12 32 358.96 18.1
32 -12 -6 347.47 18
6 -32 -12 375.76 15.3
6 32 12 351.56 17.6
12 -32 -6 365.86 15.2
32 -6 -12 373.16 19.4
12 32 6 363.66 19
6 12 32 334.97 16.8
32 -12 6 283.57 15.9
-12 6 32 378.76 20.6
32 12 -6 355.96 22.5
-6 32 12 384.16 17.4
12 32 -8 627.04 26.6
32 8 -12 600.84 25.1
8 -32 -12 618.24 23.1
12 -32 8 659.03 27.1
-12 32 8 622.64 26.7
32 -12 -8 647.84 28
32 -8 12 639.44 23.5
12 8 32 627.34 25
8 32 12 639.54 27.2
-8 12 32 619.74 24.6
32 12 -8 631.44 26.3
-12 8 32 624.44 25.4
32 12 -8 619.84 23.2
32 -8 -12 644.74 24.2
12 32 8 647.54 28.2
32 -12 8 643.94 27.2
8 12 32 637.34 25.7
12 -32 -8 644.04 23.3
-8 32 12 636.64 26.7
-12 32 10 1197.38 35.3
12 10 32 1140.39 34.5
32 10 -12 1176.18 40.1
12 -32 10 1275.27 36.9
32 -10 12 1178.88 37.1
10 -32 -12 1183.08 33.4
-10 12 32 1242.58 39.5
10 32 12 1203.28 36.8
32 -12 -10 1219.28 37.7
10 -32 12 1226.68 37.6
10 12 32 1144.09 35.1
-12 10 32 1163.88 39.9
-10 32 12 1153.18 35.4
32 12 -10 1075.79 40.8
12 32 10 1220.68 36.9
12 -32 -10 1204.18 33.5
32 12 -10 1101.69 37.6
32 -10 -12 1228.48 37.8
12 -32 -12 1397.56 37.9
12 12 32 1381.76 38.6
12 32 12 1400.56 41
32 -12 -12 1364.96 41.3
32 -12 12 1298.97 40.4
-12 12 32 1368.06 44.1
12 -32 12 1451.15 42.1
0 14 32 377.26 18.4
32 -14 0 367.46 18
32 14 0 433.86 18.6
32 0 -14 439.66 21
0 32 14 334.67 17
14 -32 0 373.46 15.9
14 32 0 409.36 21.7
14 0 32 406.16 16.9
0 -32 -14 403.16 16
14 -32 2 165.68 14.4
2 -14 32 151.78 15.7
32 14 2 157.68 15.5
14 32 -2 154.28 20.1
2 -32 -14 173.58 13.2
32 -14 -2 149.49 16.1
2 32 14 173.58 15.2
2 -14 32 160.58 19.5
14 2 32 140.29 14.1
32 2 -14 163.18 18.5
-2 14 32 169.58 16.1
14 -32 -2 137.39 12.6
2 14 32 156.38 15.5
32 14 -2 153.38 16.2
32 -14 2 122.69 14.6
14 32 2 163.48 18.3
-2 32 14 167.48 15.1
14 -2 32 137.49 14.2
32 -2 -14 158.98 18.1
14 32 -4 3.2 20.2
14 4 32 26.2 13.3
32 -14 -4 30.3 15
32 4 -14 14.9 18
-4 14 32 16.1 15.9
4 -32 -14 25.2 11.3
4 -14 32 17.6 20
14 -32 4 14.3 12.7
4 32 14 19.3 12.3
4 -14 32 17.1 16.1
32 -4 -14 16.3 17.1
14 32 4 16.6 16.8
32 14 -4 39.6 16
32 -14 4 8.9 14.1
-14 4 32 11.3 19.4
14 -32 -4 21.2 10.3
-4 32 14 13.3 14.4
4 14 32 19.6 13.6
14 6 32 17.9 13.2
14 -32 6 28.8 14
32 14 6 12.9 14.2
-6 14 32 16.1 16.4
14 32 -6 6.5 21
6 32 14 16.6 14.1
6 -32 -14 16.2 11.5
32 -14 -6 25.8 15.1
32 6 -14 19.5 18.2
6 -14 32 16.7 16.5
-14 32 6 11.9 12.9
14 32 6 13.7 16.3
32 14 -6 16.4 22.4
6 14 32 7.3 14.2
32 -14 6 -2.6 13.4
-6 32 14 15 14.6
14 -32 -6 13.3 12.2
-14 6 32 14.9 20.2
32 -6 -14 10.1 16.9
32 14 -6 14.1 17.2
-14 32 8 19.8 15.3
-8 14 32 6.8 17.4
8 32 14 13.3 15.1
32 -8 14 13 15.9
32 -14 -8 24.1 16.2
8 -32 -14 18.7 12.1
14 32 -8 17.6 22.2
14 -32 8 15.1 15.4
32 14 8 9.5 14.7
14 8 32 19.7 13.7
32 8 -14 18.8 18.6
14 -32 -8 2.7 10.7
32 -8 -14 14.6 17.6
32 14 -8 14.2 21.8
8 14 32 8.1 14.3
32 14 -8 12.5 18.2
-14 8 32 9.3 20.8
32 -14 8 11.3 15.8
-8 32 14 13.4 16
14 32 8 8.9 16.6
32 -10 14 225.28 18.7
10 -32 -14 252.77 14.9
14 10 32 201.68 16.2
-10 14 32 233.98 21.1
32 14 10 247.08 17.3
32 -14 -10 205.88 18.7
14 -32 10 228.08 18.2
10 32 14 193.58 17.7
32 -14 10 223.28 17.8
32 -10 -14 235.58 19.5
10 14 32 230.68 16.5
14 32 10 232.08 19.2
14 -32 -10 206.78 14.7
32 14 -10 191.58 23.4
32 14 -10 202.18 21.4
-14 10 32 222.88 22.7
-12 14 32 422.26 25.1
32 -14 -12 352.26 21.1
32 14 12 383.86 19.3
14 -32 12 398.96 21.6
12 -32 14 409.86 23.2
-14 12 32 357.16 25.5
32 -12 -14 381.46 22.1
14 32 12 367.76 21.4
14 -32 14 31 19.9
32 -14 -14 26.5 20
-14 14 32 47 24
32 16 0 195.68 18
0 32 16 128.49 14.8
0 -32 16 167.28 19.8
0 16 32 153.68 16.9
32 -16 0 170.38 17
16 -32 0 173.68 15.4
16 0 32 180.18 15.6
16 32 0 171.38 21.4
32 0 -16 167.18 19.8
16 32 -2 18.7 21.5
2 32 16 23.2 14.7
16 2 32 41.5 14.4
2 -16 32 23.9 16.1
32 -16 -2 25.4 15.7
32 2 -16 21.9 18.8
-2 16 32 22.9 16.1
16 -32 2 23.2 13
-2 -32 16 19.4 17.5
32 16 2 18.1 16.5
2 -32 -16 22.2 11.4
32 16 -2 32.6 17.5
16 32 2 9.9 19.4
-2 32 16 17.2 15.3
16 -32 -2 28.1 13.5
32 -16 2 27.7 16
32 -2 -16 34.7 18.6
2 16 32 25.2 15.2
4 -16 32 121.69 22.9
-4 16 32 153.48 18.1
16 -32 4 181.38 16.3
4 -32 -16 163.28 14
32 4 -16 159.68 19.9
16 32 -4 152.78 23.7
32 -16 -4 172.38 17.2
4 -16 32 168.78 18.8
32 16 4 167.08 17.3
16 4 32 179.98 16
4 32 16 127.19 16.9
32 16 -4 155.08 18.7
16 -32 -4 146.69 14.2
16 32 4 165.78 19.4
32 -16 4 132.89 15.9
4 16 32 171.98 16.8
32 -4 -16 173.68 19.7
6 -16 32 158.38 24.4
32 16 6 166.48 17.5
6 -32 -16 157.98 14.2
32 -16 -6 156.78 17.5
-6 16 32 161.28 19.2
16 -32 6 182.78 16.8
16 6 32 154.98 15.7
16 32 -6 156.28 25
32 16 -6 155.48 20
16 -32 -6 135.29 13.3
16 32 6 159.38 19.6
32 -6 -16 165.08 19.9
-16 6 32 146.79 24.8
6 16 32 131.69 16.4
32 -16 6 139.19 16.2
-8 16 32 3.2 19
8 -16 32 3.4 24.8
16 8 32 -3.9 14.2
32 -16 -8 9.5 17.3
16 32 -8 5.3 26.8
16 -32 8 7.6 16.6
32 16 8 -3.1 16.5
-16 8 32 10.8 24.4
32 16 -8 1.1 27.3
32 -8 -16 3.2 19
8 16 32 -1.6 15.3
16 32 8 -0.2 18.4
32 16 10 88.09 17.5
16 -32 10 87.59 18.3
-10 16 32 90.39 21.3
32 -16 -10 79.09 18.4
16 32 10 80.59 19.7
-16 10 32 106.79 24.9
32 -10 -16 100.19 20
32 -16 -12 112.39 20.2
-12 16 32 88.89 22.9
16 -32 12 90.69 20.2
32 -12 -16 76.89 20.3
-16 12 32 82.49 26.8
16 -32 14 6 22.2
-14 16 32 12.3 25.7
32 -16 -14 14.8 20.9
32 -14 -16 15.1 21.9
-16 14 32 -4.5 27.2
14 -32 16 6.4 23
32 0 -18 308.67 23
18 -32 0 290.57 17.6
18 32 0 329.27 25.5
0 -32 18 312.57 22.6
18 0 32 319.27 18.1
32 18 0 291.27 20.3
32 -18 0 293.47 19.8
0 18 32 335.27 19.8
18 -32 2 96.89 15.6
32 -18 -2 83.49 16.1
18 2 32 118.69 16
-2 -32 18 103.19 20.3
32 18 2 131.09 19.2
-2 18 32 126.29 18.3
18 32 -2 116.89 25.2
18 32 2 120.79 23.1
32 -2 -18 107.29 21
32 18 -2 102.49 19.9
2 -32 18 115.09 21.1
2 18 32 119.69 17.6
-4 18 32 -11.7 18.4
4 -18 32 -1.3 27.5
18 -32 4 -8.9 16.2
32 18 4 8.9 17.7
4 -18 32 12.9 20.2
32 -18 -4 -1.9 16.8
18 4 32 -7.7 16.5
32 -4 -18 7.7 20.4
18 32 4 -9.1 21
32 18 6 8.1 17.9
-6 18 32 2.3 19.4
32 -18 -6 5.9 17.6
18 -32 6 4.2 17.3
6 -18 32 -10.9 26.5
32 -6 -18 -14.8 20.8
18 32 6 -3.9 20.5
32 18 8 48.3 18.7
8 -18 32 45.2 28
-8 18 32 56.99 21.1
32 -8 -18 44.3 21.3
18 32 8 51.69 21.1
10 -18 32 292.17 34.2
-10 18 32 292.77 24.7
32 -10 -18 330.07 24.1
-12 18 32 251.07 25.8
32 -12 -18 264.87 23.9
-18 12 32 269.77 32.3
32 20 0 628.74 28.5
20 32 0 672.13 32.6
32 20 2 430.96 24.5
20 32 -2 476.65 32.4
20 32 2 461.05 28.9
32 20 -2 455.15 27.2
32 20 4 149.29 21.8
20 32 4 126.19 24.8
32 20 6 101.59 20.3
6 -32 20 98.89 26.7
20 32 6 108.29 24.1
22 32 2 496.25 35.1
-1 -33 -1 1564.64 39
-1 -33 1 1504.85 38.8
-1 -1 33 1526.65 40
-1 1 33 1582.34 40.3
-1 33 -1 1505.25 41
-1 33 1 1462.45 40.8
1 -33 -1 1568.44 38.8
1 -33 1 1544.45 39
1 -1 33 1504.55 39.8
1 1 33 1515.95 39.8
1 33 -1 1529.75 41.3
1 33 1 1511.95 41
33 -1 -1 1504.25 41.5
33 -1 1 1500.35 41.8
33 1 -1 1553.14 42.3
33 1 1 1561.24 42
-3 -33 -1 274.17 13.8
33 1 -3 268.07 17
1 -33 -3 304.87 14.1
-3 33 1 275.47 16.3
-1 33 -3 269.67 16.5
-1 3 33 285.77 16.1
1 -3 33 284.27 15.6
3 1 33 279.77 15.2
33 -3 -1 240.48 15.6
3 -33 1 292.47 14.6
3 33 -1 284.47 17.3
-3 -1 33 264.27 16.2
-1 -33 3 292.87 14.2
33 -1 3 295.67 17.5
1 33 3 288.37 16.2
-3 -33 1 300.87 14.1
3 -33 -1 306.57 14.3
3 33 1 292.27 16.7
-3 1 33 272.67 16.5
-1 -33 -3 302.17 14
33 -1 -3 229.48 16.3
-1 -3 33 256.87 15.8
-1 33 3 264.47 16.3
-3 33 -1 286.77 16.1
1 -33 3 278.27 14.4
1 33 -3 289.97 16.9
1 3 33 284.27 15.5
3 -1 33 278.47 15.3
33 3 -1 298.37 18.6
33 -3 1 284.87 16.9
-3 33 3 6.2 12.6
-3 33 -3 7.2 13.4
-3 -33 -3 6.7 11
-3 -33 3 6.6 11.6
-3 -3 33 18.1 13.6
-3 3 33 4 13.6
3 3 33 8.8 12.3
3 33 -3 2.2 14
3 33 3 24.9 14.1
33 -3 -3 -0.2 13.1
33 -3 3 10.9 14.2
33 3 -3 7.6 14.7
3 -33 3 3.8 10.6
3 -3 33 0.7 12.6
3 -33 -3 5.5 10.5
5 -33 1 117.29 12
5 1 33 108.19 13.3
33 -5 -1 127.69 14.8
-5 -1 33 118.59 14.9
1 -33 -5 122.29 11.7
-5 33 1 118.29 13.8
-1 33 -5 109.69 15.3
1 33 5 120.39 14.4
1 -5 33 117.39 14.1
5 33 -1 124.99 15.6
33 1 -5 125.69 16.2
-1 5 33 111.19 14
5 -1 33 120.19 13.2
1 5 33 121.89 14
5 -33 -1 111.49 11.1
33 -5 1 122.69 14.5
1 33 -5 130.59 15.8
1 -33 5 119.79 12.8
-5 33 -1 104.69 14.1
33 -1 -5 114.09 15.2
-1 -5 33 103.19 14
-5 1 33 106.99 15
-1 -33 -5 134.19 11.7
-5 -33 1 132.49 12.6
5 33 1 111.39 15.5
-1 33 5 117.29 13.9
5 -33 3 -3.3 10.8
5 3 33 -2.4 12.8
33 -5 -3 6.2 13.5
-3 5 33 2.2 13.8
5 33 -3 -14.9 15.1
33 -3 5 5.5 14.2
-5 33 3 6.7 13.2
3 -33 -5 6 10.5
3 -5 33 -3.6 13
3 33 5 8.1 13.5
33 3 -5 -2.1 15.2
-5 -3 33 -8.1 14.2
3 5 33 1.7 12.7
-3 33 5 -8.6 12.7
5 -3 33 -2.3 12.4
5 -33 -3 3.3 10.7
-3 -33 -5 2 10.5
33 -5 3 -6.1 13.6
5 33 3 -4.5 14.1
33 -3 -5 5.4 13.9
33 5 -3 10.2 16.7
-5 3 33 0.9 14.4
-5 33 -3 0.4 12.9
-3 -5 33 -1.8 13.5
3 33 -5 0.5 15
3 -33 5 -5.7 11.9
5 -5 33 40.3 13.3
-5 33 5 16.6 12.6
5 33 -5 15 16.4
33 -5 5 21.5 14.6
33 5 -5 21.1 16.6
5 -33 5 32.6 12.2
5 -33 -5 24.3 10.6
-5 5 33 18 14.9
5 33 5 21.9 14.4
33 -5 -5 30.9 15.1
5 5 33 16.7 12.4
-7 33 1 342.67 17.8
33 -7 -1 380.06 18.6
-1 7 33 369.56 17.4
1 -33 -7 373.76 15.4
1 33 7 330.37 17.3
7 -33 1 368.66 16.3
7 1 33 349.47 16.1
-7 -1 33 391.96 18.6
33 1 -7 372.16 19.3
1 -7 33 362.06 17.4
7 33 -1 403.66 19.9
-7 33 -1 391.16 18.9
-1 33 7 404.36 18
1 7 33 358.06 16.9
7 -33 -1 315.47 14.2
7 -1 33 396.26 17.1
-7 1 33 347.97 19.1
7 33 1 369.96 19.1
33 -1 -7 367.86 18.8
33 -7 1 357.96 17.7
-1 -7 33 360.16 17.3
-1 -33 -7 349.37 14.8
3 -7 33 9.5 13.2
-3 7 33 8.3 14.3
7 3 33 9.8 12.7
-7 33 3 9.3 13.4
7 33 -3 5.9 15.9
3 33 7 13 13.8
3 -33 -7 18 10.7
33 3 -7 7.9 15.9
7 -33 3 4.8 11.8
33 -7 -3 26.1 13.9
7 -3 33 15.6 13
33 7 -3 -1.9 17.5
7 33 3 12.8 14.7
33 -7 3 18.5 14.2
3 33 -7 1.3 16.2
7 -33 -3 8.1 11.2
-7 3 33 10.2 15.5
-3 -33 -7 19.7 11.4
-3 33 7 10.4 12.7
33 -3 -7 19.7 15.4
3 -33 7 3.3 12.7
3 7 33 8.7 13
7 5 33 17.4 12.6
5 -33 -7 16.7 11.1
7 33 -5 20.4 17
-7 33 5 31.7 13.7
-5 7 33 23.9 15.2
5 -7 33 14.4 13.9
33 -5 7 19.9 14.8
33 -7 -5 18.1 14.8
7 -33 5 16.3 12
5 33 7 13.6 14
33 5 -7 18.6 16.4
5 7 33 25.9 12.7
7 -5 33 35.7 13.7
7 33 5 22.1 14.7
-7 5 33 14.8 16
33 -5 -7 15 14.5
5 33 -7 29.6 16.9
-5 33 7 22 13.3
7 -33 -5 22.5 11.5
33 -7 5 19.4 14.5
33 7 -5 21.8 17.4
5 -33 7 22.6 12
7 33 -7 -3.3 17.9
7 -33 -7 7 11.3
7 7 33 3.6 13.4
-7 7 33 -3 16.3
-7 33 7 6.9 13.9
7 -7 33 -8 14.2
33 -7 -7 13.6 14.8
33 -7 7 9 14.6
33 7 -7 -0.1 17.8
7 33 7 -6.4 14
7 -33 7 2.5 13.1
-9 -1 33 859.21 31.4
9 33 -1 932.81 34.4
1 33 9 911.11 30.6
33 -9 -1 927.11 30.6
9 1 33 965.5 29.2
-1 9 33 963.8 30.7
1 -33 -9 909.21 27.5
-9 33 1 833.82 30.4
1 -9 33 863.51 30.2
9 -33 1 900.21 27.6
33 1 -9 910.51 33.1
33 -1 -9 945.61 32.9
9 -1 33 949.11 29.6
33 -9 1 880.41 30.9
-1 -9 33 895.41 30
-1 33 9 952.8 31.2
9 33 1 913.41 32.8
1 9 33 897.51 30.2
9 -33 -1 927.11 27.7
-1 -33 -9 956.4 27.5
-9 1 33 867.41 32.8
3 -9 33 217.88 16.2
33 -9 -3 231.98 16.8
33 3 -9 200.68 18.3
-9 33 3 214.38 15
9 -33 3 205.88 13.3
3 33 9 207.78 15.9
-3 9 33 245.28 17.3
9 3 33 208.68 14.4
3 -33 -9 255.77 13.5
9 33 -3 234.18 18.9
-9 3 33 228.58 18.4
3 9 33 248.78 15.7
33 -9 3 215.88 15.6
9 -3 33 236.68 15.9
-3 33 9 243.78 15.9
33 -3 -9 203.88 17.4
9 -33 -3 234.18 13.9
9 33 3 230.68 17.3
-9 33 5 36.2 13.8
-5 9 33 42 16.2
5 -9 33 41.3 14.8
9 5 33 39.7 12.7
33 -9 -5 39.6 14.8
33 5 -9 44.1 17.8
33 -5 9 36.1 15.3
9 -33 5 43.2 12.2
5 -33 -9 37.8 11.5
9 33 -5 35.8 18.3
5 33 9 30.2 13.9
5 -33 9 32.9 14.7
33 -5 -9 37.7 16
-9 5 33 47 17.5
5 9 33 34.8 13.8
9 33 5 38.2 15.3
9 -5 33 40 13.9
9 -33 -5 45.6 11.9
33 -9 5 29.7 14.9
33 9 -5 27.6 19.3
-5 33 9 29.5 13.6
7 -33 -9 112.79 12.2
7 33 9 83.89 14.8
-9 33 7 107.19 15
9 -33 7 110.19 14.6
9 7 33 94.99 13.7
33 -7 9 98.99 15.9
33 -9 -7 102.79 16.6
-7 9 33 101.79 17.5
7 -9 33 82.29 15.7
9 33 -7 89.69 19.8
33 7 -9 94.69 19.3
9 33 7 108.99 15.6
7 -33 9 101.29 14.5
-9 7 33 98.79 18.4
-7 33 9 90.99 13.6
7 9 33 110.59 14.3
9 -7 33 103.99 14.8
33 9 -7 92.99 19.8
33 -9 7 98.59 16.2
9 -33 -7 108.69 12.8
33 -7 -9 106.89 16.9
9 -9 33 573.34 21.4
33 -9 -9 564.04 23
33 -9 9 457.75 20.4
9 -33 -9 576.84 23.2
9 -33 9 577.44 21.2
-9 9 33 528.05 24.1
9 33 9 524.15 22.2
33 9 -9 539.05 25.1
9 9 33 555.54 20.8
-9 33 9 481.25 20.4
-1 11 33 1527.95 41.2
1 33 11 1489.65 41.3
1 -33 -11 1504.05 38.5
11 1 33 1518.45 40
33 -11 -1 1491.25 41.7
11 -33 1 1476.95 38.9
1 -11 33 1357.86 44.5
11 33 -1 1519.25 44.7
33 1 -11 1659.33 44.2
1 -11 33 1367.76 40.7
11 33 1 1539.55 44.2
-11 1 33 1420.26 43.4
33 -1 -11 1500.45 43.5
11 -1 33 1515.75 40.2
-1 -33 -11 1472.45 38.5
1 11 33 1487.65 40.7
33 -11 1 1529.75 41.3
11 -33 -1 1522.95 38.9
-1 33 11 1515.05 41.7
3 33 11 628.04 26.5
33 3 -11 604.04 25
11 -33 3 652.53 24.4
11 33 -3 592.14 25.6
11 3 33 619.44 24.9
-11 33 3 621.04 26.9
-3 11 33 610.54 23.1
3 -11 33 578.64 22.3
33 -11 -3 638.24 27.8
3 -33 -11 668.03 23.7
-11 3 33 602.94 24.9
3 11 33 622.24 26.2
11 33 3 591.74 24.2
-3 33 11 629.74 27.3
11 -3 33 626.84 25.9
33 -11 3 639.84 27.1
11 -33 -3 593.14 23.3
33 -3 -11 676.93 24.3
-5 11 33 383.66 20.3
5 -33 -11 344.37 15.3
11 5 33 320.07 16.7
5 33 11 312.77 18
11 -33 5 318.47 16.1
33 -11 -5 313.57 18.5
5 -11 33 347.17 19.1
33 5 -11 355.36 22
11 33 -5 340.37 22.7
-11 33 5 329.27 18.3
-11 5 33 349.27 21.9
11 -33 -5 360.26 16.4
33 -5 -11 360.86 20.5
-5 33 11 327.47 17.5
11 33 5 358.96 19.8
33 -11 5 378.16 19.4
33 11 -5 370.26 23.8
5 11 33 328.17 17.5
11 -5 33 373.26 18.2
-11 33 7 553.94 21.9
7 -33 -11 576.94 23.2
7 33 11 524.35 21.4
-7 11 33 584.24 23.9
7 -11 33 562.44 21.9
33 -11 -7 540.95 22.2
33 7 -11 556.84 25.1
11 -33 7 630.84 26.5
11 33 -7 547.05 26.7
33 -7 11 514.95 22
11 7 33 558.24 20.7
11 33 7 564.14 22.9
33 -11 7 608.84 23.2
11 -33 -7 586.54 23.5
-11 7 33 566.24 25.4
7 11 33 480.75 20.2
33 11 -7 569.44 26.7
11 -7 33 580.44 21.3
-7 33 11 509.55 21
33 -7 -11 563.44 23.3
9 -33 -11 1129.49 32.4
33 9 -11 1070.29 40.8
11 9 33 1097.99 33.9
11 -33 9 1124.29 35.5
33 -11 -9 1148.09 37.3
-11 33 9 1191.58 35.7
-9 11 33 1103.69 39.6
33 -9 11 1097.89 36.7
9 33 11 1109.89 36.9
-11 9 33 1117.99 40.5
-9 33 11 1135.49 35.8
9 11 33 1088.89 34.6
33 -9 -11 1139.69 38.2
9 -33 11 1119.89 36.8
11 33 9 1093.69 37.2
33 11 -9 1070.49 42.2
11 -33 -9 1083.49 32.8
11 -33 11 1666.03 45.5
33 11 -11 1536.45 47.9
11 11 33 1566.54 43.6
11 -33 -11 1643.14 41.6
-11 11 33 1551.74 49.2
33 11 -11 1532.55 49.6
33 -11 -11 1635.84 46.4
11 33 11 1601.64 45.7
-1 13 33 559.84 22.4
1 -33 -13 558.24 22.7
1 33 13 477.95 20.6
33 -13 -1 492.35 21.4
13 -33 1 548.55 23.7
1 -13 33 511.45 21.1
13 1 33 584.74 21
33 1 -13 561.64 24.3
13 33 -1 527.55 25.1
33 -1 -13 549.85 24.2
1 13 33 497.75 20.9
13 -33 -1 530.45 19.8
33 -13 1 597.24 23.2
-1 33 13 469.75 20.7
13 33 1 493.35 24.4
13 -1 33 533.35 20.5
13 -33 3 67.19 14.3
3 -13 33 68.99 17
13 33 -3 76.59 21.4
3 -33 -13 78.49 12
33 -13 -3 84.79 16.5
3 -13 33 71.59 21.4
3 33 13 68.09 15.1
33 3 -13 83.09 19.6
-3 13 33 85.19 16.8
13 3 33 73.39 14.5
33 -13 3 84.99 16.3
13 -33 -3 84.89 13.2
-13 3 33 69.19 21.1
-3 33 13 83.29 15.8
13 33 3 80.89 18.8
33 -3 -13 70.89 19
3 13 33 64.09 15.2
13 -3 33 83.19 14.7
-13 33 5 9 15
13 33 -5 -7.8 21.9
5 -13 33 -4.6 17.8
33 5 -13 -8.3 20
33 -13 -5 7.2 15.9
13 5 33 1.1 13.8
13 -33 5 3.5 14.6
5 -33 -13 11.1 12.2
5 33 13 6.2 15.9
5 -13 33 3.2 22.2
-5 13 33 2.8 17.8
13 -33 -5 4.6 12.8
13 33 5 7.2 18
-13 5 33 16.4 21.4
5 13 33 3.6 15
33 -5 -13 15.7 18.1
13 -5 33 25.1 15
33 13 -5 -7.6 23.2
33 -13 5 11.6 15.5
33 13 -5 5.3 17.5
-5 33 13 7.9 15.1
7 -13 33 58.29 24.3
33 -13 -7 90.09 17.5
7 -13 33 99.99 18
33 7 -13 78.99 21.5
-7 13 33 112.49 19.6
13 33 -7 66.19 23.9
33 -7 13 63.29 17.1
13 7 33 98.79 15.1
7 -33 -13 85.89 13.1
7 33 13 75.19 16.2
13 -33 7 74.69 15.2
13 33 7 66.99 18.5
13 -33 -7 65.59 12.7
33 13 -7 76.99 23.9
33 -7 -13 92.09 19
-13 7 33 76.29 21.5
7 13 33 55.39 15.6
33 13 -7 81.39 19.2
33 -13 7 99.49 17.3
13 9 33 291.07 18
33 -13 -9 292.57 20.4
13 -33 9 314.97 19.7
9 33 13 275.97 21.2
-9 13 33 260.17 22.5
33 13 -9 256.67 25.9
33 -9 -13 281.97 21.1
9 13 33 281.37 18.4
33 13 -9 274.97 22.5
-13 9 33 274.97 24.3
13 33 9 266.77 20.3
33 -13 -11 624.24 25.8
-11 13 33 592.54 28.7
13 -33 11 653.43 25.9
-13 11 33 608.44 29.7
33 -11 -13 643.94 26.7
11 -33 13 625.14 26.3
13 33 11 615.94 25.5
13 -33 13 223.88 22.1
33 -13 -13 231.18 22.7
-13 13 33 195.18 25.6
33 1 -15 132.89 20.9
33 15 1 140.49 17.9
-1 15 33 129.69 17.8
33 -15 -1 119.69 17
15 1 33 127.39 15.9
15 33 -1 127.89 22.9
-1 -33 15 117.19 19.4
15 -33 1 112.99 15.4
15 -33 -1 103.89 13.5
15 -1 33 114.89 15.3
1 15 33 112.99 17.2
15 33 1 140.09 21.7
33 15 -1 109.99 18.4
33 -15 1 107.19 16
33 -1 -15 136.89 21.1
15 33 -3 13.9 23.9
33 -15 -3 1.6 16.7
15 -33 3 10.8 13.6
-3 -33 15 9.5 18.7
3 -15 33 9.6 18.5
33 15 3 18.6 17
15 3 33 24 15.4
33 3 -15 8.7 21.2
3 -33 -15 15 13.4
3 -15 33 4.2 22.5
-3 15 33 12.1 17.6
15 -3 33 17.7 15.8
3 15 33 -0.6 15.9
15 33 3 11.5 20.5
33 15 -3 10.6 19.1
33 -3 -15 18.8 20
33 -15 3 27.1 17.1
15 -33 -3 12.8 13
15 5 33 173.18 16.4
33 15 5 172.68 18.1
5 -15 33 160.18 25.4
15 -33 5 165.58 16.2
-5 15 33 186.68 20
5 -15 33 168.88 20.7
33 -15 -5 166.78 18.3
5 15 33 128.19 16.6
15 33 5 159.38 21.1
33 -15 5 150.38 17.5
-15 5 33 150.18 25.6
33 -5 -15 181.08 21.1
33 15 -5 185.18 21.4
33 15 7 37.7 17.2
33 -15 -7 20.8 17.2
-7 15 33 50.19 20.5
7 -15 33 17.4 20.6
15 7 33 38.5 15.6
15 33 -7 30.2 26.9
15 -33 7 33.9 16.9
7 -15 33 27.4 25.4
7 15 33 44.9 16.8
33 -7 -15 43.8 20.3
-15 7 33 38.5 24.7
33 15 -7 13.5 26.6
33 15 -7 28.9 20.8
15 33 7 29.1 19.7
-9 15 33 21 22
33 -15 -9 22.3 19.1
33 15 9 17.1 17.4
15 -33 9 11.9 18.4
-15 9 33 15.9 26.5
33 -9 -15 14.7 20.7
15 33 9 9.8 19.9
-11 15 33 123.59 24.5
33 -15 -11 137.69 20.6
15 -33 11 172.88 21.2
33 -11 -15 147.19 22.7
-15 11 33 161.38 27.8
15 -33 13 -8.1 22
-13 15 33 -4 26.5
33 -15 -13 -4.3 21.9
33 -13 -15 -5.2 21.9
-15 13 33 7.3 28.6
13 -33 15 0.1 23.5
17 1 33 173.68 17.6
33 17 1 133.09 20.5
-1 -33 17 140.29 22.5
-1 17 33 157.88 19.7
17 33 -1 147.69 26.1
33 17 -1 134.99 20.7
17 33 1 156.68 24.7
17 -1 33 133.99 16.9
1 17 33 142.29 19.2
1 -33 17 148.89 22.2
33 -1 -17 140.09 23.2
-3 17 33 -8.6 19.1
17 33 -3 -10.5 27.4
33 17 3 2.3 19.2
3 -33 17 -7.4 21.9
33 17 -3 -2.9 20.2
17 33 3 -13.3 22.5
3 17 33 19 19.2
33 -3 -17 -0.5 22.3
33 17 5 95.79 19.5
-5 17 33 85.19 20.7
17 33 5 79.39 22.2
33 -5 -17 86.99 22.5
-7 17 33 -0.6 21.3
33 17 7 8.7 19.6
33 -7 -17 -2.5 22.4
17 33 7 1.9 21.6
-9 17 33 72.29 23
33 -9 -17 71.39 23.7
-11 17 33 155.58 26.8
33 -11 -17 182.68 24.2
33 19 1 363.66 25.3
19 33 -1 371.06 32
33 19 -1 356.26 25.9
19 33 1 358.36 29.8
33 19 3 107.59 21.7
19 33 3 127.79 27.4
33 19 5 25.5 20.9
19 33 5 18.8 25.3
33 19 7 69.99 22.3
19 33 7 81.99 27.5
0 -34 0 1968 47.4
0 0 34 1873.71 48.9
0 34 0 1853.31 49.4
34 0 0 1969.4 50.19
-2 -34 0 614.84 23.4
-2 34 0 489.35 20.7
0 -2 34 582.44 21.3
0 2 34 570.94 21.4
2 -34 0 608.84 23.1
2 34 0 538.35 21.5
34 0 -2 538.05 21.8
34 0 2 563.54 22.4
0 34 2 529.75 20.7
2 0 34 588.84 25.6
34 -2 0 542.65 21.6
34 2 0 573.54 23.1
0 -34 2 596.54 23.3
0 34 -2 561.24 22.1
-2 0 34 545.55 21.6
0 -34 -2 622.84 22.9
34 -2 -2 72.39 15.7
34 -2 2 74.29 16.1
2 -34 -2 75.99 12.1
2 -34 2 73.59 13.1
2 34 -2 61.89 15.8
2 34 2 65.39 15.3
-2 -34 -2 77.09 12.3
-2 -34 2 67.49 12.8
-2 -2 34 70.29 15.5
2 -2 34 64.99 14.7
2 2 34 70.59 14.6
34 2 -2 73.39 16.5
-2 2 34 69.39 15.3
-2 34 -2 64.19 15.9
-2 34 2 62.89 14.5
-4 34 0 138.39 15.7
0 -4 34 148.99 16.2
0 4 34 143.89 15.7
4 -34 0 150.18 12.9
4 34 0 151.58 16.9
34 0 -4 158.38 17.9
0 34 -4 125.89 16.9
-4 0 34 128.89 16.7
-4 -34 0 156.28 13.8
0 34 4 144.39 15.7
4 0 34 147.19 14.9
0 -34 -4 145.29 12.7
0 -34 4 158.98 14.5
34 -4 0 158.08 16.4
34 4 0 148.89 18.1
-2 4 34 -5.2 15
4 -34 2 8.7 12.7
34 -4 -2 4.7 14.9
34 2 -4 3.7 16.2
4 2 34 -10.7 14.1
-4 -34 -2 3.9 12.1
-4 -2 34 -9.1 15.6
2 -34 -4 5.3 11.5
2 34 4 -6.3 14.7
2 -4 34 -3 14.7
-2 34 -4 -15.6 15.3
34 -2 4 -2.4 15.3
-4 34 2 3.2 14.8
4 34 -2 -4.2 16.2
-2 -4 34 -3 15.5
-2 -34 -4 4.9 11.6
-4 -34 2 -8.8 12.5
4 -2 34 -0.5 14.1
34 4 -2 7 17.7
2 -34 4 -1.4 12.8
-2 34 4 2.5 13.5
-4 34 -2 -0.9 15.3
34 -4 2 4.7 15.5
-4 2 34 -0.3 15.9
4 34 2 0.4 15.7
34 -2 -4 -1.2 15.3
2 34 -4 -0.6 16
4 -34 -2 1 11.7
2 4 34 -2.2 14.1
-4 -4 34 -6.8 15.6
4 -34 4 3.6 12.2
34 -4 4 7.8 15.1
34 4 -4 12.4 17.7
4 -34 -4 -6.4 11.6
4 34 4 4 15.3
34 -4 -4 2 15.3
-4 34 4 -5.7 14.5
4 -4 34 2.6 14.3
4 4 34 0.6 14
4 34 -4 2.9 17.4
-4 4 34 -1.5 15.9
0 -34 -6 101.89 12.2
0 6 34 78.99 15.1
0 -6 34 79.29 15.7
6 -34 0 66.79 12.1
-6 0 34 58.59 17.4
-6 34 0 89.49 15.7
0 34 6 82.49 15.3
6 34 0 92.69 16.8
34 0 -6 72.29 17
6 0 34 67.89 14.5
34 -6 0 102.59 16.3
34 -6 -2 9.7 15.2
34 2 -6 -4.6 17.1
6 34 -2 1.5 16.7
6 -34 2 0 11.8
2 -6 34 6.5 15.2
-2 6 34 0.1 15.4
2 34 6 7.8 15.2
-6 34 2 10.3 14.6
2 -34 -6 4.7 11.4
-6 -2 34 -6.4 16.7
34 -2 6 3.3 15.1
6 2 34 4.9 13.7
6 -34 -2 4 11.3
-2 34 6 5.8 14.2
-2 -6 34 -3.9 15.7
2 -34 6 3.8 14
2 34 -6 -6.7 17.2
2 6 34 3.5 14.2
6 34 2 6 16.1
34 -6 2 -0.2 14
-2 -34 -6 -2.5 11.6
-6 2 34 14.3 16.9
34 -2 -6 3 16.7
6 -2 34 8.4 13.8
34 6 -2 7.7 18.3
34 4 -6 48.3 17.6
4 34 6 58.39 15.7
-6 34 4 48 14.4
34 -4 6 49 16.5
6 -34 4 65.89 13.3
34 -6 -4 54.39 16.5
4 -34 -6 52.89 12.1
6 34 -4 45.3 18.1
6 4 34 53.29 14.2
4 -6 34 47.6 15.5
-4 6 34 53.09 16.5
6 -4 34 54.59 14.7
34 -6 4 21.9 14.8
34 -4 -6 56.89 16.3
34 6 -4 64.79 19
4 6 34 65.89 14.6
6 -34 -4 76.29 12.4
-6 4 34 56.99 17.5
4 34 -6 62.89 18.1
6 34 4 63.29 16.1
4 -34 6 50.09 13.4
-4 34 6 38.9 13.6
6 6 34 210.08 16
6 -6 34 225.38 17.2
6 -34 6 210.18 14.7
-6 6 34 213.28 19.5
-6 34 6 225.28 16.9
6 -34 -6 197.08 14.1
6 34 6 224.18 17.7
34 -6 -6 201.08 17.6
6 34 -6 218.48 20.8
34 6 -6 198.08 20.5
34 -6 6 233.58 18.2
0 -8 34 620.54 23
-8 34 0 574.84 22.9
8 34 0 583.14 24.5
0 34 8 620.44 23
34 -8 0 575.94 22.5
34 0 -8 620.54 24.6
0 8 34 636.04 27.5
8 -34 0 639.04 24.4
0 -34 -8 632.94 23.6
8 0 34 615.14 25.4
-8 0 34 609.94 24.4
8 -34 2 148.09 12.7
-8 34 2 150.78 16.2
2 34 8 149.29 16.6
34 2 -8 161.18 18.8
2 -8 34 156.58 17.2
2 -34 -8 159.28 12.9
8 34 -2 181.38 19.6
-2 8 34 169.78 17.5
8 2 34 139.19 14.8
34 -8 -2 137.09 16.3
34 -8 2 159.58 17.1
8 -2 34 169.48 16
-2 34 8 155.88 15.6
-8 2 34 153.68 19.5
-2 -34 -8 167.68 13.3
34 -2 -8 167.78 18.7
2 8 34 144.29 15.7
8 -34 -2 178.78 14.2
8 34 2 180.68 18.7
-8 34 4 20.5 15.2
4 -8 34 6 16.1
8 34 -4 20.9 19.3
34 -8 -4 25.7 16.6
8 -34 4 19.7 12.9
34 -4 8 0.9 16.4
34 4 -8 20.3 18.9
4 34 8 15.5 15.6
4 -34 -8 15.5 11.7
8 4 34 30.7 14.5
-4 8 34 23.4 16.9
8 34 4 15 16.8
8 -4 34 6.1 15.3
-8 4 34 13.2 18.7
-4 34 8 12.4 14.1
4 8 34 1.4 14.4
8 -34 -4 11.5 12.1
34 -4 -8 14.6 17.3
34 8 -4 20.3 20.6
34 -8 4 16.8 16.1
34 -6 8 23.4 16.7
34 6 -8 21.9 19.8
8 6 34 21.6 14.2
-8 34 6 10.8 14.8
-6 8 34 12.7 18
34 -8 -6 11.9 17
6 -8 34 13.7 16.6
6 34 8 3.1 15.7
8 -34 6 7.9 13.9
8 34 -6 20.2 20.4
6 -34 -8 5.3 11.8
34 -8 6 14.3 16.1
-6 34 8 12.7 15
8 34 6 1.9 16.5
6 -34 8 9.6 14.1
34 -6 -8 10.4 17.5
8 -6 34 20.4 16.3
6 8 34 15.4 15
-8 6 34 12.7 19.4
8 -34 -6 12 11.9
34 8 -6 18.1 20.2
34 8 -8 106.59 21.9
-8 34 8 90.89 16
8 34 8 86.59 16.9
34 -8 8 92.69 17.6
-8 8 34 99.19 20.4
34 -8 -8 119.79 18.6
8 -34 8 108.29 16.4
8 -8 34 107.69 17.6
8 34 -8 90.79 22.8
8 8 34 122.39 16.3
8 -34 -8 87.19 12.9
0 34 10 1140.49 36.1
10 34 0 1138.29 40.2
34 0 -10 1173.78 39.5
0 -10 34 1078.59 36.3
10 -34 0 1091.79 32.3
0 10 34 1142.49 35.9
0 -34 -10 1153.68 32.4
0 -10 34 1077.29 40
10 0 34 1137.59 34.5
34 -10 0 1119.29 35.8
34 -10 -2 460.85 20.4
2 -10 34 530.25 22.4
2 34 10 531.75 21.9
10 2 34 589.64 25.4
10 34 -2 538.55 25.1
-2 10 34 533.65 22.6
10 -34 2 566.54 24
2 -34 -10 565.14 23.3
-10 34 2 477.15 21.3
34 2 -10 523.65 24.7
2 10 34 547.35 22.2
34 -2 -10 601.64 24.7
-10 2 34 518.05 24.6
34 -10 2 477.25 20.7
-2 34 10 525.85 21.8
10 34 2 572.54 24
10 -2 34 548.85 21.3
10 -34 -2 557.64 23.6
-10 34 4 216.18 15.9
4 -34 -10 263.67 14.9
4 -10 34 237.28 19.1
34 4 -10 265.37 21.7
10 4 34 239.18 16.6
4 34 10 213.18 17.5
-4 10 34 263.67 19.7
34 -10 -4 252.07 18.8
10 -34 4 216.38 14.8
10 34 -4 269.67 22.7
10 34 4 255.47 19.9
34 -4 -10 255.77 20.1
-4 34 10 230.98 17.2
-10 4 34 258.37 22.1
10 -4 34 260.27 17.9
10 -34 -4 271.17 15.7
34 -10 4 238.48 17.5
34 10 -4 267.37 24.1
4 10 34 287.77 17.9
34 -10 -6 97.89 17.7
34 6 -10 110.49 21.2
10 -34 6 110.59 15.6
10 6 34 96.49 15.8
34 -6 10 92.89 17.5
10 34 -6 87.89 22.7
6 -34 -10 99.09 13.4
-10 34 6 86.79 16.4
-6 10 34 91.89 19.3
6 -10 34 100.99 18.7
6 34 10 58.79 16.3
34 10 -6 103.79 22.8
6 10 34 85.09 15.5
34 -10 6 85.69 15.7
10 -6 34 94.19 17
-6 34 10 94.79 15.9
10 34 6 100.09 18.3
-10 6 34 112.09 21.6
10 -34 -6 103.49 13.9
34 -6 -10 102.39 18.4
34 -8 10 510.05 23.2
-8 10 34 559.34 25.9
10 -34 8 508.75 21.4
10 8 34 469.05 20.5
10 34 -8 493.75 28.3
34 8 -10 524.85 27.3
8 -34 -10 561.74 24
8 34 10 507.95 23.2
8 -10 34 562.34 23.6
34 -10 -8 586.84 24.1
10 34 8 552.64 24
34 -8 -10 494.75 23.5
10 -8 34 503.95 22.2
8 10 34 473.75 20.8
-10 8 34 545.55 26.5
10 -34 -8 572.94 24.5
34 -10 8 520.75 22.6
8 -34 10 518.45 21.7
34 10 -8 497.25 27.6
-10 10 34 1181.68 44.4
10 10 34 1201.78 37.5
34 -10 -10 1269.77 41.4
10 -34 10 1227.18 38.8
10 34 10 1218.88 40.4
34 10 -10 1149.78 45.8
10 -10 34 1182.68 39.3
12 34 0 595.04 26.9
34 0 -12 653.53 27
0 12 34 611.84 24
0 34 12 589.54 23.7
34 -12 0 703.83 25.6
0 -34 -12 634.64 24.9
12 0 34 643.84 23.5
12 -34 0 669.83 26.4
2 -12 34 231.58 20
34 -12 -2 240.28 17.8
2 -12 34 232.38 23.8
-2 12 34 240.08 19.3
34 2 -12 250.27 22.5
2 34 12 208.78 17.6
12 2 34 248.58 17.3
2 -34 -12 231.88 15.5
12 -34 2 256.07 16.8
12 34 -2 248.88 23.7
-12 2 34 233.18 23.7
2 12 34 251.57 18.7
34 -12 2 274.07 19.5
12 34 2 257.57 21.5
12 -34 -2 252.97 15.4
12 -2 34 245.98 17.9
-2 34 12 275.17 18.9
34 -2 -12 271.77 22
12 34 -4 62.69 23.3
12 -34 4 97.79 15.6
34 4 -12 70.39 22.3
-4 12 34 90.29 19.6
4 -12 34 58.99 18.9
-4 -34 12 63.89 18.8
4 -34 -12 72.49 13.2
34 -12 -4 64.49 17.7
4 -12 34 82.49 24.7
4 34 12 45.5 16
12 4 34 76.39 15.2
4 12 34 84.59 17.2
34 -12 4 67.39 16.4
34 12 -4 99.79 25
12 -4 34 82.09 16.4
-12 4 34 74.59 23.2
12 -34 -4 63.99 11.9
34 -4 -12 80.79 20.3
12 34 4 52.19 19.6
12 -34 6 33.6 16.1
6 -12 34 24.1 25.3
-6 12 34 31.8 19.7
6 -12 34 44.8 19.7
34 6 -12 26.3 23
6 34 12 32.3 17
12 6 34 31.2 15.9
34 -12 -6 31.7 17.9
6 -34 -12 39.4 13.8
34 -6 12 35.4 18
12 34 -6 51.99 24.7
12 -34 -6 28.3 12.7
34 -6 -12 35.1 19.8
-12 6 34 33.7 23.4
12 34 6 45.5 19.4
12 -6 34 36.6 16.7
34 -12 6 31 17.3
34 12 -6 28.9 24.9
6 12 34 19.4 16.5
34 -12 -8 285.47 21
12 34 -8 266.57 27.9
8 -12 34 297.07 21.7
12 8 34 315.07 19.3
-8 12 34 272.67 23.8
12 -34 8 306.67 19.8
8 12 34 278.87 19.3
12 34 8 298.07 22
-12 8 34 278.57 25.9
34 12 -8 289.77 22.9
34 12 -8 252.57 27.1
12 -8 34 309.97 20.3
34 -8 -12 283.77 21.9
-10 12 34 593.24 29.3
34 -12 -10 591.04 26.3
12 -34 10 642.04 25.3
-12 10 34 621.24 30.3
34 -10 -12 642.64 27.2
34 -12 -12 373.06 24.1
12 -34 12 371.56 24.1
-12 12 34 341.87 28.1
14 0 34 199.78 18.4
14 -34 0 198.08 15.8
14 34 0 195.78 24.3
0 14 34 211.98 19.8
34 -14 0 197.58 18.6
34 0 -14 224.98 23.3
34 14 0 202.28 20
-2 14 34 23.2 18.3
14 2 34 26.9 17
14 34 -2 21.5 24.7
34 -14 -2 6.3 17.9
34 14 2 27.9 17.9
14 -34 2 27.8 15.6
-2 -34 14 11.1 20.1
34 2 -14 34.1 23.1
34 14 -2 24.8 19.5
2 14 34 12.3 17.4
14 -34 -2 28.8 15.1
34 -14 2 19.7 15.5
34 -2 -14 28.3 21.8
14 34 2 27.7 21.9
14 -2 34 28.9 16.6
14 4 34 21.9 16.3
34 -14 -4 8 17.3
-4 14 34 34.8 20.5
4 -14 34 22 21.2
34 14 4 32.3 18.3
14 34 -4 33.8 25.6
14 -34 4 27.9 16.4
4 -14 34 20.4 26.3
34 -4 -14 21.3 21.6
-14 4 34 41 27.1
4 14 34 25.6 17.7
34 14 -4 34.8 20.5
14 34 4 20.2 21.3
14 -4 34 26.7 17.4
34 14 6 101.39 18.6
6 -14 34 87.39 22.6
34 -14 -6 89.29 19.1
-6 14 34 87.39 21.9
14 34 -6 91.79 27.9
14 -34 6 95.89 18
14 6 34 101.59 17.2
6 -14 34 95.59 28
14 34 6 84.19 21.4
-14 6 34 73.99 27.1
14 -6 34 96.49 19.1
6 14 34 85.49 18.2
34 14 -6 82.69 23.1
34 -6 -14 93.69 21.8
34 14 8 8.5 18.2
-8 14 34 -1.1 23
14 -34 8 8.9 17.8
8 -14 34 9.7 21.7
34 -14 -8 5.7 20
8 -14 34 12.6 28.4
-14 8 34 -11.9 27.6
14 34 8 18.6 21.4
34 -8 -14 14.8 22.3
-10 14 34 102.79 25
34 -14 -10 123.89 21.6
14 -34 10 96.69 20.6
34 -10 -14 101.19 22.7
-14 10 34 111.69 29.4
-12 14 34 35.6 27.6
34 -14 -12 40.5 22.6
14 -34 12 40.6 22.7
34 -12 -14 43 23.5
12 -34 14 -3 23.7
-14 12 34 35.7 29.4
16 34 0 54.09 26.3
34 16 0 67.79 21.7
16 0 34 55.49 17.6
0 16 34 61.79 20
0 -34 16 65.59 22.8
16 34 -2 11 28.3
-2 16 34 1.1 20.7
34 16 2 -12 20.5
16 34 2 -5.1 25.1
34 16 -2 3 22.4
34 -2 -16 -9.7 25.9
16 -2 34 -15.3 18.3
2 -34 16 -3.2 22.4
-4 16 34 135.79 22.2
34 16 4 128.79 21.3
34 -4 -16 154.48 24.9
16 -4 34 162.08 19.2
16 34 4 132.89 24.8
34 16 6 312.27 23
-6 16 34 271.17 25
34 -6 -16 311.67 26.4
16 34 6 285.77 26.2
-8 16 34 -15.6 23.9
34 -8 -16 6.7 24.3
-10 16 34 37.2 26.8
34 -10 -16 29.3 24.7
18 34 0 128.69 30.4
34 18 0 113.09 23.8
34 18 2 23 23.7
18 34 2 22.7 28.7
34 18 4 9.2 22.7
18 34 4 5 27.2
34 18 6 27.8 24
18 34 6 38.6 30
-1 -35 -1 379.76 17.3
-1 -35 1 377.86 17.5
-1 -1 35 319.17 20.3
-1 1 35 330.07 19.9
-1 35 -1 333.47 19.5
-1 35 1 342.17 20
1 -35 -1 364.06 16.8
1 -35 1 358.56 17
1 -1 35 333.87 19.7
1 1 35 343.07 19.4
1 35 -1 340.57 19.9
1 35 1 346.07 19.8
35 -1 -1 341.77 19.6
35 -1 1 369.96 20.6
35 1 -1 325.67 20.5
35 1 1 368.46 21.3
-3 -35 -1 36.1 13.8
35 1 -3 51.99 18.8
-3 -1 35 38 17.9
-3 35 1 28.3 16.7
-1 -35 3 52.29 14.6
-1 3 35 46.4 17
1 -3 35 24.8 17.2
35 -3 -1 28.3 16.7
1 -35 -3 35.5 13.2
3 -35 1 27.5 13.7
3 35 -1 35.2 18.1
1 35 3 31.6 16.3
3 1 35 34.1 16.1
35 -1 3 44.9 17.6
-1 35 -3 32.9 17.1
35 3 1 36.7 18.9
35 3 -1 41.4 19.3
35 1 3 39.6 18.2
-3 35 -1 44.6 17.1
-3 1 35 37.5 18.2
-1 -35 -3 42.8 13.1
-1 -3 35 28.8 17.2
-3 -35 1 53.69 14.1
-1 35 3 26.1 15.5
3 -35 -1 39.4 13.2
1 -35 3 37.6 13.9
1 35 -3 40.9 17.6
3 35 1 33.9 16.9
3 -1 35 37.1 16.2
35 -1 -3 44.5 16.9
1 3 35 34.1 16.3
35 -3 1 28.1 16.9
-3 3 35 9.6 17.8
-3 35 -3 4.8 17.1
-3 35 3 -4.8 15.6
3 -35 -3 -9 12.8
3 -35 3 10.3 14
3 -3 35 1.4 16.3
3 3 35 2.3 15.8
3 35 -3 -2.8 17.9
3 35 3 -4 16.3
35 -3 -3 -5.9 18
35 -3 3 -0.3 16.7
35 3 -3 -15.8 18.4
-3 -3 35 6.2 17.9
-3 -35 -3 5.2 13.3
-5 -1 35 28.2 18.8
35 -5 -1 24.5 16.7
5 1 35 27.2 15.8
5 -35 1 19.9 13
1 -35 -5 17.7 12.6
1 35 5 20 16.2
5 35 -1 15.1 18
35 -1 5 26.3 17.7
1 -5 35 25 17.3
-1 5 35 24.2 16.9
35 1 -5 17.9 19.1
-5 35 1 13.4 16.4
5 -1 35 23.4 15.9
-1 35 5 19.8 16.3
5 -35 -1 28.7 13
-1 -35 -5 24.1 12.9
1 5 35 21.1 16.4
35 -5 1 13.4 16.3
-5 1 35 22.1 19.1
5 35 1 29.2 17.8
-1 -5 35 25.5 17.7
1 35 -5 19.9 18.7
-5 35 -1 23.4 17.1
35 -1 -5 17.3 17.5
35 5 -1 22.5 20
35 3 -5 60.49 19.9
35 -5 -3 51.89 17.4
3 35 5 51.59 16.9
3 -35 -5 60.79 13.1
5 35 -3 44.7 18.9
-3 5 35 65.99 18.3
5 -35 3 72.09 15.2
-5 35 3 58.59 16.6
3 -5 35 66.89 17.7
5 3 35 71.69 16.5
-5 -3 35 59.19 19
35 -3 5 64.19 17.8
35 5 -3 43.3 19.3
5 35 3 53.29 17.8
-3 -5 35 68.69 18.3
3 -35 5 77.79 15.5
3 35 -5 46.4 19.1
-3 35 5 75.29 16.5
-5 3 35 63.59 19.4
-3 -35 -5 72.79 13.7
5 -35 -3 51.49 13.2
35 -5 3 61.59 17.5
35 -3 -5 59.09 17.7
3 5 35 72.79 16.5
5 -3 35 56.89 16.4
-5 5 35 280.47 21.8
5 -5 35 278.27 19.4
-5 35 5 261.17 18.4
5 35 -5 294.57 23.1
5 35 5 301.37 20.3
35 -5 -5 313.97 21.3
35 -5 5 257.67 18.6
35 5 -5 316.27 23.3
5 -35 5 302.07 17.8
5 5 35 278.57 18.7
5 -35 -5 292.67 16.2
-1 7 35 0.9 17.6
1 -7 35 0.1 17.9
1 35 7 7.5 16.6
35 1 -7 7.9 19.2
-7 35 1 0 15.8
7 35 -1 -2.5 19.4
7 -35 1 -0.7 13.6
1 -35 -7 3.5 12.9
35 -7 -1 -7.3 16.9
-7 -1 35 7.4 19.8
7 1 35 8 15.9
1 7 35 -3 16.6
-1 35 7 8.4 15.7
7 -1 35 0.9 16.2
-7 1 35 -13.5 20.6
-1 -35 -7 3 13.2
7 35 1 -5.8 18.9
35 -1 -7 0.5 19.1
-1 -7 35 -15.9 18.5
35 7 -1 4.3 20.8
35 -7 1 1.5 15.3
7 -35 -1 7.2 13.2
35 3 -7 55.29 20.5
7 3 35 71.99 16.7
35 -7 -3 46.3 16.2
7 35 -3 49.4 20.3
7 -35 3 65.09 15.4
3 35 7 56.19 17.5
3 -35 -7 66.59 13.3
-3 7 35 55.89 18.9
-7 35 3 62.49 16.9
35 -3 7 40.6 17.8
3 -7 35 53.59 18.5
35 7 -3 66.39 21.8
-3 35 7 65.39 16.3
3 7 35 63.99 16.9
7 -35 -3 69.69 14.2
7 35 3 57.99 19
35 -7 3 46.2 16.4
7 -3 35 63.89 16.5
35 -3 -7 62.69 19.3
-7 3 35 43.8 20.6
-5 7 35 353.86 22.8
5 -7 35 334.37 20.9
35 -5 7 344.87 21.1
7 35 -5 351.46 24.3
-7 35 5 305.77 19.1
35 5 -7 389.56 24.5
7 -35 5 331.97 17.4
5 -35 -7 334.77 16.9
7 5 35 387.26 20.4
5 35 7 379.16 20.6
35 -7 -5 321.87 20.4
35 7 -5 351.06 24.3
35 -5 -7 398.36 22.5
35 -7 5 356.36 20.8
5 7 35 353.66 19.4
-7 5 35 358.76 23.9
-5 35 7 334.87 19.7
7 -35 -5 322.87 16.5
5 -35 7 418.86 20.4
7 35 5 333.47 20.9
7 -5 35 344.07 20.2
35 -7 -7 430.56 23.6
35 7 -7 397.66 25.8
7 35 7 400.96 22.3
7 35 -7 385.66 26.5
-7 7 35 404.06 25
7 -35 -7 431.36 18.1
7 -35 7 364.96 19.1
7 -7 35 419.66 22
7 7 35 402.86 20.4
35 -7 7 414.16 22.3
9 35 -1 397.46 24.5
1 -9 35 382.76 22.3
1 35 9 415.26 21.2
9 -35 1 350.66 17.6
9 1 35 371.36 19.3
35 1 -9 406.96 23.7
1 -35 -9 411.66 17.5
35 -9 -1 377.76 21.1
-1 9 35 434.26 22
-1 35 9 410.36 20.6
9 35 1 440.36 24.6
9 -1 35 427.66 19.9
35 -1 -9 375.96 23.3
-1 -35 -9 421.26 18
1 9 35 376.56 20.8
9 -35 -1 348.07 16.6
35 -9 1 388.46 20.9
-9 1 35 376.86 24.2
-9 35 3 152.28 16.8
3 -9 35 172.98 20.4
9 -35 3 140.79 14.6
3 35 9 182.68 18.6
3 -35 -9 174.88 15.3
35 -3 9 151.18 19.3
35 3 -9 166.78 22.2
9 35 -3 170.18 22.7
-3 9 35 208.68 20.7
35 -9 -3 172.28 18.5
9 3 35 184.48 17.2
9 35 3 164.78 20.3
9 -35 -3 205.98 16
35 -3 -9 181.58 21.6
-9 3 35 156.68 23.2
3 9 35 185.18 17.9
9 -3 35 191.48 18.3
-3 35 9 160.48 17.5
35 -9 3 185.08 18.6
35 9 -3 163.68 24.2
35 -5 9 10.6 18.3
5 35 9 6.1 18
5 -35 -9 2.8 13.1
-5 9 35 7 20.5
9 5 35 2.4 16.8
35 5 -9 5.3 22.2
5 -9 35 5.8 19
35 -9 -5 -5.4 18.7
9 -35 5 4 15.6
9 35 -5 7.8 23.2
9 -5 35 -3.9 17.8
35 9 -5 -5.5 23.7
-9 5 35 -5 22.6
35 -5 -9 -3.1 20.3
9 -35 -5 -2.9 13.2
35 -9 5 -4.3 17.2
5 9 35 -8.1 16.6
9 35 5 8.3 19.6
9 35 -7 8.5 24.8
35 -9 -7 -1.9 19.1
9 -35 7 -10.7 15.9
-7 9 35 -11.4 22
7 35 9 -8.3 18.3
35 -7 9 11.2 20.6
9 7 35 -3.7 16.4
7 -9 35 -2.2 19.9
35 7 -9 -5.5 24
9 -7 35 -12.7 19.3
35 -7 -9 0.7 19.7
9 35 7 3.8 19.2
-9 7 35 -1.5 22.8
35 -9 7 4.3 17.8
7 -35 9 -3.5 16.5
7 9 35 37.8 17
9 -35 -7 -0.8 14.1
35 9 -7 4 24.2
9 9 35 621.24 24.3
9 -9 35 594.54 26.1
9 35 9 578.54 26
35 9 -9 529.05 31.4
-9 9 35 509.75 28.4
35 -9 -9 602.04 26.8
9 -35 9 561.94 23.9
1 -11 35 286.57 26
-1 11 35 284.57 21.1
35 1 -11 299.07 24.6
11 35 -1 278.67 24.9
11 1 35 321.57 19.9
35 -11 -1 262.17 19.7
1 -11 35 280.67 22.3
1 -35 -11 286.47 15.7
11 -35 1 230.18 15.8
11 -1 35 281.87 19.5
1 11 35 280.17 20.3
11 -35 -1 316.97 17.7
35 -1 -11 292.27 23.9
11 35 1 278.67 24.3
35 -11 1 325.57 21.8
-3 11 35 101.49 20.2
35 -11 -3 117.89 19.4
11 3 35 114.69 16.7
3 -11 35 106.79 27.1
3 -11 35 115.39 21.8
11 35 -3 122.29 25.2
11 -35 3 116.49 16
3 -35 -11 108.99 14.7
35 3 -11 120.69 23.8
-11 3 35 90.69 24.8
35 -3 -11 122.99 22.2
35 -11 3 111.99 19.1
35 11 -3 128.39 26.8
3 11 35 110.79 18.3
11 -35 -3 105.99 14.7
11 -3 35 133.79 18.7
11 35 3 132.59 22
35 5 -11 22.2 24.6
11 35 -5 6 25.9
-5 11 35 12.4 21.2
11 5 35 13.6 16.9
11 -35 5 12.7 16.6
35 -11 -5 23.6 19.1
5 -11 35 7.5 21
5 11 35 6.4 17.8
35 -5 -11 9 21.4
35 11 -5 8.4 26
-11 5 35 15.8 25.1
11 -5 35 14.9 18.5
11 35 5 5.3 20.7
7 -11 35 25.9 22.3
11 -35 7 14.4 16.6
35 -11 -7 24.5 20
11 7 35 25.9 16.6
11 35 -7 32.3 28.3
-7 11 35 20.9 23.1
-11 7 35 21.3 25.9
11 -7 35 20.4 20.1
7 11 35 29.8 18.2
35 -7 -11 26.3 21.8
11 35 7 13.5 21.2
35 11 -7 -8 27.6
35 -11 -9 503.85 25.6
11 -35 9 518.55 23.7
9 -11 35 541.85 26.8
-9 11 35 499.95 28.7
35 -9 -11 505.85 26.3
11 -9 35 446.96 24.7
-11 9 35 472.65 30.3
35 -11 -11 446.16 26
-11 11 35 424.36 31
11 -35 11 487.55 25.9
11 -11 35 402.96 26
-1 -35 13 90.19 22.3
13 35 -1 71.59 25.9
-1 13 35 94.29 20.4
13 -35 1 73.79 15.5
35 1 -13 90.59 25.4
13 1 35 99.89 18.5
1 13 35 90.19 19.9
13 -1 35 105.79 19.3
35 -1 -13 112.59 24.8
13 35 1 92.89 24.2
13 3 35 4 17.6
13 35 -3 9.3 26.5
35 -13 -3 -14.4 19.6
-3 13 35 -7.2 20.7
-3 -35 13 36.4 22.4
13 -35 3 -3.7 15.7
35 13 -3 2.4 21.3
13 35 3 -7.4 22.8
35 -3 -13 2.4 23.6
13 -3 35 6.2 19.1
3 13 35 3.1 18.6
13 5 35 38.5 17.3
13 35 -5 35.2 28.6
-5 13 35 44.8 22.3
13 -35 5 37.9 17.4
35 -13 -5 29.1 20.1
35 13 -5 45.9 23.7
13 35 5 36.5 22.8
35 13 -5 23.1 29.9
35 -5 -13 40.7 23.3
5 13 35 54.39 19.5
13 -5 35 54.59 20
13 -35 7 25.3 19.2
35 -13 -7 22.5 20.9
-7 13 35 19 23.8
35 -7 -13 25.4 23.4
13 -7 35 28.2 20.8
13 35 7 10.2 22.5
-9 13 35 82.39 26.5
35 -13 -9 98.89 23.2
13 -35 9 104.69 22.1
35 -9 -13 116.59 24.1
13 -9 35 117.29 22.5
-11 13 35 94.29 30.1
35 -11 -13 93.39 25
35 15 1 5.6 21.7
-1 15 35 -2.4 21.8
15 35 -1 -0.8 29.3
1 -35 15 1.3 25.1
15 35 1 0.4 27.5
35 15 -1 -11.1 23.2
15 -1 35 9.2 19.7
35 15 3 71.69 22.1
-3 15 35 54.99 23.1
15 35 3 66.09 26.7
15 -3 35 72.19 20.7
-5 15 35 374.26 27.3
35 15 5 347.77 23.8
35 -5 -15 384.76 28.4
15 35 5 357.96 28.3
15 -5 35 428.76 24.4
-7 15 35 363.76 29.1
35 -7 -15 315.07 28.5
15 -7 35 325.67 24.1
35 17 1 22.9 26.8
17 35 1 8.9 31.4
0 -36 0 94.19 15.7
0 0 36 81.49 19.7
0 36 0 94.19 19.7
36 0 0 91.09 20.6
-2 -36 0 62.99 15.5
-2 36 0 54.09 18.3
0 -2 36 70.19 20
0 2 36 71.49 19.3
2 -36 0 64.09 15.1
2 36 0 69.19 19
36 0 -2 62.49 19
36 0 2 50.89 19.8
0 36 -2 51.19 19.4
0 36 2 64.49 18.5
2 0 36 60.79 18.8
36 -2 0 55.29 18.8
36 2 0 66.59 21.2
0 -36 -2 64.09 14.8
0 -36 2 67.99 16.1
-2 0 36 75.39 20.1
36 -2 2 94.29 19.9
36 2 -2 65.39 19.9
36 -2 -2 88.29 19.6
2 2 36 72.09 18.7
-2 -36 -2 97.09 15.3
-2 -36 2 85.09 15.5
-2 -2 36 77.29 20.8
-2 2 36 91.79 20.6
-2 36 -2 78.79 19.8
-2 36 2 88.59 18.7
2 -36 -2 80.29 14.9
2 -36 2 86.69 15.7
2 -2 36 91.59 19.5
2 36 2 66.89 18.2
2 36 -2 89.09 20.2
36 2 2 73.69 20.6
0 36 4 111.69 18.9
4 0 36 96.09 18.7
36 -4 0 92.39 17.6
36 0 4 137.29 20.4
36 0 -4 137.29 21.5
4 36 0 112.69 20.6
36 4 0 130.69 22.7
0 -4 36 99.39 20.5
0 4 36 107.39 19.4
4 -36 0 101.59 15.5
-4 0 36 101.39 22
0 -36 -4 111.99 14.8
0 36 -4 104.49 21.4
-4 36 0 112.89 18.7
2 36 4 31.7 18.4
36 -2 4 28.6 19.1
4 2 36 23.9 17.8
-4 -2 36 39.9 22.2
36 -4 -2 39.7 19.4
-2 4 36 35.9 20.5
2 -4 36 24 19.8
2 -36 -4 34.4 14.4
36 2 -4 43.1 21.4
4 36 -2 28.9 21
-4 36 2 29.6 18.2
36 4 2 39.9 21.3
4 -36 2 55.49 15.6
36 -2 -4 29.9 19.3
4 36 2 31.9 19.6
-2 -4 36 30.1 21.4
4 -2 36 24.9 18.7
-2 36 4 24.7 18
2 4 36 32.2 18.7
4 -36 -2 32 14.6
-2 -36 -4 38.5 14.7
36 4 -2 47.6 22.3
-4 36 -2 31.8 17.7
-4 2 36 39.6 21.8
36 -4 2 35.6 19.2
2 -36 4 47.2 16.1
2 36 -4 30.6 20.5
4 -36 4 266.47 18.6
4 -4 36 228.98 21.1
-4 36 4 277.77 20.4
4 -36 -4 244.58 16.7
-4 -4 36 216.48 22.9
-4 4 36 257.67 23.3
4 36 -4 253.07 23.9
4 36 4 254.47 21
36 -4 -4 248.48 21.1
36 -4 4 294.07 21.7
36 4 -4 264.17 24.3
4 4 36 233.68 19.6
36 0 -6 191.08 22
6 0 36 201.48 20
36 -6 0 164.28 18.7
36 6 0 201.18 24.2
6 -36 0 177.58 16.1
6 36 0 194.98 22.5
0 -36 -6 200.48 16
0 36 6 172.08 18.7
0 -6 36 204.28 22.1
-6 0 36 190.38 24.3
36 0 6 187.58 20.8
-6 36 0 161.58 19.3
0 6 36 189.48 20.4
6 36 -2 136.29 22.8
-2 6 36 101.79 21
2 -6 36 109.59 21.6
36 -6 -2 103.49 18.7
6 2 36 106.79 18.6
2 36 6 130.59 19.2
-6 -2 36 112.59 23.1
-6 36 2 123.49 19.2
2 -36 -6 118.69 15.7
36 -2 6 95.39 19.9
36 2 -6 127.69 22.3
6 -36 2 147.99 17.5
36 -2 -6 124.09 20.4
36 6 -2 133.99 24.6
-2 -36 -6 127.89 15.8
6 -36 -2 124.99 15.4
-6 2 36 111.59 24.2
6 36 2 118.59 20.8
6 -2 36 110.19 18.9
-2 -6 36 118.39 22
2 6 36 113.79 19.5
36 -6 2 133.29 19.9
-2 36 6 100.99 17.4
6 -36 4 519.65 21
4 -6 36 495.55 25.1
-6 36 4 602.14 26.2
6 4 36 486.25 22.6
36 -6 -4 535.85 25.3
36 4 -6 551.94 28
36 -4 6 479.05 24.5
4 -36 -6 437.96 19.2
6 36 -4 505.55 27.7
-4 6 36 511.75 26.6
4 36 6 534.15 24.6
36 -4 -6 447.46 24.5
6 -36 -4 536.05 20.5
36 6 -4 511.75 27.6
4 -36 6 489.65 21.6
6 36 4 482.85 25.3
36 -6 4 492.25 24
-6 4 36 505.95 27.5
4 36 -6 472.15 27.9
6 -4 36 506.35 24.2
4 6 36 491.85 23.4
6 -6 36 890.01 36.9
6 6 36 928.11 35.1
6 36 -6 829.32 34
6 -36 6 948.81 34
6 -36 -6 919.31 31.2
-6 6 36 923.41 33.8
36 6 -6 856.91 34
6 36 6 971 38.4
36 -6 -6 934.61 38.7
36 -6 6 893.61 37.2
36 -8 0 7.1 18.3
8 -36 0 -5.7 15.8
-8 0 36 28.5 26.1
0 -36 -8 11.3 14.8
8 36 0 11.6 22
8 0 36 10.3 18.8
0 8 36 -7.9 19.6
0 -8 36 18.9 22.8
36 0 -8 8.9 21.9
36 -2 8 8.8 20.1
36 -8 -2 10.3 19
8 36 -2 -2 23
-2 8 36 1 20.9
8 -36 2 10.6 15.3
36 2 -8 -4.1 22.8
2 -36 -8 3.4 15.1
2 -8 36 6.8 22.5
8 2 36 1.1 18.1
8 -2 36 3.1 18.2
36 -8 2 2 19.4
36 8 -2 14.2 25.1
8 36 2 20.2 22.2
-8 2 36 10.2 24.8
2 8 36 14.8 19.1
8 -36 -2 -0.3 15.6
36 -2 -8 0.3 21.8
4 -8 36 239.78 23.5
8 36 -4 231.88 25.9
4 -36 -8 255.67 17.6
36 -8 -4 203.28 20.9
8 4 36 254.67 19.9
4 36 8 238.58 23.5
36 4 -8 227.18 25.3
-4 8 36 223.58 24.1
8 -36 4 281.97 19.5
36 -4 8 226.28 22.3
36 -4 -8 245.78 23.2
8 36 4 278.67 23.5
8 -36 -4 222.98 16.6
-8 4 36 232.08 25.8
8 -4 36 226.18 20.6
4 8 36 229.58 20.2
36 8 -4 236.08 26.8
8 6 36 571.44 24.2
8 -36 6 501.65 22
36 -8 -6 474.65 25.5
8 36 -6 494.95 30.6
-6 8 36 509.65 28.5
6 -8 36 502.55 25.7
36 6 -8 485.85 29.9
8 36 6 490.65 26
6 8 36 524.85 24.6
36 8 -6 518.05 30.4
-8 6 36 503.25 29.6
8 -6 36 493.55 25
36 -6 -8 516.45 26.4
8 8 36 175.08 20.7
8 -8 36 170.78 23.4
8 -36 8 193.38 20.4
-8 8 36 187.88 27.1
36 -8 -8 172.88 22.9
36 -10 0 169.68 19.1
10 36 0 187.58 25.2
10 -36 0 193.88 17.5
0 10 36 208.28 21.4
36 0 -10 234.88 25.8
10 0 36 211.18 20.6
10 2 36 203.68 20.6
10 36 -2 193.68 26.8
36 2 -10 208.98 26.4
-2 10 36 223.78 22.6
36 -10 -2 230.38 22.3
10 -36 2 180.08 17
2 10 36 186.28 21
10 -2 36 224.78 21.3
36 -2 -10 249.18 25.3
36 10 -2 229.18 29
10 36 2 234.28 25.4
36 -10 -4 10.1 20.9
10 -36 4 12.3 16.6
10 4 36 13.4 18.9
-4 10 36 4.1 23.5
10 36 -4 13.6 26.9
36 4 -10 -0.1 26.4
36 -4 -10 38.6 23.5
10 36 4 11.8 23.4
4 10 36 11.7 19.1
10 -4 36 11.3 20.3
36 10 -4 16.4 28.6
10 36 -6 4.8 29.4
-6 10 36 -5.5 25
6 -10 36 1.2 23.5
36 -10 -6 7.1 21.6
10 6 36 0.3 18.5
10 -36 6 9 18
6 10 36 2.8 19.9
36 10 -6 4.5 28.9
10 -6 36 -4.7 21.7
10 36 6 -1 22.6
36 -6 -10 11.3 23.7
-10 6 36 -5.4 29.7
-8 10 36 30.3 27.4
36 -10 -8 46 23.2
8 -10 36 29 24.6
10 -36 8 35.1 19.6
36 -8 -10 32.8 23.7
-10 8 36 40.2 28.8
10 -8 36 35.9 23.2
-10 10 36 492.05 33.7
36 -10 -10 532.15 29.1
10 -10 36 490.45 29.2
10 -36 10 498.85 26.1
12 36 0 69.99 27.2
0 12 36 69.59 22.2
12 0 36 59.79 19.7
36 0 -12 74.99 27
-2 -36 12 55.29 23.2
12 2 36 44.5 20.2
-2 12 36 29.7 22.4
12 36 -2 73.89 28
12 -2 36 44.2 20.4
36 -2 -12 38.9 26
12 36 2 30.3 25.2
2 12 36 53.79 21.9
12 36 -4 -9.5 30.5
12 4 36 -12 19.4
-4 12 36 3.5 23.9
4 12 36 5.7 21
12 36 4 -3.3 24.8
36 -4 -12 -10.1 25.8
12 -4 36 17.3 21.9
36 12 -4 -13 34.2
-6 12 36 31.9 26.8
36 -6 -12 40.3 25.5
12 -6 36 35.6 22.6
-8 12 36 -10.5 28.4
36 -8 -12 -5.8 25.2
12 -8 36 3.9 24.3
36 14 0 -9.7 24.3
14 36 0 -6.4 30.6
36 14 2 10 23.5
-2 14 36 -13.5 24.8
14 36 2 -20.1 28.6
14 -2 36 -10.9 22.3
36 14 4 214.88 24.1
-4 14 36 218.68 28.2
14 -4 36 201.48 24.1
14 36 4 170.28 29.4
-1 -37 -1 107.19 16.6
-1 -37 1 107.09 17.3
-1 -1 37 96.09 23.4
-1 1 37 110.19 23.8
-1 37 -1 106.19 21.6
-1 37 1 107.59 20.4
1 -37 -1 101.99 17
1 -37 1 107.89 17.7
1 -1 37 107.49 22.6
1 1 37 96.49 21.9
1 37 -1 123.19 21.6
1 37 1 117.09 21.9
37 -1 -1 99.89 21.5
37 -1 1 106.59 21.2
37 1 -1 106.49 21.4
37 1 1 108.39 22.6
-3 -37 -1 9.8 17.3
1 37 3 6.5 19.6
3 1 37 13.2 20.9
-3 37 1 20.1 20.5
37 -3 -1 6.5 20.5
-1 3 37 1.9 22.4
1 -3 37 1.2 23.2
37 3 1 14.3 23.2
-1 37 -3 18.8 21.5
3 -37 1 8.2 16.7
3 37 -1 10.3 22.7
-3 -1 37 7.3 24.3
1 -37 -3 8.7 16.5
37 -1 3 11.9 21
37 1 -3 6.6 21.7
-3 37 -1 -1.2 21.2
-1 -3 37 14.5 24
37 -3 1 18.7 20.2
37 3 -1 11.5 23.3
1 3 37 11.3 21.4
37 -1 -3 14.8 21.8
1 -37 3 18.5 17.9
3 37 1 7.7 21.2
-3 -37 1 11.6 17.5
3 -1 37 4.4 21.5
37 1 3 27.2 22.5
-1 37 3 17 20.3
3 -37 -1 -0.1 15.9
1 37 -3 11 22.1
-3 1 37 -0.9 23.9
-1 -37 -3 13.1 16.5
37 -3 -3 109.19 22.4
3 37 -3 92.69 23.5
37 -3 3 121.59 22.2
37 3 -3 89.69 23.4
3 3 37 98.69 21.4
3 37 3 112.89 21.9
-3 3 37 115.59 24.3
3 -37 -3 95.19 16.7
3 -3 37 96.89 22.6
3 -37 3 130.29 18.2
37 3 3 108.09 23.9
37 5 1 250.87 26.5
1 -37 -5 247.28 17.7
1 -5 37 230.48 25.4
37 -1 5 238.48 23.4
37 -5 -1 244.58 23.2
5 1 37 246.78 22.8
37 1 -5 244.18 24.7
5 -37 1 265.17 19.5
-1 5 37 219.28 24.2
5 37 -1 237.28 25.6
1 5 37 214.38 22.8
37 5 -1 265.17 27.2
37 1 5 233.58 24.1
5 -1 37 251.37 23.2
-5 1 37 217.88 27.4
37 -1 -5 257.37 24.8
37 -5 1 274.37 23.4
5 -37 -1 243.08 18.3
-1 -37 -5 245.08 18
5 37 1 217.08 23.8
37 3 -5 409.26 27.8
5 3 37 354.86 23.9
-3 5 37 426.86 27.4
3 37 5 385.76 24.6
37 -5 -3 430.56 25.7
37 -3 5 393.46 24.1
5 37 -3 384.86 27.7
3 -37 -5 469.25 20.5
3 -5 37 416.96 26.8
5 -37 3 457.05 21.8
3 -37 5 430.36 22.5
5 -3 37 418.66 25.4
5 -37 -3 414.86 20.4
3 37 -5 339.27 27.7
-5 3 37 426.56 28.9
5 37 3 422.86 25.6
37 -3 -5 479.15 27
37 5 -3 425.56 27.6
37 -5 3 480.05 25.9
3 5 37 419.46 24.6
5 37 -5 921.11 37.2
5 5 37 976 39.3
5 -37 5 1025.6 36.7
-5 5 37 941.51 36.5
5 -5 37 957.8 41.3
5 37 5 1026.9 42.2
37 -5 -5 978.6 41.4
37 5 -5 951.9 36.4
7 37 -1 104.69 24.6
37 -7 -1 72.69 20.3
37 1 -7 106.19 24.9
7 1 37 110.69 21.4
-1 7 37 106.49 24
7 -37 1 112.79 18.5
7 -37 -1 117.39 18.1
1 7 37 102.49 22.3
7 37 1 99.79 24.7
37 -1 -7 98.99 24.3
37 -7 1 98.29 22.7
-1 -37 -7 118.29 19.2
37 7 -1 107.29 26.9
7 -1 37 99.39 21.6
-3 7 37 346.17 27.3
37 3 -7 357.16 29.1
7 -37 3 358.56 21.2
7 3 37 348.97 23.6
7 37 -3 337.37 29
37 -7 -3 319.97 23.8
3 7 37 300.57 23.2
7 -3 37 333.77 24.6
7 37 3 319.77 26.2
37 7 -3 384.96 30.3
37 -3 -7 335.57 26.1
7 -37 5 989.9 36
37 5 -7 912.61 37.3
-5 7 37 921.91 36
7 37 -5 889.81 37.7
7 5 37 949.31 38.1
37 -7 -5 793.22 32.5
5 -7 37 866.51 34.2
5 7 37 905.61 39.5
37 7 -5 965 38.4
37 -5 -7 1043.7 43.2
7 37 5 1030 38
7 -5 37 953.2 41.5
-7 5 37 869.31 37.8
7 -7 37 769.22 31.9
7 -37 7 902.01 36.9
37 -7 -7 783.12 31.8
7 7 37 686.33 29.2
-7 7 37 788.82 36.1
9 1 37 6.9 21.1
-1 9 37 -10.8 23.9
37 1 -9 -2.3 26.6
9 37 -1 2.4 26.6
9 -1 37 3.1 21.4
1 9 37 -7.8 22.6
9 37 1 8.6 25.9
37 9 -1 1.4 29.3
37 -1 -9 -3.4 26.5
9 37 -3 81.79 29.1
9 3 37 82.29 22.3
-3 9 37 88.69 26
37 3 -9 83.39 28.2
9 37 3 87.69 25.9
37 9 -3 74.69 30
9 -3 37 81.99 22.7
3 9 37 89.49 22.4
37 -3 -9 98.59 26.4
-5 9 37 457.95 30.4
37 -9 -5 398.16 27
9 -37 5 413.36 24
9 5 37 421.86 25.5
9 -5 37 414.86 26.5
5 9 37 374.16 25
37 -5 -9 409.16 28.2
37 -9 -7 293.67 26.4
9 -37 7 262.07 22.8
-7 9 37 312.97 31.5
9 -7 37 291.97 27
37 -7 -9 281.57 26.9
-1 11 37 188.78 26.6
11 1 37 151.78 21.8
11 37 -1 178.68 31.3
11 37 1 195.78 30.4
1 11 37 171.38 24.9
11 -1 37 161.98 22.9
-3 11 37 24.7 27
11 -3 37 16.7 23.3
11 37 3 51.49 28.9
37 -3 -11 8.9 28.1
-5 11 37 16.3 29.1
37 -5 -11 -19.5 28.2
11 -5 37 11.1 24.4
0 -38 0 438.56 22.9
0 0 38 414.96 29.2
0 38 0 392.36 26.6
38 0 0 406.76 26.8
-2 -38 0 41.5 19.1
0 2 38 44.4 26.1
2 -38 0 65.19 19.3
2 38 0 33.3 24.3
38 0 -2 60.89 25.2
38 0 2 62.79 25.5
2 0 38 39.8 25.5
38 -2 0 46.4 24.9
38 2 0 39.4 25.2
0 -38 2 50.89 19.8
0 38 -2 46.4 25.4
0 -38 -2 65.19 18.7
2 2 38 13.8 24.5
2 -38 2 13.4 19.6
2 -2 38 0.1 27
-2 2 38 14.4 28
2 -38 -2 12.7 18.7
38 2 -2 6.8 26.1
38 2 2 3.6 25.9
2 38 -2 3.8 26.4
38 -2 -2 -1.7 23.7
38 -2 2 -2.5 22.1
-2 -38 -2 24.7 19.3
-2 38 -2 2.2 25
38 4 0 87.69 26.9
0 4 38 80.59 26.3
4 0 38 101.99 24.9
38 -4 0 88.39 23.1
38 0 -4 70.59 26.2
4 38 0 61.69 25.9
4 -38 0 101.89 19.4
4 2 38 237.28 25.9
-2 4 38 271.67 29
38 4 2 245.78 28.6
38 2 -4 235.18 27.9
38 -4 -2 243.58 25.4
4 -38 2 267.87 21
4 38 -2 267.37 28.1
4 38 2 242.88 26.4
38 -2 -4 252.07 26
38 2 4 293.67 30.2
2 -38 4 70.39 20.8
2 4 38 236.18 26.3
4 -2 38 265.87 26.9
38 4 -2 270.17 27.6
2 38 -4 208.98 28.2
4 -38 4 692.73 27.7
4 4 38 648.24 29.9
38 4 4 649.14 32.6
38 4 -4 701.63 34.5
38 -4 -4 586.84 29.9
4 38 -4 646.34 34.5
6 0 38 122.09 25.3
38 6 0 113.59 29.9
38 0 -6 129.19 27.4
0 6 38 91.89 26.3
6 38 0 105.09 27.3
6 2 38 287.67 26.3
38 2 -6 335.27 30.8
-2 6 38 293.57 29.3
6 38 -2 309.27 30
38 6 2 342.67 32
38 6 -2 327.67 31
6 -2 38 328.27 27.2
38 -2 -6 320.07 29.5
6 38 2 285.77 28.6
2 6 38 311.77 26.5
6 38 -4 760.42 37.1
6 4 38 749.03 31.6
38 -6 -4 715.33 32.6
6 -38 4 948.11 37.3
38 4 -6 838.92 38
38 6 -4 840.62 37.9
6 -4 38 822.32 36.5
4 6 38 797.22 32.3
38 -4 -6 787.42 33.7
38 -6 -6 1148.99 49.99
6 6 38 1103.59 45.2
6 -38 6 1174.08 43.3
8 0 38 5.1 25.2
8 38 0 -10 29.5
0 8 38 -4.9 27
38 8 0 6.8 32.3
38 0 -8 -9.4 29
-2 8 38 66.59 28.1
8 2 38 66.59 24.3
8 38 -2 82.39 30.9
8 38 2 78.79 28.8
38 -2 -8 81.59 29.3
8 -2 38 53.29 25.4
2 8 38 81.89 25.7
38 8 -2 68.79 31.7
