#------------------------------------------------------------------------------
#$Date: 2017-03-03 21:58:06 +0200 (Fri, 03 Mar 2017) $
#$Revision: 192843 $
#$URL: file:///home/coder/svn-repositories/cod/cif/4/51/40/4514050.cif $
#------------------------------------------------------------------------------
#
# This file is available in the Crystallography Open Database (COD),
# http://www.crystallography.net/
#
# All data on this site have been placed in the public domain by the
# contributors.
#
data_4514050
loop_
_publ_author_name
'Gong, Teng'
'Yang, Xiao'
'Fang, Jia-Jia'
'Sui, Qi'
'Xi, Fu-Gui'
'Gao, En-Qing'
_publ_section_title
;
 Distinct Chromic and Magnetic Properties of Metal-Organic Frameworks with
 a Redox Ligand.
;
_journal_issue                   6
_journal_name_full               'ACS applied materials &amp; interfaces'
_journal_page_first              5503
_journal_page_last               5512
_journal_paper_doi               10.1021/acsami.6b15540
_journal_volume                  9
_journal_year                    2017
_chemical_formula_sum            'C28 H28 Mn2 N8 O13'
_chemical_formula_weight         794.46
_chemical_name_systematic
;
 ?
;
_space_group_crystal_system      monoclinic
_space_group_IT_number           15
_space_group_name_Hall           '-C 2yc'
_space_group_name_H-M_alt        'C 1 2/c 1'
_symmetry_space_group_name_Hall  '-C 2yc'
_symmetry_space_group_name_H-M   'C 1 2/c 1'
_atom_sites_solution_hydrogens   mixed
_audit_creation_method           SHELXL-2014
_cell_angle_alpha                90
_cell_angle_beta                 115.636(2)
_cell_angle_gamma                90
_cell_formula_units_Z            4
_cell_length_a                   19.4530(7)
_cell_length_b                   11.3613(7)
_cell_length_c                   15.2963(9)
_cell_measurement_reflns_used    8865
_cell_measurement_temperature    296(2)
_cell_measurement_theta_max      28.276
_cell_measurement_theta_min      2.14
_cell_volume                     3047.9(3)
_computing_structure_refinement  'SHELXL-2014 (Sheldrick, 2014)'
_diffrn_ambient_temperature      296(2)
_diffrn_measured_fraction_theta_full 1.000
_diffrn_measured_fraction_theta_max 0.990
_diffrn_measurement_device_type  'CCD area detector'
_diffrn_measurement_method       'phi and omega scans'
_diffrn_radiation_type           MoK\a
_diffrn_radiation_wavelength     0.71073
_diffrn_reflns_av_R_equivalents  0.0261
_diffrn_reflns_av_unetI/netI     0.0199
_diffrn_reflns_Laue_measured_fraction_full 1.000
_diffrn_reflns_Laue_measured_fraction_max 0.990
_diffrn_reflns_limit_h_max       25
_diffrn_reflns_limit_h_min       -25
_diffrn_reflns_limit_k_max       14
_diffrn_reflns_limit_k_min       -13
_diffrn_reflns_limit_l_max       20
_diffrn_reflns_limit_l_min       -20
_diffrn_reflns_number            20263
_diffrn_reflns_point_group_measured_fraction_full 1.000
_diffrn_reflns_point_group_measured_fraction_max 0.990
_diffrn_reflns_theta_full        25.242
_diffrn_reflns_theta_max         28.282
_diffrn_reflns_theta_min         2.136
_exptl_absorpt_coefficient_mu    0.913
_exptl_crystal_colour            orange
_exptl_crystal_density_diffrn    1.731
_exptl_crystal_description       block
_exptl_crystal_F_000             1624
_refine_diff_density_max         0.449
_refine_diff_density_min         -0.400
_refine_diff_density_rms         0.067
_refine_ls_extinction_method     none
_refine_ls_goodness_of_fit_ref   1.088
_refine_ls_hydrogen_treatment    mixed
_refine_ls_matrix_type           full
_refine_ls_number_parameters     255
_refine_ls_number_reflns         3741
_refine_ls_number_restraints     9
_refine_ls_restrained_S_all      1.088
_refine_ls_R_factor_all          0.0431
_refine_ls_R_factor_gt           0.0366
_refine_ls_shift/su_max          0.001
_refine_ls_shift/su_mean         0.000
_refine_ls_structure_factor_coef Fsqd
_refine_ls_weighting_details
'w=1/[\s^2^(Fo^2^)+(0.0552P)^2^+3.4486P] where P=(Fo^2^+2Fc^2^)/3'
_refine_ls_weighting_scheme      calc
_refine_ls_wR_factor_gt          0.1002
_refine_ls_wR_factor_ref         0.1048
_reflns_Friedel_coverage         0.000
_reflns_number_gt                3264
_reflns_number_total             3741
_reflns_threshold_expression     'I > 2\s(I)'
_cod_data_source_file            am6b15540_si_003.cif
_cod_data_source_block           compound_2
_cod_database_code               4514050
_shelx_space_group_comment
;
The symmetry employed for this shelxl refinement is uniquely defined
by the following loop, which should always be used as a source of
symmetry information in preference to the above space-group names.
They are only intended as comments.
;
_shelxl_version_number           2014-3
_shelx_res_file
;
TITL 1 in C2/c
CELL 0.71073  19.4530  11.3613  15.2963  90.000 115.636  90.000
ZERR   4.00   0.0007   0.0007   0.0009   0.000   0.002   0.000
LATT 7
SYMM -X, Y, 0.5-Z
SFAC C  H  N  O Mn
UNIT 112 112 32 52 8
L.S. 20
BOND
HTAB
ACTA
FMAP 2
BOND $H
EQIV $1 x, -y+2, z+1/2
HTAB C8 O7_$1
EQIV $2 -x+1/2, -y+3/2, -z+1
HTAB C8 O6_$2
HTAB C9 O3_$2
HTAB C9 O7_$2
EQIV $3 -x+1, y+1, -z+3/2
HTAB C12 N4_$3
EQIV $4 x, y+1, z
HTAB C13 N4_$4
EQIV $5 x+1/2, -y+3/2, z+1/2
HTAB O5 O3_$5
HTAB O5 O7_$5
EQIV $7 -x+1/2, y-1/2, -z+1/2
HTAB O6 O4_$7
HTAB O6 O1
EQIV $8 -x+1/2, -y+3/2, -z
HTAB O7 O7_$8
HTAB O7 O6
PLAN 30
TEMP 23.000
WGHT    0.055200    3.448600
FVAR       0.08866
MN1   5    0.500000    0.584103    0.750000    10.50000    0.01677    0.03184 =
         0.01354    0.00000    0.00277    0.00000
MN2   5    0.500000    0.500000    0.500000    10.50000    0.02505    0.03570 =
         0.01888    0.00096    0.00741    0.00807
O1    4    0.431410    0.656322    0.487938    11.00000    0.03696    0.04288 =
         0.02170    0.00007    0.00766    0.01699
O2    4    0.485215    0.715840    0.642139    11.00000    0.02425    0.03556 =
         0.02103    0.00409    0.00375    0.00560
O3    4    0.191810    0.836329    0.256604    11.00000    0.04774    0.08375 =
         0.01740   -0.00378    0.00126    0.02906
O4    4    0.122230    0.937328    0.313061    11.00000    0.01810    0.04964 =
         0.02814   -0.00128    0.00192    0.00229
N1    3    0.354566    1.006543    0.764611    11.00000    0.04302    0.07514 =
         0.02480   -0.01984   -0.00237    0.02803
N2    3    0.491472    0.443277    0.637767    11.00000    0.03232    0.03726 =
         0.02146   -0.00279    0.01090    0.00053
N3    3    0.451155    0.361546    0.631170    11.00000    0.04044    0.03926 =
         0.02739   -0.00261    0.01486    0.00288
N4    3    0.411420    0.282535    0.623576    11.00000    0.07980    0.04932 =
         0.07347   -0.01033    0.04241   -0.02203
C1    1    0.433701    0.719861    0.556637    11.00000    0.02367    0.02936 =
         0.01945    0.00392    0.00857    0.00313
C2    1    0.247761    0.884721    0.422823    11.00000    0.02047    0.03128 =
         0.01701    0.00272    0.00491    0.00012
C3    1    0.244604    0.950080    0.497079    11.00000    0.02223    0.04229 =
         0.02142   -0.00135    0.00366    0.00870
AFIX  43
H3A   2    0.202661    0.998027    0.484751    11.00000   -1.20000
AFIX   0
C4    1    0.303775    0.944829    0.590431    11.00000    0.02993    0.05068 =
         0.02173   -0.00837    0.00361    0.01252
C5    1    0.366217    0.872856    0.609032    11.00000    0.02318    0.04271 =
         0.01720   -0.00327    0.00022    0.00682
AFIX  43
H5A   2    0.405920    0.869431    0.671100    11.00000   -1.20000
AFIX   0
C6    1    0.369355    0.805743    0.534620    11.00000    0.02007    0.02752 =
         0.01899    0.00247    0.00633    0.00211
C7    1    0.310413    0.813000    0.441773    11.00000    0.02294    0.03114 =
         0.01741    0.00085    0.00727    0.00191
AFIX  43
H7A   2    0.312942    0.769380    0.391799    11.00000   -1.20000
AFIX   0
C8    1    0.291099    1.013937    0.666165    11.00000    0.05634    0.13167 =
         0.02398   -0.02726   -0.00971    0.05882
AFIX  23
H8A   2    0.283125    1.095904    0.646567    11.00000   -1.20000
H8B   2    0.244919    0.985702    0.668646    11.00000   -1.20000
AFIX   0
C9    1    0.354071    0.924734    0.825791    11.00000    0.05767    0.06919 =
         0.04664   -0.02087   -0.00907   -0.00622
AFIX  43
H9A   2    0.314987    0.869440    0.805546    11.00000   -1.20000
AFIX   0
C10   1    0.410427    0.920521    0.918563    11.00000    0.06193    0.04908 =
         0.03972   -0.00505   -0.00343   -0.01138
AFIX  43
H10A  2    0.408865    0.863270    0.961122    11.00000   -1.20000
AFIX   0
C11   1    0.469624    1.000675    0.949479    11.00000    0.03230    0.03914 =
         0.02295   -0.00675    0.00652    0.00705
C12   1    0.469314    1.082297    0.883554    11.00000    0.06156    0.07628 =
         0.03195    0.00660    0.00915   -0.01637
AFIX  43
H12A  2    0.508758    1.136694    0.900907    11.00000   -1.20000
AFIX   0
C13   1    0.410385    1.083901    0.791180    11.00000    0.08144    0.08621 =
         0.02798    0.01392    0.01491    0.01647
AFIX  43
H13A  2    0.410132    1.140467    0.747095    11.00000   -1.20000
AFIX   0
C15   1    0.182107    0.885616    0.322644    11.00000    0.02243    0.03469 =
         0.01940    0.00310    0.00369    0.00204
DFIX 0.86 O5 H5B O5 H5C O6 H6A O6 H6B O7 H7B O7 H7C
DANG 1.39 H5B H5C H6A H6B H7B H7C
O5    4    0.602738    0.605146    0.578579    11.00000    0.05016    0.07815 =
         0.02360   -0.00411    0.00293   -0.02100
H5B   2    0.626060    0.622868    0.638160    11.00000   -1.50000
H5C   2    0.628466    0.631211    0.549068    11.00000   -1.50000
O6    4    0.337699    0.646040    0.272297    11.00000    0.05456    0.08462 =
         0.05371   -0.01464    0.01779    0.02060
H6A   2    0.360013    0.608401    0.241520    11.00000   -1.50000
H6B   2    0.364375    0.645036    0.334403    11.00000   -1.50000
O7    4    0.229384    0.730442    0.080476    10.50000    0.06177    0.06786 =
         0.09407   -0.01053    0.03735    0.00695
H7B   2    0.236628    0.746532    0.030867    10.50000   -1.50000
H7C   2    0.265106    0.700475    0.125706    10.50000   -1.50000

HKLF 4

REM  1 in C2/c
REM R1 =  0.0366 for    3264 Fo > 4sig(Fo)  and  0.0431 for all    3741 data
REM    255 parameters refined using      9 restraints

END

WGHT      0.0525      4.0095

REM Instructions for potential hydrogen bonds
HTAB C8 O7_$1
HTAB C8 O6_$2
HTAB C9 O3_$2
HTAB C9 O7_$2
HTAB C12 N4_$3
HTAB C13 N4_$4
HTAB O5 O3_$5
EQIV $9 -x+1, -y+1, -z+1
HTAB O5 N3_$9
HTAB O5 N4_$9
HTAB O5 O7_$5
HTAB O6 O4_$7
HTAB O6 O1
HTAB O7 O7_$8
HTAB O7 O6

REM Highest difference peak  0.449,  deepest hole -0.400,  1-sigma level  0.067
Q1    1   0.3202  1.0682  0.6583  11.00000  0.05    0.45
Q2    1   0.3988  0.7663  0.5476  11.00000  0.05    0.42
Q3    1   0.3663  0.8344  0.5699  11.00000  0.05    0.41
Q4    1   0.5689  0.6203  0.5879  11.00000  0.05    0.35
Q5    1   0.6116  0.5280  0.5929  11.00000  0.05    0.34
Q6    1   0.3473  0.9891  0.8148  11.00000  0.05    0.33
Q7    1   0.2790  0.8492  0.4380  11.00000  0.05    0.33
Q8    1   0.3434  0.8173  0.4885  11.00000  0.05    0.32
Q9    1   0.2196  0.8839  0.3786  11.00000  0.05    0.31
Q10   1   0.5000  1.0000  1.0000  10.50000  0.05    0.31
Q11   1   0.2598  1.0501  0.6623  11.00000  0.05    0.31
Q12   1   0.3838  0.9555  0.8800  11.00000  0.05    0.30
Q13   1   0.3810  1.0431  0.7579  11.00000  0.05    0.29
Q14   1   0.2514  0.9350  0.4499  11.00000  0.05    0.29
Q15   1   0.4469  0.9203  0.9220  11.00000  0.05    0.29
Q16   1   0.4167  0.9824  0.9314  11.00000  0.05    0.28
Q17   1   0.2803  0.9573  0.5389  11.00000  0.05    0.26
Q18   1   0.3238  0.8971  0.5949  11.00000  0.05    0.26
Q19   1   0.2080  0.9232  0.2596  11.00000  0.05    0.26
Q20   1   0.4873  0.5759  0.8007  11.00000  0.05    0.25
Q21   1   0.4677  0.7375  0.5995  11.00000  0.05    0.25
Q22   1   0.3435  0.9327  0.5838  11.00000  0.05    0.24
Q23   1   0.3012  0.9731  0.6271  11.00000  0.05    0.24
Q24   1   0.5110  0.5041  0.4486  11.00000  0.05    0.24
Q25   1   0.2941  0.6584  0.2179  11.00000  0.05    0.24
Q26   1   0.4551  0.6973  0.5101  11.00000  0.05    0.23
Q27   1   0.3292  0.9817  0.5851  11.00000  0.05    0.23
Q28   1   0.4684  0.5371  0.7634  11.00000  0.05    0.22
Q29   1   0.4382  1.1007  0.8445  11.00000  0.05    0.22
Q30   1   0.5117  0.6773  0.6518  11.00000  0.05    0.21
;
_shelx_res_checksum              27989
_shelx_hkl_file
;
  -1   1   1  216.27    5.06
  -1   1   1  224.96    5.48
  -1   1   1  216.65    5.19
  -2   2   2   95.61    2.32
  -2   2   2   94.33    2.23
  -2   2   2   97.60    2.44
  -3   3   3  697.31   16.34
  -3   3   3  703.59   16.24
  -3   3   3  703.41   17.30
  -3   3   3  713.88   16.51
  -4   4   4    6.71    0.34
  -4   4   4    5.99    0.32
  -4   4   4    6.32    0.25
  -4   4   4    6.50    0.31
  -5   5   5   12.11    0.51
  -5   5   5   12.69    0.55
  -5   5   5   11.93    0.41
  -5   5   5   11.95    0.39
  -5   5   5   12.81    0.50
  -6   6   6    7.57    0.31
  -6   6   6    7.19    0.43
  -6   6   6    7.24    0.41
  -7   7   7   10.02    0.52
  -7   7   7    9.38    0.54
   7  -7  -7    9.85    0.56
  -8   8   8    1.15    0.25
  -8   8   8    1.05    0.24
   8  -8  -8    0.94    0.24
  -9   9   9    4.68    0.47
  -9   9   9    4.44    0.48
   9  -9  -9    3.69    0.45
 -10  10  10    2.30    0.38
 -10  10  10    2.28    0.38
  10 -10 -10    2.70    0.42
  11 -11 -11    1.49    0.37
  11 -11 -11    1.59    0.36
  13 -11 -12    2.92    0.48
  12 -10 -11    0.47    0.26
  12 -10 -11    0.37    0.24
 -12  10  11    0.47    0.24
  11  -9 -10    5.90    0.58
  11  -9 -10    5.64    0.56
 -11   9  10    4.95    0.52
  10  -8  -9   12.81    0.70
 -10   8   9   11.39    0.66
   9  -7  -8    7.44    0.50
  -9   7   8    7.46    0.50
  -9   7   8    6.72    0.47
   8  -6  -7    2.85    0.34
  -8   6   7    3.46    0.24
  -8   6   7    3.20    0.33
  -8   6   7    2.55    0.31
  -8   6   7    2.85    0.23
   7  -5  -6   23.35    0.85
  -7   5   6   23.15    0.80
  -7   5   6   23.53    0.87
  -7   5   6   24.10    0.70
  -7   5   6   23.71    0.72
   6  -4  -5   36.22    1.10
  -6   4   5   36.14    0.95
  -6   4   5   36.50    0.98
  -6   4   5   35.16    1.12
  -6   4   5   36.10    1.04
   5  -3  -4    1.55    0.17
  -5   3   4    0.79    0.13
  -5   3   4    0.94    0.11
  -5   3   4    0.65    0.10
   4  -2  -3  259.63    6.20
  -4   2   3  264.21    6.03
  -4   2   3  264.41    6.05
  -4   2   3  255.87    6.46
   3  -1  -2   47.33    1.13
  -3   1   2   47.77    1.16
  -3   1   2   38.30    1.08
   2   0  -1   -0.21    0.03
  -2   0   1   -0.19    0.02
  -2   0   1   -0.20    0.03
   1   1   0  258.09    6.08
  -1  -1   0  258.28    5.94
   0   2   1  128.42    3.11
   0   2   1  132.23    3.26
  -1   3   2  166.43    4.09
  -1   3   2  158.71    3.80
  -1   3   2  160.54    3.70
  -1   3   2  162.93    3.89
  -2   4   3  138.14    3.38
  -2   4   3  138.53    3.30
  -2   4   3  136.22    3.55
  -2   4   3  136.75    3.17
  -3   5   4    6.98    0.34
  -3   5   4    7.04    0.24
  -3   5   4    6.88    0.38
  -3   5   4    6.52    0.35
  -4   6   5    8.27    0.29
  -4   6   5    8.74    0.43
  -4   6   5    8.13    0.46
  -4   6   5    7.56    0.40
  -5   7   6   11.77    0.56
  -5   7   6   11.71    0.59
  -5   7   6   11.55    0.54
  -6   8   7   28.84    1.04
  -6   8   7   29.19    1.02
  -6   8   7   26.51    1.08
  -7   9   8    7.02    0.47
  -7   9   8    7.27    0.53
  -8  10   9    0.01    0.20
  -8  10   9    0.09    0.18
   8 -10  -9   -0.24    0.16
  -9  11  10    0.02    0.21
  -9  11  10    0.37    0.22
   9 -11 -10    0.50    0.26
 -10  12  11    1.27    0.35
  14 -10 -12    7.62    0.63
  13  -9 -11    2.80    0.43
  13  -9 -11    2.97    0.43
 -13   9  11    2.97    0.42
  12  -8 -10   18.39    0.88
  12  -8 -10   18.18    0.89
 -12   8  10   17.92    0.87
  11  -7  -9   12.65    0.68
  11  -7  -9   12.95    0.68
 -11   7   9   12.28    0.66
  10  -6  -8    6.03    0.45
  10  -6  -8    5.64    0.42
 -10   6   8    6.19    0.35
 -10   6   8    6.39    0.36
 -10   6   8    6.92    0.45
   9  -5  -7   11.91    0.57
   9  -5  -7   11.99    0.59
  -9   5   7   13.58    0.51
  -9   5   7   12.65    0.48
  -9   5   7   12.75    0.59
   8  -4  -6  173.34    4.29
   8  -4  -6  165.01    4.18
  -8   4   6  174.80    3.98
  -8   4   6  172.87    4.44
  -8   4   6  170.03    4.10
   7  -3  -5   11.21    0.45
   7  -3  -5   10.35    0.44
  -7   3   5    7.95    0.36
  -7   3   5   10.34    0.43
  -7   3   5    9.08    0.36
   6  -2  -4    6.22    0.30
   6  -2  -4    6.52    0.32
  -6   2   4    6.27    0.29
  -6   2   4    6.06    0.28
  -6   2   4    6.68    0.28
   5  -1  -3   32.95    0.91
   5  -1  -3   34.43    0.94
  -5   1   3   34.07    0.93
  -5   1   3   33.72    0.88
  -5   1   3   34.77    0.91
   4   0  -2  196.31    4.65
  -4   0   2  195.11    4.80
  -4   0   2  197.05    4.55
   3   1  -1    0.15    0.05
   3   1  -1    0.18    0.03
  -3  -1   1    0.22    0.05
   2   2   0   66.45    1.69
   2   2   0   69.71    1.74
  -2  -2   0   69.07    1.61
   1   3   1    0.18    0.09
   1   3   1    0.09    0.09
   1   3   1    0.24    0.10
   0   4   2  173.27    4.14
   0   4   2  171.46    4.34
   0   4   2  167.54    4.04
  -1   5   3    0.29    0.11
  -1   5   3    0.40    0.10
  -1   5   3    0.25    0.10
  -2   6   4   -0.10    0.08
  -2   6   4   -0.01    0.09
  -2   6   4    0.00    0.10
  -3   7   5   10.31    0.55
  -3   7   5   12.06    0.53
  -3   7   5   11.29    0.54
  -4   8   6   41.46    1.43
  -4   8   6   42.77    1.32
  -4   8   6   42.12    1.36
  -5   9   7   10.26    0.61
  -5   9   7   10.80    0.59
  -5   9   7    9.57    0.55
  -6  10   8   18.08    0.82
  -6  10   8   17.15    0.88
  -6  10   8   16.78    0.81
  -7  11   9    0.88    0.26
  -7  11   9    0.58    0.24
  -8  12  10    0.02    0.23
  16 -10 -13    1.38    0.37
  15  -9 -12    4.33    0.55
  15  -9 -12    4.65    0.54
 -15   9  12    3.77    0.48
  14  -8 -11    0.22    0.21
  14  -8 -11    0.20    0.19
 -14   8  11    0.38    0.22
  13  -7 -10   90.89    2.60
  13  -7 -10   89.89    2.66
 -13   7  10   90.54    2.70
  12  -6  -9    1.62    0.29
  12  -6  -9    1.58    0.30
 -12   6   9    1.70    0.24
 -12   6   9    1.75    0.28
 -12   6   9    1.42    0.23
  11  -5  -8    7.30    0.48
  11  -5  -8    7.44    0.48
 -11   5   8    8.35    0.41
 -11   5   8    7.05    0.44
 -11   5   8    7.70    0.41
  10  -4  -7    5.55    0.38
 -10   4   7    3.68    0.25
 -10   4   7    3.68    0.26
   9  -3  -6    0.16    0.12
   9  -3  -6    0.36    0.12
  -9   3   6    0.18    0.10
  -9   3   6    0.26    0.11
  -9   3   6    0.10    0.08
   8  -2  -5   59.35    1.58
   8  -2  -5   59.27    1.63
  -8   2   5   61.31    1.63
  -8   2   5   58.98    1.51
  -8   2   5   58.08    1.56
   7  -1  -4    2.22    0.21
   7  -1  -4    2.13    0.20
  -7   1   4    2.45    0.18
  -7   1   4    2.21    0.18
  -7   1   4    2.24    0.15
   6   0  -3    0.00    0.06
   6   0  -3    0.13    0.07
  -6   0   3    0.03    0.04
  -6   0   3    0.32    0.09
  -6   0   3    0.01    0.06
   5   1  -2  247.50    5.79
   5   1  -2  254.86    5.93
  -5  -1   2  244.18    5.62
  -5  -1   2  252.80    5.79
   4   2  -1  115.25    2.84
   4   2  -1  111.59    2.73
   4   2  -1  116.16    2.80
  -4  -2   1  114.93    2.70
   3   3   0   71.13    1.79
   3   3   0   74.83    1.89
   3   3   0   72.57    1.84
  -3  -3   0   72.33    1.72
   2   4   1    5.48    0.26
   2   4   1    4.92    0.26
   2   4   1    4.97    0.26
  -2  -4  -1    5.05    0.16
   1   5   2   80.28    2.08
   1   5   2   79.85    2.17
   1   5   2   79.08    2.02
   0   6   3   12.19    0.52
   0   6   3   13.69    0.53
   0   6   3   12.81    0.56
  -1   7   4    3.66    0.30
  -1   7   4    3.60    0.31
  -1   7   4    4.06    0.29
  -2   8   5    0.59    0.18
  -2   8   5    0.41    0.17
  -2   8   5    0.31    0.17
  -3   9   6    1.15    0.26
  -3   9   6    1.24    0.24
  -3   9   6    1.54    0.27
  -4  10   7    1.92    0.32
  -4  10   7    1.71    0.32
  -4  10   7    1.95    0.31
  -5  11   8    6.81    0.53
  -5  11   8    6.75    0.55
  -5  11   8    7.76    0.54
  -6  12   9   -0.14    0.21
  -6  12   9   -0.02    0.19
  -6  12   9   -0.13    0.20
  -7  13  10   -0.31    0.21
  17  -9 -13    1.03    0.32
  16  -8 -12    0.48    0.23
  16  -8 -12    0.54    0.27
 -16   8  12    0.69    0.25
  15  -7 -11    1.16    0.30
  15  -7 -11    2.19    0.36
 -15   7  11    1.80    0.32
  14  -6 -10   98.90    2.81
  14  -6 -10   94.12    2.70
 -14   6  10   99.68    2.54
 -14   6  10   95.31    2.81
 -14   6  10   97.79    2.61
  13  -5  -9   15.77    0.72
  13  -5  -9   16.25    0.70
 -13   5   9   11.19    0.56
 -13   5   9   11.78    0.55
  12  -4  -8   84.97    2.38
  12  -4  -8   88.05    2.33
 -12   4   8   84.21    2.38
 -12   4   8   82.17    2.25
 -12   4   8   84.46    2.18
  11  -3  -7   76.61    2.07
  11  -3  -7   75.72    2.13
 -11   3   7   74.63    2.03
 -11   3   7   76.78    1.97
 -11   3   7   76.49    2.11
  10  -2  -6    6.68    0.37
  10  -2  -6    6.70    0.39
 -10   2   6    6.35    0.32
 -10   2   6    6.86    0.35
 -10   2   6    7.09    0.37
   9  -1  -5    0.66    0.14
   9  -1  -5    0.60    0.14
  -9   1   5    0.60    0.10
  -9   1   5    0.73    0.14
  -9   1   5    0.78    0.14
   8   0  -4    0.20    0.10
   8   0  -4    0.08    0.09
  -8   0   4    0.10    0.09
  -8   0   4    0.18    0.06
  -8   0   4    0.16    0.09
   7   1  -3    2.26    0.19
   7   1  -3    1.59    0.17
  -7  -1   3    1.77    0.10
  -7  -1   3    2.11    0.19
  -7  -1   3    1.98    0.16
   6   2  -2    3.45    0.22
   6   2  -2    3.54    0.15
   6   2  -2    3.48    0.21
  -6  -2   2    3.46    0.21
  -6  -2   2    3.81    0.20
   5   3  -1    2.80    0.16
   5   3  -1    2.45    0.19
   5   3  -1    2.51    0.20
  -5  -3   1    2.55    0.16
  -5  -3   1    2.47    0.16
   4   4   0  151.89    3.74
   4   4   0  144.43    3.53
   4   4   0  143.32    3.62
  -4  -4   0  149.92    3.43
   3   5   1    8.46    0.37
   3   5   1    8.56    0.40
  -3  -5  -1    8.90    0.26
   2   6   2  258.97    6.62
   2   6   2  265.54    6.20
   2   6   2  260.72    6.34
   1   7   3   14.52    0.65
   1   7   3   15.97    0.63
   1   7   3   14.12    0.58
   0   8   4    0.60    0.17
   0   8   4    0.46    0.18
   0   8   4    0.61    0.18
  -1   9   5   10.66    0.60
  -1   9   5   10.65    0.57
  -1   9   5   10.86    0.56
  -2  10   6    0.35    0.19
  -2  10   6    0.26    0.19
  -2  10   6    0.41    0.20
  -3  11   7    0.19    0.19
  -3  11   7    0.70    0.25
  -3  11   7    0.44    0.22
  -4  12   8    8.54    0.61
  -4  12   8    8.72    0.61
  -4  12   8    8.61    0.65
  -5  13   9    2.67    0.42
  18  -8 -13    2.97    0.46
  17  -7 -12    1.42    0.33
  17  -7 -12    1.90    0.36
 -17   7  12    1.45    0.31
  16  -6 -11   -0.12    0.16
  16  -6 -11   -0.02    0.19
 -16   6  11   -0.03    0.15
 -16   6  11   -0.02    0.16
 -16   6  11    0.02    0.16
  15  -5 -10   21.42    0.93
  15  -5 -10   19.16    0.87
 -15   5  10   20.40    0.86
 -15   5  10   20.93    0.81
 -15   5  10   19.90    0.83
  14  -4  -9   33.78    1.19
  14  -4  -9   34.27    1.17
 -14   4   9   29.77    1.09
 -14   4   9   32.67    1.10
 -14   4   9   31.55    1.06
  13  -3  -8   23.04    0.88
  13  -3  -8   23.07    0.91
 -13   3   8   22.89    0.85
 -13   3   8   23.74    0.84
 -13   3   8   24.30    0.84
  12  -2  -7    4.15    0.34
  12  -2  -7    4.10    0.34
 -12   2   7    3.84    0.29
 -12   2   7    4.26    0.31
 -12   2   7    4.04    0.26
  11  -1  -6    2.16    0.25
  11  -1  -6    2.21    0.24
 -11   1   6    2.30    0.25
 -11   1   6    2.16    0.17
 -11   1   6    2.16    0.25
  10   0  -5    0.03    0.10
  10   0  -5   -0.07    0.07
 -10   0   5    0.02    0.05
 -10   0   5    0.02    0.09
 -10   0   5    0.02    0.09
   9   1  -4   56.88    1.53
   9   1  -4   58.58    1.58
  -9  -1   4   55.08    1.53
  -9  -1   4   58.53    1.49
  -9  -1   4   56.51    1.47
   8   2  -3   31.34    0.83
   8   2  -3   30.84    0.94
   8   2  -3   31.56    0.92
  -8  -2   3   30.97    0.91
  -8  -2   3   29.58    0.87
   7   3  -2  289.36    7.07
   7   3  -2  296.12    6.76
   7   3  -2  282.04    6.91
  -7  -3   2  283.50    6.51
  -7  -3   2  290.16    6.71
   6   4  -1   79.73    2.15
   6   4  -1   81.93    2.10
   6   4  -1   85.76    2.15
  -6  -4   1   81.15    1.95
  -6  -4   1   83.01    2.02
   5   5   0    7.24    0.35
   5   5   0    7.04    0.34
   5   5   0    6.65    0.36
  -5  -5   0    7.19    0.27
   4   6   1   34.81    1.04
   4   6   1   32.57    1.07
   4   6   1   33.63    1.07
  -4  -6  -1   35.21    0.85
   3   7   2    4.72    0.35
   3   7   2    4.92    0.34
   3   7   2    5.59    0.35
   2   8   3    1.07    0.22
   2   8   3    0.86    0.19
   2   8   3    0.79    0.19
   1   9   4    3.17    0.35
   1   9   4    2.62    0.32
   1   9   4    2.92    0.35
   0  10   5    1.91    0.31
   0  10   5    2.23    0.33
   0  10   5    2.07    0.31
  -1  11   6    0.35    0.19
  -1  11   6    0.56    0.23
  -1  11   6    0.48    0.22
  -2  12   7    0.13    0.19
  -2  12   7    0.83    0.26
  -2  12   7    0.42    0.24
  -3  13   8    6.09    0.60
  19  -7 -13    2.22    0.41
  18  -6 -12    0.37    0.23
  18  -6 -12    0.29    0.23
 -18   6  12    0.46    0.21
  17  -5 -11    0.01    0.18
  17  -5 -11    0.14    0.19
 -17   5  11    0.02    0.17
 -17   5  11    0.16    0.18
  16  -4 -10   17.14    0.82
  16  -4 -10   17.57    0.85
 -16   4  10   19.16    0.81
 -16   4  10   18.20    0.76
 -16   4  10   18.20    0.77
  15  -3  -9    7.09    0.51
  15  -3  -9    7.49    0.50
 -15   3   9    7.28    0.46
 -15   3   9    6.44    0.40
 -15   3   9    6.88    0.45
  14  -2  -8   40.38    1.30
  14  -2  -8   39.52    1.34
 -14   2   8   41.50    1.26
 -14   2   8   40.89    1.24
 -14   2   8   40.71    1.29
  13  -1  -7    0.27    0.15
  13  -1  -7    0.19    0.13
 -13   1   7    0.37    0.15
 -13   1   7   -0.04    0.11
 -13   1   7    0.13    0.09
  12   0  -6    2.38    0.28
  12   0  -6    2.24    0.26
 -12   0   6    1.95    0.16
 -12   0   6    2.10    0.26
 -12   0   6    2.13    0.24
  11   1  -5    5.20    0.34
  11   1  -5    5.61    0.33
 -11  -1   5    4.84    0.22
 -11  -1   5    5.10    0.33
 -11  -1   5    4.39    0.29
  10   2  -4   62.75    1.79
  10   2  -4   65.46    1.75
  10   2  -4   66.12    1.67
 -10  -2   4   66.28    1.69
 -10  -2   4   63.57    1.74
   9   3  -3    0.06    0.10
   9   3  -3    0.05    0.09
   9   3  -3    0.35    0.08
  -9  -3   3    0.10    0.10
  -9  -3   3    0.13    0.10
   8   4  -2   63.66    1.64
   8   4  -2   59.08    1.66
   8   4  -2   60.26    1.71
  -8  -4   2   62.93    1.61
  -8  -4   2   62.42    1.56
   7   5  -1   24.24    0.76
   7   5  -1   22.77    0.81
   7   5  -1   24.20    0.80
  -7  -5   1   22.99    0.68
  -7  -5   1   24.26    0.71
   6   6   0   20.49    0.73
   6   6   0   20.18    0.75
   6   6   0   20.38    0.72
  -6  -6   0   20.31    0.58
  -6  -6   0   20.68    0.60
   5   7   1    5.03    0.36
   5   7   1    5.47    0.35
   5   7   1    4.88    0.33
   4   8   2   24.45    0.91
   4   8   2   24.84    0.89
   4   8   2   23.49    0.91
   3   9   3    0.32    0.17
   3   9   3    0.20    0.17
   3   9   3    0.20    0.15
   2  10   4   20.09    0.84
   2  10   4   21.03    0.91
   2  10   4   19.79    0.86
   1  11   5    0.82    0.25
   1  11   5    0.28    0.20
   1  11   5    0.31    0.21
   0  12   6    0.12    0.20
   0  12   6    0.36    0.21
   0  12   6    0.32    0.21
  -1  13   7    1.25    0.33
  -1  13   7    1.76    0.37
  -1  13   7    1.42    0.32
  20  -6 -13    0.09    0.22
 -20   6  13    0.34    0.22
  19  -5 -12    0.28    0.24
  19  -5 -12    0.27    0.22
 -19   5  12    0.53    0.24
 -19   5  12    0.17    0.21
  18  -4 -11    2.47    0.39
  18  -4 -11    2.67    0.39
 -18   4  11    2.52    0.36
 -18   4  11    2.84    0.37
  17  -3 -10    0.49    0.21
  17  -3 -10    0.33    0.21
 -17   3  10    0.64    0.21
 -17   3  10    0.52    0.21
  16  -2  -9    0.01    0.15
  16  -2  -9   -0.10    0.15
 -16   2   9    0.00    0.15
 -16   2   9    0.10    0.15
  15  -1  -8   51.62    1.63
  15  -1  -8   52.10    1.59
 -15   1   8   51.45    1.58
 -15   1   8   52.69    1.54
  14   0  -7   -0.02    0.13
  14   0  -7    0.19    0.15
 -14   0   7   -0.08    0.11
 -14   0   7   -0.03    0.11
  13   1  -6    1.74    0.25
  13   1  -6    0.97    0.20
 -13  -1   6    1.12    0.20
 -13  -1   6    1.02    0.19
  12   2  -5   20.46    0.75
  12   2  -5   19.58    0.76
 -12  -2   5   20.18    0.72
 -12  -2   5   19.90    0.75
  11   3  -4    0.68    0.17
  11   3  -4    0.72    0.09
  11   3  -4    0.55    0.16
 -11  -3   4    0.63    0.15
 -11  -3   4    0.41    0.14
  10   4  -3   15.98    0.50
  10   4  -3   14.78    0.63
  10   4  -3   14.24    0.60
 -10  -4   3   15.20    0.58
 -10  -4   3   15.99    0.57
   9   5  -2   49.11    1.49
   9   5  -2   49.58    1.45
   9   5  -2   51.65    1.39
  -9  -5   2   50.85    1.32
  -9  -5   2   49.17    1.36
   8   6  -1    1.09    0.20
   8   6  -1    1.02    0.16
   8   6  -1    0.85    0.18
  -8  -6   1    1.01    0.15
  -8  -6   1    1.00    0.14
   7   7   0   21.86    0.79
   7   7   0   22.49    0.85
   7   7   0   21.84    0.81
   6   8   1    5.64    0.40
   6   8   1    5.56    0.38
   6   8   1    5.83    0.42
   5   9   2   22.76    0.92
   5   9   2   22.58    0.89
   4  10   3    5.84    0.46
   4  10   3    6.49    0.46
   4  10   3    6.21    0.46
   3  11   4   31.04    1.24
   3  11   4   30.68    1.20
   3  11   4   33.42    1.19
   2  12   5    0.30    0.22
   2  12   5    0.14    0.20
   2  12   5   -0.16    0.18
   1  13   6    5.77    0.65
  21  -5 -13    0.00    0.24
 -21   5  13    0.67    0.28
 -21   5  13    0.41    0.24
  20  -4 -12    4.13    0.50
  20  -4 -12    3.79    0.48
 -20   4  12    3.59    0.44
 -20   4  12    3.77    0.44
  19  -3 -11    1.50    0.32
  19  -3 -11    2.18    0.35
 -19   3  11    2.25    0.35
 -19   3  11    1.91    0.32
  18  -2 -10    0.49    0.20
  18  -2 -10    0.51    0.22
 -18   2  10    0.12    0.18
 -18   2  10    0.34    0.19
  17  -1  -9    0.45    0.21
  17  -1  -9    0.62    0.22
 -17   1   9    0.48    0.21
 -17   1   9    0.28    0.19
  16   0  -8   36.73    1.31
  16   0  -8   38.17    1.28
 -16   0   8   38.54    1.24
 -16   0   8   37.06    1.27
  15   1  -7    0.19    0.15
  15   1  -7   -0.06    0.13
 -15  -1   7   -0.04    0.13
 -15  -1   7   -0.02    0.15
  14   2  -6    0.19    0.14
  14   2  -6   -0.10    0.10
 -14  -2   6   -0.04    0.13
 -14  -2   6    0.28    0.16
  13   3  -5   25.70    0.95
  13   3  -5   25.75    0.92
 -13  -3   5   26.33    0.91
 -13  -3   5   25.97    0.88
  12   4  -4    7.70    0.44
  12   4  -4    8.10    0.47
 -12  -4   4    8.16    0.44
 -12  -4   4    8.05    0.42
  11   5  -3    9.75    0.50
  11   5  -3    9.33    0.51
 -11  -5   3    9.50    0.44
 -11  -5   3    8.87    0.44
  10   6  -2   48.78    1.49
  10   6  -2   51.30    1.55
 -10  -6   2   48.08    1.37
 -10  -6   2   49.59    1.32
   9   7  -1   20.17    0.83
   9   7  -1   20.26    0.80
   9   7  -1   20.54    0.73
   8   8   0   -0.14    0.12
   8   8   0    0.22    0.16
   8   8   0    0.00    0.12
   7   9   1    2.14    0.32
   7   9   1    2.12    0.31
   7   9   1    2.18    0.29
   6  10   2    2.59    0.35
   6  10   2    1.90    0.31
   6  10   2    1.76    0.29
   5  11   3    2.80    0.38
   5  11   3    2.46    0.36
   5  11   3    2.43    0.38
   4  12   4    5.73    0.47
   4  12   4    5.65    0.49
   4  12   4    5.49    0.54
   3  13   5    0.01    0.22
   3  13   5    0.21    0.22
   3  13   5    0.37    0.25
   2  14   6   -0.24    0.21
  22  -4 -13    1.27    0.34
 -22   4  13    1.95    0.37
 -22   4  13    1.33    0.33
  21  -3 -12    1.10    0.33
  21  -3 -12    1.63    0.35
 -21   3  12    2.00    0.36
 -21   3  12    1.84    0.36
  20  -2 -11   13.45    0.76
  20  -2 -11   13.77    0.78
 -20   2  11   13.75    0.76
 -20   2  11   13.87    0.74
  19  -1 -10    0.10    0.19
  19  -1 -10   -0.07    0.16
 -19   1  10    0.19    0.18
 -19   1  10   -0.14    0.15
  18   0  -9   -0.10    0.13
  18   0  -9   -0.02    0.16
 -18   0   9   -0.15    0.14
 -18   0   9   -0.04    0.14
  17   1  -8   18.22    0.80
  17   1  -8   18.77    0.84
 -17  -1   8   17.67    0.78
 -17  -1   8   19.44    0.83
  16   2  -7    0.11    0.16
  16   2  -7    0.10    0.14
 -16  -2   7    0.02    0.15
 -16  -2   7    0.06    0.14
  15   3  -6    0.95    0.21
  15   3  -6    0.48    0.18
 -15  -3   6    0.55    0.19
 -15  -3   6    0.48    0.17
  14   4  -5   13.95    0.65
  14   4  -5   13.27    0.66
 -14  -4   5   14.44    0.64
 -14  -4   5   14.12    0.62
  13   5  -4    0.22    0.14
  13   5  -4    0.12    0.15
 -13  -5   4   -0.04    0.14
 -13  -5   4   -0.02    0.13
  12   6  -3    2.79    0.36
  12   6  -3    2.23    0.31
 -12  -6   3    1.72    0.25
 -12  -6   3    1.81    0.23
  11   7  -2   37.31    1.27
  11   7  -2   39.09    1.33
  10   8  -1    7.18    0.49
  10   8  -1    6.93    0.48
   9   9   0    4.65    0.48
   9   9   0    3.30    0.39
   8  10   1    2.60    0.37
   8  10   1    2.17    0.33
   7  11   2    1.59    0.32
   7  11   2    2.27    0.36
   6  12   3    0.58    0.25
   6  12   3    0.50    0.24
   5  13   4    4.18    0.51
   4  14   5    0.25    0.23
  23  -3 -13    0.10    0.24
 -23   3  13   -0.29    0.20
  22  -2 -12    5.17    0.56
  22  -2 -12    5.01    0.57
 -22   2  12    6.27    0.61
 -22   2  12    5.53    0.55
  21  -1 -11    1.48    0.32
  21  -1 -11    0.93    0.29
 -21   1  11    0.97    0.30
 -21   1  11    1.24    0.32
  20   0 -10    0.58    0.24
  20   0 -10    0.41    0.23
 -20   0  10    0.67    0.25
 -20   0  10    0.54    0.22
  19   1  -9   -0.13    0.16
  19   1  -9   -0.08    0.15
 -19  -1   9   -0.26    0.14
 -19  -1   9    0.11    0.20
  18   2  -8   25.00    1.02
  18   2  -8   26.72    1.07
 -18  -2   8   26.65    1.01
 -18  -2   8   27.97    1.07
  17   3  -7    6.67    0.48
  17   3  -7    7.06    0.50
 -17  -3   7    7.64    0.49
 -17  -3   7    6.58    0.48
  16   4  -6   25.57    1.03
  16   4  -6   26.82    1.02
 -16  -4   6   27.64    1.01
 -16  -4   6   25.76    0.96
  15   5  -5    0.07    0.16
  15   5  -5    0.07    0.15
 -15  -5   5   -0.12    0.13
 -15  -5   5   -0.11    0.15
  14   6  -4    0.00    0.14
  14   6  -4    0.32    0.18
 -14  -6   4    0.24    0.16
 -14  -6   4    0.02    0.13
  13   7  -3    3.94    0.42
  13   7  -3    3.58    0.42
  12   8  -2   22.72    0.98
  12   8  -2   24.81    0.99
  11   9  -1   11.38    0.65
  11   9  -1   10.98    0.66
  10  10   0   12.18    0.70
  10  10   0   12.62    0.73
   9  11   1    5.53    0.55
   9  11   1    5.23    0.54
   8  12   2    3.03    0.44
   8  12   2    3.84    0.48
   7  13   3    0.32    0.26
  24  -2 -13    4.26    0.54
 -24   2  13    4.16    0.53
  23  -1 -12   11.71    0.75
 -23   1  12   11.59    0.73
  22   0 -11   -0.21    0.18
  22   0 -11   -0.24    0.17
 -22   0  11   -0.03    0.22
 -22   0  11   -0.14    0.21
  21   1 -10    4.45    0.50
  21   1 -10    5.40    0.54
 -21  -1  10    3.67    0.47
 -21  -1  10    4.90    0.52
  20   2  -9    8.34    0.59
  20   2  -9    8.51    0.58
 -20  -2   9    7.10    0.53
 -20  -2   9    7.09    0.54
  19   3  -8    6.20    0.50
  19   3  -8    5.03    0.50
 -19  -3   8    5.84    0.53
 -19  -3   8    4.48    0.46
  18   4  -7   22.65    0.99
  18   4  -7   22.64    1.00
 -18  -4   7   26.11    1.01
 -18  -4   7   23.70    0.94
  17   5  -6   29.79    1.18
  17   5  -6   31.29    1.16
 -17  -5   6   29.37    1.10
 -17  -5   6   29.45    1.06
  16   6  -5    0.08    0.18
  16   6  -5    0.38    0.20
 -16  -6   5   -0.09    0.14
 -16  -6   5   -0.11    0.14
  15   7  -4    2.92    0.38
  15   7  -4    3.13    0.41
  14   8  -3    4.67    0.50
  14   8  -3    3.68    0.44
  13   9  -2   -0.11    0.15
  13   9  -2    0.22    0.20
  12  10  -1    0.22    0.22
  12  10  -1    0.21    0.19
  11  11   0    9.70    0.66
  11  11   0    9.45    0.67
  10  12   1    0.16    0.23
  10  12   1    0.05    0.22
   9  13   2   -0.13    0.20
  25  -1 -13    1.53    0.38
 -25   1  13    1.50    0.36
  24   0 -12    9.97    0.70
 -24   0  12    9.49    0.68
  23   1 -11    0.20    0.23
  23   1 -11    0.21    0.21
 -23  -1  11    0.24    0.24
 -23  -1  11   -0.26    0.19
  22   2 -10   -0.20    0.17
  22   2 -10    0.37    0.22
 -22  -2  10    0.31    0.23
 -22  -2  10    0.18    0.21
  21   3  -9    5.93    0.58
  21   3  -9    4.84    0.53
 -21  -3   9    5.01    0.53
 -21  -3   9    4.72    0.50
  20   4  -8    2.41    0.38
  20   4  -8    2.16    0.37
 -20  -4   8    2.31    0.38
 -20  -4   8    1.97    0.35
  19   5  -7   17.08    0.84
  19   5  -7   15.92    0.85
 -19  -5   7   17.44    0.82
 -19  -5   7   17.83    0.81
  18   6  -6   22.06    0.99
  18   6  -6   24.22    1.06
 -18  -6   6   23.41    0.93
 -18  -6   6   22.75    0.95
  17   7  -5    0.03    0.17
  17   7  -5    0.18    0.19
  16   8  -4    0.28    0.20
  16   8  -4    0.64    0.25
  15   9  -3    1.80    0.35
  15   9  -3    1.58    0.34
  14  10  -2    0.90    0.29
  14  10  -2    1.06    0.30
  13  11  -1    0.11    0.22
  13  11  -1   -0.21    0.19
  12  12   0    4.48    0.55
  11  13   1    1.78    0.39
  25   1 -12    8.38    0.67
 -25  -1  12    7.13    0.69
  24   2 -11    0.43    0.27
 -24  -2  11    0.15    0.25
  23   3 -10    3.21    0.47
 -23  -3  10    2.84    0.42
 -23  -3  10    3.78    0.50
  22   4  -9    3.91    0.49
 -22  -4   9    4.14    0.49
 -22  -4   9    3.73    0.47
  21   5  -8    0.39    0.24
  21   5  -8    0.69    0.25
 -21  -5   8    0.15    0.22
 -21  -5   8    0.57    0.26
  20   6  -7   -0.04    0.19
  20   6  -7    0.05    0.19
 -20  -6   7   -0.05    0.19
 -20  -6   7   -0.10    0.19
  19   7  -6   12.56    0.75
  19   7  -6   12.54    0.77
  18   8  -5    3.46    0.47
  18   8  -5    3.41    0.47
  17   9  -4    2.47    0.41
  17   9  -4    2.30    0.40
  16  10  -3    1.72    0.37
  15  11  -2    0.04    0.21
  14  12  -1   -0.10    0.23
  25   3 -11    1.03    0.33
 -25  -3  11    1.55    0.39
  24   4 -10    7.44    0.71
 -24  -4  10    8.89    0.67
  23   5  -9    0.71    0.30
 -23  -5   9    0.47    0.29
  22   6  -8   -0.27    0.18
 -22  -6   8    0.09    0.23
 -22  -6   8    0.11    0.23
  21   7  -7    0.24    0.23
  20   8  -6    1.77    0.37
  19   9  -5    1.70    0.38
  18  10  -4    2.37    0.44
  17  11  -3    0.57    0.30
  17  11  -4    5.35    0.60
  18  10  -5    4.69    0.57
  19   9  -6    0.53    0.27
  20   8  -7    1.32    0.34
 -21  -7   8   -0.10    0.22
  21   7  -8    0.24    0.24
 -22  -6   9    0.09    0.23
 -22  -6   9    0.12    0.25
  22   6  -9    0.25    0.23
 -23  -5  10   16.43    0.87
  23   5 -10   14.12    0.86
 -24  -4  11    4.15    0.53
  24   4 -11    4.25    0.56
  14  12  -2    0.06    0.24
  15  11  -3    0.70    0.31
  16  10  -4    4.75    0.54
  16  10  -4    5.12    0.57
  17   9  -5    6.23    0.61
  17   9  -5    6.26    0.63
  18   8  -6    8.42    0.64
  18   8  -6    8.04    0.61
 -19  -7   7    0.18    0.23
  19   7  -7   -0.04    0.19
  19   7  -7    0.25    0.23
 -20  -6   8   -0.20    0.18
 -20  -6   8    0.02    0.21
  20   6  -8   -0.01    0.18
  20   6  -8   -0.09    0.19
 -21  -5   9    0.65    0.26
 -21  -5   9    0.21    0.23
  21   5  -9    0.17    0.22
  21   5  -9    0.48    0.25
 -22  -4  10   11.45    0.73
 -22  -4  10   11.29    0.71
  22   4 -10   11.41    0.75
  22   4 -10   12.40    0.76
 -23  -3  11    2.74    0.44
  23   3 -11    2.25    0.41
 -24  -2  12    9.95    0.70
  24   2 -12   10.10    0.72
 -25  -1  13    1.84    0.41
  25   1 -13    0.94    0.31
  11  13   0    3.15    0.46
  12  12  -1    0.50    0.27
  13  11  -2    0.21    0.21
  13  11  -2    0.10    0.21
  14  10  -3    0.02    0.18
  14  10  -3    0.01    0.18
  15   9  -4    6.99    0.56
  15   9  -4    6.44    0.61
  16   8  -5    0.97    0.28
  16   8  -5    1.53    0.32
 -17  -7   6    5.90    0.46
  17   7  -6    5.27    0.53
  17   7  -6    5.57    0.55
 -18  -6   7    0.08    0.20
 -18  -6   7    0.10    0.20
  18   6  -7    0.30    0.19
  18   6  -7   -0.02    0.16
 -19  -5   8    2.22    0.36
 -19  -5   8    2.93    0.40
  19   5  -8    2.53    0.39
  19   5  -8    2.60    0.39
 -20  -4   9    7.70    0.56
 -20  -4   9    8.40    0.56
  20   4  -9    7.12    0.57
  20   4  -9    7.76    0.56
 -21  -3  10    1.69    0.35
 -21  -3  10    1.62    0.35
  21   3 -10    1.14    0.30
  21   3 -10    1.41    0.31
 -22  -2  11    3.45    0.45
 -22  -2  11    3.17    0.46
  22   2 -11    3.06    0.44
  22   2 -11    3.54    0.46
 -23  -1  12   10.90    0.71
  23   1 -12   10.94    0.73
 -24   0  13    0.16    0.23
  24   0 -13   -0.09    0.22
   9  13   1    0.65    0.28
  10  12   0    8.39    0.64
  10  12   0    9.53    0.66
  11  11  -1    0.23    0.23
  11  11  -1    0.27    0.22
  12  10  -2    0.17    0.19
  12  10  -2    0.00    0.18
  13   9  -3    3.99    0.46
  13   9  -3    4.47    0.50
  14   8  -4    6.36    0.51
  14   8  -4    7.12    0.53
 -15  -7   5    2.20    0.29
  15   7  -5    2.55    0.36
  15   7  -5    1.51    0.31
 -16  -6   6   12.13    0.63
 -16  -6   6   11.43    0.58
  16   6  -6   11.49    0.64
  16   6  -6   10.92    0.65
 -17  -5   7    7.27    0.49
 -17  -5   7    7.47    0.51
  17   5  -7    7.63    0.53
  17   5  -7    6.62    0.52
 -18  -4   8    1.01    0.27
 -18  -4   8    1.00    0.26
  18   4  -8    1.65    0.31
  18   4  -8    0.96    0.25
 -19  -3   9    3.83    0.44
 -19  -3   9    3.34    0.42
  19   3  -9    2.73    0.39
  19   3  -9    3.19    0.41
 -20  -2  10   -0.01    0.18
 -20  -2  10    0.32    0.24
  20   2 -10    0.30    0.21
  20   2 -10    0.18    0.19
 -21  -1  11    1.51    0.33
 -21  -1  11    1.18    0.30
  21   1 -11    0.81    0.27
  21   1 -11    1.23    0.31
 -22   0  12   11.30    0.74
 -22   0  12   11.29    0.70
  22   0 -12   10.85    0.72
  22   0 -12   11.33    0.74
 -23   1  13    1.77    0.37
  23  -1 -13    1.67    0.39
 -24   2  14    3.10    0.47
  24  -2 -14    3.80    0.53
   7  13   2    0.29    0.24
   7  13   2    0.61    0.28
   8  12   1    1.45    0.33
   8  12   1    1.53    0.33
   9  11   0   14.59    0.80
   9  11   0   15.02    0.78
  10  10  -1    3.48    0.43
  10  10  -1    3.62    0.44
  11   9  -2   15.15    0.76
  11   9  -2   14.51    0.73
  12   8  -3   11.19    0.64
  12   8  -3   10.19    0.61
  13   7  -4    2.10    0.31
  13   7  -4    2.14    0.33
 -14  -6   5   -0.10    0.13
 -14  -6   5   -0.04    0.14
  14   6  -5    0.42    0.19
  14   6  -5    0.25    0.18
 -15  -5   6   24.02    0.91
 -15  -5   6   23.49    0.87
  15   5  -6   23.68    0.95
  15   5  -6   23.21    0.96
 -16  -4   7    1.97    0.30
 -16  -4   7    1.91    0.30
  16   4  -7    2.18    0.33
  16   4  -7    1.80    0.29
 -17  -3   8    0.04    0.16
 -17  -3   8    0.09    0.16
  17   3  -8   -0.09    0.13
  17   3  -8    0.07    0.16
 -18  -2   9    0.58    0.22
 -18  -2   9    0.86    0.24
  18   2  -9    0.66    0.23
  18   2  -9    1.01    0.26
 -19  -1  10   -0.05    0.16
 -19  -1  10   -0.03    0.15
  19   1 -10   -0.02    0.18
  19   1 -10    0.09    0.17
 -20   0  11    0.02    0.20
 -20   0  11   -0.15    0.17
  20   0 -11    0.01    0.19
  20   0 -11   -0.20    0.17
 -21   1  12   15.84    0.84
 -21   1  12   16.14    0.87
  21  -1 -12   16.77    0.88
  21  -1 -12   16.68    0.90
 -22   2  13    6.63    0.62
 -22   2  13    5.85    0.59
  22  -2 -13    5.57    0.59
  22  -2 -13    6.25    0.63
 -23   3  14   -0.17    0.22
  23  -3 -14    0.08    0.25
   4  14   4    0.19    0.25
   5  13   3    0.28    0.22
   5  13   3    0.26    0.24
   6  12   2    0.25    0.21
   6  12   2    0.03    0.19
   7  11   1    0.19    0.19
   7  11   1    0.16    0.20
   8  10   0   14.71    0.73
   8  10   0   14.96    0.76
   9   9  -1    9.21    0.56
   9   9  -1    7.72    0.53
  10   8  -2   39.55    1.31
  10   8  -2   38.32    1.33
  11   7  -3    1.00    0.23
  11   7  -3    1.00    0.23
 -12  -6   4    0.40    0.16
 -12  -6   4    0.27    0.14
  12   6  -4    0.12    0.15
  12   6  -4    0.39    0.18
 -13  -5   5   29.38    0.96
 -13  -5   5   29.33    0.99
  13   5  -5   29.03    1.07
  13   5  -5   28.61    1.04
 -14  -4   6   37.41    1.21
 -14  -4   6   36.44    1.16
  14   4  -6   37.31    1.27
  14   4  -6   36.56    1.23
 -15  -3   7   39.11    1.26
 -15  -3   7   36.09    1.18
  15   3  -7   35.66    1.26
  15   3  -7   36.86    1.24
 -16  -2   8   46.61    1.50
 -16  -2   8   46.80    1.45
  16   2  -8   44.74    1.47
  16   2  -8   47.59    1.54
 -17  -1   9    0.97    0.24
 -17  -1   9    0.51    0.20
  17   1  -9    0.61    0.22
  17   1  -9    0.74    0.22
 -18   0  10    0.05    0.17
 -18   0  10   -0.07    0.16
  18   0 -10   -0.10    0.13
  18   0 -10    0.12    0.19
 -19   1  11   10.70    0.63
 -19   1  11    9.81    0.64
  19  -1 -11   10.59    0.67
  19  -1 -11   10.36    0.64
 -20   2  12    8.51    0.60
 -20   2  12    6.75    0.54
  20  -2 -12    7.42    0.57
  20  -2 -12    7.28    0.58
 -21   3  13    5.01    0.53
 -21   3  13    5.02    0.54
  21  -3 -13    4.28    0.53
  21  -3 -13    4.12    0.53
 -22   4  14   11.52    0.71
  22  -4 -14   12.49    0.79
   2  14   5    2.02    0.39
   3  13   4    9.04    0.66
   3  13   4    9.69    0.63
   3  13   4    9.61    0.65
   4  12   3    1.27    0.31
   4  12   3    1.54    0.33
   4  12   3    1.44    0.31
   5  11   2    1.83    0.32
   5  11   2    1.65    0.32
   5  11   2    2.09    0.34
   6  10   1    8.17    0.52
   6  10   1    9.09    0.55
   6  10   1    8.99    0.56
   7   9   0    0.64    0.21
   7   9   0    0.52    0.18
   7   9   0    0.70    0.20
   8   8  -1   20.62    0.86
   8   8  -1   21.80    0.85
   8   8  -1   22.18    0.82
   9   7  -2   81.17    2.25
   9   7  -2   80.61    2.30
   9   7  -2   82.92    2.26
 -10  -6   3   24.08    0.79
 -10  -6   3   24.36    0.76
  10   6  -3   22.36    0.85
  10   6  -3   22.80    0.89
 -11  -5   4    1.92    0.23
 -11  -5   4    1.96    0.24
  11   5  -4    1.98    0.27
  11   5  -4    1.52    0.24
 -12  -4   5   48.56    1.41
 -12  -4   5   48.44    1.36
  12   4  -5   48.42    1.49
  12   4  -5   46.26    1.43
 -13  -3   6   10.60    0.52
 -13  -3   6   10.15    0.49
  13   3  -6   11.06    0.54
  13   3  -6   10.03    0.54
 -14  -2   7   21.24    0.82
 -14  -2   7   21.06    0.79
  14   2  -7   18.66    0.78
  14   2  -7   20.66    0.83
 -15  -1   8   51.57    1.51
 -15  -1   8   51.59    1.56
  15   1  -8   47.16    1.52
  15   1  -8   50.80    1.60
 -16   0   9    0.06    0.16
 -16   0   9   -0.01    0.15
  16   0  -9   -0.03    0.15
  16   0  -9    0.13    0.16
 -17   1  10    5.10    0.42
 -17   1  10    5.44    0.43
  17  -1 -10    6.23    0.48
  17  -1 -10    5.44    0.44
 -18   2  11    1.23    0.27
 -18   2  11    1.84    0.32
  18  -2 -11    1.49    0.30
  18  -2 -11    1.92    0.34
 -19   3  12    5.03    0.50
 -19   3  12    4.25    0.46
  19  -3 -12    4.81    0.52
  19  -3 -12    4.72    0.51
 -20   4  13    0.23    0.22
 -20   4  13    0.34    0.23
  20  -4 -13    0.17    0.21
  20  -4 -13   -0.21    0.20
 -21   5  14    3.82    0.46
 -21   5  14    4.23    0.50
  21  -5 -14    4.64    0.56
   0  14   6    1.15    0.32
   1  13   5    0.47    0.24
   1  13   5    0.19    0.22
   1  13   5    0.24    0.25
   2  12   4   14.70    0.76
   2  12   4   14.69    0.78
   2  12   4   15.17    0.82
   3  11   3    1.94    0.33
   3  11   3    1.75    0.32
   3  11   3    1.45    0.30
   4  10   2    0.65    0.21
   4  10   2    0.58    0.21
   4  10   2    0.53    0.20
   5   9   1    4.99    0.39
   5   9   1    5.58    0.42
   6   8   0    0.21    0.14
   6   8   0   -0.14    0.11
   6   8   0    0.11    0.14
   7   7  -1   18.06    0.72
   7   7  -1   19.57    0.76
   7   7  -1   19.30    0.72
  -8  -6   2   96.13    2.29
  -8  -6   2   98.27    2.36
   8   6  -2   96.44    2.53
   8   6  -2   93.38    2.54
   8   6  -2   89.07    2.46
  -9  -5   3    8.17    0.39
  -9  -5   3    8.20    0.37
   9   5  -3    7.70    0.44
   9   5  -3    8.09    0.36
   9   5  -3    8.14    0.43
 -10  -4   4    1.34    0.20
 -10  -4   4    1.15    0.18
  10   4  -4    1.62    0.16
  10   4  -4    1.20    0.20
  10   4  -4    1.85    0.25
 -11  -3   5   71.07    1.82
 -11  -3   5   66.90    1.87
  11   3  -5   66.81    1.89
  11   3  -5   73.17    1.84
  11   3  -5   69.89    1.95
 -12  -2   6    0.12    0.13
 -12  -2   6   -0.05    0.11
  12   2  -6    0.07    0.11
  12   2  -6    0.10    0.08
  12   2  -6    0.10    0.12
 -13  -1   7    0.00    0.11
 -13  -1   7    0.09    0.08
 -13  -1   7   -0.05    0.12
  13   1  -7    0.45    0.16
  13   1  -7    0.01    0.12
 -14   0   8   41.42    1.27
 -14   0   8   41.47    1.32
  14   0  -8   41.92    1.32
  14   0  -8   41.96    1.37
 -15   1   9   21.14    0.87
 -15   1   9   22.29    0.86
  15  -1  -9   23.59    0.91
  15  -1  -9   22.51    0.92
 -16   2  10   29.76    1.06
 -16   2  10   30.38    1.11
  16  -2 -10   30.56    1.13
  16  -2 -10   31.04    1.17
 -17   3  11    4.57    0.46
 -17   3  11    4.12    0.42
  17  -3 -11    4.14    0.45
  17  -3 -11    4.68    0.49
 -18   4  12   13.23    0.70
 -18   4  12   13.74    0.72
  18  -4 -12   15.21    0.82
  18  -4 -12   11.92    0.72
 -19   5  13    0.17    0.20
 -19   5  13   -0.18    0.16
  19  -5 -13   -0.09    0.21
  19  -5 -13    0.25    0.22
  20  -6 -14    7.01    0.68
  -2  14   7    0.84    0.30
  -1  13   6    0.85    0.29
  -1  13   6    0.51    0.26
  -1  13   6    0.40    0.23
   0  12   5   -0.08    0.18
   0  12   5    0.34    0.21
   0  12   5   -0.08    0.20
   1  11   4   26.66    1.03
   1  11   4   25.96    1.11
   1  11   4   26.66    1.05
   2  10   3    1.19    0.25
   2  10   3    1.06    0.26
   2  10   3    1.58    0.27
   3   9   2    0.45    0.17
   3   9   2    0.34    0.16
   3   9   2    0.40    0.17
   4   8   1   29.80    0.99
   4   8   1   29.60    1.02
   4   8   1   29.25    1.04
   5   7   0    0.67    0.16
   5   7   0    0.41    0.14
   5   7   0    0.85    0.17
  -6  -6   1    3.45    0.20
  -6  -6   1    3.58    0.20
   6   6  -1    3.76    0.26
   6   6  -1    3.62    0.28
   6   6  -1    3.56    0.28
  -7  -5   2   67.30    1.65
  -7  -5   2   67.28    1.70
   7   5  -2   67.20    1.82
   7   5  -2   63.77    1.83
   7   5  -2   68.50    1.80
  -8  -4   3    0.19    0.10
  -8  -4   3    0.16    0.09
   8   4  -3    0.21    0.09
   8   4  -3    0.10    0.10
   8   4  -3    0.24    0.11
  -9  -3   4   71.83    1.91
  -9  -3   4   72.84    1.85
   9   3  -4   74.41    1.94
   9   3  -4   76.90    1.93
   9   3  -4   71.66    1.98
 -10  -2   5   34.68    1.02
 -10  -2   5   34.09    1.06
  10   2  -5   35.29    1.06
  10   2  -5   36.49    0.99
  10   2  -5   34.56    1.09
 -11  -1   6    2.21    0.24
 -11  -1   6    2.13    0.24
 -11  -1   6    2.16    0.16
  11   1  -6    2.58    0.27
  11   1  -6    2.23    0.26
 -12   0   7    0.04    0.11
 -12   0   7   -0.04    0.06
 -12   0   7   -0.03    0.10
  12   0  -7    0.14    0.13
  12   0  -7    0.12    0.12
 -13   1   8   63.78    1.75
 -13   1   8   64.71    1.78
 -13   1   8   63.80    1.81
  13  -1  -8   63.73    1.88
  13  -1  -8   62.52    1.81
 -14   2   9   31.99    1.03
 -14   2   9   30.20    1.03
 -14   2   9   30.04    1.06
  14  -2  -9   33.36    1.12
  14  -2  -9   30.42    1.13
 -15   3  10    2.17    0.30
 -15   3  10    2.83    0.31
 -15   3  10    2.55    0.33
  15  -3 -10    2.87    0.37
  15  -3 -10    2.53    0.34
 -16   4  11    0.37    0.19
 -16   4  11    0.14    0.17
 -16   4  11    0.17    0.16
  16  -4 -11    0.27    0.21
  16  -4 -11    0.05    0.19
 -17   5  12    2.18    0.32
 -17   5  12    2.47    0.34
  17  -5 -12    2.48    0.39
  17  -5 -12    2.60    0.41
  18  -6 -13    0.37    0.25
  18  -6 -13    0.11    0.21
  19  -7 -14   10.04    0.73
  -3  13   7   -0.14    0.20
  -3  13   7   -0.10    0.19
  -2  12   6   -0.22    0.16
  -2  12   6   -0.01    0.17
  -2  12   6   -0.20    0.17
  -1  11   5    2.22    0.34
  -1  11   5    3.37    0.40
  -1  11   5    2.72    0.39
   0  10   4    8.15    0.50
   0  10   4    7.81    0.50
   0  10   4    8.54    0.55
   1   9   3    9.08    0.50
   1   9   3    9.46    0.52
   1   9   3    9.60    0.56
   2   8   2   66.51    1.79
   2   8   2   62.75    1.83
   2   8   2   63.13    1.92
   3   7   1   10.95    0.49
   3   7   1   11.12    0.51
   3   7   1    9.98    0.49
  -4  -6   0    0.21    0.06
   4   6   0    0.10    0.10
   4   6   0   -0.03    0.05
   4   6   0    0.16    0.10
  -5  -5   1    2.43    0.16
  -5  -5   1    2.28    0.15
   5   5  -1    2.61    0.20
   5   5  -1    2.66    0.24
   5   5  -1    2.28    0.23
  -6  -4   2  209.81    4.86
  -6  -4   2  214.69    5.01
   6   4  -2  213.40    5.20
   6   4  -2  215.35    5.35
   6   4  -2  218.14    5.09
  -7  -3   3   42.57    1.14
  -7  -3   3   40.03    1.09
   7   3  -3   41.80    1.16
   7   3  -3   42.01    1.20
   7   3  -3   41.37    1.13
  -8  -2   4  182.27    4.45
  -8  -2   4  188.07    4.32
   8   2  -4  192.22    4.64
   8   2  -4  183.51    4.57
   8   2  -4  187.88    4.46
  -9  -1   5    0.79    0.15
  -9  -1   5    0.84    0.15
  -9  -1   5    0.64    0.09
   9   1  -5    0.51    0.13
   9   1  -5    0.54    0.13
 -10   0   6   13.13    0.47
 -10   0   6   14.30    0.56
 -10   0   6   12.97    0.52
  10   0  -6   13.05    0.54
  10   0  -6   12.82    0.56
 -11   1   7    3.09    0.30
 -11   1   7    2.74    0.21
 -11   1   7    3.06    0.28
  11  -1  -7    2.69    0.28
  11  -1  -7    2.72    0.30
 -12   2   8   57.26    1.59
 -12   2   8   56.48    1.64
 -12   2   8   57.82    1.66
  12  -2  -8   58.44    1.72
  12  -2  -8   57.98    1.67
 -13   3   9   29.89    1.03
 -13   3   9   30.59    1.03
 -13   3   9   30.79    1.00
  13  -3  -9   28.47    1.05
  13  -3  -9   30.52    1.10
 -14   4  10   -0.10    0.13
 -14   4  10    0.01    0.13
 -14   4  10    0.21    0.14
  14  -4 -10    0.10    0.17
  14  -4 -10   -0.03    0.16
 -15   5  11    1.46    0.26
 -15   5  11    1.20    0.25
 -15   5  11    0.68    0.21
  15  -5 -11    1.19    0.28
  15  -5 -11    1.37    0.30
 -16   6  12    1.89    0.32
  16  -6 -12    1.77    0.33
  16  -6 -12    1.72    0.33
 -17   7  13    2.04    0.36
  17  -7 -13    2.50    0.42
  17  -7 -13    1.69    0.36
  18  -8 -14    4.01    0.54
  -5  13   8    4.10    0.50
  -5  13   8    4.61    0.52
  -4  12   7    0.44    0.24
  -4  12   7    0.80    0.28
  -4  12   7    0.97    0.29
  -3  11   6   -0.06    0.18
  -3  11   6    0.05    0.18
  -3  11   6    0.05    0.19
  -2  10   5   -0.09    0.15
  -2  10   5    0.05    0.15
  -2  10   5    0.03    0.16
  -1   9   4    1.07    0.23
  -1   9   4    1.37    0.24
  -1   9   4    1.16    0.25
   0   8   3    0.15    0.11
   0   8   3    0.40    0.17
   0   8   3    0.15    0.13
   1   7   2   25.08    0.83
   1   7   2   25.87    0.92
   1   7   2   24.74    0.86
   2   6   1    5.39    0.33
   2   6   1    5.85    0.34
   2   6   1    6.05    0.32
  -3  -5   0   77.98    1.81
   3   5   0   75.39    1.95
   3   5   0   76.43    2.00
  -4  -4   1   80.35    1.95
   4   4  -1   79.71    2.08
   4   4  -1   81.64    2.03
   4   4  -1   84.16    2.15
  -5  -3   2  627.37   14.79
  -5  -3   2  619.47   14.25
   5   3  -2  655.85   14.95
   5   3  -2  635.55   14.69
   5   3  -2  651.63   15.76
  -6  -2   3    4.47    0.23
  -6  -2   3    4.64    0.23
   6   2  -3    4.56    0.25
   6   2  -3    4.65    0.21
   6   2  -3    4.09    0.25
  -7  -1   4    2.22    0.18
  -7  -1   4    1.85    0.13
  -7  -1   4    1.91    0.18
   7   1  -4    2.17    0.18
   7   1  -4    2.05    0.20
  -8   0   5    0.00    0.05
  -8   0   5    0.02    0.08
  -8   0   5    0.09    0.08
   8   0  -5    0.34    0.11
   8   0  -5    0.10    0.09
  -9   1   6    1.55    0.16
  -9   1   6    1.35    0.18
  -9   1   6    1.34    0.19
   9  -1  -6    1.47    0.19
   9  -1  -6    1.57    0.20
 -10   2   7   26.30    0.83
 -10   2   7   25.87    0.85
 -10   2   7   24.75    0.84
  10  -2  -7   26.43    0.91
  10  -2  -7   26.35    0.88
 -11   3   8    6.08    0.37
 -11   3   8    5.70    0.35
 -11   3   8    6.12    0.36
  11  -3  -8    6.20    0.40
  11  -3  -8    6.34    0.42
 -12   4   9    0.08    0.12
 -12   4   9   -0.15    0.11
 -12   4   9   -0.05    0.12
  12  -4  -9    0.04    0.15
  12  -4  -9    0.09    0.15
 -13   5  10    4.00    0.37
 -13   5  10    4.14    0.36
 -13   5  10    3.69    0.38
  13  -5 -10    3.58    0.40
  13  -5 -10    3.42    0.41
 -14   6  11    0.45    0.20
  14  -6 -11    0.50    0.23
  14  -6 -11    0.32    0.22
 -15   7  12    0.04    0.17
  15  -7 -12   -0.05    0.18
  15  -7 -12    0.38    0.22
 -16   8  13    3.45    0.46
  16  -8 -13    3.15    0.45
  16  -8 -13    2.81    0.46
  17  -9 -14    0.00    0.23
  -7  13   9   -0.01    0.21
  -6  12   8   12.43    0.73
  -6  12   8   12.67    0.71
  -6  12   8   11.92    0.78
  -5  11   7   -0.06    0.18
  -5  11   7   -0.22    0.17
  -5  11   7    0.11    0.19
  -4  10   6    0.41    0.20
  -4  10   6    0.63    0.24
  -4  10   6    0.29    0.20
  -3   9   5   11.45    0.57
  -3   9   5   10.67    0.62
  -3   9   5   11.46    0.59
  -2   8   4   13.92    0.60
  -2   8   4   13.54    0.66
  -2   8   4   15.14    0.64
  -1   7   3    9.23    0.49
  -1   7   3    9.65    0.46
  -1   7   3    9.41    0.44
   0   6   2  102.13    2.52
   0   6   2   98.72    2.58
   0   6   2  100.84    2.73
   1   5   1   39.67    1.20
   1   5   1   40.73    1.14
   1   5   1   40.59    1.11
  -2  -4   0   20.29    0.51
   2   4   0   19.65    0.60
   2   4   0   20.30    0.63
   2   4   0   19.95    0.65
  -3  -3   1  396.22    9.15
   3   3  -1  401.82    9.75
   3   3  -1  392.32    9.13
   3   3  -1  400.49    9.35
  -4  -2   2  977.51   22.30
   4   2  -2  925.77   22.21
   4   2  -2 1000.00   23.78
   4   2  -2  958.29   22.79
  -5  -1   3   33.37    0.89
  -5  -1   3   33.28    0.89
  -5  -1   3   32.66    0.86
   5   1  -3   31.89    0.89
   5   1  -3   34.85    0.93
  -6   0   4  424.54   10.22
  -6   0   4  415.05    9.35
  -6   0   4  416.02    9.63
   6   0  -4  417.86    9.85
   6   0  -4  415.38    9.63
  -7   1   5   90.50    2.26
  -7   1   5   89.75    2.35
  -7   1   5   91.78    2.18
   7  -1  -5   90.94    2.27
   7  -1  -5   90.22    2.33
  -8   2   6   21.69    0.73
  -8   2   6   23.62    0.71
  -8   2   6   23.57    0.76
   8  -2  -6   22.53    0.78
   8  -2  -6   23.85    0.77
  -9   3   7  116.04    2.93
  -9   3   7  117.16    2.84
  -9   3   7  117.95    3.12
   9  -3  -7  118.12    3.07
   9  -3  -7  119.29    2.99
 -10   4   8    3.28    0.30
 -10   4   8    2.77    0.27
 -10   4   8    4.39    0.32
  10  -4  -8    3.26    0.34
  10  -4  -8    3.19    0.34
 -11   5   9    3.20    0.30
 -11   5   9    3.37    0.36
 -11   5   9    3.34    0.31
  11  -5  -9    3.34    0.37
  11  -5  -9    3.51    0.39
 -12   6  10   28.95    1.01
 -12   6  10   32.45    1.17
  12  -6 -10   31.52    1.18
  12  -6 -10   30.50    1.15
 -13   7  11    0.81    0.24
  13  -7 -11    0.53    0.25
  13  -7 -11    1.05    0.27
 -14   8  12    0.18    0.19
  14  -8 -12    0.23    0.21
  14  -8 -12    0.01    0.20
 -15   9  13    9.59    0.69
  15  -9 -13    9.84    0.71
  -9  13  10    0.98    0.33
   8 -12  -9    0.47    0.25
  -8  12   9    0.22    0.21
  -7  11   8   13.20    0.69
  -7  11   8   10.55    0.70
  -6  10   7    1.20    0.28
  -6  10   7    1.55    0.30
  -6  10   7    1.83    0.32
  -5   9   6   13.80    0.66
  -5   9   6   14.31    0.68
  -5   9   6   15.03    0.75
  -4   8   5    0.39    0.16
  -4   8   5    0.31    0.17
  -4   8   5    0.31    0.15
  -3   7   4    0.05    0.10
  -3   7   4    0.14    0.12
  -3   7   4    0.15    0.12
  -2   6   3    0.42    0.12
  -2   6   3    0.84    0.18
  -2   6   3    0.81    0.15
  -1   5   2   79.66    2.01
  -1   5   2   79.83    2.19
  -1   5   2   81.49    2.07
   0   4   1   55.03    1.40
   0   4   1   55.82    1.53
   0   4   1   54.47    1.43
  -1  -3   0  100.39    2.34
   1   3   0  101.10    2.60
   1   3   0  103.94    2.48
  -2  -2   1    0.40    0.06
   2   2  -1    0.50    0.08
  -3  -1   2   48.72    1.18
  -3  -1   2   46.19    1.23
   3   1  -2   49.46    1.21
  -4   0   3    0.30    0.08
  -4   0   3   -0.01    0.04
   4   0  -3    0.02    0.07
  -5   1   4   25.43    0.70
  -5   1   4   25.81    0.75
  -5   1   4   25.38    0.72
   5  -1  -4   25.28    0.73
   5  -1  -4   25.41    0.76
  -6   2   5    9.33    0.36
  -6   2   5    8.77    0.34
  -6   2   5    9.08    0.37
   6  -2  -5    8.41    0.39
   6  -2  -5    8.98    0.38
  -7   3   6   67.92    1.75
  -7   3   6   66.58    1.89
  -7   3   6   68.16    1.69
   7  -3  -6   70.39    1.82
   7  -3  -6   67.38    1.86
  -8   4   7   46.24    1.40
  -8   4   7   44.61    1.26
  -8   4   7   46.50    1.22
   8  -4  -7   44.26    1.35
   8  -4  -7   46.10    1.39
  -9   5   8    7.01    0.37
  -9   5   8    5.82    0.40
  -9   5   8    7.82    0.37
   9  -5  -8    7.00    0.45
   9  -5  -8    7.47    0.46
 -10   6   9    0.01    0.13
 -10   6   9    0.08    0.13
  10  -6  -9    0.08    0.15
  10  -6  -9    0.14    0.16
 -11   7  10   35.53    1.32
  11  -7 -10   36.03    1.33
  11  -7 -10   36.00    1.30
  12  -8 -11    5.03    0.53
  12  -8 -11    4.03    0.48
 -13   9  12   -0.18    0.16
  13  -9 -12    0.33    0.23
  13  -9 -12   -0.04    0.18
  14 -10 -13    3.74    0.52
 -10  12  10    1.40    0.36
   9 -11  -9    0.21    0.22
  -9  11   9    0.07    0.20
  -9  11   9   -0.17    0.15
   8 -10  -8   27.10    1.12
  -8  10   8   25.59    1.13
  -8  10   8   25.91    1.03
  -7   9   7   -0.13    0.13
  -7   9   7   -0.08    0.15
  -6   8   6   13.48    0.61
  -6   8   6   14.65    0.65
  -6   8   6   13.39    0.68
  -5   7   5    3.20    0.31
  -5   7   5    2.60    0.32
  -5   7   5    2.70    0.29
  -4   6   4    0.61    0.16
  -4   6   4    0.58    0.14
  -4   6   4    0.84    0.09
  -4   6   4    0.70    0.14
  -3   5   3   84.98    2.34
  -3   5   3   87.44    2.15
  -3   5   3   86.57    2.02
  -3   5   3   83.82    2.20
  -2   4   2   11.36    0.31
  -2   4   2   10.51    0.44
  -2   4   2   10.94    0.39
  -2   4   2   10.91    0.40
  -1   3   1  125.42    2.80
  -1   3   1  121.92    2.94
  -1   3   1  117.94    3.10
   0  -2   0  349.72    7.99
   0   2   0  357.43    8.24
   0   2   0  343.19    8.61
  -1  -1   1  215.10    5.03
   1   1  -1  217.16    5.12
  -2   0   2    0.92    0.07
  -2   0   2    1.00    0.07
   2   0  -2    1.00    0.08
  -3   1   3    2.80    0.15
   3  -1  -3    2.72    0.17
  -4   2   4  368.98    9.14
  -4   2   4  360.79    8.54
  -4   2   4  365.60    8.27
  -4   2   4  373.31    8.59
   4  -2  -4  386.04    8.77
  -5   3   5  202.92    5.06
  -5   3   5  203.08    4.67
  -5   3   5  192.09    4.71
  -5   3   5  201.32    4.53
   5  -3  -5  197.04    4.85
  -6   4   6   61.16    1.60
  -6   4   6   65.17    1.69
  -6   4   6   62.64    1.55
  -6   4   6   61.57    1.80
   6  -4  -6   63.74    1.76
  -7   5   7    0.20    0.13
  -7   5   7    0.19    0.10
  -7   5   7    0.11    0.09
  -7   5   7    0.14    0.12
   7  -5  -7    0.48    0.15
  -8   6   8   11.03    0.45
  -8   6   8   10.40    0.56
  -8   6   8   10.42    0.53
   8  -6  -8   11.00    0.58
  -9   7   9    6.07    0.45
  -9   7   9    5.24    0.43
   9  -7  -9    5.49    0.45
 -10   8  10   12.46    0.70
  10  -8 -10   11.47    0.69
 -11   9  11    1.41    0.31
  11  -9 -11    1.98    0.37
  11  -9 -11    1.39    0.32
 -12  10  12    5.00    0.56
  12 -10 -12    6.67    0.65
  12 -10 -12    5.99    0.63
  13 -11 -13    0.38    0.29
  12 -12 -11    0.41    0.26
  11 -11 -10   -0.06    0.19
  11 -11 -10   -0.05    0.19
 -11  11  10   -0.01    0.19
  10 -10  -9    0.23    0.22
 -10  10   9    0.77    0.25
 -10  10   9    0.56    0.23
   9  -9  -8   23.93    1.02
  -9   9   8   23.13    1.02
  -9   9   8   23.05    0.94
   8  -8  -7    3.87    0.42
  -8   8   7    3.69    0.38
  -8   8   7    3.88    0.42
   7  -7  -6   41.77    1.35
  -7   7   6   40.41    1.26
  -7   7   6   42.34    1.40
  -6   6   5    0.95    0.13
  -6   6   5    1.05    0.19
  -6   6   5    1.05    0.18
  -6   6   5    0.84    0.12
  -5   5   4    1.34    0.19
  -5   5   4    1.41    0.13
  -5   5   4    1.33    0.17
  -5   5   4    1.10    0.18
  -5   5   4    1.38    0.14
  -4   4   3   53.77    1.43
  -4   4   3   55.67    1.33
  -4   4   3   51.67    1.39
  -4   4   3   53.62    1.53
  -3   3   2  288.06    7.10
  -3   3   2  316.56    7.07
  -3   3   2  314.18    7.28
  -3   3   2  315.73    7.64
  -2   2   1    0.53    0.09
  -2   2   1    0.53    0.06
   1  -1   0  257.51    5.93
  -1   1   0  258.18    6.44
  -1   1   0  256.50    6.05
   0   0   1    0.00    0.01
   0   0   1    0.00    0.01
   0   0   1    0.02    0.01
  -1   1   2   19.74    0.50
  -1   1   2   19.43    0.54
  -1   1   2   19.57    0.56
  -2   2   3  124.44    2.89
  -2   2   3  122.77    2.94
  -2   2   3  124.15    3.15
  -2   2   3  125.21    3.01
  -3   3   4   88.70    2.35
  -3   3   4   87.20    2.18
  -3   3   4   90.07    2.11
  -3   3   4   88.93    2.24
  -4   4   5    2.24    0.15
  -4   4   5    1.98    0.14
  -4   4   5    2.42    0.23
  -4   4   5    2.63    0.21
  -4   4   5    1.92    0.22
  -5   5   6   36.09    1.17
  -5   5   6   34.95    1.10
  -5   5   6   36.05    0.93
  -5   5   6   35.53    1.08
  -5   5   6   35.75    0.96
  -6   6   7    0.11    0.12
  -6   6   7    0.32    0.15
  -6   6   7    0.49    0.11
  -7   7   8    4.81    0.39
  -7   7   8    4.89    0.39
   7  -7  -8    4.40    0.44
  -8   8   9    5.59    0.45
  -8   8   9    5.32    0.42
   8  -8  -9    6.01    0.48
  -9   9  10    4.07    0.45
  -9   9  10    3.98    0.46
   9  -9 -10    3.94    0.47
 -10  10  11    1.45    0.33
  10 -10 -11    2.39    0.41
  11 -11 -12    7.92    0.65
  13 -11 -11    1.37    0.36
  12 -10 -10    0.13    0.22
  12 -10 -10   -0.08    0.19
 -12  10  10    0.07    0.19
  11  -9  -9    2.47    0.38
  11  -9  -9    2.36    0.37
 -11   9   9    2.82    0.40
  10  -8  -8   11.05    0.62
  10  -8  -8    9.64    0.58
 -10   8   8    9.26    0.58
   9  -7  -7   39.48    1.36
  -9   7   7   42.40    1.41
   8  -6  -6   96.60    2.59
  -8   6   6   95.46    2.50
  -8   6   6   96.38    2.31
  -8   6   6   93.61    2.68
  -8   6   6   95.92    2.39
   7  -5  -5   74.82    2.06
  -7   5   5   75.48    1.84
  -7   5   5   75.90    2.14
  -7   5   5   73.94    1.90
  -7   5   5   78.34    1.99
   6  -4  -4   21.17    0.74
  -6   4   4   23.08    0.78
  -6   4   4   22.77    0.65
  -6   4   4   22.66    0.67
  -6   4   4   22.82    0.72
   5  -3  -3  107.49    2.71
  -5   3   3  111.41    2.83
  -5   3   3  107.04    2.63
  -5   3   3  109.04    2.53
  -5   3   3  109.20    2.61
   4  -2  -2  981.51   23.44
  -4   2   2  997.74   24.44
  -3   1   1    0.48    0.06
  -3   1   1    0.23    0.05
  -2   0   0  306.82    7.52
   1   1   1    7.85    0.25
   1   1   1    7.93    0.21
   0   2   2   21.12    0.60
   0   2   2   21.07    0.62
   0   2   2   20.70    0.51
  -1   3   3   76.09    1.85
  -1   3   3   72.90    1.98
  -1   3   3   72.06    1.89
  -1   3   3   76.11    1.74
  -2   4   4    0.16    0.09
  -2   4   4    0.09    0.07
  -2   4   4    0.11    0.08
  -2   4   4    0.15    0.05
  -3   5   5    0.21    0.11
  -3   5   5    0.05    0.09
  -3   5   5    0.20    0.06
  -3   5   5    0.02    0.09
  -4   6   6  116.37    3.21
  -4   6   6  118.89    2.99
  -4   6   6  117.49    3.06
  -5   7   7    0.26    0.14
  -5   7   7   -0.07    0.11
  -5   7   7    0.21    0.15
  -6   8   8    0.05    0.14
  -6   8   8   -0.15    0.13
  -6   8   8    0.11    0.16
  -7   9   9    9.39    0.61
  -7   9   9   10.27    0.58
   7  -9  -9    9.33    0.62
  -8  10  10    1.51    0.33
  -8  10  10    1.13    0.28
   8 -10 -10    1.63    0.35
  -9  11  11    0.19    0.23
  -9  11  11    0.35    0.24
   9 -11 -11    0.20    0.24
  14 -10 -11    0.19    0.24
  14 -10 -11    0.17    0.22
 -14  10  11   -0.04    0.18
  13  -9 -10    3.33    0.45
  13  -9 -10    3.18    0.43
 -13   9  10    2.71    0.40
  12  -8  -9   10.89    0.65
  12  -8  -9   12.67    0.70
 -12   8   9   11.29    0.66
  11  -7  -8    2.66    0.35
  11  -7  -8    2.78    0.35
 -11   7   8    2.94    0.36
  10  -6  -7   17.25    0.76
  10  -6  -7   17.16    0.73
 -10   6   7   17.48    0.64
 -10   6   7   18.37    0.63
 -10   6   7   18.68    0.78
   9  -5  -6   76.97    2.10
   9  -5  -6   79.32    2.16
  -9   5   6   75.60    2.21
  -9   5   6   78.65    1.95
  -9   5   6   79.73    2.02
   8  -4  -5  266.35    6.55
   8  -4  -5  264.65    6.41
  -8   4   5  275.03    6.17
  -8   4   5  274.00    6.35
  -8   4   5  273.35    6.83
   7  -3  -4    2.65    0.22
   7  -3  -4    2.55    0.24
  -7   3   4    2.49    0.20
   6  -2  -3    4.74    0.26
   6  -2  -3    4.97    0.25
  -6   2   3    4.62    0.24
  -6   2   3    4.67    0.23
  -6   2   3    4.93    0.24
   5  -1  -2  253.90    5.98
  -5   1   2  252.42    6.20
  -5   1   2  251.18    5.85
   4   0  -1    0.12    0.06
  -4   0   1    0.20    0.06
  -4   0   1    0.08    0.02
   3   1   0  444.72   10.76
  -3  -1   0  434.99   10.26
   2   2   1   56.56    1.48
   2   2   1   57.40    1.45
   1   3   2    6.77    0.29
   1   3   2    6.82    0.28
   1   3   2    6.63    0.29
   1   3   2    6.78    0.19
   0   4   3   72.47    1.81
   0   4   3   71.97    1.94
   0   4   3   68.76    1.85
   0   4   3   71.78    1.65
  -1   5   4   99.27    2.26
  -1   5   4   96.33    2.46
  -1   5   4   97.48    2.52
  -1   5   4   97.67    2.64
  -2   6   5    7.25    0.43
  -2   6   5    6.56    0.39
  -2   6   5    7.77    0.39
  -3   7   6   53.33    1.71
  -3   7   6   56.63    1.64
  -3   7   6   55.48    1.60
  -4   8   7   16.68    0.79
  -4   8   7   18.13    0.77
  -4   8   7   17.49    0.75
  -5   9   8    1.70    0.30
  -5   9   8    1.75    0.31
  -5   9   8    1.47    0.28
  -6  10   9    2.11    0.36
  -6  10   9    2.78    0.38
  -6  10   9    2.38    0.35
  -7  11  10    1.08    0.31
  -7  11  10    1.09    0.28
   7 -11 -10    0.75    0.28
  -8  12  11    0.61    0.28
  16 -10 -12    0.87    0.31
  15  -9 -11   -0.08    0.20
  15  -9 -11    0.10    0.21
 -15   9  11   -0.07    0.18
  14  -8 -10   21.38    0.97
  14  -8 -10   22.36    1.02
 -14   8  10   21.42    0.98
  13  -7  -9    4.80    0.47
  13  -7  -9    4.24    0.44
 -13   7   9    3.76    0.42
  12  -6  -8    6.15    0.46
  12  -6  -8    6.54    0.46
 -12   6   8    7.52    0.40
 -12   6   8    6.42    0.39
 -12   6   8    6.80    0.45
  11  -5  -7   23.30    0.87
  11  -5  -7   21.35    0.87
 -11   5   7   23.45    0.78
 -11   5   7   22.93    0.87
 -11   5   7   23.28    0.80
  10  -4  -6  137.03    3.54
  10  -4  -6  139.20    3.46
 -10   4   6  137.23    3.63
   9  -3  -5   35.20    1.04
   9  -3  -5   33.16    1.07
  -9   3   5   36.03    1.04
  -9   3   5   33.99    1.06
  -9   3   5   35.91    1.00
   8  -2  -4  186.23    4.66
   8  -2  -4  189.01    4.55
  -8   2   4  192.46    4.55
  -8   2   4  188.17    4.40
  -8   2   4  199.10    4.80
   7  -1  -3    1.90    0.18
   7  -1  -3    1.97    0.19
  -7   1   3    2.00    0.16
  -7   1   3    2.20    0.16
  -7   1   3    1.92    0.13
   6   0  -2  631.82   14.57
   6   0  -2  636.85   14.93
  -6   0   2  614.53   14.57
  -6   0   2  613.60   14.03
  -6   0   2  625.82   15.25
   5   1  -1   54.73    1.41
   5   1  -1   56.39    1.38
  -5  -1   1   54.73    1.37
  -5  -1   1   53.34    1.33
   4   2   0  110.38    2.67
   4   2   0  115.55    2.78
   4   2   0  110.27    2.74
  -4  -2   0  111.18    2.64
   3   3   1   13.11    0.47
   3   3   1   14.57    0.46
   3   3   1   12.85    0.45
  -3  -3  -1   14.01    0.39
   2   4   2   80.90    2.33
   2   4   2   88.59    2.27
   2   4   2   88.92    2.21
  -2  -4  -2   97.06    2.07
   1   5   3   10.28    0.46
   1   5   3   10.20    0.43
   1   5   3   10.49    0.45
   0   6   4  114.34    2.87
   0   6   4  112.99    2.94
   0   6   4  114.85    3.08
  -1   7   5    2.69    0.31
  -1   7   5    2.85    0.29
  -1   7   5    2.40    0.29
  -2   8   6   42.61    1.41
  -2   8   6   44.98    1.38
  -2   8   6   45.27    1.50
  -3   9   7    6.45    0.47
  -3   9   7    6.30    0.48
  -3   9   7    6.86    0.46
  -4  10   8    2.98    0.39
  -4  10   8    2.80    0.38
  -4  10   8    2.64    0.39
  -5  11   9    2.65    0.38
  -5  11   9    2.18    0.38
  -5  11   9    2.29    0.38
  -6  12  10    0.29    0.24
  17  -9 -12    2.09    0.40
 -17   9  12    2.24    0.39
  16  -8 -11    5.29    0.55
  16  -8 -11    5.57    0.58
 -16   8  11    5.82    0.50
  15  -7 -10   23.15    1.04
  15  -7 -10   23.53    1.01
 -15   7  10   25.23    1.03
  14  -6  -9   12.43    0.66
  14  -6  -9   11.97    0.67
 -14   6   9   11.12    0.58
 -14   6   9   12.17    0.64
 -14   6   9   13.76    0.60
  13  -5  -8   40.42    1.37
  13  -5  -8   40.32    1.33
 -13   5   8   41.45    1.35
  12  -4  -7   60.87    1.84
  12  -4  -7   63.28    1.79
 -12   4   7   63.23    1.69
 -12   4   7   62.14    1.82
 -12   4   7   63.82    1.76
  11  -3  -6   28.59    0.99
  11  -3  -6   29.78    0.97
 -11   3   6   29.78    0.94
 -11   3   6   29.35    0.94
 -11   3   6   28.60    0.91
  10  -2  -5   35.95    1.08
  10  -2  -5   34.68    1.11
 -10   2   5   37.00    1.06
 -10   2   5   36.26    1.04
 -10   2   5   36.75    1.09
   9  -1  -4   57.37    1.58
   9  -1  -4   57.69    1.53
  -9   1   4   57.89    1.52
  -9   1   4   55.14    1.54
  -9   1   4   59.00    1.50
   8   0  -3    0.03    0.08
   8   0  -3    0.07    0.07
  -8   0   3    0.03    0.04
  -8   0   3    0.03    0.06
  -8   0   3   -0.07    0.06
   7   1  -2   57.21    1.53
   7   1  -2   58.43    1.49
  -7  -1   2   56.56    1.44
  -7  -1   2   58.55    1.49
   6   2  -1   28.47    0.83
   6   2  -1   29.74    0.86
   6   2  -1   30.09    0.75
  -6  -2   1   27.76    0.77
  -6  -2   1   28.09    0.80
   5   3   0    2.49    0.18
   5   3   0    2.82    0.20
   5   3   0    2.55    0.15
  -5  -3   0    2.58    0.16
   4   4   1    6.70    0.31
   4   4   1    6.31    0.33
   4   4   1    6.77    0.30
  -4  -4  -1    6.67    0.24
   3   5   2  152.32    3.97
   3   5   2  164.38    3.89
  -3  -5  -2  164.40    3.70
   2   6   3   36.55    1.11
   2   6   3   36.81    1.14
   2   6   3   37.70    1.18
   1   7   4   24.29    0.85
   1   7   4   23.09    0.90
   1   7   4   26.85    0.90
   0   8   5    3.30    0.35
   0   8   5    4.00    0.35
   0   8   5    4.86    0.37
  -1   9   6    2.54    0.32
  -1   9   6    2.19    0.32
  -1   9   6    1.76    0.29
  -2  10   7    2.14    0.33
  -2  10   7    2.09    0.33
  -2  10   7    1.77    0.31
  -3  11   8    7.03    0.56
  -3  11   8    7.51    0.55
  -3  11   8    6.82    0.54
  -4  12   9    0.07    0.22
  -4  12   9    0.05    0.20
  -4  12   9   -0.27    0.19
  -5  13  10    0.40    0.26
  18  -8 -12    0.62    0.28
  18  -8 -12    0.55    0.28
  17  -7 -11    0.00    0.20
  17  -7 -11   -0.18    0.19
 -17   7  11   -0.14    0.16
  16  -6 -10   31.62    1.24
  16  -6 -10   31.82    1.21
 -16   6  10   31.14    1.18
  15  -5  -9    7.77    0.52
  15  -5  -9    7.82    0.53
 -15   5   9    7.11    0.46
 -15   5   9    7.86    0.48
 -15   5   9    6.84    0.44
  14  -4  -8    0.20    0.18
  14  -4  -8    0.05    0.16
 -14   4   8    0.00    0.13
 -14   4   8   -0.12    0.13
 -14   4   8   -0.01    0.14
  13  -3  -7   36.68    1.19
  13  -3  -7   37.55    1.23
 -13   3   7   36.36    1.14
 -13   3   7   36.09    1.17
 -13   3   7   36.71    1.13
  12  -2  -6   -0.13    0.10
  12  -2  -6   -0.22    0.10
 -12   2   6    0.07    0.08
 -12   2   6    0.19    0.13
 -12   2   6    0.11    0.12
  11  -1  -5    4.49    0.32
  11  -1  -5    4.93    0.32
 -11   1   5    5.10    0.32
 -11   1   5    5.01    0.33
 -11   1   5    4.61    0.23
  10   0  -4   66.27    1.78
  10   0  -4   66.80    1.84
 -10   0   4   68.77    1.81
 -10   0   4   68.66    1.75
 -10   0   4   67.54    1.73
   9   1  -3    5.57    0.30
   9   1  -3    4.88    0.30
  -9  -1   3    5.40    0.30
  -9  -1   3    5.17    0.30
   8   2  -2   40.64    1.12
   8   2  -2   38.99    1.14
  -8  -2   2   38.83    1.09
  -8  -2   2   38.63    1.05
   7   3  -1    1.06    0.16
   7   3  -1    1.55    0.11
   7   3  -1    1.50    0.18
  -7  -3   1    1.65    0.17
  -7  -3   1    1.61    0.16
   6   4   0   33.67    0.94
   6   4   0   31.78    0.97
   6   4   0   32.58    1.00
  -6  -4   0   33.19    0.89
  -6  -4   0   32.54    0.86
   5   5   1    1.93    0.22
   5   5   1    1.86    0.20
   5   5   1    1.90    0.22
  -5  -5  -1    1.83    0.14
   4   6   2  102.35    2.68
   4   6   2   97.43    2.60
   4   6   2   96.68    2.54
  -4  -6  -2   98.68    2.31
   3   7   3   12.63    0.59
   3   7   3   13.62    0.60
   3   7   3   13.35    0.58
   2   8   4   11.49    0.59
   2   8   4   11.92    0.59
   2   8   4   11.02    0.55
   1   9   5    7.44    0.47
   1   9   5    7.11    0.47
   1   9   5    6.53    0.48
   0  10   6    0.69    0.23
   0  10   6    0.33    0.20
   0  10   6    0.93    0.24
  -1  11   7    0.39    0.22
  -1  11   7    0.35    0.22
  -1  11   7    0.03    0.17
  -2  12   8    5.15    0.53
  -2  12   8    4.33    0.51
  -2  12   8    4.76    0.54
  -3  13   9    2.78    0.44
  20  -8 -13    0.04    0.25
  19  -7 -12    2.56    0.43
  19  -7 -12    3.38    0.47
  18  -6 -11    0.30    0.22
  18  -6 -11    0.00    0.20
 -18   6  11    0.23    0.20
 -18   6  11    0.09    0.20
  17  -5 -10    1.70    0.33
  17  -5 -10    1.75    0.32
 -17   5  10    2.37    0.33
 -17   5  10    2.54    0.34
  16  -4  -9    0.23    0.18
  16  -4  -9    0.46    0.21
 -16   4   9    0.22    0.16
 -16   4   9    0.04    0.16
  15  -3  -8    8.32    0.52
  15  -3  -8    8.79    0.54
 -15   3   8    8.57    0.44
 -15   3   8    7.77    0.48
 -15   3   8    9.45    0.52
  14  -2  -7   21.00    0.84
  14  -2  -7   21.52    0.83
 -14   2   7   20.10    0.71
 -14   2   7   21.25    0.79
 -14   2   7   20.60    0.81
  13  -1  -6    1.39    0.22
  13  -1  -6    0.90    0.20
 -13   1   6    1.13    0.14
 -13   1   6    1.13    0.21
 -13   1   6    1.26    0.21
  12   0  -5    0.24    0.13
  12   0  -5   -0.09    0.10
 -12   0   5    0.00    0.10
 -12   0   5   -0.01    0.09
 -12   0   5    0.07    0.06
  11   1  -4  145.43    3.53
  11   1  -4  141.61    3.62
 -11  -1   4  144.01    3.44
 -11  -1   4  141.14    3.54
 -11  -1   4  142.62    3.52
  10   2  -3  109.75    2.87
  10   2  -3  114.10    2.81
 -10  -2   3  111.44    2.71
 -10  -2   3  110.09    2.80
   9   3  -2    0.52    0.07
   9   3  -2    0.83    0.16
   9   3  -2    0.79    0.16
  -9  -3   2    0.42    0.11
  -9  -3   2    0.50    0.12
   8   4  -1   33.42    1.00
   8   4  -1   30.90    1.02
   8   4  -1   32.78    0.91
  -8  -4   1   32.41    0.90
  -8  -4   1   32.23    0.94
   7   5   0    3.92    0.28
   7   5   0    3.85    0.24
   7   5   0    3.33    0.28
  -7  -5   0    3.59    0.22
  -7  -5   0    3.94    0.23
   6   6   1    8.67    0.45
   6   6   1    8.52    0.41
   6   6   1    8.53    0.46
  -6  -6  -1    8.80    0.33
   5   7   2   29.60    0.99
   5   7   2   28.32    0.98
   5   7   2   28.69    1.01
   4   8   3    0.36    0.15
   4   8   3    0.54    0.16
   4   8   3    0.50    0.18
   3   9   4   14.32    0.68
   3   9   4   14.70    0.69
   3   9   4   13.89    0.69
   2  10   5    3.45    0.39
   2  10   5    3.23    0.39
   2  10   5    2.24    0.34
   1  11   6    0.07    0.19
   1  11   6   -0.08    0.16
   1  11   6    0.21    0.20
   0  12   7    1.81    0.34
   0  12   7    1.90    0.36
   0  12   7    1.74    0.35
  -1  13   8    7.35    0.60
  21  -7 -13    0.04    0.25
  20  -6 -12    0.19    0.24
  20  -6 -12    0.12    0.22
 -20   6  12   -0.09    0.19
 -20   6  12    0.06    0.21
  19  -5 -11    1.88    0.34
  19  -5 -11    1.61    0.34
 -19   5  11    1.16    0.28
 -19   5  11    1.41    0.31
  18  -4 -10    4.39    0.48
  18  -4 -10    3.50    0.42
 -18   4  10    4.02    0.42
 -18   4  10    4.75    0.46
  17  -3  -9    5.97    0.48
  17  -3  -9    6.04    0.47
 -17   3   9    6.89    0.48
 -17   3   9    6.17    0.45
  16  -2  -8   45.58    1.50
  16  -2  -8   44.48    1.45
 -16   2   8   46.86    1.42
 -16   2   8   45.12    1.46
  15  -1  -7   -0.08    0.13
  15  -1  -7   -0.17    0.12
 -15   1   7    0.27    0.17
 -15   1   7    0.16    0.16
  14   0  -6   60.57    1.71
  14   0  -6   57.27    1.74
 -14   0   6   59.03    1.72
 -14   0   6   58.98    1.66
  13   1  -5    4.19    0.35
  13   1  -5    4.32    0.34
 -13  -1   5    5.15    0.35
 -13  -1   5    4.52    0.34
  12   2  -4   82.36    2.25
  12   2  -4   83.03    2.20
 -12  -2   4   82.87    2.20
 -12  -2   4   81.44    2.12
  11   3  -3    2.90    0.29
  11   3  -3    2.73    0.29
 -11  -3   3    3.07    0.27
 -11  -3   3    3.00    0.29
  10   4  -2   88.70    2.32
  10   4  -2   87.13    2.38
  10   4  -2   90.44    2.23
 -10  -4   2   86.54    2.18
 -10  -4   2   86.35    2.26
   9   5  -1    2.56    0.29
   9   5  -1    2.63    0.19
   9   5  -1    2.21    0.26
  -9  -5   1    2.74    0.24
  -9  -5   1    2.92    0.23
   8   6   0   34.55    1.10
   8   6   0   34.39    1.05
   8   6   0   33.93    1.13
  -8  -6   0   33.96    0.93
  -8  -6   0   34.17    0.97
   7   7   1    3.91    0.32
   7   7   1    3.83    0.29
   7   7   1    3.66    0.36
   6   8   2   20.05    0.80
   6   8   2   20.02    0.83
   6   8   2   19.02    0.77
   5   9   3    1.58    0.28
   5   9   3    1.87    0.30
   4  10   4   16.96    0.79
   4  10   4   18.61    0.83
   4  10   4   16.26    0.80
   3  11   5    1.00    0.28
   3  11   5    1.09    0.27
   3  11   5    0.80    0.27
   2  12   6    0.29    0.23
   2  12   6    0.36    0.22
   2  12   6    0.18    0.21
   1  13   7    2.24    0.39
   1  13   7    1.67    0.38
  22  -6 -13   -0.45    0.19
 -22   6  13   -0.19    0.21
  21  -5 -12    0.03    0.23
  21  -5 -12    0.02    0.22
 -21   5  12    0.19    0.22
 -21   5  12    0.33    0.22
  20  -4 -11    1.37    0.31
  20  -4 -11    1.22    0.31
 -20   4  11    1.43    0.31
 -20   4  11    1.41    0.31
  19  -3 -10    2.20    0.35
  19  -3 -10    2.69    0.39
 -19   3  10    2.52    0.36
 -19   3  10    2.61    0.37
  18  -2  -9    0.78    0.25
  18  -2  -9    0.89    0.26
 -18   2   9    1.05    0.25
 -18   2   9    0.82    0.23
  17  -1  -8   19.18    0.86
  17  -1  -8   19.49    0.83
 -17   1   8   20.25    0.85
 -17   1   8   18.82    0.80
  16   0  -7    0.09    0.16
  16   0  -7    0.21    0.16
 -16   0   7    0.07    0.15
 -16   0   7   -0.05    0.13
  15   1  -6   13.79    0.63
  15   1  -6   13.39    0.65
 -15  -1   6   14.46    0.66
 -15  -1   6   13.90    0.63
  14   2  -5    0.51    0.17
  14   2  -5    0.48    0.16
 -14  -2   5    0.48    0.16
 -14  -2   5    0.38    0.15
  13   3  -4    1.63    0.25
  13   3  -4    1.99    0.28
 -13  -3   4    2.11    0.26
 -13  -3   4    2.47    0.29
  12   4  -3    4.29    0.40
  12   4  -3    3.81    0.32
 -12  -4   3    3.70    0.30
 -12  -4   3    4.07    0.30
  11   5  -2   17.09    0.73
  11   5  -2   17.51    0.72
 -11  -5   2   17.30    0.65
 -11  -5   2   17.69    0.63
  10   6  -1    0.02    0.13
  10   6  -1    0.10    0.12
 -10  -6   1    0.06    0.11
 -10  -6   1   -0.03    0.10
   9   7   0   15.25    0.68
   9   7   0   16.50    0.72
   8   8   1    1.76    0.24
   8   8   1    1.82    0.29
   8   8   1    1.88    0.30
   7   9   2   19.44    0.83
   7   9   2   18.93    0.81
   7   9   2   20.75    0.88
   6  10   3    6.86    0.49
   6  10   3    7.12    0.53
   6  10   3    7.46    0.51
   5  11   4   19.80    0.92
   5  11   4   19.24    0.93
   5  11   4   20.86    0.93
   4  12   5    0.43    0.23
   4  12   5    0.70    0.27
   4  12   5    0.19    0.21
   3  13   6    2.66    0.43
   3  13   6    2.50    0.42
  23  -5 -13    1.32    0.36
 -23   5  13    0.82    0.30
  22  -4 -12    2.70    0.45
  22  -4 -12    2.56    0.43
 -22   4  12    2.88    0.42
 -22   4  12    2.66    0.42
  21  -3 -11    3.09    0.44
  21  -3 -11    3.54    0.45
 -21   3  11    3.32    0.43
 -21   3  11    4.06    0.48
  20  -2 -10    0.62    0.24
  20  -2 -10    0.20    0.22
 -20   2  10    0.16    0.19
 -20   2  10    0.49    0.22
  19  -1  -9    0.20    0.18
  19  -1  -9   -0.10    0.16
 -19   1   9    0.08    0.19
 -19   1   9    0.35    0.22
  18   0  -8   25.02    1.00
  18   0  -8   25.36    1.03
 -18   0   8   24.99    0.98
 -18   0   8   25.13    1.01
  17   1  -7    0.74    0.22
  17   1  -7    0.70    0.20
 -17  -1   7    0.87    0.23
 -17  -1   7    0.96    0.23
  16   2  -6   15.20    0.73
  16   2  -6   15.65    0.72
 -16  -2   6   15.39    0.69
 -16  -2   6   16.72    0.74
  15   3  -5    1.40    0.25
  15   3  -5    0.76    0.21
 -15  -3   5    0.70    0.20
 -15  -3   5    0.79    0.21
  14   4  -4    3.06    0.35
  14   4  -4    2.75    0.34
 -14  -4   4    2.94    0.33
 -14  -4   4    3.36    0.33
  13   5  -3    1.82    0.28
  13   5  -3    2.38    0.31
 -13  -5   3    2.36    0.28
 -13  -5   3    2.30    0.28
  12   6  -2   40.93    1.34
  12   6  -2   41.59    1.38
 -12  -6   2   41.35    1.19
 -12  -6   2   40.02    1.22
  11   7  -1    3.87    0.40
  11   7  -1    3.45    0.38
  10   8   0    3.07    0.38
  10   8   0    3.61    0.40
   9   9   1    0.84    0.25
   9   9   1    0.98    0.26
   8  10   2    0.84    0.26
   8  10   2    1.14    0.29
   7  11   3   10.92    0.68
   7  11   3   10.51    0.65
   6  12   4   11.32    0.73
   6  12   4   12.05    0.73
   5  13   5    1.06    0.32
  24  -4 -13   -0.06    0.25
 -24   4  13    0.38    0.25
  23  -3 -12    0.87    0.29
 -23   3  12    1.31    0.33
  22  -2 -11    3.42    0.47
  22  -2 -11    3.41    0.47
 -22   2  11    3.83    0.48
 -22   2  11    3.63    0.46
  21  -1 -10    5.14    0.55
  21  -1 -10    4.74    0.51
 -21   1  10    4.80    0.50
 -21   1  10    3.60    0.46
  20   0  -9   -0.12    0.16
  20   0  -9   -0.09    0.17
 -20   0   9   -0.11    0.16
 -20   0   9   -0.17    0.17
  19   1  -8   24.25    1.00
 -19  -1   8   24.33    0.98
 -19  -1   8   23.87    1.01
  18   2  -7    1.88    0.31
  18   2  -7    1.73    0.31
 -18  -2   7    1.12    0.26
 -18  -2   7    1.15    0.26
  17   3  -6   11.16    0.63
  17   3  -6   11.53    0.62
 -17  -3   6   11.91    0.61
 -17  -3   6   11.66    0.63
  16   4  -5    0.96    0.24
  16   4  -5    1.64    0.29
 -16  -4   5    1.38    0.26
 -16  -4   5    1.25    0.25
  15   5  -4    0.38    0.19
  15   5  -4    0.34    0.18
 -15  -5   4    0.32    0.17
 -15  -5   4    0.30    0.18
  14   6  -3   12.63    0.64
  14   6  -3   10.72    0.62
 -14  -6   3   11.98    0.56
 -14  -6   3   10.75    0.53
  13   7  -2   44.64    1.50
  13   7  -2   41.68    1.43
  12   8  -1   14.80    0.76
  12   8  -1   15.21    0.74
  11   9   0   31.31    1.20
  11   9   0   32.31    1.25
  10  10   1    1.63    0.33
  10  10   1    1.86    0.35
   9  11   2    0.21    0.19
   9  11   2   -0.09    0.19
   8  12   3    0.34    0.24
   8  12   3    0.14    0.23
   7  13   4    5.15    0.58
  24  -2 -12   10.10    0.72
 -24   2  12    9.77    0.69
  23  -1 -11    0.23    0.23
  23  -1 -11    0.30    0.24
 -23   1  11    0.30    0.23
 -23   1  11    0.27    0.23
  22   0 -10    4.00    0.49
  22   0 -10    5.37    0.55
 -22   0  10    3.02    0.43
 -22   0  10    3.22    0.42
  21   1  -9    0.74    0.27
  21   1  -9    0.66    0.25
 -21  -1   9    0.63    0.25
 -21  -1   9    0.71    0.26
  20   2  -8   17.61    0.85
  20   2  -8   15.58    0.83
 -20  -2   8   18.45    0.86
 -20  -2   8   15.51    0.79
  19   3  -7   15.47    0.77
  19   3  -7   15.84    0.80
 -19  -3   7   15.51    0.76
 -19  -3   7   12.85    0.69
  18   4  -6    8.63    0.59
  18   4  -6    9.75    0.59
 -18  -4   6    9.63    0.57
 -18  -4   6    9.17    0.57
  17   5  -5    4.34    0.45
  17   5  -5    4.78    0.49
 -17  -5   5    4.38    0.43
 -17  -5   5    4.46    0.43
  16   6  -4    1.67    0.32
  16   6  -4    2.58    0.38
 -16  -6   4    2.33    0.31
 -16  -6   4    2.09    0.29
  15   7  -3   -0.05    0.17
  15   7  -3    0.18    0.19
  14   8  -2   10.54    0.64
  14   8  -2   10.34    0.65
  13   9  -1    2.02    0.36
  13   9  -1    2.75    0.40
  12  10   0    5.76    0.57
  12  10   0    5.21    0.57
  11  11   1   -0.09    0.18
  11  11   1   -0.12    0.19
  10  12   2    0.00    0.21
   9  13   3    0.14    0.26
  25  -1 -12    6.85    0.68
 -25   1  12    7.09    0.66
  24   0 -11    0.05    0.19
 -24   0  11   -0.08    0.22
  23   1 -10    2.18    0.39
  23   1 -10    2.05    0.39
 -23  -1  10    1.79    0.37
 -23  -1  10    2.16    0.40
  22   2  -9    3.78    0.49
  22   2  -9    2.94    0.43
 -22  -2   9    3.98    0.49
 -22  -2   9    4.77    0.50
  21   3  -8    3.03    0.43
  21   3  -8    2.99    0.44
 -21  -3   8    2.71    0.39
 -21  -3   8    3.29    0.43
  20   4  -7   17.10    0.87
  20   4  -7   17.27    0.85
 -20  -4   7   16.27    0.83
 -20  -4   7   17.32    0.81
  19   5  -6   27.33    1.12
  19   5  -6   26.78    1.14
 -19  -5   6   27.13    1.04
 -19  -5   6   26.09    1.07
  18   6  -5    0.28    0.21
  18   6  -5    0.07    0.19
 -18  -6   5   -0.19    0.16
 -18  -6   5   -0.14    0.16
  17   7  -4    0.35    0.21
  17   7  -4    0.06    0.19
  16   8  -3    0.20    0.21
  16   8  -3    0.25    0.21
  15   9  -2    7.32    0.59
  15   9  -2    7.02    0.56
  14  10  -1    1.39    0.33
  14  10  -1    1.17    0.30
  13  11   0    3.55    0.51
  13  11   0    3.23    0.47
  12  12   1    0.57    0.30
  25   1 -11   -0.33    0.17
 -25  -1  11   -0.06    0.23
  24   2 -10    0.49    0.28
 -24  -2  10    0.55    0.27
  23   3  -9    1.35    0.35
  23   3  -9    1.79    0.37
 -23  -3   9    1.80    0.37
 -23  -3   9    1.55    0.36
  22   4  -8    0.10    0.22
  22   4  -8    0.10    0.22
 -22  -4   8    0.61    0.27
 -22  -4   8    0.19    0.23
  21   5  -7    1.35    0.33
  21   5  -7    1.62    0.34
 -21  -5   7    2.09    0.36
 -21  -5   7    2.23    0.37
  20   6  -6   12.58    0.76
  20   6  -6   10.93    0.70
 -20  -6   6   11.17    0.65
 -20  -6   6   12.08    0.69
  19   7  -5    1.79    0.36
  19   7  -5    3.06    0.44
  18   8  -4   -0.24    0.18
  18   8  -4   -0.05    0.18
  17   9  -3    1.81    0.38
  17   9  -3    2.23    0.38
  16  10  -2    0.28    0.23
  15  11  -1    3.21    0.49
  14  12   0    9.11    0.71
  25   3 -10    1.44    0.37
 -25  -3  10    2.25    0.44
  24   4  -9    2.34    0.42
 -24  -4   9    1.48    0.36
  23   5  -8    0.51    0.26
 -23  -5   8    0.33    0.25
 -23  -5   8    0.30    0.25
  22   6  -7    1.20    0.34
 -22  -6   7    0.78    0.29
 -22  -6   7    1.34    0.32
  21   7  -6   10.25    0.70
  20   8  -5    2.26    0.41
  19   9  -4    2.54    0.43
  18  10  -3    0.72    0.29
  17  11  -5    2.88    0.47
  18  10  -6    0.14    0.23
  19   9  -7    3.89    0.51
  20   8  -8   -0.06    0.22
 -21  -7   9    0.66    0.26
  21   7  -9    0.13    0.23
 -22  -6  10   10.83    0.71
 -22  -6  10    9.49    0.65
  22   6 -10    9.46    0.69
 -23  -5  11    5.99    0.61
  23   5 -11    4.87    0.59
 -24  -4  12    2.94    0.46
  24   4 -12    3.72    0.52
  14  12  -3    0.76    0.31
  15  11  -4    5.46    0.59
  16  10  -5    1.86    0.37
  16  10  -5    3.36    0.47
  17   9  -6   -0.24    0.17
  17   9  -6    0.18    0.22
  18   8  -7    4.65    0.55
  18   8  -7    3.85    0.49
 -19  -7   8    1.18    0.30
 -19  -7   8    1.42    0.31
  19   7  -8    1.37    0.34
  19   7  -8    1.60    0.34
 -20  -6   9    1.49    0.33
 -20  -6   9    1.67    0.34
  20   6  -9    2.01    0.37
  20   6  -9    1.07    0.31
 -21  -5  10   13.70    0.77
 -21  -5  10   14.60    0.81
  21   5 -10   14.21    0.83
  21   5 -10   13.76    0.80
 -22  -4  11    1.12    0.32
 -22  -4  11    0.78    0.30
  22   4 -11    1.34    0.34
  22   4 -11    0.63    0.28
 -23  -3  12    0.75    0.30
  23   3 -12    1.06    0.32
 -24  -2  13    4.38    0.54
  24   2 -13    4.29    0.55
  11  13  -1    1.46    0.35
  12  12  -2   -0.01    0.22
  12  12  -2    0.09    0.21
  13  11  -3    0.15    0.21
  13  11  -3    0.37    0.24
  14  10  -4   16.85    0.85
  14  10  -4   15.26    0.84
  15   9  -5    5.01    0.53
  15   9  -5    3.88    0.47
  16   8  -6    3.67    0.46
  16   8  -6    4.77    0.52
 -17  -7   7    0.50    0.22
 -17  -7   7    0.51    0.22
  17   7  -7    0.53    0.23
  17   7  -7    0.40    0.21
 -18  -6   8    3.93    0.43
 -18  -6   8    5.22    0.50
  18   6  -8    4.89    0.53
  18   6  -8    4.23    0.48
 -19  -5   9    0.48    0.23
 -19  -5   9    0.57    0.25
  19   5  -9    0.95    0.27
  19   5  -9    0.66    0.25
 -20  -4  10   19.16    0.90
 -20  -4  10   20.10    0.95
  20   4 -10   20.32    0.96
  20   4 -10   20.46    0.98
 -21  -3  11    4.38    0.51
 -21  -3  11    3.64    0.47
  21   3 -11    3.92    0.48
  21   3 -11    3.27    0.45
 -22  -2  12    5.12    0.56
 -22  -2  12    5.33    0.55
  22   2 -12    5.81    0.58
  22   2 -12    5.41    0.58
 -23  -1  13    1.81    0.37
  23   1 -13    2.23    0.41
 -24   0  14   -0.10    0.20
  24   0 -14   -0.07    0.22
   8  14   1    2.42    0.44
   9  13   0    4.06    0.51
   9  13   0    3.98    0.50
  10  12  -1   -0.17    0.20
  10  12  -1   -0.04    0.21
  11  11  -2    0.02    0.19
  11  11  -2   -0.08    0.18
  12  10  -3    1.83    0.35
  12  10  -3    2.33    0.37
  13   9  -4   11.56    0.66
  13   9  -4   11.22    0.68
  14   8  -5    8.62    0.59
  14   8  -5    7.90    0.55
 -15  -7   6    5.04    0.40
 -15  -7   6    5.65    0.41
  15   7  -6    5.88    0.49
  15   7  -6    7.20    0.52
 -16  -6   7    0.64    0.22
 -16  -6   7    0.10    0.18
  16   6  -7    0.74    0.25
  16   6  -7    0.66    0.23
 -17  -5   8    0.02    0.18
 -17  -5   8   -0.03    0.18
  17   5  -8    0.04    0.17
  17   5  -8    0.27    0.19
 -18  -4   9    0.05    0.19
 -18  -4   9    0.11    0.19
  18   4  -9   -0.01    0.16
  18   4  -9    0.23    0.18
 -19  -3  10    2.20    0.36
 -19  -3  10    2.34    0.37
  19   3 -10    2.14    0.36
  19   3 -10    2.89    0.39
 -20  -2  11   14.19    0.78
 -20  -2  11   14.26    0.76
  20   2 -11   14.03    0.77
  20   2 -11   13.59    0.78
 -21  -1  12   17.55    0.88
 -21  -1  12   17.71    0.91
  21   1 -12   17.70    0.88
  21   1 -12   16.08    0.89
 -22   0  13   -0.03    0.21
 -22   0  13    0.21    0.25
  22   0 -13    0.08    0.21
  22   0 -13   -0.50    0.17
 -23   1  14    0.33    0.26
  23  -1 -14    0.56    0.29
   6  14   2    0.41    0.27
   7  13   1   -0.20    0.18
   7  13   1    0.03    0.22
   8  12   0    3.52    0.45
   8  12   0    4.22    0.50
   9  11  -1    0.15    0.19
   9  11  -1    0.06    0.18
  10  10  -2    3.61    0.44
  10  10  -2    4.35    0.48
  11   9  -3    4.82    0.48
  11   9  -3    4.96    0.48
  12   8  -4    5.39    0.45
  12   8  -4    5.82    0.44
 -13  -7   5   11.68    0.54
 -13  -7   5   11.63    0.56
  13   7  -5   12.29    0.63
  13   7  -5   11.82    0.65
 -14  -6   6   30.51    1.02
 -14  -6   6   28.56    1.03
  14   6  -6   32.23    1.13
  14   6  -6   28.84    1.12
 -15  -5   7    1.13    0.24
 -15  -5   7    0.98    0.23
  15   5  -7    1.31    0.26
  15   5  -7    0.94    0.25
 -16  -4   8    2.14    0.31
 -16  -4   8    1.90    0.30
  16   4  -8    2.52    0.35
  16   4  -8    2.68    0.36
 -17  -3   9    6.96    0.49
 -17  -3   9    7.11    0.50
  17   3  -9    6.97    0.50
  17   3  -9    6.78    0.48
 -18  -2  10    0.38    0.21
 -18  -2  10    0.11    0.19
  18   2 -10    0.07    0.16
  18   2 -10    0.32    0.20
 -19  -1  11   10.37    0.64
 -19  -1  11    9.48    0.61
  19   1 -11   10.48    0.64
  19   1 -11    9.56    0.64
 -20   0  12   78.51    2.35
 -20   0  12   84.62    2.47
  20   0 -12   79.27    2.43
 -21   1  13   26.07    1.10
 -21   1  13   27.71    1.17
  21  -1 -13   26.55    1.16
  21  -1 -13   25.80    1.18
 -22   2  14    2.18    0.39
  22  -2 -14    2.60    0.44
 -23   3  15   15.90    0.88
  23  -3 -15   15.14    0.91
   4  14   3    2.39    0.42
   4  14   3    2.66    0.42
   5  13   2    0.36    0.24
   5  13   2   -0.07    0.19
   5  13   2    0.01    0.20
   6  12   1   -0.04    0.17
   6  12   1    0.08    0.20
   6  12   1   -0.04    0.17
   7  11   0   14.18    0.74
   7  11   0   14.27    0.76
   7  11   0   16.87    0.79
   8  10  -1    0.99    0.25
   8  10  -1    0.98    0.25
   9   9  -2   11.77    0.64
   9   9  -2   11.66    0.62
  10   8  -3   10.08    0.57
  10   8  -3   10.74    0.60
 -11  -7   4    0.11    0.13
 -11  -7   4   -0.02    0.13
  11   7  -4    0.05    0.14
  11   7  -4    0.08    0.15
 -12  -6   5   14.73    0.63
 -12  -6   5   14.62    0.60
  12   6  -5   14.47    0.66
  12   6  -5   14.46    0.69
 -13  -5   6   54.74    1.58
 -13  -5   6   53.29    1.52
  13   5  -6   49.28    1.58
  13   5  -6   54.91    1.67
 -14  -4   7   14.20    0.64
 -14  -4   7   14.52    0.67
  14   4  -7   13.76    0.66
  14   4  -7   14.81    0.70
 -15  -3   8    9.48    0.55
 -15  -3   8    9.07    0.52
  15   3  -8   10.02    0.57
  15   3  -8    8.51    0.52
 -16  -2   9   -0.05    0.15
 -16  -2   9    0.01    0.15
  16   2  -9   -0.10    0.12
  16   2  -9    0.20    0.17
 -17  -1  10    5.57    0.46
 -17  -1  10    4.95    0.46
  17   1 -10    4.68    0.47
  17   1 -10    6.17    0.45
 -18   0  11   -0.36    0.14
 -18   0  11    0.02    0.19
  18   0 -11    0.10    0.18
  18   0 -11   -0.12    0.15
 -19   1  12    1.05    0.27
 -19   1  12    1.22    0.27
  19  -1 -12    0.86    0.28
  19  -1 -12    0.89    0.26
 -20   2  13    2.36    0.38
 -20   2  13    2.65    0.39
  20  -2 -13    2.82    0.42
  20  -2 -13    2.53    0.43
 -21   3  14    3.05    0.43
 -21   3  14    3.13    0.45
  21  -3 -14    3.28    0.46
 -22   4  15    2.93    0.43
  22  -4 -15    2.67    0.47
   2  14   4    1.74    0.36
   3  13   3   -0.06    0.20
   3  13   3   -0.25    0.18
   3  13   3    0.20    0.20
   4  12   2    0.20    0.21
   4  12   2    0.76    0.26
   4  12   2    0.20    0.21
   5  11   1    0.22    0.20
   5  11   1    0.17    0.20
   5  11   1    0.43    0.21
   6  10   0   15.36    0.74
   6  10   0   16.07    0.73
   7   9  -1   38.00    1.28
   7   9  -1   36.51    1.22
   7   9  -1   36.02    1.25
   8   8  -2   35.23    1.15
   8   8  -2   31.51    1.15
   8   8  -2   34.38    1.14
  -9  -7   3   -0.03    0.11
   9   7  -3    0.12    0.14
   9   7  -3    0.07    0.12
   9   7  -3    0.17    0.14
 -10  -6   4    1.70    0.22
 -10  -6   4    1.11    0.18
  10   6  -4    1.58    0.20
  10   6  -4    1.94    0.27
  10   6  -4    1.23    0.22
 -11  -5   5   27.85    0.95
 -11  -5   5   29.74    0.93
  11   5  -5   30.11    1.01
  11   5  -5   30.11    1.04
 -12  -4   6  103.51    2.55
 -12  -4   6  101.30    2.62
  12   4  -6   95.63    2.63
  12   4  -6   99.30    2.71
 -13  -3   7   35.52    1.16
 -13  -3   7   35.97    1.12
  13   3  -7   35.55    1.20
  13   3  -7   35.75    1.16
 -14  -2   8   42.26    1.34
 -14  -2   8   40.98    1.28
  14   2  -8   39.58    1.31
  14   2  -8   43.43    1.38
 -15  -1   9   22.50    0.87
 -15  -1   9   22.91    0.91
  15   1  -9   24.54    0.93
  15   1  -9   23.23    0.95
 -16   0  10    0.42    0.18
 -16   0  10    0.06    0.16
  16   0 -10    0.60    0.23
  16   0 -10    0.45    0.20
 -17   1  11    2.84    0.37
 -17   1  11    3.50    0.40
  17  -1 -11    2.94    0.38
  17  -1 -11    3.34    0.42
 -18   2  12    1.77    0.31
 -18   2  12    1.50    0.29
  18  -2 -12    2.10    0.36
  18  -2 -12    1.81    0.33
 -19   3  13    1.87    0.33
 -19   3  13    1.43    0.31
  19  -3 -13    1.69    0.37
  19  -3 -13    1.21    0.30
 -20   4  14    2.16    0.36
 -20   4  14    1.86    0.35
  20  -4 -14    1.57    0.37
  20  -4 -14    1.93    0.40
 -21   5  15    0.31    0.25
  21  -5 -15    0.99    0.34
   0  14   5    0.69    0.27
   1  13   4    8.26    0.59
   1  13   4    7.93    0.61
   1  13   4    9.20    0.60
   2  12   3    0.41    0.22
   2  12   3    0.31    0.22
   2  12   3   -0.01    0.19
   3  11   2    1.53    0.29
   3  11   2    1.27    0.28
   3  11   2    0.61    0.22
   4  10   1    0.71    0.22
   4  10   1    0.25    0.17
   4  10   1    0.44    0.18
   5   9   0    6.67    0.45
   5   9   0    6.95    0.45
   5   9   0    7.40    0.45
   6   8  -1   39.19    1.23
   6   8  -1   38.64    1.28
   6   8  -1   39.50    1.27
  -7  -7   2   28.98    0.82
   7   7  -2   27.75    0.95
   7   7  -2   27.65    0.94
   7   7  -2   27.10    0.96
  -8  -6   3   31.63    0.92
  -8  -6   3   30.61    0.88
   8   6  -3   30.79    1.00
   8   6  -3   29.94    0.98
   8   6  -3   30.77    1.03
  -9  -5   4    8.57    0.40
  -9  -5   4    8.42    0.39
   9   5  -4    8.39    0.38
   9   5  -4    8.11    0.43
   9   5  -4    8.11    0.45
 -10  -4   5   73.69    1.97
 -10  -4   5   74.77    1.91
  10   4  -5   75.32    2.01
  10   4  -5   72.91    2.05
  10   4  -5   74.60    1.99
 -11  -3   6   30.70    0.95
 -11  -3   6   28.97    0.97
  11   3  -6   30.66    0.99
  11   3  -6   30.33    0.91
  11   3  -6   29.16    1.01
 -12  -2   7    4.17    0.35
 -12  -2   7    3.98    0.24
 -12  -2   7    3.96    0.33
  12   2  -7    3.52    0.35
  12   2  -7    4.41    0.32
 -13  -1   8   66.71    1.79
 -13  -1   8   67.41    1.86
 -13  -1   8   62.44    1.77
  13   1  -8   62.35    1.88
  13   1  -8   64.75    1.84
 -14   0   9   -0.18    0.12
 -14   0   9    0.05    0.09
 -14   0   9   -0.05    0.12
  14   0  -9   -0.13    0.13
  14   0  -9   -0.11    0.13
 -15   1  10    9.45    0.53
 -15   1  10    8.84    0.53
  15  -1 -10    9.52    0.55
  15  -1 -10   10.37    0.59
 -16   2  11   43.89    1.47
 -16   2  11   45.52    1.44
  16  -2 -11   45.20    1.50
  16  -2 -11   45.85    1.55
 -17   3  12    1.39    0.28
 -17   3  12    1.20    0.27
  17  -3 -12    1.00    0.28
  17  -3 -12    1.01    0.26
 -18   4  13    1.07    0.28
 -18   4  13    0.80    0.25
  18  -4 -13    0.43    0.27
  18  -4 -13    1.09    0.30
 -19   5  14    7.80    0.57
 -19   5  14    7.01    0.53
  19  -5 -14    6.19    0.64
  19  -5 -14    7.89    0.61
  20  -6 -15    0.24    0.27
  -2  14   6    1.21    0.32
  -1  13   5    0.20    0.22
  -1  13   5   -0.20    0.18
  -1  13   5    0.35    0.22
   0  12   4   28.32    1.22
   0  12   4   28.95    1.10
   0  12   4   29.54    1.14
   1  11   3    5.94    0.46
   1  11   3    5.69    0.49
   1  11   3    6.28    0.46
   2  10   2    0.18    0.16
   2  10   2    0.01    0.15
   2  10   2    0.18    0.15
   3   9   1    7.53    0.43
   3   9   1    7.20    0.45
   3   9   1    6.75    0.45
   4   8   0    7.45    0.42
   4   8   0    7.72    0.46
   4   8   0    7.38    0.44
   5   7  -1    7.87    0.42
   5   7  -1    7.23    0.39
   5   7  -1    5.78    0.36
  -6  -6   2   79.11    1.91
  -6  -6   2   76.86    1.85
   6   6  -2   76.23    2.12
   6   6  -2   75.30    2.08
   6   6  -2   76.58    2.03
  -7  -5   3  116.53    2.75
  -7  -5   3  119.81    2.85
   7   5  -3  119.76    3.04
   7   5  -3  112.69    2.91
   7   5  -3  113.03    2.98
  -8  -4   4   88.64    2.18
  -8  -4   4   88.85    2.25
   8   4  -4   88.77    2.35
   8   4  -4   87.76    2.34
   8   4  -4   90.89    2.29
  -9  -3   5   35.51    1.06
  -9  -3   5   35.16    1.02
   9   3  -5   37.34    1.04
   9   3  -5   35.38    1.10
   9   3  -5   35.02    1.07
 -10  -2   6    6.81    0.30
 -10  -2   6    6.98    0.38
 -10  -2   6    6.69    0.36
  10   2  -6    7.37    0.40
  10   2  -6    6.76    0.37
 -11  -1   7    2.49    0.27
 -11  -1   7    2.58    0.19
 -11  -1   7    2.79    0.27
  11   1  -7    2.78    0.29
  11   1  -7    2.67    0.27
 -12   0   8   91.29    2.44
 -12   0   8   94.06    2.45
 -12   0   8   91.26    2.36
  12   0  -8   91.87    2.51
  12   0  -8   90.49    2.44
 -13   1   9    0.24    0.12
 -13   1   9    0.29    0.15
 -13   1   9    0.16    0.14
  13  -1  -9    0.07    0.15
  13  -1  -9    0.45    0.18
 -14   2  10    0.35    0.14
 -14   2  10    0.27    0.16
 -14   2  10    0.13    0.15
  14  -2 -10    0.20    0.18
  14  -2 -10    0.20    0.18
 -15   3  11   10.00    0.57
 -15   3  11   11.08    0.58
 -15   3  11   10.92    0.56
  15  -3 -11   10.76    0.61
  15  -3 -11   11.33    0.65
 -16   4  12    0.15    0.16
 -16   4  12   -0.11    0.13
 -16   4  12   -0.08    0.16
  16  -4 -12    0.35    0.21
  16  -4 -12    0.30    0.20
 -17   5  13    1.36    0.30
 -17   5  13    1.47    0.30
 -17   5  13    1.44    0.29
  17  -5 -13    1.46    0.33
  17  -5 -13    1.32    0.33
  18  -6 -14    9.20    0.68
  18  -6 -14    9.30    0.69
  19  -7 -15    0.60    0.27
  -4  14   7    0.39    0.25
  -3  13   6    0.05    0.21
  -3  13   6    0.22    0.22
  -3  13   6    0.07    0.22
  -2  12   5    4.25    0.45
  -2  12   5    4.53    0.52
  -2  12   5    3.76    0.43
  -1  11   4   21.65    0.88
  -1  11   4   20.59    0.96
  -1  11   4   20.82    0.89
   0  10   3   13.47    0.64
   0  10   3   13.63    0.66
   0  10   3   13.80    0.71
   1   9   2   25.27    0.96
   1   9   2   22.73    0.87
   1   9   2   21.46    0.82
   2   8   1   43.99    1.31
   2   8   1   45.65    1.36
   2   8   1   44.26    1.44
   3   7   0   18.85    0.71
   3   7   0   20.36    0.71
   3   7   0   19.94    0.76
  -4  -6   1    3.01    0.16
   4   6  -1    2.60    0.25
   4   6  -1    3.28    0.24
  -5  -5   2   80.27    1.95
  -5  -5   2   83.10    2.02
   5   5  -2   83.38    2.10
   5   5  -2   80.64    2.15
   5   5  -2   85.05    2.23
  -6  -4   3   29.35    0.82
  -6  -4   3   30.20    0.85
   6   4  -3   31.86    0.91
   6   4  -3   29.52    0.92
   6   4  -3   29.41    0.89
  -7  -3   4    2.90    0.21
  -7  -3   4    2.03    0.20
   7   3  -4    2.56    0.24
   7   3  -4    2.98    0.19
   7   3  -4    2.67    0.22
  -8  -2   5   58.25    1.58
  -8  -2   5   60.65    1.53
   8   2  -5   58.10    1.62
   8   2  -5   60.19    1.58
  -9  -1   6    1.11    0.17
  -9  -1   6    1.14    0.14
  -9  -1   6    1.62    0.19
   9   1  -6    1.22    0.17
   9   1  -6    0.93    0.17
 -10   0   7   -0.01    0.10
 -10   0   7    0.06    0.11
 -10   0   7   -0.06    0.06
  10   0  -7    0.01    0.10
  10   0  -7    0.01    0.09
 -11   1   8   65.11    1.74
 -11   1   8   63.56    1.80
 -11   1   8   66.15    1.83
  11  -1  -8   65.05    1.87
  11  -1  -8   66.76    1.83
 -12   2   9    2.60    0.29
 -12   2   9    2.42    0.29
 -12   2   9    2.59    0.27
  12  -2  -9    2.30    0.30
  12  -2  -9    2.23    0.28
 -13   3  10   13.44    0.60
 -13   3  10   13.82    0.62
 -13   3  10   14.35    0.64
  13  -3 -10   12.35    0.64
  13  -3 -10   14.15    0.69
 -14   4  11    0.10    0.15
 -14   4  11    0.43    0.18
 -14   4  11    0.16    0.15
  14  -4 -11    0.43    0.19
  14  -4 -11    0.73    0.23
 -15   5  12    0.75    0.23
 -15   5  12    0.13    0.13
 -15   5  12    0.32    0.17
  15  -5 -12    1.10    0.28
  15  -5 -12    0.68    0.25
 -16   6  13    0.89    0.24
  16  -6 -13    0.92    0.29
  16  -6 -13    0.85    0.29
 -17   7  14    0.71    0.27
  17  -7 -14    0.33    0.26
  17  -7 -14    0.98    0.34
  18  -8 -15    1.74    0.39
  -5  13   7   -0.08    0.22
  -5  13   7   -0.05    0.20
  -4  12   6    0.06    0.20
  -4  12   6    0.03    0.19
  -4  12   6    0.18    0.20
  -3  11   5    5.27    0.54
  -3  11   5    5.78    0.46
  -3  11   5    5.60    0.43
  -2  10   4   21.88    0.95
  -2  10   4   21.17    0.87
  -2  10   4   21.01    0.84
  -1   9   3    3.01    0.33
  -1   9   3    3.43    0.39
  -1   9   3    3.20    0.33
   0   8   2   18.89    0.78
   0   8   2   18.08    0.68
   0   8   2   17.93    0.70
   1   7   1   45.04    1.42
   1   7   1   46.55    1.33
   1   7   1   44.91    1.28
  -2  -6   0    5.82    0.19
   2   6   0    5.84    0.35
   2   6   0    5.79    0.31
   2   6   0    5.87    0.32
  -3  -5   1    1.06    0.10
   3   5  -1    1.00    0.15
   3   5  -1    0.95    0.14
   3   5  -1    1.34    0.18
  -4  -4   2   52.81    1.30
  -4  -4   2   54.77    1.35
   4   4  -2   54.83    1.44
   4   4  -2   53.58    1.49
   4   4  -2   53.95    1.40
  -5  -3   3  109.41    2.56
  -5  -3   3  104.53    2.47
   5   3  -3   99.89    2.57
   5   3  -3  106.82    2.64
   5   3  -3  107.93    2.72
  -6  -2   4    5.90    0.29
  -6  -2   4    5.78    0.28
   6   2  -4    5.80    0.29
   6   2  -4    6.39    0.31
   6   2  -4    6.08    0.27
  -7  -1   5   91.86    2.32
  -7  -1   5   88.15    2.25
  -7  -1   5   88.85    2.18
   7   1  -5   89.55    2.24
   7   1  -5   90.68    2.30
  -8   0   6   46.71    1.26
  -8   0   6   46.92    1.30
  -8   0   6   46.55    1.30
   8   0  -6   48.76    1.31
   8   0  -6   45.51    1.34
  -9   1   7    1.10    0.17
  -9   1   7    0.89    0.14
  -9   1   7    1.12    0.16
   9  -1  -7    0.98    0.17
   9  -1  -7    0.74    0.15
 -10   2   8   37.82    1.14
 -10   2   8   35.23    1.06
 -10   2   8   36.03    1.10
  10  -2  -8   35.75    1.17
  10  -2  -8   35.67    1.13
 -11   3   9    2.57    0.27
 -11   3   9    2.69    0.29
 -11   3   9    1.91    0.25
  11  -3  -9    2.42    0.29
  11  -3  -9    1.67    0.27
 -12   4  10   10.96    0.53
 -12   4  10   11.42    0.52
 -12   4  10   11.26    0.57
  12  -4 -10   10.24    0.57
  12  -4 -10   11.39    0.62
 -13   5  11    0.99    0.24
 -13   5  11    1.23    0.22
 -13   5  11    1.11    0.22
  13  -5 -11    1.03    0.25
  13  -5 -11    0.90    0.25
 -14   6  12   -0.07    0.16
  14  -6 -12   -0.06    0.17
  14  -6 -12   -0.10    0.17
 -15   7  13    0.46    0.24
  15  -7 -13    0.57    0.26
  15  -7 -13    0.76    0.27
 -16   8  14    7.88    0.60
  16  -8 -14    6.11    0.62
   7 -13  -8    3.75    0.52
  -7  13   8    4.33    0.49
  -6  12   7    0.17    0.23
  -6  12   7    0.52    0.26
  -6  12   7    0.12    0.20
  -5  11   6    1.49    0.33
  -5  11   6    2.11    0.34
  -5  11   6    1.14    0.27
  -4  10   5    9.62    0.62
  -4  10   5   11.12    0.58
  -4  10   5   10.80    0.59
  -3   9   4   15.81    0.77
  -3   9   4   15.36    0.66
  -3   9   4   16.93    0.71
  -2   8   3    7.67    0.43
  -2   8   3    8.07    0.49
  -2   8   3    7.27    0.41
  -1   7   2  159.07    4.20
  -1   7   2  160.29    3.86
  -1   7   2  157.01    3.95
   0   6   1    2.25    0.25
   0   6   1    1.92    0.20
   0   6   1    2.40    0.23
  -1  -5   0    7.19    0.21
   1   5   0    6.99    0.32
   1   5   0    7.14    0.31
   1   5   0    7.37    0.37
  -2  -4   1   69.52    1.64
   2   4  -1   67.43    1.85
   2   4  -1   71.05    1.76
   2   4  -1   67.78    1.70
  -3  -3   2  323.88    7.37
   3   3  -2  312.69    7.39
   3   3  -2  326.27    7.57
  -4  -2   3  260.13    5.96
  -4  -2   3  254.33    5.79
   4   2  -3  254.90    6.10
   4   2  -3  246.76    5.95
   4   2  -3  270.07    6.37
  -5  -1   4   24.62    0.72
  -5  -1   4   23.80    0.69
  -5  -1   4   25.66    0.72
   5   1  -4   25.22    0.71
   5   1  -4   24.79    0.74
  -6   0   5    0.01    0.05
  -6   0   5    0.22    0.08
  -6   0   5    0.13    0.08
   6   0  -5    0.04    0.07
   6   0  -5   -0.08    0.05
  -7   1   6   36.41    0.99
  -7   1   6   36.32    1.02
  -7   1   6   35.29    1.05
   7  -1  -6   34.45    1.02
   7  -1  -6   36.09    1.07
  -8   2   7  109.26    2.77
  -8   2   7  111.98    2.69
  -8   2   7  109.49    2.93
   8  -2  -7  112.49    2.88
   8  -2  -7  112.89    2.81
  -9   3   8   58.64    1.74
  -9   3   8   61.36    1.58
  -9   3   8   59.21    1.63
   9  -3  -8   59.26    1.74
   9  -3  -8   62.28    1.71
 -10   4   9   -0.02    0.10
 -10   4   9   -0.10    0.10
 -10   4   9    0.01    0.11
  10  -4  -9   -0.01    0.12
  10  -4  -9    0.30    0.16
 -11   5  10   30.50    0.95
 -11   5  10   30.12    0.98
 -11   5  10   28.39    1.09
  11  -5 -10   30.09    1.12
  11  -5 -10   28.45    1.07
 -12   6  11   -0.06    0.12
  12  -6 -11    0.03    0.17
  12  -6 -11    0.07    0.18
 -13   7  12    0.92    0.26
  13  -7 -12    0.70    0.26
  13  -7 -12    0.91    0.27
 -14   8  13    3.08    0.43
  14  -8 -13    2.48    0.42
  14  -8 -13    2.17    0.40
  15  -9 -14    3.75    0.53
  -9  13   9    0.08    0.24
   8 -12  -8    4.29    0.52
  -8  12   8    4.81    0.51
  -8  12   8    3.21    0.46
  -7  11   7    0.00    0.16
  -7  11   7   -0.06    0.17
  -6  10   6    9.02    0.60
  -6  10   6    9.76    0.56
  -6  10   6   10.48    0.59
  -5   9   5    0.87    0.21
  -5   9   5    0.27    0.17
  -5   9   5    0.98    0.23
  -4   8   4    8.84    0.46
  -4   8   4    8.36    0.47
  -4   8   4    9.95    0.55
  -3   7   3   10.69    0.49
  -3   7   3   11.20    0.48
  -3   7   3   10.92    0.55
  -2   6   2  218.21    5.24
  -2   6   2  219.45    5.67
  -2   6   2  223.70    5.38
  -2   6   2  224.64    5.07
  -1   5   1    6.20    0.34
  -1   5   1    6.85    0.31
  -1   5   1    6.76    0.30
  -1   5   1    7.36    0.21
   0  -4   0   34.96    0.83
   0   4   0   35.08    0.93
   0   4   0   33.58    0.90
   0   4   0   33.44    1.02
  -1  -3   1  118.83    2.78
   1   3  -1  117.99    3.05
   1   3  -1  122.23    2.88
  -2  -2   2   94.25    2.25
   2   2  -2   95.28    2.30
   2   2  -2   96.63    2.43
  -3  -1   3    2.59    0.15
  -3  -1   3    2.79    0.16
   3   1  -3    2.57    0.16
  -4   0   4   37.12    1.02
  -4   0   4   36.50    0.95
  -4   0   4   37.23    0.98
   4   0  -4   36.77    0.97
   4   0  -4   36.91    1.00
  -5   1   5    0.58    0.10
  -5   1   5    0.53    0.10
  -5   1   5    0.72    0.11
   5  -1  -5    0.56    0.11
   5  -1  -5    0.47    0.11
  -6   2   6    0.45    0.10
  -6   2   6    0.50    0.11
   6  -2  -6    0.36    0.11
   6  -2  -6    0.36    0.10
  -7   3   7   17.57    0.67
  -7   3   7   17.87    0.61
  -7   3   7   17.90    0.59
   7  -3  -7   18.66    0.67
   7  -3  -7   18.16    0.69
  -8   4   8   48.17    1.28
  -8   4   8   48.32    1.47
  -8   4   8   47.76    1.32
   8  -4  -8   47.03    1.45
   8  -4  -8   45.35    1.40
  -9   5   9    2.75    0.26
  -9   5   9    2.73    0.26
  -9   5   9    2.84    0.32
   9  -5  -9    3.43    0.38
   9  -5  -9    2.69    0.33
 -10   6  10   19.46    0.85
  10  -6 -10   19.61    0.87
  10  -6 -10   18.56    0.83
 -11   7  11    1.48    0.29
  11  -7 -11    1.34    0.29
  11  -7 -11    1.80    0.34
 -12   8  12    3.39    0.43
  12  -8 -12    3.51    0.46
  12  -8 -12    4.00    0.48
 -13   9  13    3.12    0.45
  13  -9 -13    2.80    0.44
  13  -9 -13    2.38    0.41
  14 -10 -14    0.19    0.24
  10 -12  -9    0.44    0.26
 -10  12   9   -0.04    0.23
   9 -11  -8   10.01    0.66
  -9  11   8    8.66    0.64
  -9  11   8    9.29    0.60
   8 -10  -7    1.06    0.27
  -8  10   7    1.34    0.31
  -8  10   7    1.16    0.27
  -7   9   6   12.81    0.62
  -7   9   6   13.40    0.71
  -6   8   5    3.16    0.33
  -6   8   5    2.55    0.30
  -6   8   5    3.16    0.36
  -5   7   4    7.15    0.38
  -5   7   4    6.65    0.39
  -5   7   4    5.61    0.40
  -4   6   3    0.36    0.08
  -4   6   3    0.19    0.11
  -4   6   3    0.37    0.13
  -4   6   3    0.20    0.10
  -3   5   2   45.31    1.24
  -3   5   2   46.49    1.12
  -3   5   2   44.78    1.35
  -3   5   2   44.42    1.21
  -2   4   1   67.61    1.90
  -2   4   1   70.20    1.73
  -2   4   1   71.65    1.67
  -2   4   1   72.44    1.78
   1  -3   0  100.90    2.37
  -1   3   0  101.39    2.63
  -1   3   0  105.05    2.47
   0  -2   1  126.75    2.91
   0   2  -1  124.24    2.96
   0   2  -1  126.13    3.16
  -1  -1   2   18.56    0.51
   1   1  -2   19.16    0.50
  -2   0   3   -0.03    0.05
  -2   0   3   -0.11    0.03
   2   0  -3   -0.07    0.04
  -3   1   4  255.26    6.34
  -3   1   4  254.96    5.92
  -3   1   4  259.31    5.93
   3  -1  -4  255.57    6.08
  -4   2   5   38.40    1.00
  -4   2   5   36.94    1.09
  -4   2   5   37.45    1.03
  -4   2   5   38.57    0.97
   4  -2  -5   37.56    1.07
  -5   3   6   17.22    0.51
  -5   3   6   16.34    0.57
  -5   3   6   15.68    0.52
  -5   3   6   15.91    0.60
   5  -3  -6   15.19    0.59
  -6   4   7   23.79    0.70
  -6   4   7   23.58    0.79
  -6   4   7   24.58    0.86
  -6   4   7   23.78    0.73
   6  -4  -7   24.07    0.85
  -7   5   8    0.36    0.14
  -7   5   8    0.46    0.12
  -7   5   8    0.57    0.16
  -7   5   8    0.28    0.11
   7  -5  -8    0.25    0.15
  -8   6   9    0.17    0.14
  -8   6   9    0.13    0.14
   8  -6  -9    0.17    0.16
  -9   7  10   18.30    0.80
  -9   7  10   16.18    0.80
   9  -7 -10   16.78    0.82
 -10   8  11    7.96    0.57
  10  -8 -11    7.52    0.57
 -11   9  12    3.99    0.50
  11  -9 -12    3.20    0.45
  11  -9 -12    4.00    0.50
  12 -10 -13    4.01    0.53
  12 -12 -10    0.36    0.26
  11 -11  -9    0.51    0.25
  11 -11  -9    0.57    0.26
 -11  11   9    0.16    0.22
  10 -10  -8    9.59    0.63
 -10  10   8    8.48    0.62
   9  -9  -7    0.25    0.20
  -9   9   7    0.05    0.16
  -9   9   7    0.04    0.18
   8  -8  -6    0.77    0.22
  -8   8   6    1.03    0.23
  -8   8   6    0.87    0.22
   7  -7  -5    4.83    0.38
  -7   7   5    5.19    0.35
  -7   7   5    5.29    0.41
  -6   6   4   74.39    1.94
  -6   6   4   70.64    2.12
  -6   6   4   76.77    1.85
  -6   6   4   75.44    1.79
  -5   5   3    5.28    0.33
  -5   5   3    5.04    0.29
  -5   5   3    5.46    0.24
  -5   5   3    5.94    0.29
  -5   5   3    5.53    0.23
  -4   4   2   49.74    1.33
  -4   4   2   51.51    1.48
  -4   4   2   55.01    1.31
  -4   4   2   52.96    1.38
  -3   3   1  401.46    9.84
  -3   3   1  405.12    9.18
  -3   3   1  393.14    9.36
   2  -2   0   67.36    1.59
  -2   2   0   67.42    1.74
  -2   2   0   66.41    1.61
   1  -1   1    7.50    0.24
  -1   1  -1    8.37    0.27
   0   0   2    3.83    0.14
   0   0   2    3.95    0.16
   0   0   2    3.86    0.15
  -1   1   3   11.93    0.38
  -1   1   3   14.59    0.42
  -1   1   3   14.25    0.43
  -2   2   4  241.74    5.71
  -2   2   4  250.54    5.67
  -2   2   4  245.14    6.11
  -3   3   5  533.80   12.28
  -3   3   5  530.63   13.09
  -3   3   5  524.50   11.85
  -3   3   5  530.65   12.51
  -3   3   5  540.49   12.24
  -4   4   6   94.70    2.38
  -4   4   6   90.34    2.43
  -4   4   6   94.76    2.21
  -4   4   6   92.72    2.55
  -4   4   6   95.77    2.28
  -5   5   7   13.11    0.45
  -5   5   7   13.96    0.59
  -5   5   7   13.23    0.56
  -5   5   7   13.49    0.47
  -5   5   7   13.55    0.60
  -6   6   8    0.03    0.10
  -6   6   8    0.09    0.13
  -7   7   9    6.04    0.43
  -7   7   9    5.67    0.45
   7  -7  -9    5.97    0.47
  -8   8  10   18.36    0.86
  -8   8  10   16.36    0.78
   8  -8 -10   15.56    0.81
  -9   9  11    5.37    0.54
  -9   9  11    6.70    0.53
   9  -9 -11    6.78    0.56
 -10  10  12    5.98    0.62
  10 -10 -12    6.49    0.64
  11 -11 -13    0.55    0.29
  13 -11 -10    0.30    0.24
  13 -11 -10    0.40    0.25
  12 -10  -9    3.42    0.44
  12 -10  -9    3.42    0.46
 -12  10   9    3.72    0.47
  11  -9  -8    0.19    0.19
  11  -9  -8    0.04    0.18
 -11   9   8    0.01    0.17
  10  -8  -7    1.14    0.26
  10  -8  -7    0.86    0.23
 -10   8   7    0.75    0.22
   9  -7  -6    2.69    0.33
  -9   7   6    3.06    0.36
   8  -6  -5   34.54    1.15
  -8   6   5   36.45    0.99
  -8   6   5   34.90    1.20
  -8   6   5   36.92    1.03
   7  -5  -4   52.52    1.51
  -7   5   4   52.40    1.58
  -7   5   4   55.00    1.41
  -7   5   4   54.42    1.46
  -7   5   4   53.18    1.36
   6  -4  -3   25.96    0.86
  -6   4   3   30.93    0.83
  -6   4   3   29.96    0.80
  -6   4   3   29.53    0.93
  -5   3   2  647.21   16.01
  -5   3   2  639.61   15.01
  -5   3   2  655.01   14.52
   4  -2  -1  113.63    2.77
  -4   2   1  116.46    2.91
   3  -1   0  427.54   10.11
   3  -1   0  432.78   10.03
  -3   1   0  429.22   10.63
   2   0   1    0.01    0.04
   2   0   1   -0.07    0.03
   2   0   1   -0.05    0.03
   1   1   2    9.28    0.28
   1   1   2    9.38    0.30
   0   2   3  108.14    2.65
   0   2   3  112.15    2.72
   0   2   3  109.04    2.83
   0   2   3  115.72    2.60
  -1   3   4   28.95    0.74
  -1   3   4   28.13    0.82
  -1   3   4   28.96    0.88
  -1   3   4   29.19    0.85
  -2   4   5  138.26    3.19
  -2   4   5  137.88    3.56
  -2   4   5  133.47    3.39
  -2   4   5  134.83    3.31
  -3   5   6  137.44    3.64
  -3   5   6  135.46    3.39
  -3   5   6  138.71    3.22
  -3   5   6  133.96    3.47
  -3   5   6  138.56    3.13
  -4   6   7    1.41    0.23
  -4   6   7    1.85    0.25
  -4   6   7    1.63    0.25
  -5   7   8    0.50    0.18
  -5   7   8    0.08    0.15
  -5   7   8    0.26    0.15
  -6   8   9    4.07    0.41
  -6   8   9    3.85    0.43
  -6   8   9    4.67    0.47
  -7   9  10   10.13    0.66
  -7   9  10   11.90    0.66
   7  -9 -10   11.26    0.71
  -8  10  11   -0.04    0.20
  -8  10  11   -0.24    0.17
   8 -10 -11   -0.09    0.18
  -9  11  12    4.89    0.56
  15 -11 -11    0.38    0.28
  14 -10 -10    0.87    0.29
  14 -10 -10    0.84    0.28
 -14  10  10    0.66    0.26
  13  -9  -9    9.70    0.62
  13  -9  -9    8.65    0.61
 -13   9   9    9.04    0.63
  12  -8  -8    2.34    0.34
  12  -8  -8    2.06    0.33
 -12   8   8    2.04    0.33
  11  -7  -7   33.22    1.18
  11  -7  -7   34.06    1.16
 -11   7   7   32.65    1.20
  10  -6  -6   59.82    1.77
  10  -6  -6   59.02    1.72
 -10   6   6   59.26    1.82
 -10   6   6   60.93    1.64
 -10   6   6   62.17    1.59
   9  -5  -5   26.02    0.89
   9  -5  -5   27.06    0.93
  -9   5   5   27.05    0.85
  -9   5   5   27.84    0.82
  -9   5   5   26.70    0.94
   8  -4  -4   86.54    2.29
   8  -4  -4   88.43    2.24
  -8   4   4   88.46    2.14
  -8   4   4   85.94    2.20
  -8   4   4   89.14    2.38
   7  -3  -3   41.11    1.13
   7  -3  -3   40.97    1.16
  -7   3   3   41.97    1.20
  -6   2   2    4.01    0.21
  -6   2   2    4.05    0.21
  -6   2   2    3.41    0.21
  -5   1   1   56.57    1.41
  -5   1   1   55.14    1.43
  -4   0   0   92.37    2.30
  -4   0   0   93.82    2.23
   3   1   1    5.63    0.23
   3   1   1    5.57    0.19
   2   2   2    1.17    0.12
   2   2   2    1.18    0.09
   2   2   2    1.35    0.13
   2   2   2    1.45    0.11
   1   3   3    5.74    0.26
   1   3   3    5.42    0.27
   1   3   3    5.62    0.19
   1   3   3    5.38    0.27
   0   4   4    9.91    0.43
   0   4   4   10.63    0.30
   0   4   4   10.17    0.44
   0   4   4   10.22    0.41
  -1   5   5   21.70    0.56
  -1   5   5   20.92    0.77
  -1   5   5   21.34    0.75
  -1   5   5   20.09    0.71
  -2   6   6  161.03    3.95
  -2   6   6  157.62    4.24
  -2   6   6  161.65    4.06
  -3   7   7    2.26    0.30
  -3   7   7    2.10    0.29
  -3   7   7    2.85    0.32
  -4   8   8    0.66    0.21
  -4   8   8    0.33    0.18
  -4   8   8    1.09    0.24
  -5   9   9   14.33    0.72
  -5   9   9   14.11    0.76
  -5   9   9   14.44    0.74
  -6  10  10    4.67    0.51
  -6  10  10    4.29    0.49
  -7  11  11    0.55    0.26
  -7  11  11    0.61    0.26
   7 -11 -11    0.45    0.27
  -8  12  12    3.22    0.47
  16 -10 -11    0.89    0.29
  16 -10 -11    0.75    0.31
 -16  10  11    0.16    0.21
  15  -9 -10    0.98    0.31
  15  -9 -10    1.04    0.30
 -15   9  10    1.08    0.30
  14  -8  -9    6.37    0.51
  14  -8  -9    5.75    0.55
 -14   8   9    5.69    0.48
  13  -7  -8    6.94    0.50
  13  -7  -8    5.78    0.46
 -13   7   8    7.32    0.50
  12  -6  -7    4.36    0.41
  12  -6  -7    4.16    0.40
 -12   6   7    5.01    0.39
 -12   6   7    4.21    0.33
 -12   6   7    5.12    0.34
  11  -5  -6   52.26    1.60
  11  -5  -6   53.07    1.56
 -11   5   6   54.90    1.52
 -11   5   6   53.37    1.63
 -11   5   6   54.25    1.46
  10  -4  -5   72.16    1.80
  10  -4  -5   69.00    1.84
 -10   4   5   71.69    1.88
 -10   4   5   56.24    1.66
 -10   4   5   58.64    1.73
   9  -3  -4   74.60    1.98
   9  -3  -4   73.69    1.92
  -9   3   4   72.35    1.91
  -9   3   4   73.62    2.00
  -9   3   4   75.37    1.86
   8  -2  -3   31.09    0.89
   8  -2  -3   30.19    0.91
  -8   2   3   30.74    0.89
  -8   2   3   30.60    0.86
  -8   2   3   29.85    0.89
   7  -1  -2   57.74    1.46
   7  -1  -2   56.49    1.50
  -7   1   2   57.93    1.49
  -7   1   2   57.45    1.49
   6   0  -1    0.14    0.07
   6   0  -1    0.16    0.07
  -6   0   1    0.04    0.03
  -6   0   1    0.00    0.06
  -6   0   1    0.06    0.06
   5   1   0  144.94    3.55
   5   1   0  143.25    3.43
   5   1   0  146.72    3.33
   5   1   0  147.17    3.52
  -5  -1   0  146.76    3.44
   4   2   1   63.81    1.65
   4   2   1   64.58    1.64
   4   2   1   64.12    1.61
  -4  -2  -1   64.88    1.57
   3   3   2   11.22    0.41
   3   3   2   10.45    0.41
   3   3   2   11.15    0.34
   3   3   2   11.21    0.40
   2   4   3    6.81    0.33
   2   4   3    7.29    0.35
   2   4   3    7.65    0.24
   2   4   3    7.55    0.35
   1   5   4    0.31    0.11
   1   5   4    0.25    0.11
   1   5   4    0.10    0.10
   1   5   4    0.25    0.05
   0   6   5    1.80    0.24
   0   6   5    2.12    0.24
   0   6   5    2.09    0.26
  -1   7   6   48.33    1.43
  -1   7   6   46.90    1.46
  -1   7   6   47.97    1.53
  -2   8   7    8.17    0.50
  -2   8   7    8.92    0.54
  -2   8   7    9.41    0.54
  -3   9   8    3.86    0.42
  -3   9   8    3.86    0.45
  -3   9   8    4.11    0.43
  -4  10   9    3.79    0.43
  -4  10   9    4.81    0.51
  -4  10   9    3.81    0.47
  -5  11  10    2.92    0.44
  -5  11  10    3.14    0.43
  -5  11  10    3.16    0.45
  -6  12  11   -0.14    0.21
  17  -9 -11    2.13    0.41
  17  -9 -11    1.42    0.33
 -17   9  11    1.98    0.36
  16  -8 -10   20.68    0.99
  16  -8 -10   19.84    0.95
 -16   8  10   21.62    0.98
  15  -7  -9    9.64    0.61
  15  -7  -9   11.10    0.66
 -15   7   9   11.06    0.63
  14  -6  -8    2.25    0.32
  14  -6  -8    1.75    0.30
 -14   6   8    2.26    0.29
 -14   6   8    1.83    0.28
 -14   6   8    1.51    0.25
  13  -5  -7    0.49    0.20
  13  -5  -7    0.41    0.18
 -13   5   7    0.43    0.16
 -13   5   7    0.39    0.15
 -13   5   7    0.23    0.13
  12  -4  -6   97.96    2.67
  12  -4  -6  100.48    2.61
 -12   4   6  101.48    2.71
 -12   4   6   97.96    2.50
 -12   4   6   98.75    2.59
  11  -3  -5   68.54    1.86
  11  -3  -5   68.69    1.91
 -11   3   5   69.09    1.79
 -11   3   5   66.89    1.89
 -11   3   5   70.06    1.86
  10  -2  -4   66.55    1.73
  10  -2  -4   64.22    1.78
 -10   2   4   63.98    1.68
 -10   2   4   66.27    1.75
 -10   2   4   64.26    1.74
   9  -1  -3    5.20    0.30
   9  -1  -3    4.75    0.28
  -9   1   3    4.68    0.21
  -9   1   3    5.12    0.28
  -9   1   3    5.02    0.28
   8   0  -2    1.95    0.19
   8   0  -2    2.25    0.19
  -8   0   2    1.73    0.09
  -8   0   2    1.59    0.17
  -8   0   2    1.70    0.17
   7   1  -1  128.46    3.01
   7   1  -1  123.73    3.07
  -7  -1   1  123.89    2.91
  -7  -1   1  121.58    3.00
   6   2   0  160.43    3.92
   6   2   0  163.66    3.94
   6   2   0  155.11    3.82
  -6  -2   0  160.46    3.69
  -6  -2   0  164.07    3.81
   5   3   1   19.09    0.65
   5   3   1   20.45    0.60
   5   3   1   19.47    0.63
  -5  -3  -1   21.31    0.59
  -5  -3  -1   19.22    0.56
   4   4   2  223.54    5.34
   4   4   2  223.74    5.47
   4   4   2  225.75    5.65
  -4  -4  -2  230.34    5.22
   3   5   3    5.75    0.34
   3   5   3    6.08    0.33
  -3  -5  -3    6.58    0.23
   2   6   4    3.82    0.29
   2   6   4    4.25    0.30
   2   6   4    3.89    0.31
   1   7   5    8.10    0.44
   1   7   5    8.49    0.48
   1   7   5    8.68    0.48
   0   8   6    5.04    0.40
   0   8   6    4.96    0.40
   0   8   6    4.86    0.39
  -1   9   7    3.73    0.42
  -1   9   7    4.34    0.43
  -1   9   7    4.56    0.45
  -2  10   8    3.01    0.39
  -2  10   8    3.21    0.41
  -2  10   8    2.56    0.38
  -3  11   9   -0.23    0.17
  -3  11   9   -0.27    0.18
  -3  11   9   -0.05    0.20
  -4  12  10    0.85    0.29
  19  -9 -12    1.77    0.39
  18  -8 -11    5.59    0.57
  18  -8 -11    5.42    0.57
  17  -7 -10   13.05    0.74
  17  -7 -10   12.96    0.75
  16  -6  -9    2.25    0.34
  16  -6  -9    1.90    0.33
 -16   6   9    1.91    0.30
  15  -5  -8    1.58    0.28
  15  -5  -8    1.34    0.27
 -15   5   8    1.65    0.25
 -15   5   8    1.60    0.26
 -15   5   8    1.98    0.28
  14  -4  -7   15.13    0.68
  14  -4  -7   14.00    0.68
 -14   4   7   14.18    0.65
 -14   4   7   14.21    0.63
 -14   4   7   15.06    0.62
  13  -3  -6   10.81    0.53
  13  -3  -6   10.39    0.54
 -13   3   6   10.96    0.47
 -13   3   6   10.73    0.53
 -13   3   6   10.78    0.51
  12  -2  -5   20.22    0.73
  12  -2  -5   21.03    0.76
 -12   2   5   18.74    0.73
 -12   2   5   19.51    0.70
 -12   2   5   19.07    0.65
  11  -1  -4  147.59    3.56
  11  -1  -4  140.68    3.64
 -11   1   4  143.57    3.58
 -11   1   4  144.16    3.47
 -11   1   4  147.36    3.63
  10   0  -3    0.13    0.09
  10   0  -3    0.02    0.09
 -10   0   3    0.00    0.08
 -10   0   3    0.06    0.09
 -10   0   3   -0.01    0.04
   9   1  -2   36.30    1.03
   9   1  -2   36.22    1.07
  -9  -1   2   35.19    1.03
  -9  -1   2   35.37    1.00
   8   2  -1    6.61    0.34
   8   2  -1    6.14    0.32
  -8  -2   1    6.55    0.30
  -8  -2   1    6.51    0.31
   7   3   0  149.01    3.78
   7   3   0  153.76    3.78
   7   3   0  153.48    3.70
  -7  -3   0  154.56    3.65
  -7  -3   0  152.11    3.53
   6   4   1   22.14    0.74
   6   4   1   22.97    0.70
   6   4   1   21.41    0.75
  -6  -4  -1   22.53    0.64
  -6  -4  -1   23.33    0.67
   5   5   2   75.48    1.97
   5   5   2   73.48    2.02
   5   5   2   74.70    2.02
  -5  -5  -2   73.13    1.76
  -5  -5  -2   75.66    1.82
   4   6   3   11.04    0.50
   4   6   3   11.61    0.53
   4   6   3   11.21    0.50
   3   7   4    0.21    0.13
   3   7   4    0.51    0.15
   3   7   4    0.21    0.14
   2   8   5   11.89    0.60
   2   8   5   12.17    0.62
   2   8   5   11.45    0.58
   1   9   6    2.04    0.31
   1   9   6    2.03    0.31
   1   9   6    2.08    0.31
   0  10   7   12.38    0.67
   0  10   7   14.38    0.74
   0  10   7   13.46    0.74
  -1  11   8   19.35    0.93
  -1  11   8   19.25    0.96
  -1  11   8   18.36    0.88
  -2  12   9    3.84    0.49
  -2  12   9    3.94    0.49
  -2  12   9    3.31    0.47
  -3  13  10    1.59    0.36
  20  -8 -12   -0.01    0.23
  19  -7 -11    1.06    0.31
  19  -7 -11    1.37    0.34
  18  -6 -10   19.03    0.94
  18  -6 -10   19.60    0.93
 -18   6  10   20.44    0.85
 -18   6  10   20.11    0.88
  17  -5  -9    1.37    0.30
  17  -5  -9    0.88    0.25
 -17   5   9    1.02    0.24
 -17   5   9    1.41    0.27
  16  -4  -8    1.72    0.30
  16  -4  -8    1.26    0.26
 -16   4   8    2.39    0.31
 -16   4   8    2.74    0.34
  15  -3  -7   36.54    1.27
  15  -3  -7   37.86    1.24
 -15   3   7   39.03    1.25
 -15   3   7   36.45    1.19
  14  -2  -6    0.40    0.18
  14  -2  -6    0.23    0.16
 -14   2   6    0.19    0.15
 -14   2   6    0.30    0.16
  13  -1  -5    4.77    0.35
  13  -1  -5    3.91    0.31
 -13   1   5    4.58    0.34
 -13   1   5    4.88    0.34
 -13   1   5    4.58    0.23
  12   0  -4  426.01    9.91
  12   0  -4  423.73   10.14
 -12   0   4  425.34    9.65
 -12   0   4  424.83    9.94
 -12   0   4  420.84   10.34
  11   1  -3  137.66    3.40
  11   1  -3  137.39    3.48
 -11  -1   3  137.95    3.30
 -11  -1   3  135.96    3.40
  10   2  -2   16.68    0.64
  10   2  -2   16.57    0.62
 -10  -2   2   16.43    0.59
 -10  -2   2   16.85    0.61
   9   3  -1   79.15    2.16
   9   3  -1   82.73    2.12
   9   3  -1   82.35    2.02
  -9  -3   1   79.97    2.07
  -9  -3   1   80.62    2.01
   8   4   0   35.35    1.13
   8   4   0   38.13    1.02
   8   4   0   36.85    1.11
  -8  -4   0   37.01    1.04
  -8  -4   0   37.11    1.01
   7   5   1    9.33    0.45
   7   5   1   10.15    0.41
   7   5   1    9.83    0.48
  -7  -5  -1   10.01    0.37
  -7  -5  -1    9.37    0.37
   6   6   2   40.42    1.23
   6   6   2   40.66    1.24
   6   6   2   41.56    1.29
   5   7   3    3.93    0.38
   5   7   3    4.25    0.32
   5   7   3    3.85    0.32
   4   8   4    4.06    0.34
   4   8   4    4.06    0.39
   4   8   4    3.78    0.38
   3   9   5    1.73    0.30
   3   9   5    1.18    0.25
   3   9   5    1.54    0.26
   2  10   6    0.20    0.19
   2  10   6    0.04    0.17
   2  10   6    0.17    0.19
   1  11   7    4.92    0.52
   1  11   7    3.48    0.43
   1  11   7    3.39    0.44
   0  12   8    4.92    0.56
   0  12   8    4.72    0.53
   0  12   8    5.72    0.56
  -1  13   9    0.71    0.28
  21  -7 -12    1.94    0.41
  20  -6 -11   -0.05    0.21
  20  -6 -11   -0.13    0.20
 -20   6  11    0.76    0.26
 -20   6  11    0.30    0.21
  19  -5 -10   12.42    0.75
  19  -5 -10   13.71    0.74
 -19   5  10   12.50    0.70
 -19   5  10   13.02    0.68
  18  -4  -9   -0.01    0.16
  18  -4  -9   -0.11    0.17
 -18   4   9    0.07    0.17
 -18   4   9   -0.04    0.16
  17  -3  -8    0.17    0.17
  17  -3  -8    0.18    0.17
 -17   3   8    0.00    0.16
 -17   3   8    0.14    0.17
  16  -2  -7    0.12    0.16
  16  -2  -7   -0.02    0.14
 -16   2   7   -0.06    0.15
 -16   2   7    0.11    0.17
  15  -1  -6   13.60    0.64
  15  -1  -6   14.60    0.67
 -15   1   6   13.90    0.65
 -15   1   6   13.62    0.62
  14   0  -5   -0.02    0.13
  14   0  -5    0.02    0.12
 -14   0   5   -0.02    0.11
 -14   0   5   -0.18    0.10
  13   1  -4   20.34    0.78
  13   1  -4   21.58    0.77
 -13  -1   4   19.45    0.73
 -13  -1   4   20.73    0.78
  12   2  -3   10.99    0.53
  12   2  -3   12.14    0.53
 -12  -2   3   12.44    0.53
 -12  -2   3   11.69    0.53
  11   3  -2   20.26    0.73
  11   3  -2   18.52    0.74
 -11  -3   2   19.87    0.68
 -11  -3   2   18.92    0.69
  10   4  -1    1.72    0.24
  10   4  -1    2.69    0.28
 -10  -4   1    2.43    0.23
 -10  -4   1    2.31    0.24
   9   5   0    1.20    0.20
   9   5   0    1.20    0.14
   9   5   0    1.20    0.21
  -9  -5   0    1.29    0.17
  -9  -5   0    1.41    0.17
   8   6   1    0.15    0.10
   8   6   1    0.16    0.13
  -8  -6  -1    0.03    0.09
   7   7   2   70.53    2.03
   7   7   2   74.80    2.11
   7   7   2   72.43    2.05
   6   8   3    2.53    0.30
   6   8   3    3.17    0.36
   6   8   3    2.86    0.34
   5   9   4   19.96    0.85
   5   9   4   20.43    0.89
   4  10   5   10.25    0.62
   4  10   5   10.88    0.63
   4  10   5   10.82    0.64
   3  11   6    0.44    0.23
   3  11   6    0.47    0.23
   3  11   6    0.42    0.22
   2  12   7    2.16    0.38
   2  12   7    2.04    0.37
   2  12   7    1.67    0.36
   1  13   8    7.91    0.61
  22  -6 -12    1.37    0.34
 -22   6  12    0.65    0.28
 -22   6  12    0.89    0.29
  21  -5 -11    0.28    0.25
  21  -5 -11    0.23    0.24
 -21   5  11    0.73    0.27
 -21   5  11    0.79    0.27
  20  -4 -10   19.77    0.91
  20  -4 -10   18.87    0.94
 -20   4  10   19.54    0.88
 -20   4  10   18.87    0.90
  19  -3  -9    3.47    0.42
  19  -3  -9    2.78    0.40
 -19   3   9    2.58    0.37
 -19   3   9    3.04    0.39
  18  -2  -8   26.48    1.03
 -18   2   8   25.92    0.99
 -18   2   8   25.29    1.02
  17  -1  -7    1.35    0.26
  17  -1  -7    0.98    0.23
 -17   1   7    1.03    0.24
 -17   1   7    1.06    0.24
  16   0  -6   16.95    0.72
  16   0  -6   15.93    0.73
 -16   0   6   15.86    0.69
 -16   0   6   16.40    0.73
  15   1  -5    4.93    0.38
  15   1  -5    4.30    0.37
 -15  -1   5    5.66    0.40
 -15  -1   5    5.13    0.38
  14   2  -4   12.55    0.58
  14   2  -4   11.80    0.58
 -14  -2   4   11.41    0.57
 -14  -2   4   11.92    0.56
  13   3  -3   12.12    0.56
  13   3  -3   11.53    0.57
 -13  -3   3   11.49    0.55
 -13  -3   3   11.94    0.54
  12   4  -2   11.90    0.58
  12   4  -2   11.51    0.56
 -12  -4   2   10.85    0.49
 -12  -4   2   11.36    0.52
  11   5  -1    0.07    0.13
  11   5  -1    0.10    0.13
 -11  -5   1   -0.01    0.11
 -11  -5   1    0.08    0.12
  10   6   0   10.35    0.55
  10   6   0   10.20    0.54
 -10  -6   0    9.55    0.42
 -10  -6   0   10.12    0.45
   9   7   1    0.99    0.21
   9   7   1    1.06    0.24
   8   8   2   35.61    1.23
   8   8   2   35.13    1.26
   7   9   3   13.90    0.73
   7   9   3   14.33    0.71
   6  10   4    9.44    0.60
   6  10   4    8.04    0.53
   6  10   4    8.67    0.58
   5  11   5    3.24    0.41
   5  11   5    4.15    0.48
   5  11   5    3.79    0.46
   4  12   6    0.28    0.23
   4  12   6    0.49    0.26
   4  12   6    0.22    0.20
   3  13   7    2.90    0.46
   3  13   7    3.28    0.47
  23  -5 -12    0.93    0.33
 -23   5  12    1.05    0.33
  22  -4 -11    1.36    0.33
  22  -4 -11    0.96    0.31
 -22   4  11    0.87    0.29
 -22   4  11    0.79    0.29
  21  -3 -10    1.59    0.33
  21  -3 -10    1.80    0.35
 -21   3  10    1.35    0.31
 -21   3  10    1.47    0.32
  20  -2  -9    8.28    0.58
  20  -2  -9    8.60    0.60
 -20   2   9    8.32    0.55
 -20   2   9    7.06    0.54
  19  -1  -8   24.63    0.99
  19  -1  -8   24.16    1.02
 -19   1   8   23.81    0.99
 -19   1   8   22.96    0.95
  18   0  -7    0.08    0.15
  18   0  -7   -0.11    0.13
 -18   0   7    0.06    0.17
 -18   0   7   -0.04    0.15
  17   1  -6   -0.01    0.14
  17   1  -6   -0.03    0.14
 -17  -1   6    0.18    0.16
 -17  -1   6   -0.01    0.14
  16   2  -5   14.19    0.68
  16   2  -5   15.99    0.73
 -16  -2   5   14.61    0.67
 -16  -2   5   15.12    0.70
  15   3  -4    0.11    0.15
  15   3  -4    0.02    0.14
 -15  -3   4   -0.02    0.14
 -15  -3   4    0.04    0.15
  14   4  -3    3.37    0.37
  14   4  -3    2.96    0.34
 -14  -4   3    3.66    0.35
 -14  -4   3    3.21    0.32
  13   5  -2   47.46    1.49
  13   5  -2   45.60    1.51
 -13  -5   2   48.24    1.36
 -13  -5   2   46.82    1.40
  12   6  -1   19.67    0.84
  12   6  -1   19.38    0.81
 -12  -6   1   19.69    0.70
 -12  -6   1   18.04    0.70
  11   7   0    1.18    0.25
  11   7   0    0.71    0.21
  10   8   1    0.75    0.22
  10   8   1    1.11    0.25
   9   9   2    4.47    0.50
   9   9   2    4.52    0.46
   8  10   3    5.50    0.54
   8  10   3    5.60    0.53
   7  11   4   17.25    0.88
   7  11   4   18.17    0.92
   6  12   5    0.01    0.22
   6  12   5    0.13    0.22
   5  13   6    1.04    0.35
  24  -4 -12    2.40    0.43
 -24   4  12    3.33    0.48
  23  -3 -11    2.14    0.42
  23  -3 -11    2.66    0.43
 -23   3  11    2.27    0.41
 -23   3  11    2.41    0.39
  22  -2 -10    0.09    0.21
  22  -2 -10    0.13    0.20
 -22   2  10   -0.04    0.22
 -22   2  10    0.39    0.24
  21  -1  -9    0.33    0.23
  21  -1  -9    0.53    0.25
 -21   1   9    0.82    0.26
 -21   1   9    0.50    0.24
  20   0  -8   23.64    1.03
  20   0  -8   23.35    0.99
 -20   0   8   22.94    1.00
 -20   0   8   23.59    0.97
  19   1  -7    0.02    0.17
  19   1  -7    0.13    0.17
 -19  -1   7   -0.02    0.17
 -19  -1   7    0.24    0.19
  18   2  -6    2.09    0.32
  18   2  -6    2.61    0.35
 -18  -2   6    2.40    0.35
 -18  -2   6    2.58    0.34
  17   3  -5    3.26    0.38
  17   3  -5    3.62    0.41
 -17  -3   5    2.94    0.35
 -17  -3   5    3.68    0.39
  16   4  -4    3.89    0.42
  16   4  -4    4.82    0.46
 -16  -4   4    4.65    0.43
 -16  -4   4    4.22    0.40
  15   5  -3    0.45    0.19
  15   5  -3    0.23    0.18
 -15  -5   3    0.21    0.16
 -15  -5   3    0.10    0.16
  14   6  -2   26.09    1.03
  14   6  -2   27.32    1.08
 -14  -6   2   27.82    0.93
 -14  -6   2   27.23    0.95
  13   7  -1    9.59    0.60
  13   7  -1    9.54    0.58
  12   8   0    2.17    0.34
  12   8   0    2.56    0.38
  11   9   1   -0.11    0.15
  11   9   1    0.01    0.18
  10  10   2    1.50    0.32
  10  10   2    0.96    0.28
   9  11   3    1.69    0.35
   9  11   3    1.71    0.35
   8  12   4    7.48    0.59
   7  13   5    0.53    0.29
  24  -2 -11   -0.01    0.22
 -24   2  11    0.60    0.28
  23  -1 -10    2.01    0.36
  23  -1 -10    2.01    0.38
 -23   1  10    1.95    0.38
 -23   1  10    1.60    0.33
  22   0  -9    0.16    0.20
  22   0  -9   -0.17    0.16
 -22   0   9   -0.25    0.18
 -22   0   9   -0.02    0.19
  21   1  -8   19.47    0.95
  21   1  -8   21.15    0.96
 -21  -1   8   21.42    0.98
 -21  -1   8   23.07    0.97
  20   2  -7   10.62    0.63
  20   2  -7    9.51    0.63
 -20  -2   7    9.02    0.58
 -20  -2   7    9.89    0.62
  19   3  -6    5.80    0.48
  19   3  -6    6.08    0.49
 -19  -3   6    6.16    0.47
 -19  -3   6    5.92    0.47
  18   4  -5   23.10    0.97
  18   4  -5   22.17    0.98
 -18  -4   5   22.41    0.94
 -18  -4   5   22.32    0.90
  17   5  -4    6.03    0.49
  17   5  -4    5.49    0.53
 -17  -5   4    5.80    0.43
 -17  -5   4    5.99    0.45
  16   6  -3    1.39    0.30
  16   6  -3    1.79    0.31
 -16  -6   3    2.00    0.29
 -16  -6   3    0.86    0.22
  15   7  -2   84.47    2.55
  15   7  -2   85.71    2.49
  14   8  -1    4.68    0.50
  14   8  -1    4.78    0.51
  13   9   0    1.56    0.33
  13   9   0    1.93    0.36
  12  10   1    0.80    0.26
  12  10   1    0.68    0.27
  11  11   2   -0.26    0.18
  11  11   2    0.16    0.22
  10  12   3    0.10    0.21
  25  -1 -11   -0.15    0.22
 -25   1  11   -0.12    0.23
  24   0 -10    0.68    0.28
 -24   0  10    0.99    0.31
  23   1  -9   -0.16    0.15
  23   1  -9    0.06    0.22
 -23  -1   9   -0.14    0.19
 -23  -1   9    0.03    0.22
  22   2  -8    6.38    0.60
  22   2  -8    5.98    0.59
 -22  -2   8    7.16    0.56
 -22  -2   8    7.00    0.53
  21   3  -7   12.88    0.74
  21   3  -7   13.35    0.77
 -21  -3   7   14.03    0.73
 -21  -3   7   12.41    0.72
  20   4  -6   17.12    0.86
  20   4  -6   16.93    0.87
 -20  -4   6   17.03    0.84
 -20  -4   6   17.20    0.81
  19   5  -5    0.65    0.26
  19   5  -5    0.40    0.22
 -19  -5   5    0.21    0.20
 -19  -5   5    0.85    0.26
  18   6  -4    4.53    0.51
  18   6  -4    4.21    0.50
 -18  -6   4    3.87    0.41
 -18  -6   4    4.08    0.43
  17   7  -3    2.85    0.42
  17   7  -3    2.14    0.36
  16   8  -2    7.72    0.59
  16   8  -2    7.39    0.55
  15   9  -1    2.03    0.38
  15   9  -1    2.18    0.38
  14  10   0    2.73    0.44
  14  10   0    2.46    0.42
  13  11   1   -0.13    0.20
  12  12   2    0.49    0.28
  25   1 -10    0.20    0.25
 -25  -1  10   -0.20    0.22
  24   2  -9    0.48    0.25
 -24  -2   9    0.29    0.26
  23   3  -8    5.67    0.60
  23   3  -8    6.95    0.58
 -23  -3   8    5.14    0.56
 -23  -3   8    6.61    0.61
  22   4  -7    4.01    0.51
  22   4  -7    3.57    0.48
 -22  -4   7    3.22    0.44
 -22  -4   7    3.42    0.44
  21   5  -6   11.86    0.72
  21   5  -6   12.24    0.76
 -21  -5   6   13.19    0.74
 -21  -5   6   12.20    0.70
  20   6  -5    1.06    0.30
  20   6  -5    1.29    0.33
 -20  -6   5    1.29    0.31
 -20  -6   5    0.96    0.28
  19   7  -4    0.29    0.23
  19   7  -4    0.56    0.27
  18   8  -3   10.11    0.67
  18   8  -3    9.39    0.68
  17   9  -2   -0.17    0.19
  17   9  -2    0.17    0.21
  16  10  -1    1.29    0.33
  15  11   0    5.89    0.64
  25   3  -9    1.32    0.36
 -25  -3   9    0.98    0.33
  24   4  -8    0.30    0.24
 -24  -4   8   -0.30    0.20
  23   5  -7    1.14    0.32
 -23  -5   7    1.57    0.35
 -23  -5   7    1.20    0.32
  22   6  -6    4.17    0.53
 -22  -6   6    4.70    0.52
  21   7  -5    0.78    0.29
  20   8  -4    0.87    0.30
  19   9  -3    0.44    0.26
  18  10  -2   -0.02    0.23
  17  11  -6   -0.06    0.22
  18  10  -7    0.66    0.30
  19   9  -8    0.00    0.23
  20   8  -9    0.50    0.28
 -21  -7  10    3.50    0.46
 -21  -7  10    3.78    0.49
  21   7 -10    3.86    0.50
 -22  -6  11    1.20    0.33
  22   6 -11    0.98    0.33
 -23  -5  12    0.62    0.30
  23   5 -12    1.14    0.34
 -24  -4  13    0.13    0.26
  24   4 -13   -0.04    0.23
  13  13  -3    1.98    0.43
  14  12  -4    6.73    0.67
  15  11  -5    0.64    0.27
  15  11  -5    0.96    0.32
  16  10  -6    0.04    0.23
  16  10  -6    0.21    0.24
  17   9  -7    8.75    0.63
  17   9  -7    7.93    0.63
  18   8  -8    3.60    0.46
  18   8  -8    5.46    0.58
 -19  -7   9    6.72    0.54
 -19  -7   9    7.19    0.53
  19   7  -9    5.85    0.59
  19   7  -9    7.16    0.58
 -20  -6  10   23.99    1.06
 -20  -6  10   23.74    1.01
  20   6 -10   23.17    1.07
  20   6 -10   24.15    1.11
 -21  -5  11    0.65    0.27
 -21  -5  11    0.78    0.30
  21   5 -11    0.29    0.24
  21   5 -11    0.27    0.23
 -22  -4  12    2.45    0.42
 -22  -4  12    3.10    0.46
  22   4 -12    2.94    0.44
 -23  -3  13   -0.24    0.20
  23   3 -13    0.10    0.24
 -24  -2  14    3.44    0.50
  24   2 -14    3.86    0.53
  11  13  -2    0.01    0.22
  12  12  -3    0.19    0.22
  12  12  -3    0.03    0.22
  13  11  -4    4.57    0.53
  13  11  -4    5.31    0.55
  14  10  -5    0.78    0.29
  14  10  -5    0.55    0.24
  15   9  -6    0.32    0.22
  15   9  -6    0.34    0.22
  16   8  -7    1.38    0.32
  16   8  -7    0.94    0.28
 -17  -7   8    4.57    0.45
 -17  -7   8    5.86    0.47
  17   7  -8    4.99    0.54
  17   7  -8    6.24    0.51
 -18  -6   9    0.14    0.21
 -18  -6   9    0.26    0.21
  18   6  -9    0.35    0.22
  18   6  -9    0.48    0.23
 -19  -5  10   13.69    0.74
 -19  -5  10   14.12    0.77
  19   5 -10   13.00    0.74
  19   5 -10   14.31    0.79
 -20  -4  11    1.17    0.31
 -20  -4  11    1.40    0.33
  20   4 -11    1.61    0.34
  20   4 -11    1.20    0.31
 -21  -3  12    2.28    0.40
 -21  -3  12    1.40    0.32
  21   3 -12    1.34    0.32
  21   3 -12    1.54    0.35
 -22  -2  13    6.26    0.61
 -22  -2  13    5.82    0.61
  22   2 -13    7.25    0.60
  22   2 -13    6.47    0.63
 -23  -1  14    0.51    0.26
  23   1 -14    0.07    0.21
 -24   0  15    0.05    0.24
  24   0 -15    0.07    0.23
   8  14   0    2.51    0.43
   9  13  -1   -0.12    0.22
   9  13  -1    0.51    0.27
  10  12  -2    0.94    0.30
  10  12  -2    1.14    0.31
  11  11  -3    0.13    0.20
  11  11  -3    0.68    0.25
  12  10  -4   11.98    0.68
  12  10  -4   11.88    0.70
  13   9  -5   11.43    0.66
  13   9  -5   11.21    0.68
  14   8  -6    4.96    0.50
  14   8  -6    5.43    0.54
 -15  -7   7    0.04    0.17
 -15  -7   7    0.04    0.17
  15   7  -7    0.35    0.20
  15   7  -7    0.20    0.20
 -16  -6   8    1.35    0.28
 -16  -6   8    0.91    0.26
  16   6  -8    0.88    0.25
  16   6  -8    0.59    0.23
 -17  -5   9    1.48    0.29
 -17  -5   9    1.05    0.26
  17   5  -9    1.10    0.28
  17   5  -9    1.70    0.32
 -18  -4  10    4.58    0.47
 -18  -4  10    4.57    0.48
  18   4 -10    5.21    0.52
  18   4 -10    4.58    0.50
 -19  -3  11    2.30    0.36
 -19  -3  11    2.10    0.35
  19   3 -11    2.36    0.36
  19   3 -11    2.38    0.37
 -20  -2  12    7.50    0.57
 -20  -2  12    7.76    0.56
  20   2 -12    8.14    0.59
  20   2 -12    7.59    0.60
 -21  -1  13   23.12    1.09
 -21  -1  13   25.39    1.08
  21   1 -13   27.13    1.13
  21   1 -13   23.68    1.12
 -22   0  14    3.73    0.49
  22   0 -14    3.86    0.50
 -23   1  15    1.81    0.38
  23  -1 -15    1.91    0.40
   6  14   1    2.24    0.40
   7  13   0    5.47    0.55
   7  13   0    5.17    0.56
   8  12  -1    0.74    0.26
   8  12  -1    0.48    0.25
   9  11  -2    0.88    0.25
   9  11  -2    0.85    0.26
  10  10  -3    5.59    0.47
  10  10  -3    6.70    0.51
  11   9  -4    3.02    0.38
  11   9  -4    2.67    0.36
  12   8  -5   35.76    1.23
  12   8  -5   33.15    1.24
 -13  -7   6   11.98    0.56
 -13  -7   6   12.70    0.59
  13   7  -6   12.80    0.67
  13   7  -6   11.68    0.64
 -14  -6   7    1.05    0.23
 -14  -6   7    1.24    0.25
  14   6  -7    1.15    0.25
  14   6  -7    0.82    0.24
 -15  -5   8    1.77    0.29
 -15  -5   8    2.52    0.33
  15   5  -8    1.66    0.29
  15   5  -8    1.77    0.31
 -16  -4   9    0.25    0.19
 -16  -4   9    0.21    0.18
  16   4  -9   -0.08    0.15
  16   4  -9    0.19    0.18
 -17  -3  10    0.37    0.19
 -17  -3  10    0.91    0.24
  17   3 -10    0.68    0.24
  17   3 -10    0.84    0.25
 -18  -2  11    1.28    0.30
 -18  -2  11    1.88    0.33
  18   2 -11    1.05    0.27
  18   2 -11    1.67    0.32
 -19  -1  12    1.22    0.29
 -19  -1  12    1.25    0.30
  19   1 -12    1.16    0.29
  19   1 -12    1.17    0.28
 -20   0  13   -0.09    0.20
 -20   0  13    0.17    0.22
  20   0 -13   -0.21    0.18
  20   0 -13    0.04    0.21
 -21   1  14   -0.35    0.15
 -21   1  14   -0.09    0.21
  21  -1 -14    0.16    0.25
  21  -1 -14    0.09    0.22
 -22   2  15    3.62    0.48
  22  -2 -15    4.45    0.55
   4  14   2    1.25    0.35
   4  14   2    1.83    0.37
   4  14   2    2.03    0.38
   5  13   1    0.56    0.28
   5  13   1    1.13    0.30
   5  13   1    0.52    0.24
   6  12   0   11.79    0.69
   6  12   0   12.92    0.69
   6  12   0   12.18    0.71
   7  11  -1    0.00    0.15
   7  11  -1   -0.11    0.16
   7  11  -1    0.00    0.17
   8  10  -2    4.74    0.41
   8  10  -2    5.53    0.44
   8  10  -2    5.22    0.44
   9   9  -3    2.09    0.32
   9   9  -3    1.26    0.25
  10   8  -4   15.69    0.71
  10   8  -4   16.49    0.75
 -11  -7   5    6.30    0.39
 -11  -7   5    6.52    0.39
  11   7  -5    6.10    0.44
  11   7  -5    6.94    0.47
 -12  -6   6   29.14    1.00
 -12  -6   6   27.84    0.95
  12   6  -6   30.54    1.09
  12   6  -6   30.12    1.05
 -13  -5   7    0.30    0.16
 -13  -5   7    0.43    0.18
  13   5  -7    0.29    0.18
  13   5  -7    0.19    0.17
 -14  -4   8   -0.16    0.13
 -14  -4   8   -0.07    0.14
  14   4  -8    0.20    0.16
  14   4  -8    0.14    0.13
 -15  -3   9    7.95    0.51
 -15  -3   9    7.37    0.46
  15   3  -9    7.81    0.49
  15   3  -9    7.58    0.51
 -16  -2  10   31.41    1.14
 -16  -2  10   28.68    1.07
  16   2 -10   30.69    1.15
  16   2 -10   29.37    1.09
 -17  -1  11    4.11    0.42
 -17  -1  11    3.27    0.40
  17   1 -11    3.47    0.41
  17   1 -11    2.48    0.37
 -18   0  12   25.56    1.01
 -18   0  12   24.27    1.03
  18   0 -12   24.03    1.03
  18   0 -12   23.23    1.04
 -19   1  13   -0.03    0.19
 -19   1  13   -0.09    0.17
  19  -1 -13    0.10    0.18
  19  -1 -13   -0.21    0.18
 -20   2  14    1.16    0.30
 -20   2  14    2.55    0.38
  20  -2 -14    1.04    0.30
  20  -2 -14    1.87    0.37
 -21   3  15    5.08    0.56
 -21   3  15    4.02    0.49
  21  -3 -15    4.00    0.52
   2  14   3    1.62    0.36
   2  14   3    1.09    0.30
   2  14   3    1.63    0.37
   3  13   2    0.33    0.24
   3  13   2    1.05    0.28
   3  13   2    0.94    0.27
   4  12   1    0.59    0.23
   4  12   1    1.13    0.29
   4  12   1    0.62    0.23
   5  11   0   12.50    0.66
   5  11   0   10.19    0.63
   5  11   0   11.54    0.62
   6  10  -1    0.23    0.17
   6  10  -1    0.06    0.12
   6  10  -1    0.34    0.16
   7   9  -2    0.86    0.22
   7   9  -2    0.96    0.22
   7   9  -2    0.64    0.19
   8   8  -3   21.67    0.84
   8   8  -3   21.52    0.85
   8   8  -3   20.71    0.82
  -9  -7   4    1.12    0.18
  -9  -7   4    0.83    0.17
   9   7  -4    0.96    0.21
   9   7  -4    1.46    0.24
   9   7  -4    1.17    0.21
 -10  -6   5    0.49    0.16
 -10  -6   5    0.52    0.16
  10   6  -5    0.77    0.19
  10   6  -5    0.76    0.17
  10   6  -5    0.59    0.18
 -11  -5   6   56.44    1.60
 -11  -5   6   56.41    1.55
  11   5  -6   56.40    1.61
  11   5  -6   55.85    1.68
  11   5  -6   56.06    1.63
 -12  -4   7   67.51    1.79
 -12  -4   7   63.79    1.84
  12   4  -7   66.71    1.84
  12   4  -7   63.39    1.85
  12   4  -7   66.74    1.92
 -13  -3   8   23.19    0.88
 -13  -3   8   24.52    0.87
  13   3  -8   23.63    0.91
  13   3  -8   22.79    0.87
 -14  -2   9   30.74    1.05
 -14  -2   9   31.49    1.10
  14   2  -9   31.16    1.09
 -15  -1  10   10.57    0.58
 -15  -1  10    9.70    0.55
  15   1 -10    9.45    0.57
  15   1 -10    9.98    0.56
 -16   0  11   -0.10    0.15
 -16   0  11   -0.13    0.16
  16   0 -11   -0.10    0.15
  16   0 -11    0.21    0.18
 -17   1  12   48.84    1.57
 -17   1  12   48.56    1.62
  17  -1 -12   49.32    1.68
  17  -1 -12   51.15    1.64
 -18   2  13   11.92    0.68
 -18   2  13   11.39    0.65
  18  -2 -13   11.97    0.73
  18  -2 -13   11.94    0.71
 -19   3  14    2.62    0.39
 -19   3  14    2.81    0.39
  19  -3 -14    2.63    0.41
  19  -3 -14    2.48    0.41
 -20   4  15    7.46    0.58
 -20   4  15    7.42    0.57
  20  -4 -15    7.32    0.60
 -21   5  16    0.18    0.23
  21  -5 -16    0.06    0.25
   0  14   4    0.23    0.23
   0  14   4    0.47    0.26
   1  13   3    0.51    0.27
   1  13   3    0.32    0.24
   1  13   3    0.36    0.23
   2  12   2    0.93    0.26
   2  12   2    1.41    0.27
   2  12   2    1.18    0.30
   3  11   1    1.00    0.25
   3  11   1    1.01    0.25
   3  11   1    0.91    0.26
   4  10   0    7.49    0.46
   4  10   0    7.17    0.49
   4  10   0    7.52    0.48
   5   9  -1    8.75    0.49
   5   9  -1    8.97    0.53
   5   9  -1    9.32    0.52
   6   8  -2    4.87    0.36
   6   8  -2    5.25    0.37
   6   8  -2    4.39    0.33
  -7  -7   3   17.67    0.58
  -7  -7   3   17.93    0.61
   7   7  -3   18.77    0.73
   7   7  -3   19.06    0.72
   7   7  -3   18.63    0.72
  -8  -6   4    0.75    0.14
  -8  -6   4    1.08    0.17
   8   6  -4    0.70    0.17
   8   6  -4    0.84    0.18
   8   6  -4    1.30    0.20
  -9  -5   5   27.26    0.88
  -9  -5   5   27.24    0.85
   9   5  -5   27.06    0.94
   9   5  -5   27.15    0.91
   9   5  -5   27.72    0.90
 -10  -4   6  140.97    3.53
 -10  -4   6  143.78    3.42
  10   4  -6  139.26    3.54
  10   4  -6  140.55    3.63
  10   4  -6  146.11    3.69
 -11  -3   7   78.54    2.01
 -11  -3   7   75.79    2.07
  11   3  -7   75.81    2.12
  11   3  -7   74.94    2.06
  11   3  -7   77.58    2.09
 -12  -2   8   56.77    1.59
 -12  -2   8   57.03    1.59
 -12  -2   8   56.60    1.65
  12   2  -8   55.80    1.68
  12   2  -8   57.38    1.64
 -13  -1   9    0.16    0.10
 -13  -1   9   -0.07    0.11
 -13  -1   9   -0.05    0.12
  13   1  -9    0.40    0.18
  13   1  -9    0.12    0.14
 -14   0  10    5.76    0.43
 -14   0  10    5.44    0.41
 -14   0  10    6.56    0.36
  14   0 -10    5.22    0.40
  14   0 -10    5.71    0.44
 -15   1  11    7.87    0.49
 -15   1  11    7.53    0.43
 -15   1  11    7.28    0.47
  15  -1 -11    7.54    0.52
  15  -1 -11    6.78    0.49
 -16   2  12   18.88    0.81
 -16   2  12   19.07    0.84
  16  -2 -12   17.87    0.84
  16  -2 -12   17.64    0.87
 -17   3  13   14.72    0.73
 -17   3  13   15.22    0.76
  17  -3 -13   15.41    0.83
  17  -3 -13   14.52    0.79
 -18   4  14    7.61    0.56
 -18   4  14    8.86    0.57
  18  -4 -14    9.19    0.67
  18  -4 -14    8.70    0.64
 -19   5  15    4.31    0.47
  19  -5 -15    3.68    0.50
  -2  14   5   -0.03    0.22
  -2  14   5   -0.07    0.19
  -1  13   4    9.67    0.59
  -1  13   4    7.82    0.62
  -1  13   4    8.66    0.59
   0  12   3    1.76    0.36
   0  12   3    1.68    0.31
   0  12   3    1.61    0.30
   1  11   2    0.09    0.17
   1  11   2   -0.01    0.16
   1  11   2   -0.02    0.15
   2  10   1    1.19    0.24
   2  10   1    1.33    0.27
   2  10   1    1.10    0.23
   3   9   0   10.84    0.52
   3   9   0   10.17    0.58
   3   9   0   10.39    0.53
   4   8  -1   15.24    0.61
   4   8  -1   14.08    0.65
   4   8  -1   14.91    0.63
  -5  -7   2   28.18    0.77
   5   7  -2   26.16    0.91
   5   7  -2   27.72    0.89
  -6  -6   3   12.14    0.44
  -6  -6   3   13.14    0.46
   6   6  -3   12.62    0.54
   6   6  -3   12.39    0.53
   6   6  -3   13.34    0.53
  -7  -5   4   51.64    1.42
  -7  -5   4   53.49    1.38
   7   5  -4   54.17    1.48
   7   5  -4   53.31    1.52
   7   5  -4   55.49    1.54
  -8  -4   5  275.18    6.61
  -8  -4   5  282.63    6.42
   8   4  -5  278.97    6.79
   8   4  -5  287.81    7.03
   8   4  -5  280.03    6.64
  -9  -3   6    0.19    0.11
  -9  -3   6    0.09    0.09
   9   3  -6    0.12    0.11
   9   3  -6   -0.02    0.09
   9   3  -6    0.37    0.14
 -10  -2   7   27.19    0.83
 -10  -2   7   27.01    0.86
 -10  -2   7   25.07    0.87
  10   2  -7   25.64    0.90
  10   2  -7   27.26    0.88
 -11  -1   8   65.32    1.78
 -11  -1   8   65.91    1.85
 -11  -1   8   66.99    1.84
  11   1  -8   68.12    1.90
  11   1  -8   66.02    1.83
 -12   0   9   -0.05    0.12
 -12   0   9    0.44    0.15
 -12   0   9   -0.02    0.08
  12   0  -9   -0.07    0.12
  12   0  -9   -0.05    0.11
 -13   1  10    0.14    0.15
 -13   1  10    0.08    0.14
 -13   1  10    0.08    0.10
  13  -1 -10    0.10    0.16
  13  -1 -10    0.13    0.14
 -14   2  11   20.51    0.81
 -14   2  11   19.83    0.79
 -14   2  11   19.67    0.82
  14  -2 -11   21.18    0.87
  14  -2 -11   19.47    0.87
 -15   3  12    1.75    0.27
 -15   3  12    1.67    0.27
 -15   3  12    2.01    0.30
  15  -3 -12    1.93    0.34
  15  -3 -12    1.22    0.28
 -16   4  13   12.26    0.66
 -16   4  13   12.19    0.64
 -16   4  13   12.63    0.67
  16  -4 -13   12.08    0.71
  16  -4 -13   12.63    0.74
 -17   5  14   22.32    1.00
 -17   5  14   23.18    0.93
 -17   5  14   22.30    0.96
  17  -5 -14   21.90    1.04
  17  -5 -14   22.01    1.07
  18  -6 -15    0.87    0.31
  -4  14   6    1.47    0.34
  -3  13   5    0.01    0.20
  -3  13   5    0.27    0.21
  -3  13   5    0.11    0.21
  -2  12   4   25.44    1.02
  -2  12   4   28.38    1.20
  -2  12   4   26.41    1.06
  -1  11   3    4.42    0.43
  -1  11   3    3.92    0.46
  -1  11   3    4.15    0.42
   0  10   2    5.20    0.43
   0  10   2    4.95    0.39
   0  10   2    4.45    0.36
   1   9   1   18.22    0.79
   1   9   1   17.16    0.69
   1   9   1   17.44    0.71
   2   8   0    2.31    0.30
   2   8   0    1.76    0.22
   2   8   0    1.97    0.25
  -3  -7   1    0.08    0.06
   3   7  -1    0.01    0.09
   3   7  -1    0.01    0.10
   3   7  -1    0.04    0.12
  -4  -6   2   52.20    1.31
  -4  -6   2   50.82    1.27
   4   6  -2   51.63    1.44
   4   6  -2   50.51    1.52
   4   6  -2   53.43    1.41
  -5  -5   3    5.28    0.26
  -5  -5   3    5.87    0.26
   5   5  -3    5.11    0.30
   5   5  -3    5.61    0.31
   5   5  -3    5.68    0.30
  -6  -4   4   22.24    0.69
  -6  -4   4   22.42    0.67
   6   4  -4   22.95    0.74
   6   4  -4   21.85    0.73
   6   4  -4   21.48    0.70
  -7  -3   5   10.79    0.44
  -7  -3   5   10.13    0.42
   7   3  -5   10.39    0.43
   7   3  -5   10.72    0.45
   7   3  -5   10.37    0.43
  -8  -2   6   23.54    0.73
  -8  -2   6   23.05    0.73
  -8  -2   6   22.43    0.75
   8   2  -6   23.28    0.75
   8   2  -6   23.22    0.78
  -9  -1   7    0.86    0.15
  -9  -1   7    1.10    0.15
  -9  -1   7    0.97    0.16
   9   1  -7    1.15    0.18
   9   1  -7    0.95    0.18
 -10   0   8   18.16    0.65
 -10   0   8   18.06    0.68
 -10   0   8   18.05    0.65
  10   0  -8   17.55    0.70
  10   0  -8   18.72    0.69
 -11   1   9    3.37    0.26
 -11   1   9    3.79    0.31
 -11   1   9    3.89    0.31
  11  -1  -9    3.94    0.37
  11  -1  -9    3.32    0.34
 -12   2  10   10.43    0.53
 -12   2  10   11.46    0.53
 -12   2  10   11.32    0.53
  12  -2 -10   10.37    0.55
  12  -2 -10    9.84    0.56
 -13   3  11    6.01    0.40
 -13   3  11    5.53    0.39
 -13   3  11    5.31    0.39
  13  -3 -11    5.59    0.44
  13  -3 -11    6.21    0.47
 -14   4  12    7.28    0.48
 -14   4  12    7.57    0.49
 -14   4  12    7.14    0.46
  14  -4 -12    7.15    0.54
  14  -4 -12    8.10    0.54
 -15   5  13    1.36    0.29
  15  -5 -13    1.46    0.32
  15  -5 -13    1.07    0.29
 -16   6  14   15.90    0.83
  16  -6 -14   15.37    0.85
 -17   7  15    0.06    0.21
  17  -7 -15    0.09    0.23
  -6  14   7    3.63    0.46
  -5  13   6    0.63    0.29
  -5  13   6    0.56    0.25
  -5  13   6    0.30    0.24
  -4  12   5   -0.11    0.17
  -4  12   5   -0.09    0.19
  -4  12   5   -0.17    0.18
  -3  11   4   42.59    1.58
  -3  11   4   42.49    1.43
  -3  11   4   44.83    1.41
  -2  10   3   14.42    0.64
  -2  10   3   13.88    0.74
  -2  10   3   15.12    0.68
  -1   9   2    3.49    0.38
  -1   9   2    3.34    0.33
  -1   9   2    3.83    0.36
   0   8   1   37.54    1.18
   0   8   1   39.63    1.15
   0   8   1   38.00    1.30
   1   7   0    1.10    0.16
   1   7   0    1.21    0.18
   1   7   0    1.16    0.21
  -2  -6   1    7.31    0.25
   2   6  -1    6.73    0.38
   2   6  -1    7.76    0.34
   2   6  -1    7.84    0.36
  -3  -5   2   46.64    1.17
   3   5  -2   44.70    1.34
   3   5  -2   45.86    1.23
   3   5  -2   46.45    1.26
  -4  -4   3   53.81    1.35
  -4  -4   3   57.35    1.40
   4   4  -3   54.37    1.45
   4   4  -3   53.75    1.41
  -5  -3   4    0.95    0.13
  -5  -3   4    1.05    0.13
   5   3  -4    0.84    0.13
   5   3  -4    0.81    0.12
   5   3  -4    0.91    0.14
  -6  -2   5    8.52    0.35
  -6  -2   5    9.21    0.37
  -6  -2   5    8.81    0.35
   6   2  -5    8.10    0.37
   6   2  -5    9.57    0.37
  -7  -1   6   36.03    1.05
  -7  -1   6   35.76    1.04
  -7  -1   6   36.92    1.01
   7   1  -6   36.58    1.03
   7   1  -6   35.61    1.06
  -8   0   7    0.06    0.07
  -8   0   7   -0.04    0.08
  -8   0   7   -0.03    0.08
   8   0  -7    0.05    0.09
   8   0  -7    0.07    0.09
  -9   1   8   39.06    1.17
  -9   1   8   39.66    1.19
  -9   1   8   39.38    1.13
   9  -1  -8   38.04    1.21
   9  -1  -8   40.04    1.19
 -10   2   9    9.31    0.46
 -10   2   9    9.54    0.46
 -10   2   9   10.12    0.48
  10  -2  -9    8.99    0.48
 -11   3  10   13.07    0.59
 -11   3  10   14.73    0.64
 -11   3  10   14.54    0.59
  11  -3 -10   13.23    0.64
  11  -3 -10   13.73    0.67
 -12   4  11    4.10    0.33
 -12   4  11    3.92    0.32
 -12   4  11    4.35    0.37
  12  -4 -11    4.07    0.43
  12  -4 -11    3.63    0.41
 -13   5  12    0.21    0.16
 -13   5  12    0.46    0.19
 -13   5  12    0.40    0.17
  13  -5 -12    0.30    0.20
  13  -5 -12    0.48    0.22
 -14   6  13    4.07    0.46
  14  -6 -13    3.93    0.48
  14  -6 -13    3.83    0.47
 -15   7  14    8.06    0.60
  15  -7 -14    7.36    0.62
  15  -7 -14    6.66    0.64
  16  -8 -15    0.52    0.27
   7 -13  -7   -0.10    0.21
  -7  13   7   -0.05    0.20
  -6  12   6    1.17    0.29
  -6  12   6    1.39    0.29
  -6  12   6    1.43    0.33
  -5  11   5   23.10    0.95
  -5  11   5   23.93    0.93
  -5  11   5   22.54    1.05
  -4  10   4    4.39    0.41
  -4  10   4    4.44    0.42
  -4  10   4    4.10    0.45
  -3   9   3    4.01    0.37
  -3   9   3    4.17    0.42
  -3   9   3    4.26    0.33
  -2   8   2   53.94    1.74
  -2   8   2   58.59    1.57
  -2   8   2   55.60    1.60
  -1   7   1   -0.24    0.07
  -1   7   1    0.07    0.10
  -1   7   1   -0.10    0.10
   0  -6   0    3.61    0.15
   0   6   0    3.66    0.23
   0   6   0    3.44    0.23
   0   6   0    3.16    0.27
  -1  -5   1    7.63    0.25
   1   5  -1    7.35    0.30
   1   5  -1    7.06    0.36
   1   5  -1    6.77    0.31
  -2  -4   2   10.58    0.34
   2   4  -2   10.63    0.37
   2   4  -2   10.32    0.42
   2   4  -2   10.57    0.36
  -3  -3   3  722.01   16.38
  -3  -3   3  689.52   15.96
   3   3  -3  721.65   16.85
   3   3  -3  693.53   16.47
   3   3  -3  745.10   17.64
  -4  -2   4  375.64    8.51
  -4  -2   4  376.04    8.76
   4   2  -4  395.56    8.95
   4   2  -4  373.38    8.74
  -5  -1   5    0.76    0.12
  -5  -1   5    0.99    0.13
  -5  -1   5    0.51    0.10
   5   1  -5    0.39    0.10
   5   1  -5    0.57    0.10
  -6   0   6   39.80    1.11
  -6   0   6   40.40    1.15
  -6   0   6   40.48    1.08
   6   0  -6   40.62    1.11
   6   0  -6   38.52    1.14
  -7   1   7    4.44    0.26
  -7   1   7    4.46    0.27
  -7   1   7    4.58    0.26
   7  -1  -7    4.76    0.30
   7  -1  -7    4.75    0.29
  -8   2   8  124.60    2.94
  -8   2   8  122.40    3.22
  -8   2   8  117.86    3.02
   8  -2  -8  124.66    3.08
   8  -2  -8  118.66    3.14
  -9   3   9    0.55    0.14
  -9   3   9    0.59    0.15
  -9   3   9    0.47    0.14
   9  -3  -9    0.52    0.16
   9  -3  -9    0.29    0.15
 -10   4  10   66.04    1.68
 -10   4  10   63.79    1.89
 -10   4  10   59.39    1.71
  10  -4 -10   60.57    1.82
  10  -4 -10   60.45    1.86
 -11   5  11    0.03    0.14
 -11   5  11   -0.20    0.10
 -11   5  11    0.08    0.12
  11  -5 -11    0.16    0.16
  11  -5 -11    0.13    0.15
 -12   6  12    0.43    0.21
  12  -6 -12    0.24    0.20
  12  -6 -12    0.29    0.19
 -13   7  13    2.96    0.41
  13  -7 -13    2.38    0.38
  13  -7 -13    2.07    0.36
 -14   8  14    1.24    0.32
  14  -8 -14    1.38    0.35
  14  -8 -14    1.38    0.36
  15  -9 -15    1.06    0.35
  -9  13   8    0.73    0.29
   8 -12  -7    0.99    0.30
  -8  12   7    1.14    0.29
  -8  12   7    0.91    0.30
  -7  11   6    4.84    0.52
  -7  11   6    5.60    0.44
  -6  10   5   42.60    1.39
  -6  10   5   40.92    1.52
  -6  10   5   43.97    1.36
  -5   9   4    0.09    0.16
  -5   9   4    0.12    0.15
  -5   9   4    0.15    0.16
  -4   8   3    4.05    0.31
  -4   8   3    4.17    0.37
  -4   8   3    3.64    0.31
  -3   7   2  139.37    3.37
  -3   7   2  138.32    3.71
  -3   7   2  135.94    3.45
  -2   6   1    6.31    0.39
  -2   6   1    8.05    0.34
  -2   6   1    8.04    0.26
  -2   6   1    8.16    0.36
   1  -5   0    7.20    0.24
  -1   5   0    7.06    0.29
  -1   5   0    6.86    0.36
  -1   5   0    7.52    0.31
   0  -4   1   55.62    1.32
   0   4  -1   54.88    1.38
   0   4  -1   53.26    1.52
  -1  -3   2  165.52    3.78
   1   3  -2  161.93    4.11
   1   3  -2  160.23    3.85
  -2  -2   3  126.69    3.04
   2   2  -3  131.84    3.28
   2   2  -3  128.85    3.09
  -3  -1   4  247.94    5.70
  -3  -1   4  251.98    5.88
  -3  -1   4  256.68    6.27
   3   1  -4  256.09    5.98
  -4   0   5    0.01    0.06
  -4   0   5    0.06    0.06
  -4   0   5    0.00    0.05
   4   0  -5   -0.05    0.06
   4   0  -5   -0.01    0.06
  -5   1   6   40.37    1.17
  -5   1   6   40.55    1.11
  -5   1   6   40.09    1.06
   5  -1  -6   40.59    1.15
   5  -1  -6   40.96    1.12
  -6   2   7   11.96    0.46
  -6   2   7   11.42    0.43
  -6   2   7   12.09    0.50
   6  -2  -7   12.76    0.51
   6  -2  -7   11.94    0.51
  -7   3   8   59.21    1.75
  -7   3   8   59.77    1.61
  -7   3   8   60.39    1.56
   7  -3  -8   59.55    1.72
   7  -3  -8   63.54    1.70
  -8   4   9    4.51    0.29
  -8   4   9    4.79    0.30
  -8   4   9    4.36    0.34
   8  -4  -9    5.21    0.37
   8  -4  -9    5.43    0.39
  -9   5  10   32.75    1.18
  -9   5  10   32.21    1.02
  -9   5  10   33.29    1.00
   9  -5 -10   33.14    1.18
   9  -5 -10   32.74    1.15
 -10   6  11    0.67    0.21
  10  -6 -11    0.21    0.17
  10  -6 -11    0.75    0.23
 -11   7  12    4.09    0.47
  11  -7 -12    3.77    0.45
  11  -7 -12    3.72    0.48
 -12   8  13    7.14    0.58
  12  -8 -13    9.06    0.64
  12  -8 -13    7.75    0.62
  13  -9 -14    0.94    0.31
  10 -12  -8    7.08    0.60
 -10  12   8    5.90    0.63
   9 -11  -7   -0.02    0.19
  -9  11   7    0.07    0.22
  -9  11   7   -0.14    0.18
   8 -10  -6    1.29    0.29
  -8  10   6    0.42    0.21
  -8  10   6    0.74    0.24
  -7   9   5    4.22    0.39
  -7   9   5    4.32    0.45
  -6   8   4   36.44    1.30
  -6   8   4   37.03    1.15
  -6   8   4   37.86    1.18
  -5   7   3    7.17    0.37
  -5   7   3    7.11    0.38
  -5   7   3    7.65    0.45
  -4   6   2   51.27    1.44
  -4   6   2   54.19    1.28
  -4   6   2   52.58    1.41
  -4   6   2   51.91    1.58
  -4   6   2   53.26    1.32
  -3   5   1    0.95    0.12
  -3   5   1    0.63    0.14
  -3   5   1    0.79    0.12
  -3   5   1    1.22    0.11
   2  -4   0   19.60    0.54
  -2   4   0   20.20    0.58
  -2   4   0   20.12    0.67
   1  -3   1    0.38    0.08
  -1   3  -1    0.15    0.07
  -1   3  -1    0.29    0.11
   0  -2   2   20.00    0.56
   0   2  -2   20.73    0.53
   0   2  -2   22.01    0.64
  -1  -1   3   13.70    0.42
  -1  -1   3   13.80    0.44
   1   1  -3   14.39    0.40
  -2   0   4   31.55    0.84
  -2   0   4   30.57    0.81
  -2   0   4   30.90    0.89
   2   0  -4   31.40    0.85
  -3   1   5  177.26    4.17
  -3   1   5  175.83    4.17
  -3   1   5  179.15    4.05
   3  -1  -5  178.29    4.29
  -4   2   6   32.72    0.90
  -4   2   6   36.55    0.98
  -4   2   6   31.08    0.93
  -4   2   6   35.88    1.04
   4  -2  -6   34.75    1.02
  -5   3   7    3.76    0.27
  -5   3   7    3.87    0.23
  -5   3   7    3.81    0.28
  -5   3   7    4.20    0.23
   5  -3  -7    4.04    0.29
  -6   4   8    5.85    0.30
  -6   4   8    5.71    0.37
  -6   4   8    5.32    0.34
  -6   4   8    5.37    0.28
   6  -4  -8    5.94    0.38
  -7   5   9    2.13    0.22
   7  -5  -9    0.29    0.16
  -8   6  10   35.08    1.26
  -8   6  10   32.91    1.16
   8  -6 -10   34.12    1.24
  -9   7  11    3.56    0.42
  -9   7  11    3.96    0.44
   9  -7 -11    4.21    0.45
 -10   8  12    3.46    0.44
  10  -8 -12    3.83    0.46
  10  -8 -12    2.47    0.39
 -11   9  13    7.44    0.61
  11  -9 -13    7.71    0.64
  11  -9 -13    8.57    0.65
  12 -10 -14    0.00    0.22
  12 -12  -9    0.40    0.26
  11 -11  -8    7.33    0.58
  11 -11  -8    6.64    0.55
 -11  11   8    7.70    0.61
  10 -10  -7    4.10    0.46
 -10  10   7    4.44    0.49
   9  -9  -6    0.08    0.16
  -9   9   6    0.08    0.16
  -9   9   6    0.20    0.18
   8  -8  -5    1.36    0.25
  -8   8   5    1.41    0.24
  -8   8   5    1.09    0.25
  -7   7   4    5.89    0.36
  -7   7   4    5.47    0.39
  -7   7   4    5.49    0.29
   6  -6  -3    9.56    0.48
  -6   6   3   12.57    0.57
  -6   6   3   12.78    0.42
  -6   6   3   13.28    0.44
  -6   6   3   12.91    0.49
  -5   5   2   83.30    2.27
  -5   5   2   83.53    1.95
  -5   5   2   78.59    2.03
  -5   5   2   83.60    2.02
   4  -4  -1   79.31    1.85
  -4   4   1   75.65    1.91
  -4   4   1   79.29    2.12
  -4   4   1   80.11    1.91
   3  -3   0   70.70    1.70
  -3   3   0   70.14    1.87
   2  -2   1   57.02    1.39
   2  -2   1   56.44    1.35
  -2   2  -1   56.40    1.51
   1  -1   2    8.94    0.29
   1  -1   2    9.19    0.24
  -1   1  -2    9.20    0.32
   0   0   3   -0.01    0.05
   0   0   3    0.00    0.04
   0   0   3   -0.08    0.04
  -1   1   4  270.14    6.28
  -1   1   4  274.34    6.43
  -1   1   4  272.48    6.73
  -2   2   5  449.38   10.17
  -2   2   5  435.03   10.20
  -2   2   5  442.29    9.90
  -2   2   5  445.87   10.89
  -2   2   5  437.12   10.40
  -3   3   6   57.21    1.51
  -3   3   6   57.40    1.55
  -3   3   6   55.72    1.61
  -3   3   6   55.62    1.44
  -3   3   6   58.03    1.40
  -4   4   7   72.95    1.95
  -4   4   7   72.00    1.89
  -4   4   7   66.92    2.01
  -4   4   7   72.70    1.74
  -4   4   7   71.86    1.79
  -5   5   8    2.82    0.31
  -5   5   8    2.73    0.21
  -5   5   8    2.66    0.30
  -5   5   8    2.85    0.29
  -5   5   8    2.86    0.21
  -6   6   9    1.18    0.23
  -6   6   9    1.56    0.24
  -7   7  10   26.30    1.00
  -7   7  10   27.23    1.09
   7  -7 -10   26.65    1.08
  -8   8  11   11.86    0.66
  -8   8  11   11.32    0.69
   8  -8 -11   11.97    0.71
  -9   9  12   24.43    1.05
  -9   9  12   23.27    1.11
   9  -9 -12   25.63    1.15
  13 -11  -9    1.10    0.32
  13 -11  -9    1.20    0.32
 -13  11   9    1.52    0.35
  12 -10  -8    4.51    0.48
  12 -10  -8    4.94    0.51
 -12  10   8    3.44    0.45
  11  -9  -7    7.65    0.53
  11  -9  -7    7.41    0.53
 -11   9   7    8.19    0.55
  10  -8  -6   95.98    2.69
  10  -8  -6   99.77    2.64
 -10   8   6   93.92    2.80
   9  -7  -5    6.11    0.42
   9  -7  -5    6.92    0.43
  -9   7   5    7.08    0.45
  -9   7   5    6.88    0.36
  -8   6   4    1.14    0.17
  -8   6   4    0.87    0.15
  -8   6   4    0.65    0.17
   7  -5  -3  113.69    2.81
   7  -5  -3  110.99    2.87
  -7   5   3  116.48    2.77
  -7   5   3  109.06    3.02
  -7   5   3  115.00    2.68
   6  -4  -2  211.34    5.06
   6  -4  -2  208.96    4.95
  -6   4   2  204.48    5.32
  -6   4   2  213.44    4.79
  -6   4   2  213.40    4.94
   5  -3  -1    2.49    0.16
   5  -3  -1    2.82    0.17
   5  -3  -1    2.56    0.18
  -5   3   1    2.49    0.20
   4  -2   0  106.87    2.46
   4  -2   0  108.51    2.56
   4  -2   0  105.90    2.54
  -4   2   0  105.31    2.71
   3  -1   1    5.30    0.21
   3  -1   1    5.12    0.18
  -3   1  -1    5.36    0.22
   2   0   2  109.95    2.93
   2   0   2  121.47    2.77
   2   0   2  122.10    2.80
   1   1   3    3.33    0.17
   1   1   3    3.37    0.17
   0   2   4  123.41    2.89
   0   2   4  121.98    3.14
   0   2   4  123.06    3.01
   0   2   4  123.81    2.94
  -1   3   5  126.97    2.97
  -1   3   5  122.85    3.27
  -1   3   5  127.50    3.14
  -1   3   5  126.75    3.06
  -2   4   6    5.43    0.24
  -2   4   6    5.54    0.33
  -2   4   6    5.31    0.31
  -2   4   6    5.62    0.23
  -2   4   6    5.38    0.33
  -3   5   7   62.94    1.81
  -3   5   7   65.68    1.57
  -3   5   7   63.74    1.89
  -3   5   7   64.60    1.77
  -3   5   7   65.75    1.62
  -4   6   8    2.10    0.29
  -4   6   8    1.39    0.24
  -4   6   8    1.64    0.24
  -5   7   9    0.09    0.16
  -5   7   9    0.01    0.15
  -5   7   9    0.11    0.15
  -6   8  10   29.38    1.20
  -6   8  10   32.13    1.15
  -7   9  11   10.07    0.67
  -7   9  11    9.99    0.61
   7  -9 -11    9.56    0.67
  -8  10  12    6.90    0.59
  -8  10  12    7.08    0.55
   8 -10 -12    7.79    0.63
  -9  11  13    1.02    0.32
  15 -11 -10    0.58    0.28
  14 -10  -9    0.71    0.26
  14 -10  -9    1.19    0.32
 -14  10   9    0.57    0.27
  13  -9  -8   -0.01    0.18
  13  -9  -8    0.40    0.21
 -13   9   8    0.27    0.22
  12  -8  -7    0.58    0.22
  12  -8  -7    0.93    0.24
 -12   8   7    0.55    0.21
  11  -7  -6    0.53    0.19
  11  -7  -6    0.12    0.17
 -11   7   6    0.43    0.16
 -11   7   6    0.32    0.17
  10  -6  -5    0.68    0.18
  10  -6  -5    0.62    0.18
 -10   6   5    0.72    0.17
 -10   6   5    0.20    0.16
 -10   6   5    0.63    0.17
  -9   5   4    8.11    0.39
  -9   5   4    7.40    0.43
  -9   5   4    9.13    0.39
   8  -4  -3    0.11    0.09
   8  -4  -3    0.14    0.09
  -8   4   3    0.02    0.06
  -8   4   3    0.02    0.06
  -8   4   3    0.29    0.11
   7  -3  -2  279.58    6.60
   7  -3  -2  285.98    6.76
  -7   3   2  286.80    7.07
  -7   3   2  284.60    6.63
  -7   3   2  283.85    6.44
   6  -2  -1   27.93    0.77
   6  -2  -1   27.84    0.78
   6  -2  -1   28.94    0.80
  -6   2   1   29.38    0.83
  -6   2   1   28.85    0.82
   5  -1   0  142.21    3.29
   5  -1   0  140.53    3.40
   5  -1   0  145.17    3.43
  -5   1   0  146.55    3.57
   4   0   1    0.13    0.06
   4   0   1   -0.02    0.04
   4   0   1    0.16    0.06
  -4   0  -1    0.00    0.04
   2   2   3   38.12    0.97
   2   2   3   37.67    1.04
   2   2   3   38.32    1.01
   1   3   4    4.62    0.25
   1   3   4    4.89    0.26
   1   3   4    4.90    0.20
   1   3   4    4.61    0.26
   0   4   5   22.12    0.78
   0   4   5   22.74    0.74
   0   4   5   23.67    0.63
   0   4   5   23.08    0.76
  -1   5   6  123.81    3.22
  -1   5   6  129.10    2.96
  -1   5   6  127.25    3.37
  -1   5   6  122.56    3.13
  -2   6   7    0.25    0.13
  -2   6   7    0.04    0.11
  -2   6   7    0.02    0.10
  -3   7   8   -0.03    0.13
  -3   7   8   -0.02    0.12
  -3   7   8    0.11    0.14
  -4   8   9   11.84    0.62
  -4   8   9   10.94    0.62
  -4   8   9   10.97    0.64
  -5   9  10   20.07    0.88
  -5   9  10   19.06    0.88
  -5   9  10   17.28    0.90
  -6  10  11    7.31    0.56
  -6  10  11    6.48    0.56
  -7  11  12    7.15    0.58
  16 -10 -10   -0.10    0.19
  16 -10 -10    0.15    0.22
 -16  10  10    0.23    0.20
  15  -9  -9    8.73    0.60
  15  -9  -9    8.75    0.62
 -15   9   9    9.27    0.63
  14  -8  -8    8.28    0.56
  14  -8  -8    7.04    0.51
 -14   8   8    7.72    0.54
  13  -7  -7    5.92    0.44
  13  -7  -7    5.42    0.44
 -13   7   7    5.47    0.43
  12  -6  -6   26.50    1.00
  12  -6  -6   27.46    0.98
 -12   6   6   27.43    1.01
 -12   6   6   27.82    0.90
 -12   6   6   27.89    0.94
  11  -5  -5   28.54    0.94
  11  -5  -5   27.71    0.97
 -11   5   5   28.75    0.99
  10  -4  -4    1.67    0.21
  10  -4  -4    1.20    0.19
 -10   4   4    0.86    0.17
 -10   4   4    1.36    0.19
 -10   4   4    1.15    0.17
  -9   3   3   -0.06    0.07
  -9   3   3    0.23    0.11
  -9   3   3    0.34    0.12
  -8   2   2   38.33    1.10
  -8   2   2   40.13    1.08
  -8   2   2   39.35    1.10
   7  -1  -1   99.71    2.74
   7  -1  -1   99.58    2.68
  -7   1   1  126.73    2.82
  -7   1   1  122.54    2.75
   6   0   0  207.09    4.65
  -6   0   0  203.16    5.00
  -6   0   0  203.19    4.80
   5   1   1   57.38    1.46
   5   1   1   58.41    1.42
   5   1   1   57.59    1.48
   5   1   1   59.18    1.50
   5   1   1   59.29    1.47
   4   2   2    0.73    0.09
   4   2   2    0.84    0.10
   4   2   2    0.59    0.10
   4   2   2    0.66    0.11
   4   2   2    0.78    0.09
   3   3   3   79.59    1.89
   3   3   3   79.78    1.98
   3   3   3   79.16    2.06
   3   3   3   75.07    2.01
   2   4   4   30.14    0.91
   2   4   4   30.33    0.95
   2   4   4   29.93    0.94
   2   4   4   30.66    0.79
   1   5   5   10.32    0.49
   1   5   5   11.11    0.34
   1   5   5   10.64    0.47
   1   5   5   11.10    0.50
   0   6   6   55.43    1.57
   0   6   6   54.28    1.66
   0   6   6   54.02    1.61
  -1   7   7    2.23    0.29
  -1   7   7    2.54    0.32
  -1   7   7    2.72    0.32
  -2   8   8    1.36    0.27
  -2   8   8    1.30    0.26
  -2   8   8    1.08    0.23
  -3   9   9    5.82    0.48
  -3   9   9    6.98    0.52
  -3   9   9    5.50    0.47
  -4  10  10    0.24    0.20
  -4  10  10    0.17    0.22
  -4  10  10    0.19    0.22
  -5  11  11   -0.17    0.20
  -5  11  11   -0.11    0.18
  -5  11  11    0.32    0.24
  -6  12  12    4.31    0.53
  18 -10 -11    0.11    0.26
  17  -9 -10    1.20    0.30
  17  -9 -10    1.02    0.30
 -17   9  10    0.93    0.28
  16  -8  -9    1.71    0.34
  16  -8  -9    1.79    0.34
 -16   8   9    1.35    0.29
  15  -7  -8    4.20    0.44
  15  -7  -8    3.30    0.41
 -15   7   8    3.76    0.41
  14  -6  -7    1.43    0.27
  14  -6  -7    1.03    0.23
 -14   6   7    1.26    0.24
 -14   6   7    1.30    0.23
 -14   6   7    0.64    0.20
  13  -5  -6   50.85    1.61
  13  -5  -6   53.28    1.59
 -13   5   6   55.55    1.52
 -13   5   6   53.47    1.63
 -13   5   6   53.79    1.57
  12  -4  -5   47.11    1.43
  12  -4  -5   48.80    1.40
 -12   4   5   47.17    1.41
 -12   4   5   45.67    1.34
 -12   4   5   46.64    1.39
  11  -3  -4    0.61    0.16
  11  -3  -4    0.57    0.15
 -11   3   4    0.89    0.15
 -11   3   4    0.61    0.14
 -11   3   4    0.81    0.17
  10  -2  -3  111.06    2.87
  10  -2  -3  114.35    2.80
 -10   2   3  112.28    2.75
 -10   2   3  111.49    2.83
 -10   2   3  115.52    2.90
   9  -1  -2   37.89    1.04
   9  -1  -2   36.05    1.07
  -9   1   2   37.10    1.04
  -9   1   2   36.86    1.07
  -9   1   2   37.44    1.00
   8   0  -1    0.17    0.08
   8   0  -1    0.23    0.09
  -8   0   1    0.15    0.04
  -8   0   1   -0.02    0.06
  -8   0   1    0.04    0.06
   7   1   0  142.47    3.41
   7   1   0  141.33    3.50
  -7  -1   0  144.18    3.43
   6   2   1    0.11    0.05
   6   2   1   -0.07    0.03
   6   2   1    0.27    0.09
   6   2   1    0.04    0.06
  -6  -2  -1    0.24    0.08
   5   3   2   47.75    1.21
   5   3   2   49.03    1.31
   5   3   2   48.96    1.35
   5   3   2   48.93    1.32
  -5  -3  -2   49.57    1.26
   4   4   3    7.10    0.27
   4   4   3    7.47    0.37
   4   4   3    6.90    0.33
   4   4   3    6.53    0.34
   3   5   4    8.02    0.28
   3   5   4    7.08    0.39
   3   5   4    7.61    0.39
   2   6   5    2.93    0.30
   2   6   5    2.63    0.29
   2   6   5    2.77    0.29
   1   7   6   30.69    1.05
   1   7   6   32.60    1.10
   1   7   6   30.47    1.10
   0   8   7    2.41    0.32
   0   8   7    2.71    0.34
   0   8   7    2.45    0.33
  -1   9   8    2.74    0.36
  -1   9   8    3.37    0.39
  -1   9   8    2.79    0.38
  -2  10   9    4.14    0.46
  -2  10   9    4.42    0.49
  -2  10   9    4.29    0.48
  -3  11  10    0.37    0.24
  -3  11  10    0.55    0.25
  -3  11  10    0.19    0.22
  -4  12  11    1.28    0.33
  19  -9 -11    1.07    0.33
  18  -8 -10    6.00    0.60
  18  -8 -10    7.62    0.58
  17  -7  -9    0.38    0.24
  17  -7  -9    0.60    0.23
  16  -6  -8    0.55    0.21
  16  -6  -8    0.60    0.22
 -16   6   8    0.30    0.18
 -16   6   8    0.54    0.20
 -16   6   8    0.80    0.22
  15  -5  -7    1.20    0.26
  15  -5  -7    1.76    0.28
 -15   5   7    0.86    0.22
 -15   5   7    1.11    0.23
 -15   5   7    1.48    0.24
  14  -4  -6   35.22    1.23
  14  -4  -6   38.64    1.21
 -14   4   6   38.18    1.21
 -14   4   6   36.13    1.17
 -14   4   6   36.44    1.16
  13  -3  -5   25.52    0.93
  13  -3  -5   25.88    0.90
 -13   3   5   26.52    0.89
 -13   3   5   27.00    0.86
 -13   3   5   25.63    0.91
  12  -2  -4   81.59    2.22
  12  -2  -4   81.43    2.16
 -12   2   4   82.90    2.12
 -12   2   4   82.10    2.19
 -12   2   4   83.09    2.16
  11  -1  -3  141.43    3.41
  11  -1  -3  141.34    3.49
 -11   1   3  138.17    3.33
 -11   1   3  136.73    3.45
 -11   1   3  133.50    3.42
  10   0  -2   40.41    1.18
  10   0  -2   40.72    1.15
 -10   0   2   39.99    1.02
 -10   0   2   39.43    1.17
 -10   0   2   41.19    1.14
   9   1  -1  103.38    2.67
   9   1  -1  106.83    2.61
  -9  -1   1  102.48    2.62
  -9  -1   1  107.08    2.55
   8   2   0  269.17    6.46
   8   2   0  268.42    6.31
   8   2   0  265.37    6.53
  -8  -2   0  268.84    6.30
  -8  -2   0  270.23    6.11
   7   3   1   62.90    1.67
   7   3   1   61.86    1.71
   7   3   1   62.80    1.64
  -7  -3  -1   63.45    1.58
  -7  -3  -1   64.69    1.63
   6   4   2  115.86    2.99
   6   4   2  115.67    2.91
   6   4   2  117.61    3.00
  -6  -4  -2  117.43    2.82
   5   5   3    9.06    0.43
   5   5   3    9.14    0.41
   5   5   3    8.33    0.44
  -5  -5  -3    8.27    0.32
   4   6   4    1.01    0.18
   4   6   4    1.43    0.22
   4   6   4    1.53    0.23
   3   7   5    4.25    0.33
   3   7   5    3.93    0.38
   3   7   5    4.41    0.34
   2   8   6    1.97    0.30
   2   8   6    2.06    0.29
   2   8   6    1.53    0.26
   1   9   7    2.52    0.35
   1   9   7    2.39    0.34
   1   9   7    2.01    0.32
   0  10   8   -0.04    0.17
   0  10   8    0.17    0.19
   0  10   8    0.26    0.22
  -1  11   9    0.65    0.26
  -1  11   9    0.22    0.21
  -1  11   9    0.08    0.21
  -2  12  10    3.06    0.46
  20  -8 -11    3.34    0.50
  20  -8 -11    4.42    0.53
  19  -7 -10   13.11    0.80
  19  -7 -10   15.06    0.81
  18  -6  -9    0.09    0.20
  18  -6  -9    0.08    0.19
 -18   6   9    0.22    0.20
 -18   6   9   -0.09    0.16
  17  -5  -8    0.01    0.18
  17  -5  -8   -0.05    0.17
 -17   5   8    0.19    0.18
 -17   5   8    0.03    0.16
  16  -4  -7    1.84    0.30
  16  -4  -7    1.90    0.29
 -16   4   7    1.80    0.29
 -16   4   7    1.51    0.26
  15  -3  -6    0.60    0.20
  15  -3  -6    0.78    0.21
 -15   3   6    0.77    0.21
 -15   3   6    0.43    0.18
  14  -2  -5    0.11    0.14
  14  -2  -5    0.42    0.16
 -14   2   5    0.44    0.17
 -14   2   5   -0.02    0.13
  13  -1  -4   19.79    0.74
  13  -1  -4   21.21    0.78
 -13   1   4   19.92    0.73
 -13   1   4   19.75    0.76
  12   0  -3    0.05    0.10
  12   0  -3    0.12    0.11
 -12   0   3    0.11    0.12
 -12   0   3   -0.02    0.11
  11   1  -2    0.94    0.17
  11   1  -2    1.36    0.19
 -11  -1   2    0.66    0.15
 -11  -1   2    1.29    0.18
  10   2  -1   41.66    1.26
  10   2  -1   43.21    1.23
 -10  -2   1   43.08    1.18
 -10  -2   1   41.13    1.21
   9   3   0  147.41    3.72
   9   3   0  148.05    3.62
   9   3   0  149.87    3.63
  -9  -3   0  145.67    3.58
  -9  -3   0  145.12    3.47
   8   4   1   68.31    1.84
   8   4   1   69.84    1.80
   8   4   1   66.89    1.89
  -8  -4  -1   67.38    1.71
  -8  -4  -1   69.29    1.77
   7   5   2   69.87    1.85
   7   5   2   66.71    1.86
   7   5   2   67.16    1.91
  -7  -5  -2   66.94    1.67
  -7  -5  -2   69.12    1.73
   6   6   3    0.24    0.13
   6   6   3    0.11    0.12
   6   6   3    0.34    0.13
   5   7   4    1.49    0.23
   5   7   4    1.57    0.25
   5   7   4    1.44    0.24
   4   8   5    1.67    0.27
   4   8   5    1.57    0.26
   4   8   5    1.45    0.27
   3   9   6    5.43    0.44
   3   9   6    5.08    0.43
   3   9   6    5.32    0.43
   2  10   7    9.13    0.61
   2  10   7    9.57    0.62
   2  10   7    9.87    0.62
   1  11   8    4.88    0.52
   1  11   8    5.48    0.55
   1  11   8    5.14    0.53
   0  12   9    0.09    0.23
   0  12   9    0.41    0.24
  21  -7 -11    4.31    0.53
  21  -7 -11    3.85    0.51
  20  -6 -10   24.31    1.05
  20  -6 -10   21.74    1.05
 -20   6  10   22.47    0.96
 -20   6  10   22.19    0.99
  19  -5  -9    0.48    0.23
  19  -5  -9    0.65    0.23
 -19   5   9    0.33    0.22
 -19   5   9    0.49    0.23
  18  -4  -8    0.87    0.25
  18  -4  -8    0.67    0.23
 -18   4   8    1.06    0.24
 -18   4   8    0.98    0.24
  17  -3  -7    8.26    0.51
  17  -3  -7    7.86    0.52
 -17   3   7    7.56    0.48
 -17   3   7    7.23    0.48
  16  -2  -6   16.28    0.74
  16  -2  -6   16.65    0.72
 -16   2   6   17.04    0.74
 -16   2   6   15.11    0.70
  15  -1  -5    5.15    0.39
  15  -1  -5    4.91    0.37
 -15   1   5    4.97    0.39
 -15   1   5    4.67    0.37
  14   0  -4   76.44    2.06
  14   0  -4   74.16    2.10
 -14   0   4   75.72    2.08
 -14   0   4   74.12    2.00
  13   1  -3    2.72    0.29
  13   1  -3    3.10    0.32
 -13  -1   3    2.82    0.30
 -13  -1   3    2.38    0.27
  12   2  -2   20.67    0.78
  12   2  -2   20.26    0.75
 -12  -2   2   20.26    0.72
 -12  -2   2   20.64    0.75
  11   3  -1    2.35    0.27
  11   3  -1    2.72    0.28
 -11  -3   1    2.31    0.24
 -11  -3   1    2.48    0.26
  10   4   0    7.90    0.43
  10   4   0    7.73    0.44
 -10  -4   0    7.52    0.37
 -10  -4   0    7.90    0.38
   9   5   1    0.53    0.16
   9   5   1    0.36    0.14
  -9  -5  -1    0.60    0.13
  -9  -5  -1    0.56    0.13
   8   6   2   36.22    1.18
   8   6   2   38.01    1.13
   8   6   2   36.07    1.22
   7   7   3    6.37    0.44
   7   7   3    4.98    0.34
   7   7   3    5.89    0.42
   6   8   4    6.05    0.43
   6   8   4    6.31    0.42
   6   8   4    6.69    0.47
   5   9   5    3.93    0.43
   5   9   5    2.07    0.30
   5   9   5    3.41    0.40
   4  10   6    0.96    0.25
   4  10   6    0.57    0.24
   4  10   6    0.47    0.22
   3  11   7    0.07    0.20
   3  11   7   -0.05    0.17
   3  11   7    0.27    0.21
   2  12   8    3.20    0.46
   2  12   8    3.25    0.46
   1  13   9    1.69    0.38
  22  -6 -11    0.79    0.32
 -22   6  11    0.81    0.29
 -22   6  11    0.55    0.27
  21  -5 -10   12.98    0.76
  21  -5 -10   14.12    0.81
 -21   5  10   13.57    0.76
 -21   5  10   12.19    0.71
  20  -4  -9    8.12    0.58
  20  -4  -9    7.66    0.56
 -20   4   9    7.73    0.56
 -20   4   9    7.98    0.55
  19  -3  -8    5.20    0.50
  19  -3  -8    4.97    0.49
 -19   3   8    4.10    0.43
 -19   3   8    4.18    0.45
  18  -2  -7    1.98    0.31
  18  -2  -7    1.57    0.29
 -18   2   7    1.49    0.28
 -18   2   7    1.29    0.26
  17  -1  -6   -0.05    0.14
  17  -1  -6    0.00    0.14
 -17   1   6    0.21    0.16
 -17   1   6    0.08    0.16
  16   0  -5   -0.13    0.10
  16   0  -5   -0.30    0.10
 -16   0   5   -0.08    0.15
 -16   0   5   -0.13    0.13
  15   1  -4   37.64    1.21
  15   1  -4   37.07    1.24
 -15  -1   4   36.72    1.19
 -15  -1   4   38.17    1.24
  14   2  -3   31.08    1.08
  14   2  -3   31.92    1.06
 -14  -2   3   31.12    1.05
 -14  -2   3   30.51    1.01
  13   3  -2   15.54    0.66
  13   3  -2   15.64    0.68
 -13  -3   2   15.99    0.63
 -13  -3   2   15.19    0.64
  12   4  -1    0.45    0.16
  12   4  -1    0.16    0.14
 -12  -4   1    0.26    0.13
 -12  -4   1    0.06    0.12
  11   5   0    6.31    0.43
  11   5   0    5.93    0.40
 -11  -5   0    6.01    0.34
 -11  -5   0    5.94    0.35
  10   6   1   13.67    0.66
  10   6   1   13.80    0.64
   9   7   2   48.22    1.55
   9   7   2   47.18    1.50
   8   8   3    3.60    0.40
   8   8   3    3.28    0.39
   7   9   4    8.67    0.55
   7   9   4    7.74    0.55
   6  10   5   15.55    0.83
   6  10   5   18.46    0.86
   5  11   6    0.50    0.23
   5  11   6    0.26    0.22
   4  12   7    0.20    0.22
   3  13   8    3.68    0.52
  23  -5 -11    4.06    0.51
 -23   5  11    4.48    0.51
  22  -4 -10   11.76    0.73
  22  -4 -10   10.57    0.72
 -22   4  10   11.35    0.69
 -22   4  10   11.11    0.70
  21  -3  -9    5.09    0.52
  21  -3  -9    3.70    0.46
 -21   3   9    5.70    0.55
 -21   3   9    4.91    0.50
  20  -2  -8   16.46    0.83
  20  -2  -8   15.99    0.79
 -20   2   8   16.04    0.81
 -20   2   8   16.55    0.80
  19  -1  -7   -0.02    0.16
  19  -1  -7    0.05    0.17
 -19   1   7    0.08    0.18
 -19   1   7    0.26    0.20
  18   0  -6    0.12    0.14
  18   0  -6   -0.02    0.14
 -18   0   6    0.02    0.14
 -18   0   6    0.24    0.17
  17   1  -5    0.89    0.21
  17   1  -5    0.55    0.20
 -17  -1   5    0.21    0.16
 -17  -1   5    0.54    0.20
  16   2  -4    6.59    0.46
  16   2  -4    6.91    0.47
 -16  -2   4    7.00    0.45
 -16  -2   4    6.76    0.45
  15   3  -3    6.10    0.44
  15   3  -3    6.74    0.46
 -15  -3   3    6.73    0.42
 -15  -3   3    5.80    0.42
  14   4  -2    0.04    0.14
  14   4  -2    0.08    0.12
 -14  -4   2    0.09    0.14
 -14  -4   2    0.09    0.14
  13   5  -1    4.72    0.40
  13   5  -1    4.55    0.37
 -13  -5   1    4.59    0.35
 -13  -5   1    4.24    0.32
  12   6   0    5.28    0.42
  12   6   0    5.42    0.41
  11   7   1    5.03    0.49
  11   7   1    5.31    0.41
  10   8   2    6.59    0.49
  10   8   2    4.76    0.47
   9   9   3    5.66    0.54
   9   9   3    6.65    0.52
   8  10   4    9.59    0.63
   8  10   4    9.28    0.63
   7  11   5    2.83    0.43
   7  11   5    3.12    0.43
   6  12   6    1.12    0.31
   5  13   7   -0.15    0.20
  24  -4 -11    3.97    0.52
 -24   4  11    2.99    0.45
  23  -3 -10    2.32    0.41
  23  -3 -10    2.78    0.43
 -23   3  10    3.74    0.49
 -23   3  10    3.02    0.43
  22  -2  -9    3.30    0.43
  22  -2  -9    3.21    0.43
 -22   2   9    3.03    0.43
 -22   2   9    3.57    0.45
  21  -1  -8   20.89    0.94
  21  -1  -8   20.34    0.96
 -21   1   8   20.45    0.92
 -21   1   8   20.65    0.96
  20   0  -7    0.06    0.17
  20   0  -7    0.29    0.19
 -20   0   7    0.01    0.17
 -20   0   7   -0.23    0.14
  19   1  -6    1.81    0.30
  19   1  -6    1.49    0.28
 -19  -1   6    0.85    0.24
 -19  -1   6    1.32    0.28
  18   2  -5    9.83    0.58
  18   2  -5    8.83    0.57
 -18  -2   5    8.62    0.54
 -18  -2   5    9.30    0.57
  17   3  -4   11.38    0.62
  17   3  -4   10.87    0.62
 -17  -3   4   10.83    0.60
 -17  -3   4    9.67    0.55
  16   4  -3    7.38    0.50
  16   4  -3    7.47    0.51
 -16  -4   3    7.52    0.46
 -16  -4   3    6.71    0.46
  15   5  -2   22.39    0.93
  15   5  -2   24.76    0.99
 -15  -5   2   23.52    0.89
 -15  -5   2   21.98    0.83
  14   6  -1    0.45    0.20
  14   6  -1    0.28    0.18
 -14  -6   1    0.40    0.16
 -14  -6   1    0.49    0.18
  13   7   0    0.76    0.24
  13   7   0    1.26    0.27
  12   8   1    7.82    0.56
  12   8   1    8.55    0.58
  11   9   2    0.88    0.26
  11   9   2    1.00    0.28
  10  10   3    5.37    0.56
  10  10   3    4.25    0.50
   9  11   4    6.90    0.57
   9  11   4    7.39    0.60
   8  12   5    0.04    0.23
  25  -3 -11    1.42    0.35
 -25   3  11    0.95    0.32
  24  -2 -10    0.80    0.30
 -24   2  10    0.39    0.27
  23  -1  -9    0.17    0.20
  23  -1  -9    0.05    0.20
 -23   1   9   -0.05    0.18
 -23   1   9   -0.13    0.19
  22   0  -8   19.02    0.92
 -22   0   8   20.35    0.96
 -22   0   8   18.12    0.89
  21   1  -7    4.82    0.51
  21   1  -7    5.14    0.51
 -21  -1   7    4.42    0.48
 -21  -1   7    4.53    0.49
  20   2  -6    0.18    0.18
  20   2  -6    0.18    0.19
 -20  -2   6    0.07    0.19
 -20  -2   6    0.38    0.23
  19   3  -5   33.72    1.28
  19   3  -5   34.10    1.25
 -19  -3   5   32.90    1.19
 -19  -3   5   32.29    1.22
  18   4  -4    0.26    0.19
  18   4  -4    0.02    0.16
 -18  -4   4    0.37    0.21
 -18  -4   4    0.08    0.18
  17   5  -3    1.25    0.28
  17   5  -3    1.33    0.28
 -17  -5   3    1.69    0.29
 -17  -5   3    1.32    0.27
  16   6  -2   51.52    1.68
  16   6  -2   51.86    1.72
 -16  -6   2   48.16    1.49
  15   7  -1    5.62    0.53
  15   7  -1    5.39    0.53
  14   8   0    0.93    0.28
  14   8   0    0.47    0.22
  13   9   1    7.39    0.57
  13   9   1    7.59    0.59
  12  10   2    2.50    0.43
  12  10   2    1.60    0.34
  11  11   3    0.18    0.24
  10  12   4    7.95    0.65
  25  -1 -10    0.07    0.22
 -25   1  10    0.22    0.23
  24   0  -9   -0.07    0.20
  24   0  -9    0.00    0.20
 -24   0   9   -0.11    0.20
  23   1  -8    6.59    0.63
  23   1  -8    4.09    0.51
 -23  -1   8    5.19    0.56
 -23  -1   8    4.16    0.50
  22   2  -7   -0.13    0.18
  22   2  -7   -0.03    0.19
 -22  -2   7    0.15    0.20
 -22  -2   7    0.13    0.20
  21   3  -6    9.29    0.62
  21   3  -6    7.88    0.59
 -21  -3   6    7.37    0.55
 -21  -3   6    7.16    0.56
  20   4  -5    2.59    0.39
  20   4  -5    2.52    0.39
 -20  -4   5    2.70    0.38
 -20  -4   5    1.92    0.33
  19   5  -4    0.67    0.26
  19   5  -4    0.69    0.26
 -19  -5   4    0.61    0.24
 -19  -5   4    0.59    0.23
  18   6  -3    0.53    0.24
  18   6  -3    0.09    0.20
 -18  -6   3    0.02    0.18
  17   7  -2   27.95    1.16
  17   7  -2   28.66    1.20
  16   8  -1    6.42    0.61
  16   8  -1    6.65    0.62
  15   9   0    2.39    0.43
  15   9   0    2.76    0.43
  14  10   1   -0.01    0.23
  14  10   1    0.48    0.26
  13  11   2    0.58    0.29
  12  12   3   -0.05    0.23
  25   1  -9    0.12    0.22
 -25  -1   9    0.42    0.26
  24   2  -8    1.80    0.38
 -24  -2   8    2.12    0.40
  23   3  -7    3.65    0.48
  23   3  -7    3.52    0.49
 -23  -3   7    3.68    0.48
 -23  -3   7    3.75    0.48
  22   4  -6    3.90    0.50
  22   4  -6    3.44    0.46
 -22  -4   6    3.28    0.44
 -22  -4   6    3.49    0.45
  21   5  -5    0.07    0.20
  21   5  -5    0.34    0.23
 -21  -5   5    0.19    0.22
 -21  -5   5   -0.09    0.19
  20   6  -4    0.49    0.23
  20   6  -4    0.54    0.26
 -20  -6   4    0.43    0.22
  19   7  -3    0.48    0.26
  19   7  -3    0.79    0.29
  18   8  -2    8.76    0.66
  18   8  -2    9.55    0.67
  17   9  -1    6.39    0.63
  16  10   0    1.43    0.35
  15  11   1    0.30    0.26
  25   3  -8    0.73    0.31
 -25  -3   8    1.05    0.36
  24   4  -7    3.42    0.49
 -24  -4   7    2.89    0.46
  23   5  -6    3.26    0.48
 -23  -5   6    4.00    0.49
 -23  -5   6    3.25    0.46
  22   6  -5    0.82    0.30
  21   7  -4    1.48    0.35
  20   8  -3    1.13    0.32
  19   9  -2    6.64    0.66
  18  10  -1    0.80    0.30
  17  11  -7    0.19    0.26
  18  10  -8    6.50    0.66
  19   9  -9    1.96    0.41
  20   8 -10    1.24    0.34
 -21  -7  11    4.88    0.55
 -21  -7  11    5.44    0.56
  21   7 -11    4.74    0.57
 -22  -6  12    0.71    0.31
  22   6 -12    0.87    0.31
 -23  -5  13    1.06    0.35
  23   5 -13    0.97    0.32
  13  13  -4    6.93    0.68
  14  12  -5    0.96    0.32
  15  11  -6    0.36    0.27
  15  11  -6    0.53    0.27
  16  10  -7    7.50    0.62
  16  10  -7    7.20    0.67
  17   9  -8    0.12    0.24
  17   9  -8    0.24    0.25
  18   8  -9    5.50    0.59
  18   8  -9    5.37    0.57
 -19  -7  10   14.77    0.77
 -19  -7  10   15.84    0.81
  19   7 -10   14.71    0.84
  19   7 -10   15.68    0.84
 -20  -6  11   -0.13    0.21
 -20  -6  11   -0.13    0.20
  20   6 -11   -0.02    0.18
  20   6 -11    0.08    0.21
 -21  -5  12    0.20    0.24
 -21  -5  12    0.32    0.25
  21   5 -12    0.10    0.21
  21   5 -12    0.06    0.22
 -22  -4  13    1.89    0.38
  22   4 -13    1.73    0.38
 -23  -3  14   -0.08    0.24
  23   3 -14   -0.18    0.22
  11  13  -3    0.33    0.26
  12  12  -4    6.02    0.62
  12  12  -4    6.61    0.54
  13  11  -5    0.20    0.23
  13  11  -5    0.13    0.20
  14  10  -6    2.99    0.43
  14  10  -6    4.03    0.49
  15   9  -7    0.28    0.19
  15   9  -7    0.23    0.22
  16   8  -8    5.16    0.53
  16   8  -8    4.86    0.54
 -17  -7   9    0.56    0.23
 -17  -7   9    0.39    0.21
  17   7  -9    0.34    0.21
  17   7  -9    0.48    0.24
 -18  -6  10   22.47    0.94
 -18  -6  10   21.75    0.97
  18   6 -10   21.39    1.00
  18   6 -10   21.59    0.98
 -19  -5  11    1.41    0.33
 -19  -5  11    1.33    0.32
  19   5 -11    2.20    0.38
  19   5 -11    1.68    0.36
 -20  -4  12    4.08    0.50
 -20  -4  12    3.88    0.47
  20   4 -12    3.75    0.48
  20   4 -12    4.07    0.49
 -21  -3  13    4.87    0.54
 -21  -3  13    4.70    0.52
  21   3 -13    5.85    0.58
  21   3 -13    4.38    0.51
 -22  -2  14    2.55    0.41
  22   2 -14    4.00    0.50
 -23  -1  15    1.54    0.35
  23   1 -15    1.50    0.37
   8  14  -1    1.93    0.39
   9  13  -2    1.46    0.34
   9  13  -2    2.29    0.41
  10  12  -3    2.37    0.40
  10  12  -3    1.96    0.37
  11  11  -4    5.25    0.54
  11  11  -4    5.41    0.54
  12  10  -5    3.96    0.46
  12  10  -5    4.34    0.48
  13   9  -6    5.34    0.52
  13   9  -6    5.15    0.51
  14   8  -7   -0.09    0.17
  14   8  -7    0.01    0.17
 -15  -7   8    3.19    0.37
 -15  -7   8    2.92    0.37
  15   7  -8    2.87    0.38
  15   7  -8    4.12    0.45
 -16  -6   9    2.58    0.35
 -16  -6   9    2.39    0.35
  16   6  -9    2.73    0.39
  16   6  -9    2.50    0.36
 -17  -5  10    2.65    0.38
 -17  -5  10    2.28    0.35
  17   5 -10    2.83    0.41
  17   5 -10    2.75    0.38
 -18  -4  11    2.49    0.37
 -18  -4  11    2.57    0.37
  18   4 -11    2.15    0.36
  18   4 -11    2.60    0.39
 -19  -3  12    4.58    0.50
 -19  -3  12    4.23    0.47
  19   3 -12    4.72    0.51
  19   3 -12    5.43    0.55
 -20  -2  13    2.26    0.38
 -20  -2  13    2.39    0.40
  20   2 -13    2.52    0.40
  20   2 -13    1.92    0.37
 -21  -1  14    0.14    0.24
 -21  -1  14   -0.10    0.21
  21   1 -14    0.11    0.22
  21   1 -14   -0.05    0.18
 -22   0  15    0.07    0.21
  22   0 -15    0.02    0.21
 -23   1  16    4.26    0.52
  23  -1 -16    5.90    0.64
   6  14   0    2.85    0.42
   6  14   0    2.56    0.41
   7  13  -1    1.59    0.35
   7  13  -1    1.11    0.30
   8  12  -2   -0.14    0.17
   8  12  -2    0.07    0.19
   9  11  -3    2.01    0.35
   9  11  -3    1.75    0.32
  10  10  -4    6.90    0.50
  10  10  -4    6.11    0.48
  11   9  -5   13.85    0.69
  11   9  -5   12.90    0.69
  12   8  -6    1.16    0.26
  12   8  -6    1.12    0.26
 -13  -7   7    6.45    0.42
 -13  -7   7    5.61    0.42
  13   7  -7    5.86    0.45
  13   7  -7    6.36    0.47
 -14  -6   8    1.99    0.29
 -14  -6   8    2.41    0.32
  14   6  -8    2.22    0.33
  14   6  -8    3.14    0.38
 -15  -5   9    7.05    0.47
 -15  -5   9    7.06    0.49
  15   5  -9    6.28    0.46
  15   5  -9    6.85    0.50
 -16  -4  10   20.62    0.87
 -16  -4  10   18.37    0.81
  16   4 -10   18.37    0.83
  16   4 -10   18.92    0.86
 -17  -3  11    4.72    0.48
 -17  -3  11    4.46    0.46
  17   3 -11    5.22    0.52
  17   3 -11    4.65    0.48
 -18  -2  12    1.60    0.32
 -18  -2  12    1.42    0.29
  18   2 -12    1.55    0.33
  18   2 -12    2.05    0.34
 -19  -1  13   -0.02    0.17
 -19  -1  13    0.01    0.19
  19   1 -13   -0.04    0.19
  19   1 -13    0.21    0.22
 -20   0  14   22.47    1.01
 -20   0  14   22.68    1.05
  20   0 -14   21.67    1.02
  20   0 -14   23.35    1.09
 -21   1  15    1.64    0.35
 -21   1  15    1.94    0.38
  21  -1 -15    1.79    0.37
 -22   2  16    4.64    0.54
  22  -2 -16    4.50    0.56
   4  14   1    1.62    0.37
   4  14   1    1.58    0.33
   5  13   0    4.00    0.47
   5  13   0    2.80    0.41
   5  13   0    4.17    0.47
   6  12  -1    0.84    0.26
   6  12  -1    1.16    0.27
   6  12  -1    1.05    0.27
   7  11  -2    0.22    0.20
   7  11  -2    0.12    0.18
   7  11  -2   -0.06    0.10
   8  10  -3    1.23    0.27
   8  10  -3    1.82    0.30
   8  10  -3    1.22    0.26
   9   9  -4    5.30    0.42
   9   9  -4    5.24    0.41
   9   9  -4    4.83    0.40
  10   8  -5    7.14    0.45
  10   8  -5    6.92    0.48
  10   8  -5    7.35    0.48
 -11  -7   6    0.25    0.15
 -11  -7   6    0.42    0.17
  11   7  -6    0.32    0.18
  11   7  -6    0.50    0.18
 -12  -6   7    4.76    0.36
 -12  -6   7    5.07    0.36
  12   6  -7    4.17    0.40
  12   6  -7    4.70    0.44
 -13  -5   8   44.36    1.33
 -13  -5   8   42.79    1.37
  13   5  -8   44.43    1.40
  13   5  -8   42.15    1.42
 -14  -4   9   32.97    1.11
 -14  -4   9   31.48    1.14
  14   4  -9   34.87    1.19
  14   4  -9   31.35    1.13
 -15  -3  10    2.44    0.32
 -15  -3  10    2.30    0.34
  15   3 -10    2.71    0.35
  15   3 -10    2.53    0.34
 -16  -2  11   44.89    1.53
 -16  -2  11   46.49    1.49
  16   2 -11   48.75    1.53
  16   2 -11   45.63    1.55
 -17  -1  12   54.49    1.68
 -17  -1  12   49.79    1.70
  17   1 -12   53.25    1.72
  17   1 -12   54.25    1.77
 -18   0  13    0.07    0.19
 -18   0  13   -0.14    0.17
  18   0 -13   -0.02    0.18
  18   0 -13    0.04    0.18
 -19   1  14    1.23    0.31
 -19   1  14    1.51    0.32
  19  -1 -14    1.48    0.34
  19  -1 -14    2.09    0.37
 -20   2  15    0.61    0.26
 -20   2  15    0.51    0.24
  20  -2 -15    0.76    0.29
  20  -2 -15    0.38    0.23
 -21   3  16    2.25    0.39
  21  -3 -16    1.60    0.38
   2  14   2    3.93    0.46
   2  14   2    4.39    0.56
   3  13   1    1.38    0.30
   3  13   1    1.06    0.28
   3  13   1    1.36    0.31
   4  12   0    8.36    0.55
   4  12   0    8.01    0.54
   4  12   0    9.58    0.64
   5  11  -1    0.05    0.16
   5  11  -1    0.03    0.18
   5  11  -1   -0.09    0.15
   6  10  -2    9.21    0.54
   6  10  -2    8.52    0.54
   6  10  -2    8.22    0.50
   7   9  -3   18.76    0.78
   7   9  -3   16.87    0.72
   7   9  -3   17.28    0.78
   8   8  -4    1.31    0.25
   8   8  -4    1.31    0.23
   8   8  -4    1.03    0.23
  -9  -7   5    7.14    0.38
  -9  -7   5    7.46    0.39
   9   7  -5    7.48    0.44
   9   7  -5    7.49    0.44
   9   7  -5    6.89    0.45
 -10  -6   6   63.07    1.74
 -10  -6   6   61.13    1.67
  10   6  -6   62.34    1.78
  10   6  -6   63.49    1.83
  10   6  -6   63.83    1.84
 -11  -5   7   22.35    0.80
 -11  -5   7   22.29    0.83
  11   5  -7   24.86    0.91
  11   5  -7   23.39    0.84
  11   5  -7   23.48    0.86
 -12  -4   8   86.02    2.34
 -12  -4   8   84.75    2.26
  12   4  -8   84.49    2.33
  12   4  -8   86.42    2.40
  12   4  -8   89.68    2.39
 -13  -3   9   29.53    1.06
 -13  -3   9   31.55    1.05
  13   3  -9   31.06    1.10
  13   3  -9   29.37    1.05
  13   3  -9   31.92    1.02
 -14  -2  10    0.54    0.20
 -14  -2  10    0.07    0.16
  14   2 -10    0.29    0.19
  14   2 -10    0.25    0.16
 -15  -1  11    8.16    0.50
 -15  -1  11    7.89    0.51
  15   1 -11    7.61    0.52
  15   1 -11    7.24    0.48
 -16   0  12   76.41    2.21
 -16   0  12   75.49    2.14
  16   0 -12   73.27    2.19
  16   0 -12   73.06    2.25
 -17   1  13    0.86    0.25
 -17   1  13    1.79    0.31
  17  -1 -13    1.37    0.31
  17  -1 -13    0.93    0.27
 -18   2  14   -0.05    0.19
 -18   2  14    0.16    0.20
  18  -2 -14    0.44    0.24
  18  -2 -14    0.50    0.26
 -19   3  15    6.08    0.58
 -19   3  15    5.60    0.54
  19  -3 -15    4.98    0.58
  19  -3 -15    5.35    0.57
 -20   4  16    0.48    0.26
 -20   4  16    0.80    0.28
  20  -4 -16    0.85    0.32
   0  14   3    0.74    0.26
   1  13   2    0.31    0.21
   1  13   2    0.29    0.24
   1  13   2    0.36    0.22
   2  12   1    1.57    0.29
   2  12   1    1.88    0.31
   2  12   1    1.71    0.35
   3  11   0    7.46    0.54
   3  11   0    6.31    0.44
   3  11   0    7.62    0.49
   4  10  -1    6.52    0.42
   4  10  -1    5.30    0.45
   4  10  -1    6.33    0.43
   5   9  -2    0.61    0.19
   5   9  -2    0.39    0.19
   5   9  -2    0.65    0.18
   6   8  -3   10.10    0.52
   6   8  -3   11.47    0.52
  -7  -7   4    5.29    0.30
  -7  -7   4    5.22    0.29
   7   7  -4    6.51    0.40
   7   7  -4    6.26    0.40
   7   7  -4    5.62    0.36
  -8  -6   5   35.79    1.06
  -8  -6   5   35.52    1.03
   8   6  -5   35.88    1.14
   8   6  -5   35.49    1.11
   8   6  -5   35.74    1.16
  -9  -5   6   82.80    2.09
  -9  -5   6   80.20    2.16
   9   5  -6   82.29    2.24
   9   5  -6   83.15    2.19
   9   5  -6   83.49    2.28
 -10  -4   7    5.57    0.35
 -10  -4   7    5.86    0.36
  10   4  -7    6.41    0.36
  10   4  -7    6.73    0.41
  10   4  -7    6.76    0.40
 -11  -3   8    6.46    0.39
 -11  -3   8    6.04    0.38
  11   3  -8    6.81    0.42
  11   3  -8    6.28    0.35
  11   3  -8    5.74    0.37
 -12  -2   9    2.75    0.32
 -12  -2   9    2.77    0.24
 -12  -2   9    2.43    0.29
  12   2  -9    2.34    0.31
  12   2  -9    2.18    0.28
 -13  -1  10    0.25    0.15
 -13  -1  10    0.14    0.11
 -13  -1  10   -0.05    0.13
  13   1 -10    0.16    0.16
  13   1 -10    0.25    0.15
 -14   0  11   -0.02    0.11
 -14   0  11   -0.17    0.13
 -14   0  11   -0.08    0.14
  14   0 -11   -0.28    0.12
  14   0 -11    0.13    0.17
 -15   1  12   24.96    0.94
 -15   1  12   25.81    1.00
 -15   1  12   23.85    0.95
  15  -1 -12   26.52    1.06
  15  -1 -12   26.54    1.03
 -16   2  13    9.66    0.54
 -16   2  13    9.69    0.57
 -16   2  13    9.33    0.58
  16  -2 -13    9.79    0.64
  16  -2 -13    9.01    0.59
 -17   3  14    3.68    0.43
 -17   3  14    3.20    0.39
  17  -3 -14    3.24    0.44
  17  -3 -14    2.83    0.41
 -18   4  15    6.43    0.52
 -18   4  15    6.99    0.52
  18  -4 -15    7.57    0.61
  18  -4 -15    6.74    0.67
  19  -5 -16    1.76    0.39
  -1  13   3    1.45    0.30
  -1  13   3    0.37    0.28
  -1  13   3    0.97    0.27
   0  12   2    0.79    0.27
   0  12   2    0.61    0.23
   0  12   2    0.91    0.25
   1  11   1    0.80    0.26
   1  11   1    0.65    0.20
   1  11   1    0.82    0.23
   2  10   0   18.45    0.72
   2  10   0   16.80    0.82
   2  10   0   17.59    0.74
   3   9  -1    7.63    0.42
   3   9  -1    6.66    0.42
   3   9  -1    6.89    0.47
   4   8  -2   33.93    1.19
   4   8  -2   34.82    1.06
   4   8  -2   33.70    1.09
  -5  -7   3    7.69    0.33
  -5  -7   3    7.15    0.31
   5   7  -3    8.32    0.41
   5   7  -3    7.13    0.38
   5   7  -3    7.72    0.43
  -6  -6   4   74.45    1.88
  -6  -6   4   78.41    1.83
   6   6  -4   73.40    1.99
   6   6  -4   66.91    2.06
   6   6  -4   74.15    1.94
  -7  -5   5   74.67    1.94
  -7  -5   5   76.01    1.89
   7   5  -5   76.53    2.10
   7   5  -5   71.93    2.01
   7   5  -5   76.02    1.97
  -8  -4   6  173.03    4.11
  -8  -4   6  172.02    4.24
   8   4  -6  180.38    4.25
   8   4  -6  181.77    4.51
   8   4  -6  168.41    4.34
  -9  -3   7  118.20    3.01
  -9  -3   7  119.72    2.92
   9   3  -7  121.74    3.15
   9   3  -7  121.71    3.00
   9   3  -7  115.40    3.06
 -10  -2   8   35.60    1.07
 -10  -2   8   34.85    1.08
 -10  -2   8   35.64    1.11
  10   2  -8   35.97    1.10
  10   2  -8   34.67    1.13
 -11  -1   9    4.03    0.31
 -11  -1   9    3.53    0.27
 -11  -1   9    3.20    0.31
  11   1  -9    3.68    0.35
  11   1  -9    3.73    0.35
 -12   0  10    2.16    0.28
 -12   0  10    1.64    0.22
 -12   0  10    2.20    0.29
  12   0 -10    2.21    0.28
  12   0 -10    1.56    0.26
 -13   1  11   16.66    0.73
 -13   1  11   17.65    0.72
 -13   1  11   16.92    0.70
  13  -1 -11   15.88    0.74
  13  -1 -11   17.93    0.80
 -14   2  12   27.23    0.98
 -14   2  12   27.71    1.02
 -14   2  12   26.46    1.00
  14  -2 -12   26.43    1.04
  14  -2 -12   27.88    1.09
 -15   3  13    4.52    0.43
 -15   3  13    4.14    0.37
 -15   3  13    5.07    0.42
  15  -3 -13    4.68    0.48
  15  -3 -13    4.60    0.48
 -16   4  14   24.26    0.98
 -16   4  14   27.30    1.05
 -16   4  14   26.29    1.07
  16  -4 -14   25.72    1.13
  16  -4 -14   25.47    1.10
 -17   5  15    6.64    0.50
 -17   5  15    5.61    0.55
  17  -5 -15    5.90    0.61
  17  -5 -15    6.09    0.62
  18  -6 -16    0.29    0.24
  -3  13   4    0.65    0.24
  -3  13   4    0.80    0.30
  -2  12   3    4.06    0.42
  -2  12   3    4.61    0.46
  -2  12   3    3.19    0.46
  -1  11   2    0.70    0.22
  -1  11   2    0.55    0.21
  -1  11   2    0.49    0.22
   0  10   1    4.66    0.35
   0  10   1    5.46    0.44
   0  10   1    5.18    0.38
   1   9   0    7.58    0.43
   1   9   0    8.17    0.50
   1   9   0    6.82    0.40
   2   8  -1   23.79    0.84
   2   8  -1   26.04    0.97
   2   8  -1   25.62    0.83
  -3  -7   2  141.96    3.33
  -3  -7   2  140.31    3.23
   3   7  -2  144.12    3.77
   3   7  -2  137.75    3.53
   3   7  -2  141.73    3.45
  -4  -6   3    0.32    0.09
  -4  -6   3    0.26    0.08
   4   6  -3    0.49    0.15
   4   6  -3    0.27    0.10
   4   6  -3    0.25    0.11
  -5  -5   4    1.43    0.16
  -5  -5   4    1.25    0.15
   5   5  -4    0.60    0.13
   5   5  -4    1.18    0.17
   5   5  -4    1.52    0.18
  -6  -4   5   37.23    1.06
  -6  -4   5   37.01    1.03
   6   4  -5   38.64    1.07
   6   4  -5   39.51    1.11
   6   4  -5   34.86    1.13
  -7  -3   6   66.49    1.81
  -7  -3   6   67.98    1.75
   7   3  -6   69.95    1.84
   7   3  -6   70.98    1.91
   7   3  -6   69.14    1.79
  -8  -2   7  113.77    2.74
  -8  -2   7  112.06    2.93
  -8  -2   7  109.89    2.81
   8   2  -7  113.45    2.80
   8   2  -7  110.89    2.87
  -9  -1   8   40.67    1.20
  -9  -1   8   41.20    1.16
  -9  -1   8   39.43    1.20
   9   1  -8   40.35    1.18
   9   1  -8   38.44    1.21
 -10   0   9    0.09    0.09
 -10   0   9    0.10    0.11
 -10   0   9    0.09    0.10
  10   0  -9    0.07    0.13
  10   0  -9    0.13    0.12
 -11   1  10   37.11    1.15
 -11   1  10   37.60    1.21
 -11   1  10   38.72    1.21
  11  -1 -10   37.93    1.26
  11  -1 -10   38.08    1.22
 -12   2  11   13.84    0.61
 -12   2  11   13.98    0.62
 -12   2  11   13.22    0.62
  12  -2 -11   13.22    0.66
  12  -2 -11   13.56    0.68
 -13   3  12   26.49    1.00
 -13   3  12   27.68    0.97
 -13   3  12   28.86    1.06
  13  -3 -12   28.23    1.10
  13  -3 -12   27.72    1.06
 -14   4  13   21.35    0.85
 -14   4  13   22.85    0.95
 -14   4  13   21.35    0.88
  14  -4 -13   21.48    0.94
  14  -4 -13   21.49    0.99
 -15   5  14   21.87    0.98
  15  -5 -14   21.94    1.00
  15  -5 -14   19.88    1.00
 -16   6  15    5.16    0.54
  16  -6 -15    4.01    0.51
  16  -6 -15    6.61    0.65
  17  -7 -16    0.69    0.31
  -5  13   5    0.27    0.24
  -4  12   4   18.90    0.85
  -4  12   4   18.23    0.95
  -4  12   4   20.66    0.86
  -3  11   3    1.37    0.30
  -3  11   3    1.16    0.24
  -3  11   3    1.45    0.28
  -2  10   2    7.22    0.43
  -2  10   2    7.25    0.53
  -2  10   2    7.71    0.46
  -1   9   1   23.15    0.83
  -1   9   1   22.87    0.80
  -1   9   1   23.21    0.96
   0   8   0    1.20    0.19
   0   8   0    1.23    0.18
   0   8   0    0.99    0.21
  -1  -7   1    0.06    0.06
   1   7  -1    0.22    0.14
   1   7  -1    0.05    0.08
   1   7  -1    0.07    0.09
  -2  -6   2  216.64    4.97
  -2  -6   2  223.31    5.12
   2   6  -2  228.03    5.20
   2   6  -2  212.99    5.64
   2   6  -2  221.53    5.31
  -3  -5   3   87.13    2.04
  -3  -5   3   88.58    2.10
   3   5  -3   86.44    2.34
   3   5  -3   81.36    2.11
   3   5  -3   86.05    2.18
  -4  -4   4    6.43    0.29
  -4  -4   4    6.40    0.28
   4   4  -4    6.24    0.29
   4   4  -4    6.18    0.33
   4   4  -4    6.61    0.31
  -5  -3   5  206.46    4.77
  -5  -3   5  208.09    4.92
   5   3  -5  209.23    5.01
   5   3  -5  209.01    4.89
  -6  -2   6    0.45    0.11
  -6  -2   6    0.33    0.09
  -6  -2   6    0.25    0.09
   6   2  -6    0.38    0.10
   6   2  -6    0.45    0.12
  -7  -1   7    4.44    0.26
  -7  -1   7    3.95    0.26
  -7  -1   7    4.62    0.29
   7   1  -7    4.38    0.29
   7   1  -7    4.30    0.26
  -8   0   8   88.84    2.24
  -8   0   8   89.19    2.42
  -8   0   8   91.23    2.33
   8   0  -8   89.84    2.38
   8   0  -8   90.59    2.32
  -9   1   9   35.66    1.08
  -9   1   9   33.87    1.09
  -9   1   9   34.46    1.03
   9  -1  -9   33.16    1.11
   9  -1  -9   34.25    1.09
 -10   2  10   38.64    1.13
 -10   2  10   36.54    1.16
 -10   2  10   37.95    1.22
  10  -2 -10   36.81    1.19
  10  -2 -10   36.82    1.23
 -11   3  11   12.80    0.59
 -11   3  11   14.08    0.59
 -11   3  11   13.75    0.64
  11  -3 -11   13.11    0.67
  11  -3 -11   12.63    0.63
 -12   4  12   -0.05    0.12
 -12   4  12   -0.03    0.11
 -12   4  12   -0.03    0.12
  12  -4 -12    0.10    0.17
  12  -4 -12   -0.12    0.14
 -13   5  13    6.43    0.44
 -13   5  13    8.45    0.48
 -13   5  13    6.89    0.50
  13  -5 -13    7.73    0.57
  13  -5 -13    6.35    0.50
 -14   6  14   15.84    0.82
  14  -6 -14   13.97    0.83
  14  -6 -14   15.59    0.83
 -15   7  15    0.29    0.23
  15  -7 -15    0.06    0.22
  16  -8 -16    1.28    0.35
  -6  12   5    0.00    0.21
  -6  12   5    0.32    0.23
  -6  12   5    0.31    0.21
  -5  11   4   18.01    0.75
  -5  11   4   15.69    0.74
  -5  11   4   15.45    0.84
  -4  10   3   10.13    0.55
  -4  10   3   10.62    0.53
  -4  10   3    9.71    0.61
  -3   9   2    0.98    0.24
  -3   9   2    0.74    0.19
  -3   9   2    0.70    0.17
  -2   8   1   27.57    0.86
  -2   8   1   24.90    0.99
  -2   8   1   26.12    0.87
   1  -7   0    1.57    0.12
  -1   7   0    1.44    0.18
  -1   7   0    1.05    0.16
  -1   7   0    1.33    0.23
   0  -6   1    2.35    0.14
   0   6  -1    1.90    0.19
   0   6  -1    2.39    0.26
   0   6  -1    2.11    0.17
  -1  -5   2   84.39    2.00
  -1  -5   2   80.54    1.93
   1   5  -2   82.78    2.07
   1   5  -2   82.77    2.02
   1   5  -2   82.70    2.27
  -2  -4   3  141.67    3.24
  -2  -4   3  133.96    3.13
   2   4  -3  132.91    3.53
   2   4  -3  133.39    3.22
   2   4  -3  140.71    3.30
  -3  -3   4   89.63    2.21
  -3  -3   4   89.47    2.14
   3   3  -4   85.68    2.17
   3   3  -4   92.42    2.23
   3   3  -4   93.86    2.40
  -4  -2   5   39.00    1.03
  -4  -2   5   39.12    1.07
  -4  -2   5   39.35    1.12
   4   2  -5   39.56    1.06
   4   2  -5   38.49    1.03
  -5  -1   6   42.59    1.22
  -5  -1   6   43.23    1.18
  -5  -1   6   42.79    1.14
   5   1  -6   42.19    1.15
   5   1  -6   42.73    1.18
  -6   0   7   -0.01    0.08
  -6   0   7   -0.06    0.07
  -6   0   7    0.05    0.07
   6   0  -7    0.06    0.07
   6   0  -7    0.03    0.08
  -7   1   8    0.20    0.11
  -7   1   8    0.19    0.10
  -7   1   8    0.05    0.09
   7  -1  -8    0.10    0.10
   7  -1  -8    0.08    0.10
  -8   2   9    0.04    0.09
  -8   2   9    0.04    0.10
  -8   2   9    0.16    0.11
   8  -2  -9    0.17    0.13
   8  -2  -9    0.14    0.13
  -9   3  10    9.72    0.46
  -9   3  10   10.84    0.53
  -9   3  10    9.91    0.47
   9  -3 -10   10.04    0.54
   9  -3 -10    9.31    0.52
 -10   4  11    0.06    0.12
 -10   4  11    0.37    0.15
 -10   4  11    0.03    0.12
  10  -4 -11    0.19    0.17
  10  -4 -11    0.05    0.14
 -11   5  12   -0.05    0.13
 -11   5  12    0.13    0.15
 -11   5  12    0.00    0.12
  11  -5 -12   -0.07    0.15
  11  -5 -12    0.03    0.16
 -12   6  13    2.63    0.37
  12  -6 -13    2.16    0.35
  12  -6 -13    1.60    0.33
 -13   7  14   11.13    0.72
  13  -7 -14   12.01    0.76
  13  -7 -14   12.84    0.77
  14  -8 -15    1.37    0.35
  -8  12   6    0.22    0.20
  -8  12   6   -0.02    0.19
  -7  11   5    0.54    0.23
  -7  11   5    0.40    0.20
  -6  10   4   61.82    1.81
  -6  10   4   59.63    2.00
  -6  10   4   61.78    1.77
  -5   9   3   55.54    1.81
  -5   9   3   56.79    1.60
  -5   9   3   55.62    1.63
  -4   8   2   32.39    1.05
  -4   8   2   34.52    1.03
  -4   8   2   34.44    1.21
  -3   7   1   -0.12    0.07
  -3   7   1    0.06    0.09
  -3   7   1    0.03    0.06
  -3   7   1   -0.01    0.11
   2  -6   0    5.86    0.23
  -2   6   0    6.15    0.28
  -2   6   0    6.55    0.39
  -2   6   0    6.06    0.29
   1  -5   1   40.36    1.02
  -1   5  -1   39.05    1.03
  -1   5  -1   38.76    1.21
  -1   5  -1   41.35    1.07
   0  -4   2  167.15    3.86
   0  -4   2  171.36    3.98
   0   4  -2  167.19    4.36
   0   4  -2  176.88    4.05
  -1  -3   3   75.20    1.84
  -1  -3   3   73.61    1.78
   1   3  -3   75.84    1.83
   1   3  -3   75.21    2.02
  -2  -2   4  247.25    5.80
  -2  -2   4  246.54    5.63
   2   2  -4  253.44    6.23
   2   2  -4  252.22    5.88
  -3  -1   5  178.68    4.09
  -3  -1   5  176.60    4.21
  -3  -1   5  178.63    4.49
   3   1  -5  175.73    4.17
   3   1  -5  182.20    4.27
  -4   0   6   94.40    2.49
  -4   0   6   94.96    2.35
   4   0  -6   95.89    2.40
   4   0  -6   95.09    2.34
  -5   1   7   20.97    0.68
  -5   1   7   21.08    0.72
  -5   1   7   22.04    0.66
   5  -1  -7   19.75    0.70
   5  -1  -7   21.06    0.69
  -6   2   8   83.75    2.03
  -6   2   8   80.75    2.09
  -6   2   8   82.53    2.26
   6  -2  -8   79.06    2.18
   6  -2  -8   81.79    2.14
  -7   3   9    0.24    0.12
  -7   3   9    0.28    0.11
  -7   3   9    0.04    0.08
   7  -3  -9    0.03    0.11
   7  -3  -9    0.11    0.11
  -8   4  10   15.55    0.70
  -8   4  10   16.74    0.63
  -8   4  10   16.46    0.61
   8  -4 -10   15.70    0.69
   8  -4 -10   16.33    0.72
  -9   5  11    4.51    0.31
  -9   5  11    4.83    0.40
  -9   5  11    4.70    0.33
   9  -5 -11    3.82    0.41
   9  -5 -11    5.44    0.43
 -10   6  12   -0.11    0.13
  10  -6 -12   -0.11    0.14
  10  -6 -12    0.03    0.17
 -11   7  13    0.20    0.18
  11  -7 -13    0.25    0.20
  11  -7 -13    0.16    0.20
 -12   8  14    4.68    0.54
  12  -8 -14    3.61    0.50
  12  -8 -14    3.12    0.46
  13  -9 -15    1.67    0.38
 -10  12   7   -0.07    0.21
   9 -11  -6    0.65    0.23
  -9  11   6    1.03    0.28
  -9  11   6    0.80    0.24
  -8  10   5    4.17    0.48
  -8  10   5    3.67    0.39
   7  -9  -4   21.75    0.89
  -7   9   4   24.12    0.99
  -7   9   4   23.58    0.84
  -6   8   3    9.57    0.48
  -6   8   3   10.82    0.58
  -6   8   3   10.85    0.49
  -5   7   2   29.15    0.80
  -5   7   2   26.66    0.88
  -5   7   2   27.89    0.86
  -5   7   2   28.15    1.03
   4  -6  -1    2.95    0.17
  -4   6   1    2.99    0.26
  -4   6   1    2.82    0.21
  -4   6   1    2.95    0.18
  -4   6   1    2.58    0.20
   3  -5   0   76.52    1.82
   3  -5   0   78.97    1.88
  -3   5   0   79.04    1.94
  -3   5   0   77.17    2.14
  -3   5   0   74.80    1.88
   2  -4   1    5.39    0.22
   2  -4   1    5.25    0.22
  -2   4  -1    5.52    0.30
  -2   4  -1    5.45    0.22
   1  -3   2    6.50    0.24
   1  -3   2    6.82    0.25
  -1   3  -2    6.50    0.20
  -1   3  -2    6.44    0.31
   0  -2   3  110.43    2.58
   0  -2   3  112.56    2.66
   0   2  -3  113.95    2.64
   0   2  -3  110.24    2.88
  -1  -1   4  273.68    6.28
  -1  -1   4  269.46    6.09
  -1  -1   4  269.26    6.71
   1   1  -4  271.71    6.40
  -2   0   5    0.19    0.07
  -2   0   5    0.06    0.07
  -2   0   5    0.01    0.06
   2   0  -5   -0.05    0.05
  -3   1   6   10.57    0.43
  -3   1   6   10.46    0.38
  -3   1   6   10.66    0.39
  -3   1   6   11.10    0.40
   3  -1  -6   10.46    0.42
  -4   2   7   52.36    1.37
  -4   2   7   51.28    1.47
   4  -2  -7   48.42    1.42
  -5   3   8    2.39    0.25
  -5   3   8    2.09    0.20
  -5   3   8    1.81    0.21
  -5   3   8    1.74    0.19
   5  -3  -8    1.74    0.23
  -6   4   9   -0.04    0.10
  -6   4   9    0.28    0.11
  -6   4   9    0.23    0.13
  -6   4   9    0.12    0.09
   6  -4  -9    0.15    0.13
  -7   5  10   44.77    1.40
  -7   5  10   46.00    1.30
  -7   5  10   43.61    1.49
  -7   5  10   46.74    1.26
   7  -5 -10   45.86    1.49
  -8   6  11   -0.14    0.12
  -8   6  11    0.01    0.16
   8  -6 -11    0.01    0.14
  -9   7  12    2.36    0.37
   9  -7 -12    1.83    0.33
 -10   8  13   10.51    0.69
  10  -8 -13   11.42    0.73
  10  -8 -13   10.51    0.69
  11  -9 -14    1.13    0.33
  11 -11  -7    7.53    0.56
 -11  11   7    7.73    0.60
 -10  10   6    6.80    0.54
  -9   9   5   12.68    0.62
  -9   9   5   10.73    0.64
   8  -8  -4    1.09    0.23
  -8   8   4    0.98    0.24
  -8   8   4    1.69    0.25
   7  -7  -3   17.98    0.69
  -7   7   3   15.94    0.73
  -7   7   3   18.49    0.60
  -7   7   3   19.10    0.59
  -7   7   3   17.71    0.65
   6  -6  -2   75.19    2.02
  -6   6   2   75.25    1.94
  -6   6   2   76.58    2.19
  -6   6   2   77.59    1.86
  -6   6   2   77.84    1.93
   5  -5  -1    2.53    0.17
   5  -5  -1    2.67    0.20
  -5   5   1    2.62    0.27
  -5   5   1    2.73    0.18
  -5   5   1    2.49    0.18
   4  -4   0  147.89    3.48
   4  -4   0  145.40    3.42
   4  -4   0  142.43    3.32
  -4   4   0  144.42    3.74
   3  -3   1   13.38    0.41
   3  -3   1   13.54    0.38
   3  -3   1   14.21    0.43
  -3   3  -1   13.00    0.49
   2  -2   2    1.15    0.11
   2  -2   2    1.22    0.12
  -2   2  -2    1.23    0.14
   1  -1   3    3.61    0.18
   1  -1   3    3.28    0.17
   1  -1   3    3.33    0.19
   1  -1   3    3.63    0.13
   0   0   4   50.61    1.27
   0   0   4   52.98    1.31
   0   0   4   52.64    1.32
   0   0   4   52.68    1.41
  -1   1   5  195.19    4.66
  -1   1   5  203.92    4.67
  -1   1   5  202.89    4.77
  -1   1   5  196.68    4.53
  -2   2   6   22.76    0.70
  -2   2   6   22.56    0.76
  -2   2   6   22.80    0.65
  -2   2   6   23.42    0.68
  -2   2   6   24.02    0.73
  -3   3   7    2.06    0.23
  -3   3   7    1.73    0.17
  -3   3   7    2.17    0.23
  -3   3   7    1.95    0.17
  -3   3   7    1.62    0.19
  -4   4   8    3.16    0.29
  -4   4   8    3.28    0.21
  -4   4   8    2.85    0.29
  -4   4   8    3.64    0.29
  -4   4   8    3.28    0.22
  -5   5   9    1.74    0.24
  -5   5   9    2.45    0.22
  -5   5   9    2.38    0.30
  -5   5   9    2.02    0.20
  -6   6  10   16.80    0.74
  -6   6  10   17.89    0.80
   6  -6 -10   17.73    0.81
  -7   7  11   -0.18    0.14
  -7   7  11    0.06    0.14
   7  -7 -11    0.05    0.16
  -8   8  12    0.16    0.20
  -8   8  12    0.18    0.20
   8  -8 -12    0.24    0.21
  -9   9  13    3.19    0.45
  -9   9  13    3.27    0.47
   9  -9 -13    2.61    0.43
 -13  11   8    2.21    0.40
  12 -10  -7    9.77    0.61
  12 -10  -7   10.46    0.63
 -12  10   7    7.85    0.59
 -11   9   6   16.17    0.82
  10  -8  -5    4.55    0.38
  10  -8  -5    5.49    0.39
 -10   8   5    6.31    0.48
   9  -7  -4    1.39    0.22
   9  -7  -4    1.45    0.24
  -9   7   4    1.02    0.23
  -9   7   4    1.28    0.19
  -9   7   4    1.04    0.17
   8  -6  -3   31.45    0.98
   8  -6  -3   30.76    1.00
  -8   6   3   30.77    1.08
  -8   6   3   33.15    0.92
  -8   6   3   31.77    0.94
   7  -5  -2   67.83    1.81
   7  -5  -2   69.13    1.77
  -7   5   2   69.07    1.71
  -7   5   2   70.84    1.77
  -7   5   2   64.38    1.93
   6  -4  -1   83.36    1.99
   6  -4  -1   81.64    2.08
   6  -4  -1   82.94    2.04
  -6   4   1   83.88    2.25
  -6   4   1   82.59    2.07
   5  -3   0    2.45    0.16
   5  -3   0    2.91    0.18
   5  -3   0    2.78    0.17
  -5   3   0    2.62    0.20
   4  -2   1   62.64    1.56
   4  -2   1   61.09    1.51
   4  -2   1   63.64    1.52
  -4   2  -1   63.86    1.67
   3  -1   2  108.68    2.57
   3  -1   2  107.54    2.52
   3  -1   2  108.28    2.60
  -3   1  -2  110.17    2.77
   2   0   3   -0.01    0.04
   2   0   3   -0.02    0.02
   2   0   3   -0.02    0.04
   2   0   3    0.00    0.04
   1   1   4   39.85    1.11
   0   2   5  111.88    2.95
   0   2   5  112.52    2.82
   0   2   5  116.27    2.72
   0   2   5  112.79    2.63
   0   2   5  115.39    2.75
  -1   3   6   15.24    0.46
  -1   3   6   15.31    0.48
  -1   3   6   15.32    0.54
  -1   3   6   14.67    0.57
  -1   3   6   14.04    0.55
  -2   4   7   24.69    0.82
  -2   4   7   22.22    0.77
  -2   4   7   22.28    0.67
  -2   4   7   22.90    0.83
  -2   4   7   22.98    0.65
  -3   5   8    0.37    0.10
  -3   5   8    0.41    0.15
  -3   5   8    0.45    0.10
  -3   5   8    0.34    0.14
  -3   5   8    0.65    0.16
  -4   6   9   -0.07    0.13
  -4   6   9    0.04    0.13
  -4   6   9   -0.07    0.13
  -5   7  10   58.49    1.91
  -5   7  10   58.81    1.77
  -5   7  10   58.79    1.82
  -6   8  11    7.12    0.49
  -6   8  11    6.24    0.50
  -7   9  12    4.89    0.51
  -7   9  12    3.71    0.47
   7  -9 -12    4.28    0.52
  -8  10  13    6.97    0.57
  14 -10  -8   14.06    0.76
 -14  10   8   14.08    0.81
  13  -9  -7    3.29    0.41
  13  -9  -7    2.93    0.39
 -13   9   7    2.31    0.37
  12  -8  -6    0.04    0.09
  12  -8  -6    0.07    0.09
 -12   8   6    0.95    0.24
  11  -7  -5    4.87    0.36
  11  -7  -5    4.81    0.37
 -11   7   5    6.49    0.38
 -11   7   5    6.47    0.43
 -11   7   5    6.43    0.37
  10  -6  -4    1.29    0.21
  10  -6  -4    1.52    0.23
 -10   6   4    1.98    0.23
 -10   6   4    1.67    0.25
 -10   6   4    1.39    0.21
   9  -5  -3    7.79    0.39
   9  -5  -3    7.30    0.39
  -9   5   3    7.87    0.42
  -9   5   3    7.59    0.36
  -9   5   3    7.46    0.37
   8  -4  -2   60.80    1.57
   8  -4  -2   63.06    1.53
  -8   4   2   52.72    1.54
  -8   4   2   52.92    1.48
  -8   4   2   62.40    1.67
   7  -3  -1    1.49    0.15
   7  -3  -1    1.50    0.16
   7  -3  -1    1.40    0.16
  -7   3   1    1.37    0.17
  -7   3   1    1.26    0.17
   6  -2   0  157.70    3.66
   6  -2   0  157.62    3.80
   6  -2   0  160.45    3.78
  -6   2   0  159.75    3.99
   5  -1   1   55.09    1.40
   5  -1   1   55.95    1.45
   5  -1   1   58.05    1.42
  -5   1  -1   58.75    1.50
   4   0   2   83.04    1.98
   4   0   2   85.66    2.05
   4   0   2   84.03    2.04
   4   0   2   82.29    2.13
   3   1   3  102.37    2.62
   3   1   3  103.31    2.47
   3   1   3  103.15    2.39
   2   2   4   55.02    1.41
   2   2   4   54.64    1.45
   2   2   4   54.27    1.37
   2   2   4   55.24    1.33
   1   3   5   36.32    1.09
   1   3   5   39.52    1.07
   1   3   5   39.44    1.00
   1   3   5   37.52    0.96
   1   3   5   36.90    1.13
   0   4   6  121.70    3.00
   0   4   6  121.72    2.79
   0   4   6  120.08    3.20
   0   4   6  118.18    3.08
   0   4   6  121.18    2.87
  -1   5   7    6.01    0.39
  -1   5   7    6.86    0.39
  -1   5   7    6.98    0.28
  -1   5   7    7.18    0.42
  -1   5   7    7.02    0.27
  -2   6   8    0.18    0.14
  -2   6   8    0.06    0.13
  -2   6   8    0.38    0.16
  -3   7   9   20.41    0.83
  -3   7   9   19.26    0.86
  -3   7   9   19.77    0.84
  -4   8  10    1.17    0.26
  -4   8  10    0.57    0.22
  -4   8  10    0.84    0.24
  -5   9  11    5.35    0.55
  -5   9  11    4.51    0.48
  -5   9  11    5.23    0.53
  -6  10  12    5.10    0.54
  -6  10  12    4.16    0.51
  -7  11  13    1.75    0.38
  16 -10  -9    2.31    0.39
 -16  10   9    2.09    0.39
  15  -9  -8    0.72    0.24
  15  -9  -8    0.87    0.26
 -15   9   8    0.53    0.24
  14  -8  -7    0.00    0.16
  14  -8  -7    0.03    0.15
 -14   8   7   -0.07    0.16
 -13   7   6   11.79    0.63
 -13   7   6   12.17    0.58
 -13   7   6   12.20    0.55
 -12   6   5   15.23    0.62
 -12   6   5   15.72    0.70
 -12   6   5   16.32    0.66
  11  -5  -4    1.96    0.25
  11  -5  -4    1.54    0.22
 -11   5   4    1.73    0.24
  10  -4  -3   15.15    0.56
  10  -4  -3   14.34    0.57
 -10   4   3   14.33    0.55
 -10   4   3   14.39    0.57
 -10   4   3   14.80    0.57
   9  -3  -2    0.46    0.11
   9  -3  -2    0.30    0.11
  -9   3   2    0.65    0.14
  -9   3   2    0.24    0.11
  -9   3   2    0.29    0.10
   8  -2  -1    6.54    0.30
   8  -2  -1    6.40    0.31
   8  -2  -1    6.55    0.29
  -8   2   1    5.90    0.32
  -8   2   1    6.35    0.28
   7  -1   0  136.70    3.28
   7  -1   0  139.14    3.36
   7  -1   0  135.77    3.24
  -7   1   0  142.28    3.47
  -7   1   0  139.89    3.35
   6   0   1    0.01    0.05
   6   0   1   -0.06    0.04
   6   0   1    0.08    0.06
   6   0   1    0.00    0.05
  -6   0  -1    0.02    0.04
   5   1   2    0.00    0.02
   5   1   2    0.12    0.05
   5   1   2    0.11    0.06
   5   1   2   -0.01    0.02
   5   1   2    0.15    0.06
   4   2   3  233.29    5.62
   4   2   3  234.78    5.82
   4   2   3  234.06    5.30
   4   2   3  235.91    5.46
   4   2   3  235.40    5.49
   3   3   4  187.80    4.26
   3   3   4  191.33    4.47
   3   3   4  184.88    4.58
   3   3   4  189.16    4.39
   3   3   4  186.60    4.74
   2   4   5   59.32    1.45
   2   4   5   59.53    1.58
   2   4   5   56.43    1.61
   2   4   5   57.92    1.66
   2   4   5   57.80    1.41
   1   5   6   66.90    1.85
   1   5   6   67.63    1.90
   1   5   6   70.24    1.98
   1   5   6   69.88    1.69
   0   6   7    0.64    0.17
   0   6   7    0.63    0.17
   0   6   7    0.53    0.17
  -1   7   8    1.48    0.26
  -1   7   8    1.75    0.27
  -1   7   8    2.44    0.32
  -2   8   9    7.02    0.50
  -2   8   9    7.01    0.50
  -2   8   9    7.23    0.51
  -3   9  10    0.66    0.23
  -3   9  10    0.82    0.26
  -3   9  10    0.70    0.24
  -4  10  11    0.76    0.26
  -4  10  11    1.13    0.29
  -4  10  11    1.24    0.29
  -5  11  12    3.85    0.50
  17  -9  -9    0.59    0.25
  16  -8  -8    3.91    0.45
  16  -8  -8    4.56    0.47
 -16   8   8    4.11    0.45
  15  -7  -7    0.29    0.19
  15  -7  -7    0.14    0.17
 -15   7   7    0.08    0.16
 -15   7   7    0.05    0.16
 -15   7   7    0.21    0.17
  14  -6  -6   28.46    1.06
  14  -6  -6   28.18    1.03
 -14   6   6   31.06    1.08
 -13   5   5   28.14    0.98
 -13   5   5   28.17    0.96
 -13   5   5   26.84    0.92
 -12   4   4    9.03    0.45
 -12   4   4    7.57    0.41
 -12   4   4    8.64    0.43
  11  -3  -3    2.82    0.26
  11  -3  -3    2.66    0.26
 -11   3   3    2.84    0.22
 -11   3   3    2.60    0.26
 -11   3   3    2.62    0.27
  10  -2  -2   15.83    0.56
  10  -2  -2   15.98    0.58
 -10   2   2   15.50    0.58
 -10   2   2   16.07    0.53
 -10   2   2   16.18    0.60
   9  -1  -1  104.90    2.61
   9  -1  -1  100.11    2.53
  -9   1   1  103.32    2.52
  -9   1   1  106.64    2.61
  -9   1   1  102.39    2.60
   8   0   0  215.90    4.93
  -8   0   0  210.60    5.09
  -8   0   0  216.29    5.26
   7   1   1   -0.07    0.06
   7   1   1    0.09    0.08
   7   1   1   -0.02    0.04
   7   1   1   -0.07    0.05
  -7  -1  -1    0.02    0.07
   5   3   3  299.69    6.93
   5   3   3  298.10    7.16
   5   3   3  298.21    7.40
   5   3   3  299.00    6.72
   5   3   3  299.38    7.00
   4   4   4    5.25    0.29
   4   4   4    4.62    0.30
   4   4   4    5.00    0.23
   4   4   4    4.81    0.23
   4   4   4    4.70    0.31
   3   5   5   17.75    0.50
   3   5   5   16.22    0.67
   3   5   5   16.37    0.64
   3   5   5   17.60    0.51
   2   6   6   58.54    1.72
   2   6   6   60.05    1.76
   2   6   6   56.92    1.66
   1   7   7    5.00    0.39
   1   7   7    4.93    0.38
   1   7   7    5.27    0.40
   0   8   8    1.44    0.28
   0   8   8    0.97    0.23
   0   8   8    1.03    0.25
  -1   9   9    5.33    0.44
  -1   9   9    6.18    0.50
  -1   9   9    5.01    0.51
  -2  10  10   -0.21    0.16
  -2  10  10   -0.17    0.13
  -2  10  10    0.01    0.19
  -3  11  11    0.43    0.25
  -3  11  11    0.31    0.23
  -4  12  12    0.52    0.29
  18  -8  -9    4.60    0.52
  18  -8  -9    4.68    0.52
  17  -7  -8    5.60    0.53
  17  -7  -8    4.87    0.49
 -17   7   8    4.33    0.42
  16  -6  -7    0.66    0.22
  16  -6  -7    0.35    0.20
 -16   6   7    0.69    0.21
 -16   6   7    0.50    0.19
  15  -5  -6   21.42    0.89
  15  -5  -6   22.39    0.87
 -15   5   6   22.24    0.85
 -15   5   6   21.52    0.86
 -15   5   6   23.22    0.85
  14  -4  -5   13.86    0.63
  14  -4  -5   13.32    0.61
 -14   4   5   14.06    0.61
 -14   4   5   13.64    0.62
 -14   4   5   12.73    0.56
  13  -3  -4    1.57    0.23
  13  -3  -4    1.66    0.23
 -13   3   4    2.29    0.28
 -13   3   4    2.39    0.27
 -13   3   4    2.06    0.21
  12  -2  -3    8.82    0.46
  12  -2  -3    9.82    0.46
 -12   2   3   11.39    0.41
 -12   2   3   11.48    0.51
 -12   2   3   11.61    0.50
  11  -1  -2    0.77    0.15
  11  -1  -2    1.39    0.18
 -11   1   2    0.84    0.17
 -11   1   2    1.10    0.11
 -11   1   2    1.03    0.19
  10   0  -1    0.08    0.09
  10   0  -1   -0.05    0.07
 -10   0   1    0.03    0.04
 -10   0   1   -0.05    0.08
 -10   0   1   -0.06    0.08
   9   1   0  133.10    3.32
   9   1   0  134.42    3.24
  -9  -1   0  127.97    3.26
  -9  -1   0  136.24    3.17
   8   2   1   30.86    0.83
   8   2   1   31.67    0.90
   8   2   1   30.96    0.93
   8   2   1   32.14    0.96
  -8  -2  -1   31.19    0.93
   7   3   2   40.40    1.07
   7   3   2   41.94    1.11
   7   3   2   39.33    1.18
   7   3   2   39.85    1.15
  -7  -3  -2   39.72    1.12
   6   4   3   80.98    2.09
   6   4   3   78.51    2.14
   6   4   3   79.99    1.92
   6   4   3   79.71    2.12
  -6  -4  -3   79.32    1.99
   5   5   4    0.37    0.14
   5   5   4    0.28    0.12
   5   5   4    0.60    0.11
   5   5   4    0.17    0.10
  -5  -5  -4    0.23    0.08
   4   6   5    0.05    0.09
   4   6   5    0.01    0.09
   4   6   5   -0.17    0.08
   3   7   6   35.40    1.21
   3   7   6   35.48    1.20
   3   7   6   34.34    1.16
   2   8   7    5.70    0.44
   2   8   7    6.11    0.44
   2   8   7    4.63    0.44
   1   9   8    0.49    0.22
   1   9   8    0.30    0.20
   1   9   8    0.55    0.21
   0  10   9    3.89    0.45
   0  10   9    4.52    0.50
   0  10   9    3.94    0.48
  -1  11  10    3.24    0.44
  -1  11  10    2.43    0.42
  -1  11  10    3.39    0.46
  -2  12  11    0.80    0.30
  20  -8 -10    1.15    0.32
  19  -7  -9    6.94    0.55
  19  -7  -9    5.71    0.56
 -19   7   9    6.17    0.48
  18  -6  -8    3.89    0.45
  18  -6  -8    3.95    0.44
 -18   6   8    3.80    0.42
 -18   6   8    3.98    0.42
  17  -5  -7    7.54    0.52
  17  -5  -7    6.57    0.47
 -17   5   7    6.84    0.47
 -17   5   7    7.32    0.50
  16  -4  -6   25.69    0.95
  16  -4  -6   24.87    0.97
 -16   4   6   24.61    0.92
 -16   4   6   26.13    0.98
  15  -3  -5    0.90    0.20
  15  -3  -5    0.81    0.20
 -15   3   5    0.80    0.20
 -15   3   5    0.97    0.22
  14  -2  -4   11.84    0.56
  14  -2  -4   12.51    0.56
 -14   2   4   11.75    0.57
 -14   2   4   11.53    0.55
  13  -1  -3    2.33    0.26
  13  -1  -3    2.61    0.27
 -13   1   3    2.27    0.27
 -13   1   3    3.11    0.30
  12   0  -2    0.02    0.09
  12   0  -2    0.03    0.11
 -12   0   2    0.01    0.09
 -12   0   2    0.09    0.11
  11   1  -1    2.90    0.27
  11   1  -1    2.63    0.27
 -11  -1   1    1.95    0.22
 -11  -1   1    2.30    0.25
  10   2   0   46.55    1.35
  10   2   0   47.01    1.32
 -10  -2   0   46.14    1.27
 -10  -2   0   44.40    1.31
   9   3   1   15.30    0.47
   9   3   1   16.10    0.61
   9   3   1   15.71    0.62
  -9  -3  -1   15.47    0.55
  -9  -3  -1   16.00    0.58
   8   4   2    0.11    0.11
   8   4   2    0.17    0.10
   8   4   2    0.22    0.08
  -8  -4  -2    0.09    0.09
  -8  -4  -2   -0.05    0.08
   7   5   3   58.14    1.71
   7   5   3   57.86    1.66
   7   5   3   59.94    1.65
  -7  -5  -3   58.96    1.54
  -7  -5  -3   58.22    1.48
   6   6   4    4.30    0.35
   6   6   4    3.85    0.29
   6   6   4    2.89    0.31
   5   7   5    0.38    0.15
   5   7   5    0.40    0.17
   5   7   5    0.44    0.18
   4   8   6    8.26    0.53
   4   8   6    7.95    0.50
   4   8   6    8.36    0.52
   3   9   7   13.81    0.73
   3   9   7   14.75    0.75
   3   9   7   15.24    0.74
   2  10   8   20.91    0.95
   2  10   8   21.64    0.98
   2  10   8   21.88    0.99
   1  11   9    5.84    0.59
   1  11   9    4.79    0.55
   1  11   9    5.39    0.55
   0  12  10    0.29    0.26
  21  -7 -10    3.55    0.47
  21  -7 -10    3.41    0.47
  20  -6  -9    2.04    0.36
  20  -6  -9    1.53    0.32
 -20   6   9    1.74    0.33
 -20   6   9    2.11    0.36
  19  -5  -8    2.53    0.37
  19  -5  -8    2.30    0.36
 -19   5   8    2.90    0.40
 -19   5   8    2.75    0.37
  18  -4  -7   25.06    0.97
  18  -4  -7   23.32    0.98
 -18   4   7   23.38    0.97
 -18   4   7   23.69    0.94
  17  -3  -6   11.42    0.60
  17  -3  -6   11.39    0.62
 -17   3   6   13.14    0.63
 -17   3   6   11.13    0.62
  16  -2  -5   13.25    0.65
  16  -2  -5   13.86    0.64
 -16   2   5   14.55    0.65
 -16   2   5   13.22    0.65
  15  -1  -4   37.71    1.18
  15  -1  -4   35.80    1.20
 -15   1   4   37.11    1.22
 -15   1   4   37.18    1.18
  14   0  -3    0.18    0.13
  14   0  -3    0.06    0.12
 -14   0   3   -0.08    0.10
 -14   0   3   -0.02    0.10
  13   1  -2    4.34    0.31
  13   1  -2    4.27    0.33
 -13  -1   2    4.49    0.33
 -13  -1   2    4.19    0.30
  12   2  -1    1.55    0.22
  12   2  -1    1.38    0.21
 -12  -2   1    1.45    0.21
 -12  -2   1    1.25    0.21
  11   3   0    6.29    0.39
  11   3   0    6.00    0.38
 -11  -3   0    5.88    0.35
 -11  -3   0    6.80    0.36
  10   4   1    0.70    0.17
  10   4   1    1.00    0.20
 -10  -4  -1    0.89    0.16
 -10  -4  -1    1.05    0.17
   9   5   2   20.79    0.82
   9   5   2   21.73    0.81
  -9  -5  -2   21.46    0.69
  -9  -5  -2   20.97    0.71
   8   6   3    1.62    0.21
   8   6   3    1.55    0.25
   8   6   3    1.88    0.28
   7   7   4    1.01    0.23
   7   7   4    1.22    0.23
   7   7   4    1.16    0.21
   6   8   5    1.02    0.22
   6   8   5    0.82    0.21
   6   8   5    0.85    0.23
   5   9   6   23.57    0.98
   5   9   6   24.13    1.02
   4  10   7    1.99    0.34
   4  10   7    1.86    0.33
   4  10   7    1.26    0.30
   3  11   8    1.43    0.33
   3  11   8    1.01    0.29
   3  11   8    1.42    0.31
   2  12   9    0.42    0.26
   2  12   9    0.23    0.24
  22  -6 -10   10.05    0.68
  22  -6 -10    8.39    0.66
 -22   6  10    9.97    0.67
 -22   6  10   10.25    0.66
  21  -5  -9    0.17    0.22
  21  -5  -9    0.48    0.25
 -21   5   9    0.73    0.25
 -21   5   9    0.24    0.23
  20  -4  -8    1.45    0.30
  20  -4  -8    1.94    0.34
 -20   4   8    1.49    0.30
 -20   4   8    1.85    0.34
  19  -3  -7   14.49    0.74
  19  -3  -7   15.80    0.78
 -19   3   7   16.08    0.78
 -19   3   7   14.78    0.73
  18  -2  -6    2.43    0.33
  18  -2  -6    3.01    0.36
 -18   2   6    1.88    0.30
 -18   2   6    1.86    0.30
  17  -1  -5    0.53    0.19
  17  -1  -5    0.47    0.19
 -17   1   5    0.70    0.20
 -17   1   5    0.77    0.23
  16   0  -4   31.52    1.13
  16   0  -4   34.25    1.13
 -16   0   4   32.66    1.11
 -16   0   4   33.98    1.15
  15   1  -3   11.41    0.56
  15   1  -3   12.82    0.61
 -15  -1   3   12.22    0.59
 -15  -1   3   11.83    0.56
  14   2  -2    0.38    0.16
  14   2  -2    0.36    0.16
 -14  -2   2    0.34    0.14
 -14  -2   2    0.19    0.14
  13   3  -1    1.71    0.26
  13   3  -1    1.58    0.25
 -13  -3   1    1.76    0.24
 -13  -3   1    1.90    0.25
  12   4   0    0.08    0.13
  12   4   0    0.30    0.15
 -12  -4   0    0.30    0.14
 -12  -4   0    0.29    0.13
  11   5   1    3.63    0.37
  11   5   1    4.21    0.40
 -11  -5  -1    3.79    0.28
 -11  -5  -1    3.82    0.29
  10   6   2   52.72    1.62
  10   6   2   53.78    1.67
   9   7   3    1.82    0.29
   9   7   3    1.79    0.30
   8   8   4    0.78    0.23
   8   8   4    0.92    0.24
   7   9   5   27.49    1.08
   7   9   5   26.38    1.10
   6  10   6    8.50    0.59
   6  10   6    6.73    0.55
   5  11   7    4.84    0.52
   5  11   7    5.64    0.59
   4  12   8    3.86    0.51
  23  -5 -10   14.34    0.82
  23  -5 -10   13.06    0.82
 -23   5  10   13.11    0.77
  22  -4  -9    3.25    0.43
  22  -4  -9    3.84    0.49
 -22   4   9    2.83    0.41
 -22   4   9    3.74    0.47
  21  -3  -8    3.24    0.42
  21  -3  -8    4.02    0.48
 -21   3   8    3.36    0.44
 -21   3   8    2.92    0.40
  20  -2  -7    9.51    0.61
  20  -2  -7    9.55    0.58
 -20   2   7    9.67    0.59
 -20   2   7    9.38    0.61
  19  -1  -6    1.05    0.26
  19  -1  -6    1.26    0.27
 -19   1   6    1.21    0.27
 -19   1   6    1.32    0.27
  18   0  -5    0.14    0.16
  18   0  -5   -0.09    0.14
 -18   0   5    0.06    0.16
 -18   0   5   -0.04    0.14
  17   1  -4   40.78    1.32
  17   1  -4   39.51    1.35
 -17  -1   4   39.38    1.29
 -17  -1   4   39.41    1.34
  16   2  -3   19.50    0.83
  16   2  -3   20.27    0.82
 -16  -2   3   20.16    0.82
 -16  -2   3   18.25    0.77
  15   3  -2    4.18    0.41
  15   3  -2    4.42    0.41
 -15  -3   2    4.70    0.36
 -15  -3   2    4.32    0.39
  14   4  -1    0.02    0.13
  14   4  -1    0.11    0.15
 -14  -4   1    0.19    0.14
 -14  -4   1    0.03    0.13
  13   5   0   10.66    0.57
  13   5   0   10.03    0.58
 -13  -5   0   10.06    0.48
 -13  -5   0   10.64    0.52
  12   6   1    0.17    0.16
  12   6   1   -0.16    0.13
  11   7   2   13.16    0.68
  11   7   2   14.64    0.73
  10   8   3    3.84    0.44
  10   8   3    4.30    0.48
   9   9   4   15.43    0.79
   9   9   4   15.62    0.82
   8  10   5    0.53    0.25
   8  10   5    0.83    0.27
   7  11   6    0.33    0.24
   7  11   6    0.31    0.22
   6  12   7    0.02    0.20
  24  -4 -10    7.87    0.63
 -24   4  10    8.46    0.63
  23  -3  -9    1.39    0.33
  23  -3  -9    1.73    0.35
 -23   3   9    1.93    0.36
 -23   3   9    1.87    0.38
  22  -2  -8    7.10    0.56
  22  -2  -8    7.62    0.56
 -22   2   8    5.72    0.55
 -22   2   8    6.96    0.55
  21  -1  -7    5.92    0.55
  21  -1  -7    4.03    0.46
 -21   1   7    4.42    0.49
 -21   1   7    4.27    0.46
  20   0  -6    6.59    0.50
  20   0  -6    7.13    0.52
 -20   0   6    7.21    0.52
 -20   0   6    6.84    0.53
  19   1  -5    7.36    0.52
  19   1  -5    6.67    0.48
 -19  -1   5    7.28    0.52
 -19  -1   5    7.70    0.51
  18   2  -4   13.46    0.68
  18   2  -4   12.80    0.68
 -18  -2   4   13.02    0.65
 -18  -2   4   13.04    0.68
  17   3  -3   18.26    0.82
  17   3  -3   20.00    0.86
 -17  -3   3   18.20    0.81
 -17  -3   3   20.43    0.81
  16   4  -2    6.36    0.48
  16   4  -2    6.45    0.47
 -16  -4   2    5.60    0.42
 -16  -4   2    6.09    0.42
  15   5  -1    1.75    0.31
  15   5  -1    1.61    0.29
 -15  -5   1    1.70    0.27
 -15  -5   1    1.27    0.24
  14   6   0    1.05    0.24
  14   6   0    0.94    0.25
  13   7   1    1.04    0.25
  13   7   1    1.74    0.32
  12   8   2    4.92    0.50
  12   8   2    3.12    0.42
  11   9   3    5.85    0.57
  11   9   3    6.37    0.59
  10  10   4   10.51    0.67
  10  10   4   10.26    0.69
   9  11   5    0.15    0.21
   8  12   6   -0.13    0.21
  25  -3 -10    1.25    0.35
 -25   3  10    1.68    0.36
  24  -2  -9    0.27    0.23
  24  -2  -9    0.25    0.24
 -24   2   9    0.28    0.25
  23  -1  -8    4.98    0.55
  23  -1  -8    4.58    0.52
 -23   1   8    4.17    0.49
  22   0  -7    0.06    0.19
  22   0  -7   -0.25    0.16
 -22   0   7   -0.24    0.18
 -22   0   7   -0.21    0.16
  21   1  -6    2.06    0.34
  21   1  -6    2.42    0.37
 -21  -1   6    2.54    0.38
 -21  -1   6    2.18    0.36
  20   2  -5   18.32    0.89
  20   2  -5   20.59    0.91
 -20  -2   5   19.80    0.87
 -20  -2   5   19.07    0.90
  19   3  -4    3.98    0.46
  19   3  -4    4.18    0.47
 -19  -3   4    4.06    0.44
 -19  -3   4    3.90    0.44
  18   4  -3    2.85    0.38
  18   4  -3    3.24    0.41
 -18  -4   3    3.19    0.38
 -18  -4   3    2.71    0.36
  17   5  -2   17.90    0.85
  17   5  -2   20.90    0.93
 -17  -5   2   19.63    0.81
 -17  -5   2   19.75    0.84
  16   6  -1    0.58    0.22
  16   6  -1    0.60    0.24
  15   7   0   -0.08    0.16
  15   7   0    0.01    0.18
  14   8   1    0.72    0.26
  14   8   1    0.29    0.22
  13   9   2    5.87    0.58
  13   9   2    5.55    0.60
  12  10   3   19.51    0.97
  12  10   3   19.64    1.00
  11  11   4   20.93    1.03
  10  12   5    2.12    0.42
  25  -1  -9    0.29    0.24
 -25   1   9    0.35    0.26
  24   0  -8    3.95    0.51
  24   0  -8    4.73    0.54
 -24   0   8    4.59    0.52
  23   1  -7    0.18    0.21
  23   1  -7   -0.03    0.20
 -23  -1   7    0.17    0.23
 -23  -1   7    0.08    0.22
  22   2  -6   -0.21    0.16
  22   2  -6    0.22    0.22
 -22  -2   6    0.14    0.23
 -22  -2   6    0.17    0.22
  21   3  -5   13.07    0.74
  21   3  -5   12.77    0.75
 -21  -3   5   12.59    0.71
 -21  -3   5   12.87    0.74
  20   4  -4    3.25    0.43
  20   4  -4    2.81    0.41
 -20  -4   4    3.38    0.42
 -20  -4   4    3.50    0.43
  19   5  -3    8.15    0.60
  19   5  -3    7.51    0.57
 -19  -5   3    8.58    0.55
 -19  -5   3    9.33    0.58
  18   6  -2   33.74    1.33
  18   6  -2   33.10    1.29
  17   7  -1    1.35    0.32
  17   7  -1    0.97    0.28
  16   8   0    2.03    0.38
  16   8   0    1.95    0.37
  15   9   1    6.00    0.61
  15   9   1    5.45    0.60
  14  10   2    0.28    0.23
  13  11   3    4.22    0.55
  25   1  -8   11.73    0.77
 -25  -1   8   11.25    0.73
  24   2  -7    5.04    0.57
 -24  -2   7    5.10    0.55
  23   3  -6    2.92    0.44
  23   3  -6    3.45    0.47
 -23  -3   6    2.46    0.41
 -23  -3   6    3.71    0.47
  22   4  -5    1.07    0.31
  22   4  -5    1.15    0.30
 -22  -4   5    1.36    0.31
 -22  -4   5    1.52    0.33
  21   5  -4   -0.20    0.17
  21   5  -4    0.28    0.22
 -21  -5   4    0.22    0.21
 -21  -5   4   -0.14    0.18
  20   6  -3    1.57    0.35
  20   6  -3    0.98    0.30
  19   7  -2   22.99    1.07
  19   7  -2   22.22    1.08
  18   8  -1   11.81    0.74
  17   9   0    1.80    0.39
  16  10   1    1.77    0.38
  25   3  -7    9.41    0.71
 -25  -3   7   10.61    0.70
  24   4  -6   12.23    0.77
 -24  -4   6   10.99    0.72
  23   5  -5   -0.02    0.22
 -23  -5   5    0.20    0.24
 -23  -5   5    0.34    0.25
  22   6  -4    0.37    0.26
  21   7  -3   -0.01    0.22
  20   8  -2    5.63    0.62
  19   9  -1    4.92    0.59
  17  11  -8   11.03    0.75
  18  10  -9    4.34    0.55
  19   9 -10    2.24    0.42
  20   8 -11    4.53    0.55
 -21  -7  12    2.10    0.39
  21   7 -12    2.15    0.42
 -22  -6  13   -0.13    0.23
  22   6 -13   -0.04    0.22
  13  13  -5    0.33    0.27
  14  12  -6   -0.19    0.22
  15  11  -7    3.71    0.50
  15  11  -7    2.68    0.44
  16  10  -8   -0.06    0.21
  16  10  -8    0.40    0.25
  17   9  -9    0.70    0.28
  17   9  -9    0.75    0.29
  18   8 -10    8.70    0.64
  18   8 -10    7.89    0.60
 -19  -7  11    0.66    0.26
 -19  -7  11    0.78    0.28
  19   7 -11    0.67    0.28
  19   7 -11    0.56    0.27
 -20  -6  12    0.12    0.23
 -20  -6  12    0.30    0.25
  20   6 -12   -0.04    0.20
  20   6 -12    0.20    0.23
 -21  -5  13    0.09    0.25
 -21  -5  13    0.65    0.27
  21   5 -13    0.04    0.22
 -22  -4  14   14.43    0.84
  22   4 -14   13.99    0.83
 -23  -3  15   16.83    0.92
  23   3 -15   16.49    0.93
  11  13  -4    3.35    0.48
  11  13  -4    3.40    0.47
  12  12  -5    3.16    0.45
  12  12  -5    1.66    0.36
  13  11  -6    3.92    0.48
  13  11  -6    2.95    0.44
  14  10  -7    6.32    0.62
  14  10  -7    6.55    0.61
  15   9  -8    0.50    0.24
  15   9  -8    0.52    0.23
 -16  -8   9    1.60    0.30
  16   8  -9    2.32    0.38
  16   8  -9    1.24    0.31
 -17  -7  10   14.26    0.74
 -17  -7  10   15.32    0.73
  17   7 -10   13.14    0.73
  17   7 -10   12.16    0.74
 -18  -6  11   -0.10    0.20
 -18  -6  11    0.05    0.20
  18   6 -11   -0.04    0.18
  18   6 -11    0.09    0.18
 -19  -5  12    0.24    0.24
 -19  -5  12    0.59    0.26
  19   5 -12    0.63    0.26
  19   5 -12    0.45    0.25
 -20  -4  13   -0.02    0.21
 -20  -4  13   -0.07    0.20
  20   4 -13    0.22    0.23
  20   4 -13   -0.06    0.19
 -21  -3  14    3.05    0.45
 -21  -3  14    3.30    0.45
  21   3 -14    2.86    0.44
  21   3 -14    2.59    0.41
 -22  -2  15    4.38    0.53
  22   2 -15    5.05    0.58
 -23  -1  16    4.72    0.56
  23   1 -16    6.35    0.66
   8  14  -2    0.00    0.22
   9  13  -3    0.03    0.22
   9  13  -3   -0.19    0.20
  10  12  -4   13.99    0.78
  10  12  -4   13.68    0.75
  11  11  -5    2.05    0.35
  11  11  -5    2.09    0.36
  12  10  -6    1.86    0.34
  12  10  -6    1.38    0.31
  13   9  -7    2.74    0.40
  13   9  -7    3.56    0.44
 -14  -8   8    8.34    0.50
  14   8  -8    7.95    0.56
  14   8  -8    8.33    0.57
 -15  -7   9   10.68    0.60
 -15  -7   9   11.76    0.63
  15   7  -9   11.46    0.67
  15   7  -9   12.04    0.67
 -16  -6  10   31.11    1.18
 -16  -6  10   32.67    1.15
  16   6 -10   29.11    1.15
  16   6 -10   32.54    1.22
 -17  -5  11   -0.20    0.14
 -17  -5  11    0.00    0.16
  17   5 -11    0.20    0.20
  17   5 -11   -0.06    0.17
 -18  -4  12   14.00    0.73
 -18  -4  12   12.29    0.73
  18   4 -12   13.85    0.76
  18   4 -12   13.21    0.72
 -19  -3  13    1.94    0.35
 -19  -3  13    1.79    0.35
  19   3 -13    1.91    0.35
  19   3 -13    1.33    0.32
 -20  -2  14    1.41    0.33
 -20  -2  14    1.28    0.31
  20   2 -14    1.95    0.37
  20   2 -14    1.73    0.36
 -21  -1  15    1.29    0.33
  21   1 -15    2.21    0.40
 -22   0  16    3.13    0.45
  22   0 -16    2.68    0.46
   7  13  -2    0.09    0.21
   7  13  -2    0.04    0.19
   8  12  -3   -0.18    0.16
   8  12  -3   -0.12    0.18
   9  11  -4   15.05    0.77
   9  11  -4   15.76    0.76
  10  10  -5   29.05    1.10
  10  10  -5   30.37    1.15
  11   9  -6   16.59    0.79
  11   9  -6   17.04    0.78
  12   8  -7    0.79    0.24
  12   8  -7    0.63    0.22
 -13  -7   8    5.97    0.43
 -13  -7   8    6.89    0.45
  13   7  -8    7.61    0.51
  13   7  -8    6.42    0.47
 -14  -6   9   11.74    0.60
 -14  -6   9   11.97    0.63
  14   6  -9   11.53    0.62
  14   6  -9   13.02    0.67
 -15  -5  10   20.53    0.88
 -15  -5  10   20.10    0.84
  15   5 -10   21.85    0.92
  15   5 -10   20.13    0.88
 -16  -4  11    0.44    0.21
 -16  -4  11    0.34    0.21
  16   4 -11    0.35    0.20
  16   4 -11    0.16    0.19
 -17  -3  12    1.05    0.27
 -17  -3  12    1.38    0.31
  17   3 -12    0.81    0.26
  17   3 -12    1.35    0.29
 -18  -2  13   13.31    0.74
 -18  -2  13   11.70    0.67
  18   2 -13   13.78    0.76
  18   2 -13   11.27    0.68
 -19  -1  14    1.75    0.33
 -19  -1  14    1.32    0.30
  19   1 -14    1.52    0.34
  19   1 -14    1.82    0.37
 -20   0  15    0.25    0.21
 -20   0  15    0.23    0.21
  20   0 -15    0.23    0.23
  20   0 -15   -0.05    0.20
 -21   1  16    6.34    0.60
  21  -1 -16    6.17    0.65
   4  14   0    2.86    0.47
   5  13  -1    0.83    0.30
   5  13  -1    1.39    0.29
   5  13  -1    1.07    0.28
   6  12  -2    0.51    0.23
   6  12  -2    0.52    0.25
   6  12  -2    0.51    0.22
   7  11  -3    0.07    0.16
   7  11  -3    0.38    0.19
   7  11  -3   -0.08    0.15
   8  10  -4   14.81    0.70
   8  10  -4   16.26    0.75
   8  10  -4   15.97    0.78
   9   9  -5   12.45    0.65
   9   9  -5   12.21    0.62
   9   9  -5   13.08    0.66
  10   8  -6  103.58    2.80
  10   8  -6  102.34    2.72
  10   8  -6   97.96    2.84
 -11  -7   7   35.70    1.10
 -11  -7   7   34.27    1.13
  11   7  -7   32.57    1.16
  11   7  -7   35.55    1.22
  11   7  -7   36.12    1.20
 -12  -6   8    7.74    0.45
 -12  -6   8    6.92    0.44
  12   6  -8    6.88    0.48
  12   6  -8    6.78    0.46
 -13  -5   9   17.14    0.76
 -13  -5   9   18.54    0.75
  13   5  -9   16.97    0.74
  13   5  -9   18.37    0.79
 -14  -4  10    0.20    0.15
 -14  -4  10    0.30    0.17
  14   4 -10    0.17    0.16
  14   4 -10    0.14    0.18
 -15  -3  11   11.52    0.61
 -15  -3  11   12.02    0.64
  15   3 -11   10.95    0.63
  15   3 -11   11.57    0.62
 -16  -2  12   17.92    0.84
 -16  -2  12   18.65    0.83
  16   2 -12   18.51    0.84
  16   2 -12   19.28    0.88
 -17  -1  13    1.09    0.27
 -17  -1  13    1.06    0.26
  17   1 -13    1.65    0.32
  17   1 -13    1.42    0.31
 -18   0  14    3.12    0.41
 -18   0  14    3.12    0.40
  18   0 -14    2.63    0.41
  18   0 -14    2.57    0.39
 -19   1  15   -0.23    0.17
 -19   1  15   -0.05    0.19
  19  -1 -15   -0.09    0.20
  19  -1 -15    0.00    0.20
 -20   2  16    4.52    0.50
 -20   2  16    4.62    0.52
  20  -2 -16    4.21    0.53
 -21   3  17    0.61    0.27
  21  -3 -17    0.54    0.29
   2  14   1   -0.06    0.25
   3  13   0    6.21    0.49
   3  13   0    5.42    0.58
   4  12  -1   -0.10    0.16
   4  12  -1   -0.05    0.17
   4  12  -1    0.17    0.21
   5  11  -2    4.93    0.41
   5  11  -2    3.96    0.41
   5  11  -2    3.86    0.45
   6  10  -3    1.19    0.24
   6  10  -3    1.54    0.30
   6  10  -3    1.31    0.26
   7   9  -4   23.45    0.89
   7   9  -4   23.03    0.86
   8   8  -5    1.06    0.22
   8   8  -5    1.52    0.27
   8   8  -5    1.42    0.25
  -9  -7   6    2.98    0.29
  -9  -7   6    2.94    0.30
   9   7  -6    3.16    0.34
   9   7  -6    3.45    0.37
   9   7  -6    3.38    0.36
 -10  -6   7   18.05    0.71
 -10  -6   7   18.98    0.70
  10   6  -7   16.85    0.71
  10   6  -7   18.98    0.75
  10   6  -7   18.22    0.75
 -11  -5   8    8.13    0.46
 -11  -5   8    7.84    0.44
  11   5  -8    7.96    0.45
  11   5  -8    7.92    0.47
  11   5  -8    7.17    0.44
 -12  -4   9    0.14    0.14
 -12  -4   9    0.11    0.14
  12   4  -9    0.21    0.15
  12   4  -9    0.08    0.12
  12   4  -9    0.07    0.15
 -13  -3  10   14.63    0.67
 -13  -3  10   14.05    0.64
  13   3 -10   13.87    0.61
  13   3 -10   13.70    0.67
  13   3 -10   12.99    0.63
 -14  -2  11   21.58    0.80
 -14  -2  11   22.44    0.89
 -14  -2  11   19.18    0.81
  14   2 -11   20.06    0.87
  14   2 -11   20.23    0.84
 -15  -1  12   24.29    0.96
 -15  -1  12   26.99    1.03
  15   1 -12   25.80    1.04
  15   1 -12   25.59    1.01
 -16   0  13   -0.03    0.16
 -16   0  13    0.02    0.16
  16   0 -13    0.01    0.18
  16   0 -13   -0.03    0.17
 -17   1  14    0.03    0.18
 -17   1  14   -0.08    0.16
  17  -1 -14    0.13    0.19
  17  -1 -14    0.10    0.20
 -18   2  15    0.75    0.24
 -18   2  15    0.46    0.23
  18  -2 -15    0.33    0.26
  18  -2 -15    0.67    0.28
 -19   3  16    0.49    0.23
 -19   3  16    0.82    0.26
  19  -3 -16    0.77    0.29
 -20   4  17    0.31    0.24
  20  -4 -17    0.56    0.28
   0  14   2    0.16    0.25
   1  13   1    2.29    0.40
   2  12   0   15.34    0.73
   2  12   0   14.95    0.83
   2  12   0   15.55    0.71
   3  11  -1    0.58    0.19
   3  11  -1    0.40    0.22
   3  11  -1    0.21    0.17
   4  10  -2    0.10    0.17
   4  10  -2    0.46    0.18
   4  10  -2    0.22    0.15
   5   9  -3   57.31    1.67
   5   9  -3   55.67    1.62
   5   9  -3   57.46    1.82
   6   8  -4   36.46    1.27
   6   8  -4   37.43    1.18
   6   8  -4   36.53    1.14
  -7  -7   5    5.04    0.31
  -7  -7   5    5.15    0.30
   7   7  -5    5.06    0.35
   7   7  -5    5.49    0.35
   7   7  -5    3.77    0.33
  -8  -6   6  103.33    2.50
  -8  -6   6  100.19    2.57
   8   6  -6   99.54    2.59
   8   6  -6   99.22    2.77
   8   6  -6  100.27    2.66
  -9  -5   7   13.41    0.55
  -9  -5   7   12.35    0.55
   9   5  -7   14.20    0.61
   9   5  -7   13.66    0.60
   9   5  -7   13.20    0.57
 -10  -4   8    3.42    0.33
 -10  -4   8    3.75    0.30
  10   4  -8    3.87    0.30
  10   4  -8    3.36    0.32
  10   4  -8    4.19    0.37
 -11  -3   9    3.27    0.34
 -11  -3   9    3.17    0.32
  11   3  -9    2.29    0.28
  11   3  -9    2.80    0.28
  11   3  -9    2.86    0.33
 -12  -2  10   11.41    0.55
 -12  -2  10   11.15    0.51
 -12  -2  10   11.88    0.58
  12   2 -10   10.13    0.54
  12   2 -10   10.98    0.57
 -13  -1  11   16.53    0.74
 -13  -1  11   17.65    0.71
 -13  -1  11   17.07    0.72
  13   1 -11   17.54    0.75
  13   1 -11   17.02    0.77
 -14   0  12   44.63    1.43
 -14   0  12   47.21    1.48
 -14   0  12   46.58    1.50
  14   0 -12   47.09    1.50
  14   0 -12   47.50    1.56
 -15   1  13    1.42    0.24
 -15   1  13    1.37    0.27
 -15   1  13    0.99    0.24
  15  -1 -13    1.14    0.28
  15  -1 -13    1.44    0.29
 -16   2  14    2.60    0.34
 -16   2  14    2.28    0.34
 -16   2  14    2.52    0.35
  16  -2 -14    2.28    0.36
  16  -2 -14    2.34    0.39
 -17   3  15    8.59    0.59
 -17   3  15    8.55    0.57
  17  -3 -15    8.74    0.63
  17  -3 -15    9.13    0.66
 -18   4  16   -0.06    0.18
 -18   4  16    0.02    0.21
  18  -4 -16    0.36    0.25
  19  -5 -17    0.57    0.28
  -1  13   2    0.64    0.28
   0  12   1    2.52    0.34
   0  12   1    2.48    0.34
   0  12   1    3.01    0.45
   1  11   0    0.46    0.18
   1  11   0    0.55    0.20
   1  11   0    0.63    0.25
   2  10  -1    6.73    0.42
   2  10  -1    6.03    0.48
   2  10  -1    7.56    0.44
   3   9  -2    0.68    0.18
   3   9  -2    1.02    0.25
   3   9  -2    0.70    0.17
   4   8  -3    3.62    0.28
   4   8  -3    4.01    0.35
   4   8  -3    3.88    0.30
  -5  -7   4    6.85    0.32
  -5  -7   4    6.88    0.32
   5   7  -4    6.67    0.42
   5   7  -4    6.52    0.37
   5   7  -4    6.58    0.36
  -6  -6   5    1.17    0.16
  -6  -6   5    1.17    0.17
   6   6  -5    1.01    0.18
   6   6  -5    0.87    0.18
   6   6  -5    0.87    0.17
  -7  -5   6   23.07    0.77
  -7  -5   6   24.14    0.75
   7   5  -6   25.27    0.79
   7   5  -6   24.47    0.80
   7   5  -6   18.99    0.79
  -8  -4   7   46.45    1.30
  -8  -4   7   46.09    1.34
   8   4  -7   46.15    1.31
   8   4  -7   46.57    1.41
   8   4  -7   46.37    1.36
  -9  -3   8   63.49    1.66
  -9  -3   8   59.17    1.69
   9   3  -8   61.94    1.68
   9   3  -8   60.92    1.76
   9   3  -8   59.82    1.72
 -10  -2   9   10.40    0.47
 -10  -2   9   10.02    0.48
 -10  -2   9   10.69    0.51
  10   2  -9    9.77    0.48
  10   2  -9   10.46    0.52
 -11  -1  10   39.20    1.20
 -11  -1  10   40.82    1.26
 -11  -1  10   37.96    1.23
  11   1 -10   37.76    1.22
  11   1 -10   38.91    1.26
 -12   0  11    0.03    0.12
 -12   0  11    0.05    0.11
 -12   0  11    0.10    0.14
  12   0 -11    0.04    0.14
  12   0 -11   -0.05    0.14
 -13   1  12   11.99    0.59
 -13   1  12   13.25    0.61
 -13   1  12   11.20    0.60
  13  -1 -12   12.72    0.67
  13  -1 -12   13.10    0.65
 -14   2  13    0.73    0.22
 -14   2  13    1.03    0.22
 -14   2  13    1.01    0.23
  14  -2 -13    0.67    0.24
  14  -2 -13    0.71    0.24
 -15   3  14    2.99    0.37
 -15   3  14    2.52    0.35
 -15   3  14    1.75    0.30
  15  -3 -14    2.30    0.36
  15  -3 -14    2.69    0.39
 -16   4  15    6.78    0.51
 -16   4  15    7.03    0.50
 -16   4  15    7.74    0.55
  16  -4 -15    6.25    0.63
  16  -4 -15    5.87    0.59
 -17   5  16    0.69    0.25
  17  -5 -16    0.81    0.29
  18  -6 -17    0.06    0.25
  -3  13   3    0.09    0.22
  -2  12   2   14.50    0.68
  -2  12   2   13.28    0.79
  -1  11   1    0.32    0.18
  -1  11   1    0.14    0.16
  -1  11   1    0.24    0.19
   0  10   0   20.95    0.80
   0  10   0   21.58    0.95
   0  10   0   20.92    0.77
   1   9  -1   24.12    0.84
   1   9  -1   23.44    0.97
   1   9  -1   24.10    0.81
   2   8  -2   55.96    1.57
   2   8  -2   56.06    1.53
   2   8  -2   56.84    1.76
  -3  -7   3   10.91    0.39
  -3  -7   3   10.55    0.40
   3   7  -3   11.02    0.47
   3   7  -3   12.66    0.58
   3   7  -3   11.03    0.45
  -4  -6   4    0.93    0.13
  -4  -6   4    0.93    0.14
   4   6  -4    0.89    0.18
   4   6  -4    0.69    0.13
   4   6  -4    0.86    0.15
  -5  -5   5   12.31    0.46
  -5  -5   5   12.72    0.48
   5   5  -5   12.33    0.49
   5   5  -5   12.51    0.55
   5   5  -5   11.95    0.47
  -6  -4   6   62.71    1.68
  -6  -4   6   64.75    1.63
   6   4  -6   64.42    1.66
   6   4  -6   58.80    1.78
   6   4  -6   64.92    1.70
  -7  -3   7   17.91    0.63
  -7  -3   7   18.14    0.66
   7   3  -7   18.83    0.64
   7   3  -7   17.95    0.65
  -8  -2   8  117.96    3.04
  -8  -2   8  121.25    3.18
  -8  -2   8  123.71    2.96
   8   2  -8  124.44    3.02
   8   2  -8  116.73    3.08
  -9  -1   9   36.10    1.11
  -9  -1   9   33.89    1.05
  -9  -1   9   35.14    1.11
   9   1  -9   34.06    1.11
   9   1  -9   34.79    1.08
 -10   0  10   25.77    0.90
 -10   0  10   26.03    0.91
 -10   0  10   26.70    0.88
  10   0 -10   25.33    0.90
  10   0 -10   25.15    0.93
 -11   1  11   35.07    1.11
 -11   1  11   34.34    1.15
 -11   1  11   35.91    1.18
  11  -1 -11   35.77    1.18
 -12   2  12   25.22    0.91
 -12   2  12   25.50    0.95
 -12   2  12   26.65    0.98
  12  -2 -12   25.15    0.98
  12  -2 -12   25.54    1.02
 -13   3  13    4.44    0.41
 -13   3  13    4.11    0.41
 -13   3  13    4.74    0.39
  13  -3 -13    3.83    0.44
  13  -3 -13    5.24    0.49
 -14   4  14   18.27    0.81
 -14   4  14   17.26    0.85
 -14   4  14   18.04    0.78
  14  -4 -14   18.08    0.88
  14  -4 -14   18.80    0.92
 -15   5  15    3.24    0.43
  15  -5 -15    3.83    0.49
  15  -5 -15    3.70    0.50
 -16   6  16    0.74    0.28
  16  -6 -16    1.01    0.32
  -5  13   4    5.83    0.62
  -4  12   3   -0.07    0.18
  -3  11   2    0.08    0.20
  -3  11   2    0.15    0.17
  -3  11   2    0.16    0.15
  -2  10   1    7.10    0.41
  -2  10   1    7.33    0.43
  -2  10   1    5.93    0.48
  -1   9   0    7.15    0.40
  -1   9   0    7.66    0.39
  -1   9   0    7.85    0.52
   0   8  -1   36.87    1.27
   0   8  -1   36.44    1.06
   0   8  -1   36.22    1.09
  -1  -7   2  167.19    3.87
  -1  -7   2  164.86    3.75
   1   7  -2  160.75    3.93
   1   7  -2  163.26    4.02
   1   7  -2  165.74    4.36
  -2  -6   3    0.46    0.10
  -2  -6   3    0.51    0.10
   2   6  -3    0.56    0.17
   2   6  -3    0.64    0.12
   2   6  -3    0.41    0.10
  -3  -5   4    7.17    0.31
  -3  -5   4    6.94    0.31
   3   5  -4    6.84    0.30
   3   5  -4    7.29    0.32
   3   5  -4    6.42    0.37
  -4  -4   5    2.11    0.20
  -4  -4   5    2.35    0.20
   4   4  -5    2.07    0.23
   4   4  -5    2.79    0.20
   4   4  -5    2.24    0.19
  -5  -3   6   16.79    0.57
  -5  -3   6   16.84    0.59
   5   3  -6   16.26    0.55
   5   3  -6   16.80    0.63
   5   3  -6   16.30    0.57
  -6  -2   7   12.91    0.48
  -6  -2   7   12.79    0.50
  -6  -2   7   11.89    0.49
   6   2  -7   11.76    0.48
   6   2  -7   12.35    0.47
  -7  -1   8    0.29    0.11
  -7  -1   8    0.23    0.10
  -7  -1   8    0.26    0.11
   7   1  -8    0.19    0.12
   7   1  -8    0.31    0.11
  -8   0   9   -0.04    0.08
  -8   0   9    0.04    0.10
  -8   0   9    0.15    0.11
   8   0  -9    0.03    0.09
   8   0  -9    0.13    0.12
  -9   1  10    1.50    0.21
  -9   1  10    1.57    0.22
  -9   1  10    1.30    0.20
   9  -1 -10    1.12    0.20
   9  -1 -10    1.23    0.22
 -10   2  11    8.16    0.43
 -10   2  11    8.30    0.47
 -10   2  11    8.93    0.47
  10  -2 -11    8.64    0.51
  10  -2 -11    8.07    0.47
 -11   3  12    2.13    0.27
 -11   3  12    1.90    0.27
 -11   3  12    1.82    0.27
  11  -3 -12    1.40    0.27
  11  -3 -12    1.86    0.29
 -12   4  13    4.87    0.38
 -12   4  13    6.50    0.46
 -12   4  13    4.45    0.36
  12  -4 -13    4.33    0.45
  12  -4 -13    5.12    0.50
 -13   5  14   22.00    0.98
 -13   5  14   20.41    0.83
  13  -5 -14   21.76    0.97
  13  -5 -14   20.78    0.99
 -14   6  15    0.82    0.27
  14  -6 -15    0.61    0.26
  14  -6 -15    0.69    0.27
  15  -7 -16    0.83    0.30
  -7  13   5    2.38    0.43
  -6  12   4   21.78    1.07
  -5  11   3    0.59    0.26
  -5  11   3    0.61    0.19
  -5  11   3    0.42    0.21
  -4  10   2   -0.09    0.15
  -4  10   2    0.45    0.17
  -4  10   2    0.30    0.16
  -3   9   1    6.59    0.39
  -3   9   1    6.72    0.49
  -3   9   1    6.46    0.36
  -2   8   0    1.68    0.21
  -2   8   0    2.04    0.30
  -2   8   0    1.86    0.21
   1  -7   1   48.29    1.17
   1  -7   1   47.24    1.20
  -1   7  -1   47.66    1.30
  -1   7  -1   45.03    1.48
  -1   7  -1   47.58    1.26
   0  -6   2  102.79    2.45
   0  -6   2  100.95    2.37
   0   6  -2  102.59    2.52
   0   6  -2   99.94    2.46
   0   6  -2  101.78    2.79
  -1  -5   3    0.27    0.08
  -1  -5   3    0.35    0.09
   1   5  -3    0.38    0.08
   1   5  -3    0.33    0.12
   1   5  -3    0.41    0.08
  -2  -4   4    0.07    0.07
  -2  -4   4    0.18    0.07
   2   4  -4    0.18    0.06
   2   4  -4   -0.05    0.08
   2   4  -4    0.16    0.07
  -3  -3   5  537.49   12.41
  -3  -3   5  542.35   12.05
   3   3  -5  537.51   12.34
   3   3  -5  532.79   13.31
   3   3  -5  549.23   12.63
  -4  -2   6   37.02    1.05
  -4  -2   6   37.98    1.11
  -4  -2   6   37.13    1.01
   4   2  -6   37.10    1.02
   4   2  -6   35.89    0.99
  -5  -1   7   19.57    0.68
  -5  -1   7   21.75    0.73
  -5  -1   7   21.13    0.67
   5   1  -7   20.86    0.69
   5   1  -7   22.52    0.68
  -6   0   8  287.68    6.48
  -6   0   8  280.64    7.11
  -6   0   8  287.98    6.68
   6   0  -8  278.14    6.81
   6   0  -8  280.64    6.65
  -7   1   9   45.07    1.26
  -7   1   9   43.74    1.37
  -7   1   9   45.91    1.31
   7  -1  -9   45.15    1.36
   7  -1  -9   46.87    1.33
  -8   2  10    1.41    0.21
  -8   2  10    1.92    0.25
  -8   2  10    1.38    0.20
   8  -2 -10    1.37    0.24
   8  -2 -10    0.90    0.19
  -9   3  11    0.95    0.19
  -9   3  11    0.64    0.18
  -9   3  11    0.71    0.17
   9  -3 -11    0.61    0.18
   9  -3 -11    0.73    0.21
 -10   4  12    0.93    0.20
 -10   4  12    0.65    0.18
 -10   4  12    0.84    0.21
  10  -4 -12    0.78    0.22
  10  -4 -12    0.67    0.22
 -11   5  13    4.74    0.36
 -11   5  13    4.70    0.41
 -11   5  13    3.75    0.36
  11  -5 -13    3.24    0.41
  11  -5 -13    3.71    0.43
 -12   6  14    3.23    0.43
  12  -6 -14    3.16    0.44
  12  -6 -14    3.17    0.44
 -13   7  15    0.41    0.23
  13  -7 -15    0.46    0.25
  13  -7 -15    0.23    0.24
  14  -8 -16    2.04    0.43
  -8  12   5    0.14    0.21
  -7  11   4    4.06    0.48
  -6  10   3    1.58    0.26
  -6  10   3    1.06    0.28
  -6  10   3    1.58    0.25
  -5   9   2    0.09    0.18
  -5   9   2    0.79    0.18
  -5   9   2    0.46    0.16
  -4   8   1   15.68    0.72
  -4   8   1   15.61    0.57
  -4   8   1   15.59    0.60
   3  -7   0   19.55    0.56
   3  -7   0   19.20    0.58
  -3   7   0   20.11    0.65
  -3   7   0   19.31    0.79
  -3   7   0   19.39    0.62
   2  -6   1    5.64    0.24
   2  -6   1    5.83    0.25
  -2   6  -1    6.14    0.28
  -2   6  -1    5.77    0.26
  -2   6  -1    5.19    0.35
   1  -5   2   79.41    1.93
   1  -5   2   82.24    2.00
  -1   5  -2   83.54    2.01
  -1   5  -2   81.11    2.26
   0  -4   3   70.19    1.75
   0  -4   3   69.35    1.69
   0   4  -3   72.08    1.97
   0   4  -3   71.06    1.72
  -1  -3   4   28.53    0.80
  -1  -3   4   27.33    0.77
   1   3  -4   28.43    0.90
   1   3  -4   29.50    0.75
  -2  -2   5  437.04   10.89
  -2  -2   5  439.60   10.18
  -2  -2   5  440.42    9.89
   2   2  -5  449.96   10.34
  -3  -1   6   10.60    0.40
  -3  -1   6   10.37    0.43
  -3  -1   6   10.87    0.41
   3   1  -6   10.12    0.37
   3   1  -6   10.31    0.38
  -4   0   7    0.03    0.07
  -4   0   7    0.09    0.07
  -4   0   7   -0.04    0.06
   4   0  -7   -0.06    0.07
   4   0  -7    0.00    0.06
  -5   1   8  361.06    9.10
  -5   1   8  370.21    8.27
  -5   1   8  361.85    8.51
   5  -1  -8  372.31    8.53
   5  -1  -8  359.86    8.72
  -6   2   9   87.18    2.28
  -6   2   9   90.20    2.21
  -6   2   9   87.86    2.46
   6  -2  -9   87.50    2.38
   6  -2  -9   91.56    2.34
  -7   3  10   26.31    0.96
   7  -3 -10   26.55    0.93
   7  -3 -10   26.10    0.96
  -8   4  11    8.27    0.43
  -8   4  11    7.95    0.41
  -8   4  11    8.42    0.51
   8  -4 -11    7.80    0.50
   8  -4 -11    7.01    0.48
  -9   5  12    1.62    0.23
  -9   5  12    1.64    0.24
  -9   5  12    1.40    0.27
   9  -5 -12    1.61    0.29
   9  -5 -12    1.77    0.30
 -10   6  13    0.06    0.18
  10  -6 -13   -0.11    0.17
  10  -6 -13   -0.10    0.15
 -11   7  14    4.08    0.48
  11  -7 -14    4.16    0.50
  11  -7 -14    3.10    0.44
 -12   8  15    0.47    0.24
  12  -8 -15    0.03    0.22
 -10  12   6    1.71    0.38
  -9  11   5    7.02    0.56
   8 -10  -4   15.99    0.74
  -8  10   4   14.61    0.67
  -8  10   4   15.19    0.80
   7  -9  -3   19.24    0.78
  -7   9   3   18.54    0.71
  -7   9   3   18.21    0.86
  -6   8   2    4.55    0.31
  -6   8   2    4.87    0.41
   5  -7  -1    7.74    0.31
  -5   7   1    7.09    0.45
  -5   7   1    7.81    0.37
  -5   7   1    7.81    0.36
  -5   7   1    8.37    0.34
   4  -6   0    0.14    0.07
   4  -6   0    0.06    0.07
  -4   6   0    0.23    0.09
  -4   6   0    0.20    0.09
  -4   6   0    0.11    0.11
   3  -5   1    8.79    0.33
   3  -5   1    9.39    0.33
  -3   5  -1    8.09    0.43
  -3   5  -1    9.19    0.32
   2  -4   2   91.90    2.20
   2  -4   2   90.44    2.14
  -2   4  -2   88.92    2.44
  -2   4  -2   91.23    2.17
   1  -3   3    5.27    0.24
   1  -3   3    4.87    0.22
  -1   3  -3    5.17    0.29
   0  -2   4  117.73    2.81
   0  -2   4  120.04    2.90
   0   2  -4  122.83    2.86
   0   2  -4  123.25    3.13
  -1  -1   5  201.18    4.71
  -1  -1   5  201.77    5.03
   1   1  -5  197.57    4.74
  -2   0   6  252.18    5.95
  -2   0   6  250.42    6.36
   2   0  -6  259.59    6.06
  -3   1   7    0.71    0.12
  -3   1   7    0.97    0.14
  -3   1   7    1.09    0.15
  -3   1   7    1.13    0.16
   3  -1  -7    0.94    0.14
  -4   2   8  122.38    2.98
  -4   2   8  119.56    3.20
   4  -2  -8  119.90    3.08
  -5   3   9   21.14    0.71
  -5   3   9   21.46    0.75
  -5   3   9   21.50    0.69
  -5   3   9   21.30    0.81
   5  -3  -9   21.87    0.81
  -6   4  10   23.83    0.75
  -6   4  10   23.06    0.77
  -6   4  10   21.68    0.88
  -6   4  10   23.25    0.84
   6  -4 -10   22.96    0.90
  -7   5  11   12.65    0.52
  -7   5  11   12.53    0.53
  -7   5  11   13.35    0.67
  -7   5  11   12.49    0.63
   7  -5 -11   10.85    0.63
  -8   6  12   15.39    0.78
  -8   6  12   16.51    0.78
   8  -6 -12   16.10    0.81
  -9   7  13    1.84    0.33
   9  -7 -13    2.24    0.38
 -10   8  14   -0.05    0.17
  10  -8 -14   -0.03    0.17
  10  -8 -14    0.23    0.21
  11  -9 -15    1.40    0.37
 -11  11   6    0.03    0.21
  10 -10  -5   32.08    1.13
 -10  10   5   28.80    1.22
   9  -9  -4    5.51    0.41
  -9   9   4    4.49    0.47
   8  -8  -3   22.54    0.83
  -8   8   3   20.33    0.89
  -8   8   3   22.07    0.77
   7  -7  -2   28.23    0.92
  -7   7   2   27.91    1.04
  -7   7   2   29.32    0.83
  -7   7   2   26.63    0.86
  -7   7   2   27.89    0.85
   6  -6  -1    3.36    0.25
   6  -6  -1    3.52    0.22
  -6   6   1    3.91    0.24
  -6   6   1    3.57    0.31
  -6   6   1    3.68    0.23
   5  -5   0    7.20    0.30
   5  -5   0    7.22    0.31
   5  -5   0    6.78    0.30
  -5   5   0    7.21    0.39
  -5   5   0    6.77    0.28
   4  -4   1    5.93    0.26
   4  -4   1    6.64    0.28
   4  -4   1    6.39    0.24
  -4   4  -1    6.29    0.34
   3  -3   2   10.83    0.38
   3  -3   2   10.78    0.39
  -3   3  -2   11.53    0.45
   2  -2   3   37.29    0.96
   2  -2   3   36.69    0.99
  -2   2  -3   36.75    1.08
   1  -1   4   39.97    1.02
   1  -1   4   40.39    1.13
   1  -1   4   39.57    0.99
   1  -1   4   38.92    1.05
   0   0   5    0.00    0.05
   0   0   5    0.01    0.05
   0   0   5   -0.02    0.05
   0   0   5    0.03    0.05
   0   0   5    0.00    0.05
  -1   1   6    4.57    0.23
  -1   1   6    4.25    0.23
  -1   1   6    4.76    0.24
  -1   1   6    4.02    0.23
  -1   1   6    4.42    0.26
  -2   2   7   30.06    0.97
  -2   2   7   30.08    0.85
  -2   2   7   31.02    0.88
  -2   2   7   30.89    0.93
  -2   2   7   30.54    0.90
  -3   3   8   73.76    2.00
  -3   3   8   75.05    1.90
  -3   3   8   74.16    2.11
  -3   3   8   73.33    1.95
  -3   3   8   75.83    1.84
  -4   4   9   15.91    0.64
  -4   4   9   15.58    0.68
  -4   4   9   15.67    0.66
  -4   4   9   16.37    0.55
  -4   4   9   15.79    0.56
  -5   5  10   60.17    1.89
  -5   5  10   60.46    1.76
  -5   5  10   63.44    1.65
  -6   6  11   23.97    1.00
  -6   6  11   24.29    0.94
   6  -6 -11   23.68    1.00
  -7   7  12    2.62    0.36
  -7   7  12    3.56    0.43
   7  -7 -12    3.27    0.43
  -8   8  13    2.57    0.40
  -8   8  13    2.79    0.40
   8  -8 -13    3.14    0.44
  -9   9  14    2.47    0.41
  -9   9  14    2.48    0.42
   9  -9 -14    2.35    0.41
  10 -10 -15    1.96    0.42
 -13  11   7    0.04    0.20
 -12  10   6    1.21    0.31
  11  -9  -5   11.59    0.63
  11  -9  -5   13.18    0.63
 -11   9   5   11.44    0.67
  10  -8  -4   18.14    0.73
  10  -8  -4   16.72    0.69
 -10   8   4   15.81    0.77
   9  -7  -3    0.12    0.13
   9  -7  -3    0.26    0.14
  -9   7   3    0.18    0.12
  -9   7   3    0.23    0.16
  -9   7   3    0.27    0.12
   8  -6  -2   94.10    2.45
   8  -6  -2   96.39    2.40
  -8   6   2   96.72    2.33
  -8   6   2   89.28    2.63
  -8   6   2   96.64    2.41
   7  -5  -1   22.61    0.70
   7  -5  -1   23.92    0.71
   7  -5  -1   24.10    0.73
  -7   5   1   22.05    0.82
  -7   5   1   24.50    0.75
   6  -4   0   31.14    0.84
   6  -4   0   31.67    0.90
   6  -4   0   31.81    0.87
   6  -4   0   31.32    0.87
  -6   4   0   31.80    1.00
   5  -3   1   18.25    0.57
   5  -3   1   18.65    0.60
   5  -3   1   19.88    0.53
  -5   3  -1   20.02    0.66
   4  -2   2    0.91    0.07
   4  -2   2    0.56    0.09
   4  -2   2    0.65    0.10
  -4   2  -2    0.65    0.12
   3  -1   3  104.59    2.43
   3  -1   3  100.46    2.40
   3  -1   3  100.69    2.47
  -3   1  -3  102.85    2.64
   2   0   4   23.48    0.66
   2   0   4   23.30    0.69
   2   0   4   23.57    0.72
   2   0   4   22.66    0.65
   1   1   5    0.21    0.07
   1   1   5    0.26    0.07
   1   1   5    0.24    0.08
   1   1   5    0.41    0.09
   1   1   5    0.51    0.09
   0   2   6   34.62    1.05
   0   2   6   34.59    1.00
   0   2   6   34.19    0.94
   0   2   6   33.97    0.97
   0   2   6   34.28    0.91
  -1   3   7   31.62    0.87
  -1   3   7   30.73    1.02
  -1   3   7   32.18    0.96
  -1   3   7   31.85    0.90
  -1   3   7   32.55    0.99
  -2   4   8    0.59    0.16
  -2   4   8    0.73    0.12
  -2   4   8    0.79    0.17
  -2   4   8    0.95    0.19
  -2   4   8    0.79    0.13
  -3   5   9    1.49    0.23
  -3   5   9    1.24    0.23
  -3   5   9    1.70    0.19
  -3   5   9    1.72    0.26
  -4   6  10   62.82    1.84
  -4   6  10   64.15    1.98
  -4   6  10   61.52    1.88
  -5   7  11    8.56    0.54
  -5   7  11    7.87    0.53
  -5   7  11    8.51    0.56
  -6   8  12    0.83    0.24
  -6   8  12    0.70    0.25
   6  -8 -12    1.30    0.31
  -7   9  13    3.57    0.49
  -7   9  13    4.77    0.51
   7  -9 -13    4.74    0.54
  -8  10  14   -0.06    0.22
 -15  11   8   13.44    0.83
 -14  10   7    6.13    0.54
  13  -9  -6    4.10    0.43
 -13   9   6    4.32    0.47
  12  -8  -5   31.57    1.10
  12  -8  -5   32.42    1.14
 -12   8   5   31.43    1.19
  11  -7  -4    0.07    0.14
  11  -7  -4    0.29    0.15
 -11   7   4    0.13    0.13
 -11   7   4    0.01    0.13
 -11   7   4    0.32    0.14
  10  -6  -3   24.12    0.81
  10  -6  -3   24.03    0.84
 -10   6   3   23.73    0.81
 -10   6   3   23.28    0.78
 -10   6   3   24.29    0.90
   9  -5  -2   49.92    1.34
   9  -5  -2   48.40    1.38
  -9   5   2   49.15    1.49
   8  -4  -1   32.07    0.90
   8  -4  -1   31.92    0.91
   8  -4  -1   30.87    0.92
  -8   4   1   32.44    1.01
  -8   4   1   32.00    0.96
   7  -3   0  148.62    3.64
   7  -3   0  153.65    3.65
   7  -3   0  149.68    3.53
   7  -3   0  148.65    3.55
  -7   3   0  155.63    3.87
   6  -2   1    0.03    0.07
   6  -2   1    0.15    0.06
   6  -2   1    0.14    0.08
  -6   2  -1    0.13    0.08
   5  -1   2    0.15    0.07
   5  -1   2    0.08    0.06
   5  -1   2    0.12    0.05
  -5   1  -2    0.16    0.07
   4   0   3    0.06    0.05
   4   0   3    0.12    0.06
   4   0   3   -0.06    0.04
   4   0   3    0.07    0.06
   3   1   4    8.73    0.36
   3   1   4    9.03    0.33
   3   1   4    9.41    0.34
   3   1   4    9.22    0.35
   3   1   4    9.65    0.36
   2   2   5   69.37    1.68
   2   2   5   68.84    1.74
   2   2   5   70.31    1.77
   2   2   5   67.87    1.88
   2   2   5   71.28    1.81
   1   3   6   84.59    2.07
   1   3   6   84.77    2.29
   1   3   6   81.64    2.19
   1   3   6   83.07    2.00
   1   3   6   85.77    2.15
   0   4   7    1.02    0.13
   0   4   7    0.85    0.17
   0   4   7    1.14    0.14
   0   4   7    0.75    0.16
   0   4   7    0.89    0.17
  -1   5   8   48.09    1.44
  -1   5   8   50.50    1.56
  -1   5   8   49.57    1.30
  -2   6   9    2.39    0.31
  -2   6   9    2.00    0.29
  -2   6   9    2.84    0.34
  -3   7  10   65.19    1.96
  -3   7  10   66.72    2.01
  -3   7  10   68.23    2.12
  -4   8  11   22.94    1.04
  -4   8  11   22.12    0.98
  -4   8  11   24.68    0.99
  -5   9  12    4.26    0.50
  -5   9  12    5.14    0.52
  -6  10  13    3.12    0.44
  -7  11  14   -0.03    0.23
 -16  10   8   -0.23    0.17
 -15   9   7    0.20    0.20
  14  -8  -6    4.99    0.48
  14  -8  -6    5.80    0.44
 -14   8   6    5.80    0.46
  13  -7  -5   12.33    0.59
  13  -7  -5   11.44    0.60
 -13   7   5   12.75    0.65
 -13   7   5   10.75    0.56
 -13   7   5   12.39    0.56
  12  -6  -4    0.15    0.14
  12  -6  -4    0.14    0.14
 -12   6   4    0.01    0.11
 -12   6   4    0.18    0.13
 -12   6   4    0.23    0.16
  11  -5  -3    8.55    0.43
  11  -5  -3   10.06    0.46
 -11   5   3    7.84    0.43
 -11   5   3    8.54    0.45
 -11   5   3    9.39    0.44
  10  -4  -2   86.54    2.24
  10  -4  -2   85.15    2.18
 -10   4   2   88.48    2.35
 -10   4   2   84.94    2.17
 -10   4   2   84.58    2.24
   9  -3  -1   79.82    2.06
   9  -3  -1   78.84    2.00
   9  -3  -1   80.46    2.01
  -9   3   1   80.22    2.15
  -9   3   1   82.13    2.10
   8  -2   0  259.57    6.22
   8  -2   0  259.35    5.98
   8  -2   0  263.59    6.08
  -8   2   0  272.73    6.51
  -8   2   0  254.25    6.18
   7  -1   1    0.00    0.06
   7  -1   1    0.23    0.09
   7  -1   1    0.04    0.08
   7  -1   1    0.06    0.06
  -7   1  -1    0.03    0.06
   6   0   2  142.73    3.32
   6   0   2  140.31    3.36
   6   0   2  141.90    3.42
   6   0   2  143.82    3.45
  -6   0  -2  143.38    3.58
   5   1   3  232.28    5.48
   5   1   3  232.16    5.69
   5   1   3  228.47    5.35
   5   1   3  225.49    5.37
   5   1   3  228.41    5.22
   4   2   4   16.43    0.56
   4   2   4   15.99    0.52
   4   2   4   14.98    0.53
   4   2   4   16.27    0.54
   4   2   4   15.60    0.50
   3   3   5   53.82    1.43
   3   3   5   51.53    1.31
   3   3   5   52.45    1.35
   3   3   5   52.25    1.46
   2   4   6   60.19    1.74
   2   4   6   62.39    1.55
   2   4   6   62.88    1.50
   2   4   6   59.67    1.65
   2   4   6   59.79    1.70
   1   5   7    0.03    0.11
   1   5   7    0.07    0.07
   1   5   7   -0.04    0.09
   1   5   7    0.28    0.13
   0   6   8   14.75    0.67
   0   6   8   13.35    0.63
   0   6   8   14.68    0.68
  -1   7   9    1.15    0.25
  -1   7   9    0.96    0.24
  -1   7   9    1.10    0.25
  -2   8  10   15.82    0.76
  -2   8  10   17.23    0.83
  -2   8  10   16.15    0.80
  -3   9  11    9.73    0.63
  -3   9  11   11.29    0.70
  -3   9  11   10.02    0.64
  -4  10  12    5.89    0.60
  -4  10  12    5.79    0.58
  -4  10  12    5.22    0.59
  -5  11  13   -0.03    0.21
  16  -8  -7    0.65    0.22
 -16   8   7    1.07    0.27
  15  -7  -6    6.03    0.46
  15  -7  -6    5.81    0.44
 -15   7   6    6.15    0.46
 -15   7   6    7.44    0.47
 -15   7   6    6.46    0.43
  14  -6  -5    0.34    0.17
  14  -6  -5   -0.19    0.11
 -14   6   5    0.08    0.14
 -14   6   5    0.10    0.16
 -14   6   5   -0.02    0.13
  13  -5  -4    0.14    0.13
  13  -5  -4   -0.05    0.13
 -13   5   4    0.10    0.14
 -13   5   4    0.10    0.12
 -13   5   4    0.13    0.13
  12  -4  -3    3.79    0.30
  12  -4  -3    3.91    0.30
 -12   4   3    3.47    0.32
 -12   4   3    3.50    0.26
 -12   4   3    3.58    0.33
  11  -3  -2   19.98    0.66
  11  -3  -2   18.41    0.67
 -11   3   2   18.84    0.68
 -11   3   2   18.19    0.70
 -11   3   2   20.78    0.67
  10  -2  -1   41.62    1.15
  10  -2  -1   41.91    1.19
 -10   2   1   40.37    1.22
 -10   2   1   43.79    1.18
   9  -1   0  130.68    3.26
   9  -1   0  131.37    3.15
   9  -1   0  133.87    3.19
  -9   1   0  130.49    3.27
  -9   1   0  135.50    3.33
   8   0   1   -0.02    0.06
   8   0   1    0.14    0.08
   8   0   1    0.01    0.07
  -8   0  -1    0.07    0.06
   7   1   2    0.75    0.13
   7   1   2    0.59    0.09
   7   1   2    0.63    0.13
   6   2   3   84.63    2.21
   6   2   3   86.07    2.22
   6   2   3   86.06    2.15
   5   3   4   45.10    1.24
   5   3   4   44.50    1.27
   5   3   4   43.42    1.25
   5   3   4   43.29    1.13
   5   3   4   43.19    1.17
   4   4   5   86.87    2.34
   4   4   5   89.84    2.39
   4   4   5   87.32    2.27
   4   4   5   88.68    2.10
   4   4   5   87.93    2.17
   3   5   6   62.06    1.78
   3   5   6   61.98    1.57
   3   5   6   62.42    1.81
   3   5   6   61.36    1.73
   2   6   7    1.09    0.21
   2   6   7    1.14    0.23
   2   6   7    1.19    0.22
   1   7   8    0.82    0.22
   1   7   8    1.40    0.26
   1   7   8    0.76    0.21
   0   8   9    5.18    0.44
   0   8   9    5.33    0.42
   0   8   9    5.40    0.45
  -1   9  10    2.65    0.39
  -1   9  10    1.91    0.33
  -1   9  10    2.66    0.38
  -2  10  11    0.28    0.23
  -2  10  11    0.46    0.23
  -2  10  11    0.57    0.23
  -3  11  12    6.18    0.62
  17  -7  -7    0.00    0.08
  17  -7  -7   -0.07    0.08
 -17   7   7    0.15    0.13
 -17   7   7    0.23    0.14
  16  -6  -6    4.86    0.39
  16  -6  -6    5.70    0.42
  15  -5  -5   -0.07    0.13
  15  -5  -5   -0.09    0.12
 -15   5   5   -0.01    0.13
 -15   5   5   -0.07    0.13
  14  -4  -4    2.97    0.32
  14  -4  -4    2.57    0.29
 -14   4   4    2.79    0.31
 -14   4   4    2.64    0.27
 -14   4   4    3.14    0.33
  13  -3  -3   11.48    0.52
  13  -3  -3   10.71    0.49
 -13   3   3   11.19    0.46
 -13   3   3   11.68    0.55
 -13   3   3   11.47    0.53
  12  -2  -2   19.10    0.71
  12  -2  -2   20.97    0.70
 -12   2   2   19.61    0.73
 -12   2   2   19.89    0.75
 -12   2   2   21.33    0.65
  11  -1  -1    2.03    0.22
  11  -1  -1    3.00    0.26
 -11   1   1    2.09    0.24
 -11   1   1    2.20    0.15
 -11   1   1    2.07    0.25
  10   0   0  160.35    3.74
 -10   0   0  153.38    3.87
 -10   0   0  158.93    3.89
   9   1   1   26.08    0.78
   9   1   1   24.54    0.80
   9   1   1   24.47    0.78
  -9  -1  -1   24.82    0.81
  -9  -1  -1   25.05    0.69
   8   2   2    3.09    0.24
   8   2   2    3.02    0.24
   8   2   2    3.50    0.24
   8   2   2    3.11    0.17
  -8  -2  -2    2.93    0.23
   7   3   3  102.74    2.58
   7   3   3  101.19    2.63
   7   3   3   98.29    2.63
   7   3   3  104.69    2.45
   6   4   4    0.07    0.09
   6   4   4    0.00    0.07
   6   4   4   -0.08    0.07
   6   4   4    0.05    0.08
   6   4   4    0.09    0.10
   5   5   5   12.60    0.43
   5   5   5   12.27    0.57
   5   5   5   12.45    0.45
   5   5   5   12.23    0.56
   5   5   5   13.08    0.55
   4   6   6   54.09    1.63
   4   6   6   57.55    1.69
   3   7   7    8.19    0.52
   3   7   7    8.80    0.52
   3   7   7   10.02    0.54
   2   8   8    1.78    0.30
   2   8   8    1.18    0.26
   2   8   8    1.04    0.24
   1   9   9   21.69    0.98
   1   9   9   21.64    0.95
   1   9   9   23.37    1.02
   0  10  10    2.10    0.38
   0  10  10    1.74    0.34
   0  10  10    1.82    0.35
  -1  11  11    1.79    0.37
  -1  11  11    0.96    0.33
  19  -7  -8    1.24    0.29
 -19   7   8    1.58    0.31
 -19   7   8    1.27    0.30
  18  -6  -7   -0.05    0.17
  18  -6  -7    0.03    0.18
 -18   6   7    0.05    0.18
 -18   6   7   -0.01    0.17
 -17   5   6   29.20    1.04
 -17   5   6   27.92    1.07
 -16   4   5    1.38    0.26
 -16   4   5    1.46    0.27
  15  -3  -4    0.01    0.06
  15  -3  -4   -0.01    0.05
 -15   3   4    0.05    0.14
 -15   3   4   -0.01    0.13
 -14   2   3   30.56    1.01
 -14   2   3   29.81    1.03
 -13   1   2    4.70    0.33
 -13   1   2    3.96    0.31
  12   0  -1    0.04    0.10
  12   0  -1   -0.06    0.08
 -12   0   1   -0.13    0.08
 -12   0   1   -0.03    0.09
  11   1   0  156.45    3.75
  11   1   0  152.21    3.83
 -11  -1   0  149.79    3.78
 -11  -1   0  152.59    3.67
  10   2   1  195.14    4.64
  10   2   1  193.26    4.75
 -10  -2  -1  187.46    4.64
   9   3   2   74.05    1.97
   9   3   2   74.95    1.93
   9   3   2   74.35    2.03
  -9  -3  -2   73.87    1.96
   8   4   3   18.67    0.61
   8   4   3   17.60    0.70
   8   4   3   17.54    0.68
   8   4   3   17.57    0.60
  -8  -4  -3   17.80    0.63
   7   5   4    6.02    0.38
   7   5   4    6.02    0.31
   7   5   4    5.83    0.33
   7   5   4    6.83    0.42
  -7  -5  -4    5.69    0.31
   6   6   5    0.09    0.12
   6   6   5    0.20    0.15
   6   6   5   -0.06    0.12
   5   7   6    6.93    0.45
   5   7   6    6.60    0.43
   5   7   6    5.60    0.44
   4   8   7    3.06    0.38
   4   8   7    4.48    0.44
   4   8   7    3.67    0.40
   3   9   8   34.89    1.32
   3   9   8   33.50    1.27
   3   9   8   37.52    1.35
   2  10   9    0.06    0.18
   2  10   9    0.24    0.21
   2  10   9    0.78    0.26
   1  11  10    2.42    0.39
   1  11  10    3.11    0.46
   0  12  11    0.28    0.28
 -21   7   9   -0.20    0.19
  20  -6  -8   -0.04    0.17
  20  -6  -8   -0.24    0.17
 -20   6   8   -0.13    0.16
 -20   6   8   -0.35    0.18
  19  -5  -7   16.39    0.81
  19  -5  -7   15.92    0.78
 -19   5   7   16.03    0.80
 -19   5   7   17.44    0.79
  18  -4  -6    8.94    0.56
  18  -4  -6    9.75    0.56
 -18   4   6    8.26    0.55
 -18   4   6    8.45    0.54
  17  -3  -5    2.79    0.33
  17  -3  -5    2.58    0.32
 -17   3   5    2.60    0.34
 -17   3   5    2.60    0.33
  16  -2  -4    6.49    0.44
  16  -2  -4    6.71    0.43
 -16   2   4    7.41    0.47
 -16   2   4    6.99    0.45
  15  -1  -3   12.44    0.58
  15  -1  -3   11.23    0.54
 -15   1   3   12.71    0.60
 -15   1   3   11.02    0.55
  14   0  -2    5.89    0.38
  14   0  -2    6.04    0.38
 -14   0   2    5.60    0.38
 -14   0   2    6.08    0.38
  13   1  -1    1.99    0.25
  13   1  -1    1.71    0.24
 -13  -1   1    2.63    0.29
 -13  -1   1    2.32    0.27
  12   2   0   13.81    0.60
  12   2   0   13.61    0.58
 -12  -2   0   13.44    0.57
 -12  -2   0   13.28    0.58
  11   3   1   37.87    1.15
  11   3   1   35.88    1.16
 -11  -3  -1   36.47    1.08
 -11  -3  -1   34.04    1.10
  10   4   2   29.39    0.99
  10   4   2   28.68    1.01
 -10  -4  -2   30.09    0.91
 -10  -4  -2   29.59    0.94
   9   5   3    7.53    0.47
   9   5   3    8.53    0.47
  -9  -5  -3    7.72    0.38
  -9  -5  -3    8.04    0.39
   8   6   4    1.99    0.29
   8   6   4    2.48    0.31
   7   7   5    4.24    0.42
   7   7   5    3.42    0.39
   7   7   5    4.30    0.33
   6   8   6   41.64    1.44
   6   8   6   39.53    1.38
   6   8   6   41.71    1.39
   5   9   7   18.13    0.83
   5   9   7   15.90    0.82
   4  10   8    2.68    0.39
   4  10   8    1.47    0.32
   4  10   8    1.30    0.31
   3  11   9    0.12    0.21
   3  11   9   -0.18    0.15
   2  12  10    0.51    0.26
  22  -6  -9    0.27    0.23
 -22   6   9    0.01    0.23
 -22   6   9    0.19    0.23
  21  -5  -8    0.62    0.26
  21  -5  -8    0.52    0.23
 -21   5   8    0.57    0.26
 -21   5   8    0.27    0.22
  20  -4  -7   16.30    0.82
  20  -4  -7   16.38    0.79
 -20   4   7   14.66    0.79
 -20   4   7   16.74    0.79
  19  -3  -6    5.75    0.46
  19  -3  -6    6.43    0.49
 -19   3   6    6.56    0.51
 -19   3   6    7.17    0.50
  18  -2  -5    8.87    0.54
  18  -2  -5    8.50    0.51
 -18   2   5    8.55    0.52
 -18   2   5    8.04    0.52
  17  -1  -4   38.24    1.29
  17  -1  -4   39.68    1.26
 -17   1   4   36.69    1.28
 -17   1   4   38.03    1.25
  16   0  -3    0.04    0.12
  16   0  -3   -0.01    0.12
 -16   0   3   -0.11    0.12
 -16   0   3    0.06    0.15
  15   1  -2    0.18    0.14
  15   1  -2    0.12    0.14
 -15  -1   2    0.10    0.13
 -15  -1   2    0.28    0.15
  14   2  -1    4.10    0.38
  14   2  -1    3.35    0.34
 -14  -2   1    3.22    0.32
 -14  -2   1    3.94    0.32
  13   3   0    5.38    0.39
  13   3   0    4.96    0.36
 -13  -3   0    5.74    0.37
 -13  -3   0    5.50    0.37
  12   4   1    2.98    0.33
  12   4   1    2.86    0.33
 -12  -4  -1    2.69    0.28
 -12  -4  -1    3.31    0.32
  11   5   2   50.57    1.58
  11   5   2   56.01    1.66
 -11  -5  -2   53.50    1.46
 -11  -5  -2   52.19    1.51
  10   6   3    5.20    0.42
  10   6   3    4.87    0.41
   9   7   4   25.77    1.01
   9   7   4   26.94    1.05
   8   8   5    0.38    0.22
   8   8   5    0.38    0.20
   7   9   6   22.21    1.00
   7   9   6   21.73    0.97
   6  10   7    8.79    0.62
   6  10   7   11.38    0.70
   5  11   8    6.38    0.62
   4  12   9    0.31    0.24
  23  -5  -9    0.59    0.28
 -23   5   9    0.71    0.30
  22  -4  -8    0.30    0.21
  22  -4  -8   -0.13    0.18
 -22   4   8    0.46    0.25
 -22   4   8    0.16    0.22
  21  -3  -7   13.08    0.72
  21  -3  -7   12.41    0.70
 -21   3   7   11.76    0.71
 -21   3   7   12.41    0.70
  20  -2  -6   -0.09    0.16
  20  -2  -6    0.09    0.18
 -20   2   6    0.42    0.22
 -20   2   6    0.19    0.20
  19  -1  -5    6.66    0.49
  19  -1  -5    7.36    0.51
 -19   1   5    6.91    0.49
 -19   1   5    8.05    0.54
  18   0  -4   39.53    1.30
  18   0  -4   38.27    1.32
 -18   0   4   36.89    1.31
 -18   0   4   38.97    1.29
  17   1  -3    0.94    0.23
  17   1  -3    0.47    0.19
 -17  -1   3    0.76    0.23
 -17  -1   3    0.85    0.23
  16   2  -2    0.86    0.21
  16   2  -2    0.79    0.22
 -16  -2   2    0.44    0.17
 -16  -2   2    0.60    0.19
  15   3  -1    3.38    0.37
  15   3  -1    4.07    0.40
 -15  -3   1    3.33    0.35
 -15  -3   1    2.97    0.33
  14   4   0   17.42    0.75
  14   4   0   15.73    0.74
 -14  -4   0   16.67    0.67
 -14  -4   0   16.54    0.69
  13   5   1    3.47    0.37
  13   5   1    3.51    0.40
 -13  -5  -1    2.35    0.29
 -13  -5  -1    2.58    0.29
  12   6   2   13.02    0.68
  12   6   2   12.99    0.67
  11   7   3    0.02    0.15
  11   7   3    0.19    0.18
  10   8   4    7.02    0.52
  10   8   4    7.02    0.53
   9   9   5    5.83    0.55
   9   9   5    5.30    0.56
   8  10   6   -0.12    0.18
   8  10   6    0.35    0.21
   7  11   7    1.02    0.31
   6  12   8    4.02    0.54
  24  -4  -9    1.96    0.38
  24  -4  -9    1.93    0.39
 -24   4   9    1.64    0.36
  23  -3  -8    6.86    0.57
  23  -3  -8    6.35    0.60
 -23   3   8    6.54    0.61
 -23   3   8    6.37    0.62
  22  -2  -7    0.11    0.19
  22  -2  -7   -0.06    0.18
 -22   2   7    0.04    0.17
 -22   2   7    0.00    0.19
  21  -1  -6    3.15    0.40
  21  -1  -6    2.51    0.37
 -21   1   6    2.22    0.35
 -21   1   6    2.82    0.40
  20   0  -5   -0.06    0.15
  20   0  -5   -0.17    0.14
 -20   0   5   -0.06    0.17
 -20   0   5   -0.02    0.17
  19   1  -4   21.86    0.91
  19   1  -4   21.03    0.92
 -19  -1   4   21.74    0.91
 -19  -1   4   21.09    0.93
  18   2  -3    6.09    0.45
  18   2  -3    5.52    0.45
 -18  -2   3    5.60    0.45
 -18  -2   3    6.46    0.47
  17   3  -2    5.93    0.46
  17   3  -2    5.34    0.43
 -17  -3   2    5.24    0.42
 -17  -3   2    4.97    0.39
  16   4  -1    0.38    0.18
  16   4  -1    0.58    0.21
 -16  -4   1    0.40    0.17
 -16  -4   1    0.11    0.16
  15   5   0    0.80    0.24
  15   5   0    0.95    0.24
 -15  -5   0    0.97    0.22
 -15  -5   0    0.91    0.21
  14   6   1    0.29    0.19
  14   6   1    0.13    0.16
  13   7   2   14.20    0.75
  13   7   2   14.92    0.78
  12   8   3   12.17    0.71
  12   8   3   12.24    0.72
  11   9   4    0.63    0.25
  11   9   4    0.80    0.27
  10  10   5    3.89    0.49
  10  10   5    4.41    0.52
   9  11   6    1.68    0.36
  25  -3  -9    1.52    0.35
 -25   3   9    0.91    0.31
  24  -2  -8    2.28    0.40
  24  -2  -8    2.29    0.40
 -24   2   8    2.20    0.40
  23  -1  -7   -0.03    0.20
  23  -1  -7    0.19    0.21
 -23   1   7    0.29    0.24
 -23   1   7    0.49    0.24
  22   0  -6    3.14    0.42
  22   0  -6    3.46    0.44
 -22   0   6    3.40    0.43
 -22   0   6    3.09    0.42
  21   1  -5    1.09    0.27
  21   1  -5    0.87    0.26
 -21  -1   5    1.02    0.29
 -21  -1   5    1.33    0.30
  20   2  -4   21.71    0.98
  20   2  -4   24.13    1.00
 -20  -2   4   23.37    1.01
 -20  -2   4   21.57    0.95
  19   3  -3   10.59    0.63
  19   3  -3   10.48    0.64
 -19  -3   3   10.76    0.61
 -19  -3   3    9.85    0.61
  18   4  -2   15.47    0.77
  18   4  -2   16.42    0.81
 -18  -4   2   15.68    0.75
 -18  -4   2   14.93    0.72
  17   5  -1    1.66    0.32
  17   5  -1    1.45    0.30
 -17  -5   1    1.49    0.29
 -17  -5   1    1.10    0.26
  16   6   0    0.84    0.25
  16   6   0    0.55    0.22
  15   7   1    0.45    0.22
  15   7   1    0.30    0.21
  14   8   2    3.12    0.44
  14   8   2    3.23    0.45
  13   9   3    1.64    0.36
  13   9   3    0.97    0.29
  12  10   4    0.06    0.22
  11  11   5    5.14    0.58
  25  -1  -8   10.81    0.72
 -25   1   8   10.03    0.70
  24   0  -7   -0.02    0.20
  24   0  -7    0.08    0.21
 -24   0   7   -0.06    0.22
  23   1  -6    0.31    0.22
  23   1  -6    0.24    0.21
 -23  -1   6   -0.01    0.19
 -23  -1   6    0.03    0.20
  22   2  -5    4.34    0.49
  22   2  -5    3.57    0.46
 -22  -2   5    4.14    0.48
 -22  -2   5    3.83    0.46
  21   3  -4   15.26    0.82
  21   3  -4   13.46    0.76
 -21  -3   4   14.66    0.78
 -21  -3   4   14.92    0.77
  20   4  -3   10.88    0.66
  20   4  -3    9.21    0.64
 -20  -4   3    9.50    0.59
 -20  -4   3    8.85    0.60
  19   5  -2   21.15    0.99
  19   5  -2   20.21    0.95
 -19  -5   2   19.86    0.90
 -19  -5   2   20.84    0.88
  18   6  -1    0.11    0.20
  17   7   0    0.61    0.25
  17   7   0    0.56    0.25
  16   8   1    0.86    0.30
  16   8   1    1.82    0.37
  15   9   2    5.57    0.60
  14  10   3    9.08    0.67
  13  11   4   10.12    0.73
  25   1  -7    1.02    0.31
 -25  -1   7    1.44    0.36
  24   2  -6    0.88    0.31
 -24  -2   6    0.68    0.29
  23   3  -5    1.31    0.32
  23   3  -5    1.53    0.34
 -23  -3   5    1.39    0.34
 -23  -3   5    1.01    0.31
  22   4  -4    1.06    0.30
  22   4  -4    0.55    0.24
 -22  -4   4    1.09    0.30
 -22  -4   4    0.92    0.29
  21   5  -3    0.17    0.22
  21   5  -3    0.42    0.24
 -21  -5   3    0.62    0.25
 -21  -5   3    0.38    0.23
  20   6  -2    3.93    0.51
  20   6  -2    3.68    0.48
  19   7  -1    1.69    0.35
  19   7  -1    1.85    0.38
  18   8   0    0.57    0.28
  17   9   1    1.76    0.37
  16  10   2    0.50    0.29
  25   3  -6    2.93    0.47
 -25  -3   6    3.38    0.48
  24   4  -5    1.85    0.39
 -24  -4   5    0.62    0.30
  23   5  -4    0.55    0.29
 -23  -5   4    0.29    0.24
 -23  -5   4    0.43    0.27
  22   6  -3   -0.19    0.22
  21   7  -2    6.53    0.65
  20   8  -1    4.48    0.56
  17  11  -9    2.44    0.45
  18  10 -10    1.10    0.33
  19   9 -11    0.94    0.31
 -20  -8  12   -0.13    0.22
  20   8 -12    0.02    0.23
 -21  -7  13    0.24    0.25
  21   7 -13    0.16    0.24
  13  13  -6    2.37    0.43
  14  12  -7    2.61    0.43
  15  11  -8   14.94    0.84
  15  11  -8   15.32    0.87
  16  10  -9    2.79    0.44
  16  10  -9    2.17    0.40
  17   9 -10    0.78    0.29
  17   9 -10    0.94    0.31
 -18  -8  11    7.06    0.54
  18   8 -11    6.81    0.63
  18   8 -11    7.62    0.60
 -19  -7  12    3.14    0.44
 -19  -7  12    3.48    0.46
  19   7 -12    3.57    0.48
  19   7 -12    2.89    0.44
 -20  -6  13    0.37    0.26
 -20  -6  13    0.28    0.25
  20   6 -13    0.40    0.26
  20   6 -13    0.07    0.24
 -21  -5  14    4.30    0.53
  21   5 -14    4.17    0.52
 -22  -4  15    2.93    0.46
  22   4 -15    3.16    0.48
  11  13  -5    0.53    0.27
  12  12  -6    1.81    0.36
  12  12  -6    2.05    0.39
  13  11  -7    0.35    0.25
  13  11  -7   -0.01    0.21
  14  10  -8   14.92    0.81
  14  10  -8   13.67    0.77
  15   9  -9    9.59    0.63
  15   9  -9    8.99    0.63
 -16  -8  10   23.03    0.96
 -16  -8  10   21.23    0.91
  16   8 -10   20.78    0.98
  16   8 -10   22.21    0.98
 -17  -7  11    0.16    0.21
 -17  -7  11    0.41    0.22
  17   7 -11    0.07    0.20
  17   7 -11    0.04    0.21
 -18  -6  12    0.48    0.25
  18   6 -12    0.40    0.24
  18   6 -12    0.62    0.26
 -19  -5  13    0.03    0.22
 -19  -5  13    0.24    0.24
  19   5 -13    0.20    0.21
  19   5 -13   -0.06    0.19
 -20  -4  14    2.09    0.39
 -20  -4  14    2.54    0.41
  20   4 -14    2.35    0.39
  20   4 -14    2.63    0.44
 -21  -3  15    4.91    0.54
  21   3 -15    4.48    0.54
 -22  -2  16    3.93    0.51
  22   2 -16    4.95    0.58
   9  13  -4    7.48    0.56
  10  12  -5   -0.23    0.17
  10  12  -5   -0.17    0.19
  11  11  -6    0.27    0.21
  11  11  -6    0.14    0.20
  12  10  -7   10.10    0.62
  12  10  -7    9.96    0.64
  13   9  -8    0.33    0.21
  13   9  -8    0.20    0.20
 -14  -8   9    6.51    0.46
 -14  -8   9    6.89    0.48
  14   8  -9    6.30    0.50
  14   8  -9    5.95    0.54
 -15  -7  10   25.59    1.03
 -15  -7  10   24.98    0.99
  15   7 -10   28.05    1.08
  15   7 -10   26.72    1.09
 -16  -6  11    0.04    0.18
 -16  -6  11    0.20    0.19
  16   6 -11    0.06    0.19
  16   6 -11    0.03    0.17
 -17  -5  12    2.28    0.37
 -17  -5  12    2.63    0.38
  17   5 -12    2.57    0.38
  17   5 -12    2.36    0.37
 -18  -4  13    0.90    0.27
 -18  -4  13    1.00    0.28
  18   4 -13    0.69    0.25
  18   4 -13    1.02    0.29
 -19  -3  14    2.68    0.41
 -19  -3  14    3.62    0.47
  19   3 -14    2.32    0.39
  19   3 -14    3.30    0.45
 -20  -2  15    0.51    0.26
 -20  -2  15    0.43    0.25
  20   2 -15    0.65    0.27
  20   2 -15    0.50    0.27
 -21  -1  16    6.61    0.64
  21   1 -16    7.63    0.61
 -22   0  17    0.35    0.26
  22   0 -17   -0.10    0.24
   8  12  -4    6.62    0.52
   8  12  -4    7.18    0.52
   9  11  -5    6.03    0.49
   9  11  -5    7.12    0.50
  10  10  -6    6.63    0.50
  10  10  -6    7.76    0.51
  11   9  -7    8.24    0.53
  11   9  -7    8.87    0.56
 -12  -8   8    2.16    0.30
 -12  -8   8    1.86    0.27
  12   8  -8    2.28    0.34
  12   8  -8    2.78    0.37
 -13  -7   9    5.03    0.46
 -13  -7   9    5.01    0.44
  13   7  -9    4.45    0.44
  13   7  -9    5.32    0.44
 -14  -6  10  104.54    2.82
 -14  -6  10  100.89    2.72
  14   6 -10  103.42    2.82
  14   6 -10  102.71    2.89
 -15  -5  11    1.08    0.27
 -15  -5  11    0.43    0.22
  15   5 -11    0.78    0.24
  15   5 -11    1.05    0.27
 -16  -4  12   -0.14    0.15
 -16  -4  12    0.03    0.18
  16   4 -12    0.24    0.19
  16   4 -12    0.06    0.17
 -17  -3  13   14.73    0.77
 -17  -3  13   15.21    0.76
  17   3 -13   13.33    0.73
  17   3 -13   14.92    0.78
 -18  -2  14    0.38    0.23
 -18  -2  14    0.42    0.22
  18   2 -14    0.34    0.24
  18   2 -14    0.25    0.23
 -19  -1  15    0.16    0.21
 -19  -1  15    0.16    0.22
  19   1 -15   -0.01    0.20
  19   1 -15   -0.13    0.17
 -20   0  16    8.42    0.63
  20   0 -16    8.77    0.64
 -21   1  17    0.20    0.25
  21  -1 -17    0.81    0.30
   4  14  -1    3.14    0.47
   5  13  -2    0.11    0.24
   6  12  -3    4.24    0.51
   6  12  -3    4.29    0.45
   7  11  -4    4.10    0.43
   7  11  -4    3.99    0.47
   7  11  -4    4.95    0.41
   8  10  -5    4.70    0.45
   8  10  -5    3.59    0.39
   9   9  -6    0.33    0.18
   9   9  -6    0.24    0.19
   9   9  -6    0.22    0.19
 -10  -8   7    1.09    0.22
 -10  -8   7    1.00    0.21
  10   8  -7    0.93    0.24
  10   8  -7    0.74    0.24
  10   8  -7    0.57    0.20
 -11  -7   8    3.18    0.34
 -11  -7   8    3.12    0.32
  11   7  -8    2.93    0.35
  11   7  -8    3.08    0.35
  11   7  -8    3.33    0.38
 -12  -6   9    1.77    0.28
 -12  -6   9    1.97    0.28
  12   6  -9    1.44    0.26
  12   6  -9    1.41    0.26
  12   6  -9    2.05    0.31
 -13  -5  10    3.41    0.37
 -13  -5  10    4.08    0.41
  13   5 -10    4.32    0.42
  13   5 -10    3.87    0.41
 -14  -4  11    0.44    0.20
 -14  -4  11    0.54    0.20
  14   4 -11    0.14    0.17
  14   4 -11    0.53    0.22
 -15  -3  12    1.42    0.28
 -15  -3  12    1.43    0.27
  15   3 -12    1.68    0.30
  15   3 -12    1.59    0.28
 -16  -2  13    9.32    0.58
 -16  -2  13   10.55    0.62
  16   2 -13    9.14    0.59
  16   2 -13   10.01    0.63
 -17  -1  14    0.01    0.16
 -17  -1  14    0.03    0.18
  17   1 -14    0.06    0.19
  17   1 -14    0.02    0.17
 -18   0  15    0.09    0.20
 -18   0  15   -0.08    0.16
  18   0 -15   -0.03    0.20
  18   0 -15   -0.04    0.19
 -19   1  16    8.55    0.62
 -19   1  16    7.67    0.58
  19  -1 -16    7.94    0.64
  19  -1 -16    6.14    0.62
 -20   2  17    3.13    0.45
  20  -2 -17    2.97    0.47
   2  14   0   14.84    0.91
   3  13  -1    0.76    0.29
   4  12  -2    1.85    0.35
   5  11  -3    0.60    0.23
   5  11  -3    0.18    0.17
   6  10  -4   61.82    1.85
   6  10  -4   61.23    1.79
   6  10  -4   64.57    2.03
   7   9  -5    4.28    0.45
   7   9  -5    4.45    0.35
   7   9  -5    4.45    0.37
  -8  -8   6    0.77    0.18
  -8  -8   6    0.84    0.18
   8   8  -6    0.67    0.20
   8   8  -6    0.89    0.20
   8   8  -6    1.01    0.23
  -9  -7   7   41.33    1.26
  -9  -7   7   41.51    1.22
   9   7  -7   43.03    1.34
   9   7  -7   41.60    1.29
   9   7  -7   40.47    1.38
 -10  -6   8    6.77    0.41
 -10  -6   8    6.32    0.41
  10   6  -8    6.52    0.44
  10   6  -8    6.81    0.44
  10   6  -8    7.32    0.44
 -11  -5   9    4.01    0.37
 -11  -5   9    3.79    0.37
  11   5  -9    3.55    0.36
  11   5  -9    3.59    0.37
  11   5  -9    4.03    0.38
 -12  -4  10   10.72    0.55
 -12  -4  10   11.37    0.57
  12   4 -10   10.57    0.57
  12   4 -10   10.99    0.55
  12   4 -10   10.74    0.56
 -13  -3  11    5.61    0.43
 -13  -3  11    5.38    0.41
  13   3 -11    5.82    0.42
  13   3 -11    5.68    0.44
 -14  -2  12   26.68    1.00
 -14  -2  12   29.83    1.09
 -14  -2  12   28.26    1.04
  14   2 -12   29.03    1.06
  14   2 -12   28.18    1.08
 -15  -1  13    1.25    0.24
 -15  -1  13    1.17    0.27
 -15  -1  13    1.05    0.25
  15   1 -13    1.19    0.28
  15   1 -13    1.14    0.26
 -16   0  14    0.62    0.21
 -16   0  14    0.73    0.22
  16   0 -14    0.54    0.25
  16   0 -14    0.50    0.23
 -17   1  15    1.58    0.31
 -17   1  15    1.21    0.28
  17  -1 -15    1.78    0.35
  17  -1 -15    2.21    0.37
 -18   2  16    6.61    0.53
 -18   2  16    4.94    0.53
  18  -2 -16    5.53    0.60
  18  -2 -16    5.96    0.60
 -19   3  17    3.26    0.43
 -19   3  17    3.19    0.44
  19  -3 -17    3.35    0.50
   0  14   1    1.50    0.39
   1  13   0   11.05    0.75
   2  12  -1    3.03    0.46
   3  11  -2    0.28    0.21
   3  11  -2    0.13    0.15
   3  11  -2   -0.03    0.14
   4  10  -3    9.32    0.61
   4  10  -3   10.19    0.50
   4  10  -3   10.54    0.54
   5   9  -4    0.04    0.13
   5   9  -4    0.04    0.13
   5   9  -4    0.47    0.22
  -6  -8   5    2.91    0.27
   6   8  -5    3.47    0.32
   6   8  -5    2.95    0.36
   6   8  -5    3.49    0.34
  -7  -7   6   41.89    1.16
  -7  -7   6   40.15    1.19
   7   7  -6   42.14    1.27
   7   7  -6   37.26    1.32
   7   7  -6   40.51    1.21
  -8  -6   7    3.58    0.28
  -8  -6   7    2.70    0.29
   8   6  -7    2.94    0.31
   8   6  -7    1.88    0.26
   8   6  -7    3.18    0.31
  -9  -5   8    7.14    0.40
  -9  -5   8    7.47    0.42
   9   5  -8    6.88    0.41
   9   5  -8    7.14    0.43
   9   5  -8    7.01    0.42
 -10  -4   9    0.13    0.12
 -10  -4   9    0.03    0.13
  10   4  -9    0.09    0.13
  10   4  -9    0.05    0.12
  10   4  -9    0.30    0.14
 -11  -3  10   14.67    0.65
 -11  -3  10   14.90    0.63
  11   3 -10   13.05    0.63
  11   3 -10   13.48    0.62
 -12  -2  11   14.57    0.67
 -12  -2  11   13.63    0.63
 -12  -2  11   14.74    0.64
  12   2 -11   14.82    0.69
  12   2 -11   14.55    0.66
 -13  -1  12   13.91    0.67
 -13  -1  12   12.83    0.64
 -13  -1  12   13.21    0.63
  13   1 -12   12.77    0.65
  13   1 -12   14.27    0.70
 -14   0  13    0.06    0.15
 -14   0  13    0.16    0.14
 -14   0  13    0.09    0.15
  14   0 -13    0.01    0.18
  14   0 -13   -0.21    0.14
 -15   1  14    0.10    0.14
 -15   1  14    0.01    0.15
 -15   1  14   -0.03    0.15
  15  -1 -14    0.04    0.15
  15  -1 -14   -0.08    0.17
 -16   2  15    4.19    0.45
 -16   2  15    5.05    0.42
 -16   2  15    4.55    0.48
  16  -2 -15    5.20    0.55
  16  -2 -15    3.92    0.48
 -17   3  16    1.58    0.31
 -17   3  16    1.76    0.34
 -17   3  16    1.50    0.31
  17  -3 -16    1.50    0.35
  17  -3 -16    1.61    0.34
 -18   4  17    2.79    0.42
 -18   4  17    2.70    0.40
  18  -4 -17    2.75    0.46
  -1  13   1    0.03    0.21
   0  12   0    3.96    0.50
   1  11  -1    0.23    0.14
   1  11  -1    0.36    0.23
   2  10  -2    6.46    0.40
   2  10  -2    7.61    0.43
   2  10  -2    7.22    0.52
   3   9  -3    4.01    0.30
   3   9  -3    4.16    0.32
   3   9  -3    4.89    0.42
  -4  -8   4    9.16    0.39
   4   8  -4    9.25    0.43
   4   8  -4    8.97    0.45
   4   8  -4    9.26    0.53
  -5  -7   5    2.76    0.25
  -5  -7   5    2.86    0.23
   5   7  -5    2.82    0.27
   5   7  -5    2.70    0.26
   5   7  -5    2.67    0.32
  -6  -6   6    7.95    0.40
  -6  -6   6    7.80    0.38
   6   6  -6    8.65    0.40
   6   6  -6    7.90    0.40
   6   6  -6    7.24    0.44
  -7  -5   7    0.31    0.13
  -7  -5   7    0.26    0.11
   7   5  -7    0.52    0.16
   7   5  -7    0.22    0.12
   7   5  -7    0.12    0.10
  -8  -4   8   49.23    1.42
  -8  -4   8   48.78    1.37
   8   4  -8   49.71    1.39
   8   4  -8   47.85    1.42
  -9  -3   9    0.59    0.17
  -9  -3   9    0.75    0.18
   9   3  -9    0.47    0.14
   9   3  -9    0.45    0.16
 -10  -2  10   35.89    1.19
 -10  -2  10   36.07    1.15
 -10  -2  10   37.08    1.20
  10   2 -10   38.50    1.17
  10   2 -10   39.03    1.22
 -11  -1  11   36.80    1.20
 -11  -1  11   35.31    1.19
 -11  -1  11   35.24    1.15
  11   1 -11   35.67    1.16
  11   1 -11   36.44    1.21
 -12   0  12   60.12    1.73
 -12   0  12   60.13    1.79
 -12   0  12   60.65    1.83
  12   0 -12   59.80    1.84
  12   0 -12   59.65    1.78
 -13   1  13    0.16    0.16
 -13   1  13    0.06    0.15
 -13   1  13    0.08    0.12
  13  -1 -13   -0.05    0.17
  13  -1 -13    0.20    0.18
 -14   2  14   -0.12    0.14
 -14   2  14   -0.08    0.14
 -14   2  14    0.11    0.16
  14  -2 -14   -0.08    0.16
  14  -2 -14   -0.07    0.17
 -15   3  15   12.12    0.68
 -15   3  15   10.73    0.63
 -15   3  15   12.32    0.65
  15  -3 -15   11.49    0.69
  15  -3 -15   13.05    0.75
 -16   4  16    1.37    0.29
 -16   4  16    1.06    0.27
 -16   4  16    0.94    0.27
  16  -4 -16    1.41    0.32
  16  -4 -16    1.31    0.34
 -17   5  17    1.26    0.32
  17  -5 -17    1.52    0.35
  -3  13   2    8.73    0.68
  -2  12   1    3.20    0.45
  -1  11   0    0.66    0.26
   0  10  -1    4.15    0.33
   0  10  -1    4.14    0.45
   0  10  -1    4.69    0.32
   1   9  -2    3.51    0.31
   1   9  -2    3.44    0.28
   1   9  -2    2.91    0.38
   2   8  -3    7.85    0.39
   2   8  -3    8.05    0.50
   2   8  -3    8.06    0.38
  -3  -7   4    0.12    0.09
  -3  -7   4    0.18    0.09
   3   7  -4    0.32    0.12
   3   7  -4    0.25    0.10
   3   7  -4    0.14    0.15
  -4  -6   5    8.07    0.36
  -4  -6   5    7.95    0.36
   4   6  -5    8.41    0.37
   4   6  -5    8.08    0.45
   4   6  -5    7.96    0.37
  -5  -5   6   37.03    1.04
  -5  -5   6   37.33    1.08
   5   5  -6   36.46    1.04
   5   5  -6   36.36    1.07
   5   5  -6   36.94    1.21
  -6  -4   7   22.10    0.74
  -6  -4   7   23.99    0.78
   6   4  -7   23.21    0.84
   6   4  -7   23.72    0.77
   6   4  -7   23.54    0.74
  -7  -3   8   60.85    1.69
  -7  -3   8   59.33    1.63
   7   3  -8   62.03    1.69
   7   3  -8   63.96    1.65
  -8  -2   9    0.13    0.10
  -8  -2   9    0.03    0.10
  -8  -2   9    0.23    0.12
   8   2  -9   -0.04    0.09
   8   2  -9   -0.04    0.11
  -9  -1  10    1.47    0.22
  -9  -1  10    1.52    0.22
  -9  -1  10    1.32    0.22
   9   1 -10    1.42    0.22
   9   1 -10    1.78    0.26
 -10   0  11   -0.11    0.11
 -10   0  11    0.09    0.13
 -10   0  11   -0.03    0.10
  10   0 -11   -0.17    0.11
  10   0 -11   -0.01    0.14
 -11   1  12   40.08    1.32
 -11   1  12   41.47    1.28
 -11   1  12   43.20    1.38
  11  -1 -12   42.10    1.35
  11  -1 -12   40.84    1.38
 -12   2  13    0.28    0.17
 -12   2  13    0.18    0.15
 -12   2  13    0.18    0.14
  12  -2 -13   -0.03    0.15
  12  -2 -13    0.48    0.18
 -13   3  14    7.31    0.51
 -13   3  14    6.71    0.46
 -13   3  14    7.24    0.49
  13  -3 -14    7.38    0.53
  13  -3 -14    7.73    0.56
 -14   4  15    8.04    0.54
 -14   4  15    8.58    0.58
 -14   4  15    8.51    0.53
  14  -4 -15    8.68    0.63
  14  -4 -15    7.45    0.58
 -15   5  16    0.16    0.19
  15  -5 -16    0.04    0.22
  15  -5 -16   -0.22    0.19
  16  -6 -17    0.04    0.25
  -5  13   3    9.50    0.72
  -4  12   2    1.33    0.34
  -3  11   1    0.31    0.22
  -2  10   0   18.92    0.69
  -2  10   0   17.87    0.70
  -2  10   0   17.24    0.85
  -1   9  -1   16.90    0.65
  -1   9  -1   18.70    0.85
  -1   9  -1   18.79    0.65
   0   8  -2   18.64    0.65
   0   8  -2   18.29    0.80
   0   8  -2   18.82    0.63
  -1  -7   3   10.29    0.39
  -1  -7   3    9.57    0.37
   1   7  -3   10.05    0.54
   1   7  -3    9.91    0.39
   1   7  -3    9.96    0.41
  -2  -6   4   -0.01    0.07
  -2  -6   4   -0.08    0.07
   2   6  -4    0.07    0.07
   2   6  -4   -0.12    0.05
   2   6  -4   -0.01    0.11
  -3  -5   5    0.23    0.10
  -3  -5   5    0.11    0.08
   3   5  -5    0.03    0.07
   3   5  -5    0.06    0.10
   3   5  -5    0.17    0.08
  -4  -4   6   89.23    2.35
  -4  -4   6   94.38    2.29
   4   4  -6   91.42    2.55
   4   4  -6   97.02    2.36
   4   4  -6   94.95    2.30
  -5  -3   7    4.07    0.27
  -5  -3   7    3.91    0.26
   5   3  -7    3.83    0.24
   5   3  -7    4.36    0.30
   5   3  -7    3.71    0.25
  -6  -2   8   82.74    2.16
  -6  -2   8   83.34    2.27
  -6  -2   8   79.79    2.08
   6   2  -8   84.70    2.10
   6   2  -8   81.74    2.15
  -7  -1   9   43.45    1.36
  -7  -1   9   45.58    1.32
  -7  -1   9   47.59    1.29
   7   1  -9   42.06    1.30
   7   1  -9   45.52    1.29
  -8   0  10   14.54    0.62
  -8   0  10   15.06    0.60
  -8   0  10   14.82    0.61
   8   0 -10   14.16    0.60
   8   0 -10   14.28    0.62
  -9   1  11    1.84    0.26
  -9   1  11    1.51    0.23
  -9   1  11    1.53    0.23
   9  -1 -11    1.41    0.23
   9  -1 -11    1.29    0.25
 -10   2  12   18.86    0.77
 -10   2  12   20.15    0.82
 -10   2  12   19.00    0.74
  10  -2 -12   20.24    0.84
  10  -2 -12   18.78    0.79
 -11   3  13    0.67    0.20
 -11   3  13    0.67    0.20
 -11   3  13    0.59    0.18
  11  -3 -13    0.73    0.23
  11  -3 -13    0.50    0.20
 -12   4  14    6.59    0.44
 -12   4  14    7.72    0.53
 -12   4  14    7.91    0.48
  12  -4 -14    7.25    0.52
  12  -4 -14    7.34    0.55
 -13   5  15    2.27    0.37
  13  -5 -15    1.90    0.36
  13  -5 -15    1.60    0.35
 -14   6  16    0.59    0.27
  14  -6 -16    0.83    0.28
  14  -6 -16    0.56    0.27
  15  -7 -17    0.87    0.32
  -7  13   4    1.90    0.39
  -6  12   3    3.37    0.47
  -5  11   2    3.94    0.48
  -4  10   1    5.16    0.45
  -3   9   0    9.33    0.45
  -3   9   0   10.41    0.45
  -3   9   0    9.03    0.56
  -2   8  -1   44.11    1.48
  -2   8  -1   44.29    1.22
  -2   8  -1   44.43    1.25
   1  -7   2   27.17    0.76
   1  -7   2   25.76    0.73
  -1   7  -2   26.70    0.79
  -1   7  -2   24.94    0.96
  -1   7  -2   25.50    0.76
   0  -6   3   12.24    0.43
   0  -6   3   12.79    0.45
   0   6  -3   12.22    0.41
   0   6  -3   11.58    0.57
   0   6  -3   13.08    0.43
  -1  -5   4   96.03    2.29
  -1  -5   4   95.69    2.36
   1   5  -4   97.42    2.35
   1   5  -4   96.11    2.64
   1   5  -4   94.42    2.29
  -2  -4   5  134.44    3.20
  -2  -4   5  134.33    3.30
   2   4  -5  136.91    3.61
   2   4  -5  140.75    3.30
  -3  -3   6   54.41    1.49
  -3  -3   6   57.22    1.45
   3   3  -6   54.33    1.62
   3   3  -6   57.53    1.46
   3   3  -6   56.46    1.42
  -4  -2   7   52.94    1.44
  -4  -2   7   52.01    1.52
  -4  -2   7   53.44    1.40
   4   2  -7   54.14    1.42
   4   2  -7   51.78    1.37
  -5  -1   8  355.79    8.61
  -5  -1   8  369.59    9.19
  -5  -1   8  375.79    8.37
   5   1  -8  367.66    8.56
   5   1  -8  372.90    8.76
  -6   0   9   -0.01    0.08
  -6   0   9    0.04    0.08
  -6   0   9   -0.03    0.08
   6   0  -9   -0.13    0.08
   6   0  -9    0.17    0.11
  -7   1  10    1.64    0.22
  -7   1  10    1.20    0.19
  -7   1  10    1.52    0.21
   7  -1 -10    1.52    0.22
   7  -1 -10    1.54    0.22
  -8   2  11    2.97    0.29
  -8   2  11    2.99    0.30
  -8   2  11    2.63    0.30
   8  -2 -11    2.76    0.31
   8  -2 -11    3.11    0.33
  -9   3  12   12.99    0.64
  -9   3  12   12.29    0.57
  -9   3  12   11.69    0.55
   9  -3 -12   11.96    0.61
   9  -3 -12   12.92    0.65
 -10   4  13    2.20    0.28
 -10   4  13    2.27    0.33
 -10   4  13    2.18    0.29
  10  -4 -13    2.49    0.35
  10  -4 -13    2.26    0.35
 -11   5  14   15.89    0.81
  11  -5 -14   16.48    0.84
  11  -5 -14   15.42    0.81
 -12   6  15    0.21    0.20
  12  -6 -15    0.12    0.21
  12  -6 -15   -0.14    0.17
 -13   7  16    0.80    0.30
  13  -7 -16    1.88    0.42
  -8  12   4    5.95    0.62
  -7  11   3   -0.21    0.17
  -6  10   2    8.71    0.58
  -5   9   1    7.89    0.53
  -5   9   1    8.34    0.42
  -5   9   1    8.76    0.44
  -4   8   0    6.97    0.47
  -4   8   0    7.34    0.37
  -4   8   0    7.51    0.36
   3  -7   1   11.11    0.39
   3  -7   1   11.55    0.41
  -3   7  -1   10.27    0.41
  -3   7  -1   10.63    0.56
  -3   7  -1   10.10    0.39
   2  -6   2  274.82    6.21
   2  -6   2  270.46    6.03
  -2   6  -2  261.10    6.79
  -2   6  -2  267.51    6.30
  -2   6  -2  257.53    6.15
   1  -5   3   10.99    0.40
   1  -5   3   10.40    0.38
  -1   5  -3   10.76    0.51
  -1   5  -3   10.83    0.34
   0  -4   4   10.08    0.37
   0  -4   4   10.22    0.39
   0   4  -4   10.68    0.31
   0   4  -4    9.75    0.46
  -1  -3   5  126.28    3.08
  -1  -3   5  124.39    2.98
   1   3  -5  126.85    3.34
   1   3  -5  129.86    3.04
  -2  -2   6   22.54    0.71
  -2  -2   6   22.67    0.76
  -2  -2   6   22.52    0.69
   2   2  -6   22.86    0.65
   2   2  -6   21.75    0.63
  -3  -1   7    1.11    0.16
  -3  -1   7    0.87    0.13
  -3  -1   7    0.91    0.14
   3   1  -7    1.12    0.14
   3   1  -7    0.98    0.14
  -4   0   8  243.41    5.79
  -4   0   8  239.95    6.18
  -4   0   8  249.56    5.62
   4   0  -8  241.90    5.89
   4   0  -8  245.85    5.76
  -5   1   9   27.47    0.94
  -5   1   9   27.80    0.85
  -5   1   9   26.34    0.87
   5  -1  -9   28.27    0.89
   5  -1  -9   27.49    0.91
  -6   2  10    2.68    0.27
  -6   2  10    2.55    0.25
  -6   2  10    2.68    0.29
   6  -2 -10    2.73    0.29
   6  -2 -10    2.39    0.28
  -7   3  11    1.51    0.24
   7  -3 -11    1.50    0.25
   7  -3 -11    1.23    0.23
  -8   4  12    3.25    0.37
  -8   4  12    3.31    0.31
  -8   4  12    2.95    0.30
   8  -4 -12    3.04    0.36
   8  -4 -12    3.31    0.40
  -9   5  13   14.13    0.74
   9  -5 -13   14.49    0.76
   9  -5 -13   13.81    0.73
 -10   6  14    6.31    0.52
  10  -6 -14    5.31    0.55
  10  -6 -14    6.24    0.60
 -11   7  15    2.52    0.42
  11  -7 -15    2.88    0.44
  11  -7 -15    3.10    0.45
  12  -8 -16    0.00    0.22
 -10  12   5   -0.11    0.21
  -9  11   4   13.41    0.80
  -8  10   3    1.36    0.30
  -7   9   2    0.59    0.23
  -6   8   1   37.71    1.32
  -6   8   1   37.20    1.08
   5  -7   0    0.54    0.11
   5  -7   0    0.71    0.13
  -5   7   0    0.68    0.19
  -5   7   0    0.73    0.13
   4  -6   1   35.50    0.97
   4  -6   1   35.10    0.94
  -4   6  -1   34.52    0.95
  -4   6  -1   34.14    0.91
  -4   6  -1   33.55    1.15
   3  -5   2  162.36    3.70
   3  -5   2  161.23    3.81
  -3   5  -2  155.84    3.79
  -3   5  -2  161.43    4.20
   2  -4   3    6.87    0.30
   2  -4   3    8.00    0.33
  -2   4  -3    7.16    0.38
   1  -3   4    4.54    0.24
   1  -3   4    4.82    0.24
  -1   3  -4    4.49    0.28
   0  -2   5  111.44    2.64
   0  -2   5  111.29    2.72
   0   2  -5  113.33    2.66
   0   2  -5  110.39    2.94
  -1  -1   6    4.22    0.26
  -1  -1   6    4.32    0.24
  -1  -1   6    3.80    0.24
   1   1  -6    4.10    0.20
   1   1  -6    4.52    0.22
  -2   0   7    0.03    0.07
  -2   0   7   -0.16    0.06
  -2   0   7   -0.09    0.07
  -2   0   7   -0.04    0.07
   2   0  -7   -0.10    0.06
  -3   1   8  187.50    4.87
  -3   1   8  193.85    4.52
  -3   1   8  187.18    4.54
  -3   1   8  193.47    4.41
   3  -1  -8  187.35    4.65
  -4   2   9   25.41    0.79
  -4   2   9   26.64    0.82
  -4   2   9   26.97    0.84
  -4   2   9   24.37    0.89
   4  -2  -9   24.62    0.87
  -5   3  10   71.02    1.89
  -5   3  10   73.51    1.85
  -5   3  10   72.13    1.95
  -5   3  10   68.77    2.08
   5  -3 -10   71.55    2.03
  -6   4  11   22.73    0.85
  -6   4  11   22.12    0.76
  -6   4  11   20.71    0.73
  -6   4  11   20.17    0.86
   6  -4 -11   20.77    0.87
  -7   5  12   19.30    0.84
  -7   5  12   18.99    0.87
   7  -5 -12   20.33    0.89
  -8   6  13    3.36    0.42
   8  -6 -13    3.02    0.42
  -9   7  14   10.27    0.68
   9  -7 -14   10.43    0.68
   9  -7 -14   11.11    0.71
 -10   8  15    0.03    0.19
  10  -8 -15   -0.11    0.19
  10  -8 -15    0.16    0.21
  11  -9 -16    1.62    0.40
 -12  12   6    1.33    0.36
 -11  11   5    1.15    0.31
 -10  10   4    6.27    0.52
  -9   9   3    1.43    0.29
   8  -8  -2   33.16    1.06
  -8   8   2   32.06    1.20
   7  -7  -1   19.59    0.64
   7  -7  -1   20.74    0.70
  -7   7   1   19.69    0.82
  -7   7   1   20.64    0.69
   6  -6   0   21.10    0.67
   6  -6   0   20.65    0.66
   6  -6   0   21.02    0.65
  -6   6   0   19.82    0.80
   5  -5   1    1.70    0.15
   5  -5   1    2.04    0.19
   5  -5   1    1.27    0.16
  -5   5  -1    1.69    0.23
   4  -4   2  224.12    5.25
   4  -4   2  226.34    5.10
   4  -4   2  223.32    5.22
  -4   4  -2  218.81    5.67
   3  -3   3   76.60    1.86
   3  -3   3   75.25    1.92
  -3   3  -3   77.84    2.10
   2  -2   4   53.51    1.35
   2  -2   4   53.01    1.40
  -2   2  -4   54.03    1.51
   1  -1   5    0.48    0.10
   1  -1   5    0.43    0.09
   1  -1   5    0.42    0.10
   0   0   6   31.71    0.87
   0   0   6   31.73    0.87
   0   0   6   29.87    0.84
   0   0   6   30.24    0.96
   0   0   6   31.88    0.90
  -1   1   7    6.73    0.35
  -1   1   7    6.89    0.32
  -1   1   7    6.86    0.31
  -3   3   9   77.29    2.11
  -3   3   9   78.87    1.94
  -3   3   9   76.47    2.21
  -3   3   9   77.37    2.05
  -3   3   9   77.57    2.01
  -4   4  10   50.74    1.35
  -4   4  10   49.14    1.47
  -4   4  10   50.39    1.40
  -4   4  10   50.42    1.60
  -5   5  11   11.58    0.60
  -5   5  11   11.60    0.63
   5  -5 -11   12.14    0.65
  -6   6  12    0.18    0.16
  -6   6  12    0.35    0.19
   6  -6 -12    0.19    0.18
  -7   7  13    0.29    0.20
  -7   7  13    0.69    0.24
   7  -7 -13    0.19    0.21
  -8   8  14   11.67    0.75
  -8   8  14   10.51    0.68
   8  -8 -14   11.84    0.76
 -13  11   6    2.94    0.43
 -12  10   5    3.73    0.46
 -11   9   4    2.47    0.37
  10  -8  -3   10.63    0.53
 -10   8   3   10.22    0.60
   9  -7  -2   82.28    2.12
   9  -7  -2   76.72    2.15
  -9   7   2   81.39    2.38
  -9   7   2   81.73    2.14
  -9   7   2   83.59    2.07
   8  -6  -1    0.97    0.16
   8  -6  -1    0.93    0.15
   8  -6  -1    1.03    0.16
  -8   6   1    1.22    0.19
  -8   6   1    0.90    0.20
   7  -5   0    3.54    0.22
   7  -5   0    3.36    0.24
   7  -5   0    3.53    0.20
   7  -5   0    3.52    0.24
  -7   5   0    3.28    0.27
   6  -4   1   21.07    0.69
   6  -4   1   22.04    0.67
   6  -4   1   22.33    0.62
  -6   4  -1   22.51    0.78
   5  -3   2   47.61    1.25
   5  -3   2   47.97    1.17
   5  -3   2   47.31    1.29
  -5   3  -2   50.02    1.40
   4  -2   3  230.67    5.52
   4  -2   3  239.26    5.49
   4  -2   3  236.05    5.37
  -4   2  -3  234.98    5.91
   3  -1   4    9.57    0.30
   3  -1   4    9.23    0.38
   3  -1   4    8.95    0.36
   3  -1   4    9.29    0.36
   2   0   5    0.01    0.06
   2   0   5    0.07    0.05
   2   0   5   -0.03    0.05
   2   0   5   -0.04    0.05
   2   0   5    0.06    0.06
   1   1   6  153.56    3.67
   1   1   6  152.80    3.93
   1   1   6  154.37    3.73
   1   1   6  152.67    3.64
   1   1   6  152.17    3.55
   0   2   7    8.95    0.37
   0   2   7    8.39    0.41
   0   2   7    8.97    0.35
   0   2   7    8.55    0.39
   0   2   7    9.30    0.39
  -1   3   8    3.12    0.27
  -1   3   8    3.17    0.22
  -1   3   8    3.59    0.27
  -1   3   8    3.24    0.29
  -1   3   8    3.14    0.22
  -2   4   9    7.75    0.36
  -2   4   9    7.98    0.44
  -2   4   9    7.10    0.43
  -2   4   9    8.17    0.36
  -2   4   9    8.12    0.46
  -3   5  10   58.64    1.85
  -3   5  10   58.08    1.71
  -3   5  10   60.32    1.77
  -4   6  11    0.37    0.19
  -4   6  11    0.40    0.20
  -4   6  11    0.29    0.19
  -5   7  12    0.12    0.17
  -5   7  12    0.04    0.16
  -6   8  13    1.95    0.36
  -6   8  13    1.69    0.33
   6  -8 -13    1.59    0.36
  -7   9  14    2.29    0.39
  -7   9  14    2.41    0.41
   7  -9 -14    2.92    0.46
  -8  10  15    6.40    0.66
 -15  11   7    2.96    0.45
 -14  10   6    3.61    0.46
 -13   9   5   10.25    0.64
 -12   8   4    5.48    0.44
  11  -7  -3    1.03    0.20
  11  -7  -3    1.02    0.20
 -11   7   3    0.76    0.18
 -11   7   3    0.54    0.20
 -11   7   3    1.03    0.19
  10  -6  -2   50.00    1.39
  10  -6  -2   50.87    1.44
 -10   6   2   49.62    1.39
 -10   6   2   50.44    1.45
 -10   6   2   49.79    1.57
   9  -5  -1    2.46    0.24
   9  -5  -1    2.29    0.22
   9  -5  -1    2.79    0.21
  -9   5   1    2.91    0.27
  -9   5   1    2.49    0.28
   8  -4   0   35.47    0.95
   8  -4   0   35.48    0.98
   8  -4   0   35.09    1.00
  -8   4   0   34.92    1.10
   7  -3   1   60.88    1.54
   7  -3   1   61.05    1.63
   7  -3   1   60.80    1.57
  -7   3  -1   63.47    1.72
   6  -2   2   34.27    1.00
   6  -2   2   35.12    0.90
   6  -2   2   33.67    0.96
  -6   2  -2   35.79    1.04
   5  -1   3  231.98    5.41
   5  -1   3  227.52    5.41
   5  -1   3  225.33    5.24
  -5   1  -3  233.58    5.74
   4   0   4    4.53    0.21
   4   0   4    4.36    0.23
   4   0   4    3.89    0.20
   4   0   4    4.48    0.24
   4   0   4    4.22    0.24
   3   1   5   22.26    0.68
   3   1   5   22.23    0.66
   3   1   5   22.11    0.66
   3   1   5   21.80    0.68
   2   2   6   27.99    0.85
   2   2   6   26.86    0.88
   2   2   6   28.04    0.82
   2   2   6   27.87    0.79
   2   2   6   27.86    0.83
   1   3   7    9.50    0.46
   1   3   7   10.78    0.39
   1   3   7    9.10    0.43
   1   3   7   10.13    0.40
   1   3   7   10.08    0.46
   0   4   8    1.15    0.15
   0   4   8    1.45    0.17
   0   4   8    1.62    0.24
   0   4   8    1.09    0.19
   0   4   8    1.28    0.21
  -1   5   9    1.39    0.24
  -1   5   9    1.45    0.23
  -1   5   9    1.68    0.26
  -2   6  10   84.67    2.56
  -2   6  10   89.49    2.42
  -2   6  10   87.09    2.46
  -3   7  11    1.02    0.25
  -3   7  11    1.29    0.27
  -3   7  11    1.38    0.27
  -4   8  12    0.88    0.28
  -4   8  12    1.30    0.28
  -4   8  12    1.06    0.28
  -5   9  13    1.48    0.32
  -5   9  13    1.76    0.36
  -6  10  14    0.23    0.25
 -16  10   7    7.30    0.58
 -15   9   6    0.34    0.22
 -14   8   5    8.33    0.55
  13  -7  -4    2.01    0.27
  13  -7  -4    1.97    0.27
 -13   7   4    1.68    0.27
 -13   7   4    2.29    0.28
 -13   7   4    2.15    0.28
  12  -6  -3    2.12    0.26
  12  -6  -3    2.18    0.27
 -12   6   3    2.26    0.29
 -12   6   3    1.11    0.19
 -12   6   3    0.98    0.18
  11  -5  -2   17.54    0.64
  11  -5  -2   16.73    0.62
 -11   5   2   16.89    0.67
 -11   5   2   17.20    0.69
 -11   5   2   17.31    0.65
  10  -4  -1    2.37    0.25
  10  -4  -1    1.94    0.21
  10  -4  -1    2.21    0.21
 -10   4   1    2.27    0.24
 -10   4   1    2.27    0.26
   9  -3   0  143.44    3.50
   9  -3   0  142.78    3.41
   9  -3   0  140.26    3.41
  -9   3   0  148.83    3.70
  -9   3   0  141.29    3.53
   8  -2   1   31.14    0.86
   8  -2   1   32.84    0.89
   8  -2   1   31.98    0.93
   8  -2   1   30.81    0.95
  -8   2  -1   32.39    0.95
   7  -1   2    0.48    0.12
   7  -1   2    0.66    0.10
   7  -1   2    0.82    0.11
   7  -1   2    0.73    0.13
  -7   1  -2    0.79    0.12
   6   0   3    0.11    0.08
   6   0   3    0.13    0.06
   6   0   3    0.04    0.06
   6   0   3   -0.01    0.06
   6   0   3    0.29    0.10
   5   1   4  554.06   13.54
   5   1   4  544.97   12.71
   5   1   4  552.61   12.34
   5   1   4  556.57   12.68
   5   1   4  554.27   12.96
   4   2   5   69.17    1.77
   4   2   5   67.44    1.82
   4   2   5   70.93    1.88
   3   3   6   44.26    1.19
   3   3   6   43.36    1.24
   3   3   6   44.46    1.15
   3   3   6   42.08    1.26
   2   4   7   43.58    1.26
   2   4   7   44.11    1.13
   2   4   7   42.05    1.16
   2   4   7   40.50    1.28
   2   4   7   42.74    1.33
   1   5   8    0.60    0.12
   1   5   8    0.77    0.18
   1   5   8    0.58    0.17
   1   5   8    0.67    0.18
   0   6   9   10.19    0.56
   0   6   9    9.93    0.55
   0   6   9   10.85    0.58
  -1   7  10   57.67    1.84
  -1   7  10   54.50    1.71
  -1   7  10   55.18    1.76
  -2   8  11    3.83    0.45
  -2   8  11    4.26    0.47
  -2   8  11    3.63    0.43
  -3   9  12    8.80    0.62
  -3   9  12    7.27    0.58
  -3   9  12    8.52    0.58
  -4  10  13    3.82    0.48
 -15   7   5    0.46    0.14
 -15   7   5    0.44    0.14
 -15   7   5    2.16    0.32
  14  -6  -4    0.09    0.14
  14  -6  -4   -0.09    0.13
 -14   6   4    0.17    0.15
 -14   6   4    0.10    0.14
 -14   6   4    0.24    0.16
  13  -5  -3    2.26    0.26
  13  -5  -3    1.96    0.25
 -13   5   3    2.25    0.29
 -13   5   3    2.35    0.28
 -13   5   3    2.19    0.27
  12  -4  -2   10.56    0.48
  12  -4  -2   10.91    0.47
 -12   4   2   11.08    0.53
 -12   4   2   11.43    0.50
 -12   4   2   10.83    0.51
  11  -3  -1    2.61    0.24
  11  -3  -1    2.77    0.23
 -11   3   1    2.26    0.23
 -11   3   1    2.72    0.29
  10  -2   0   44.29    1.24
  10  -2   0   45.57    1.26
  10  -2   0   44.62    1.21
 -10   2   0   43.71    1.31
 -10   2   0   46.69    1.27
   9  -1   1   26.14    0.76
   9  -1   1   25.51    0.81
   9  -1   1   25.93    0.79
  -9   1  -1   26.64    0.78
   8   0   2    1.98    0.19
   8   0   2    1.70    0.17
   8   0   2    1.52    0.18
   8   0   2    1.66    0.20
  -8   0  -2    1.69    0.15
   7   1   3    3.17    0.22
   7   1   3    3.06    0.23
   7   1   3    3.22    0.19
   7   1   3    3.03    0.21
   7   1   3    2.77    0.22
   6   2   4   61.88    1.68
   6   2   4   63.55    1.63
   6   2   4   60.36    1.67
   5   3   5  103.11    2.57
   5   3   5  101.16    2.63
   5   3   5   99.75    2.69
   5   3   5  102.70    2.44
   5   3   5  102.02    2.52
   4   4   6   95.08    2.43
   4   4   6   92.56    2.24
   4   4   6   91.22    2.48
   4   4   6   95.32    2.32
   4   4   6   91.69    2.53
   3   5   7    0.58    0.16
   3   5   7    0.60    0.12
   3   5   7    0.68    0.18
   3   5   7    0.65    0.17
   2   6   8    3.51    0.37
   2   6   8    4.24    0.41
   2   6   8    3.96    0.35
   1   7   9    3.25    0.38
   1   7   9    2.03    0.32
   1   7   9    2.61    0.35
   0   8  10    9.60    0.61
   0   8  10   10.73    0.62
   0   8  10    9.48    0.60
  -1   9  11   17.10    0.85
  -1   9  11   16.48    0.86
  -1   9  11   16.34    0.87
  -2  10  12    2.89    0.42
  -2  10  12    2.49    0.40
  -2  10  12    2.46    0.41
  -3  11  13    2.86    0.45
 -17   7   6    5.58    0.43
 -17   7   6    5.25    0.49
  16  -6  -5    0.06    0.16
  16  -6  -5    0.00    0.14
 -16   6   5   -0.06    0.14
 -16   6   5   -0.11    0.14
  15  -5  -4    0.14    0.15
  15  -5  -4    0.13    0.15
 -15   5   4    0.23    0.16
 -15   5   4    0.21    0.16
  14  -4  -3    2.65    0.29
  14  -4  -3    3.33    0.31
 -14   4   3    2.87    0.32
 -14   4   3    3.43    0.35
  13  -3  -2   15.42    0.60
  13  -3  -2   15.94    0.62
 -13   3   2   16.20    0.65
 -13   3   2   15.74    0.57
 -13   3   2   14.12    0.64
  12  -2  -1    1.27    0.18
  12  -2  -1    1.48    0.20
 -12   2   1    1.10    0.20
 -12   2   1    1.34    0.16
 -12   2   1    1.53    0.22
  11  -1   0  150.98    3.77
  11  -1   0  153.72    3.69
  11  -1   0  151.18    3.66
 -11   1   0  156.40    3.82
 -11   1   0  148.65    3.79
  10   0   1    0.15    0.09
  10   0   1    0.09    0.09
  10   0   1    0.01    0.08
 -10   0  -1    0.00    0.06
 -10   0  -1   -0.03    0.08
   9   1   2   25.97    0.85
   9   1   2   22.20    0.80
   9   1   2   31.80    0.87
  -9  -1  -2   29.44    0.79
   8   2   3    0.78    0.15
   8   2   3    0.27    0.08
   8   2   3    0.42    0.11
   8   2   3    0.44    0.12
   8   2   3    0.36    0.12
   7   3   4   11.68    0.53
   7   3   4   13.50    0.50
   7   3   4   12.39    0.48
   7   3   4   12.28    0.47
   7   3   4   13.54    0.53
   6   4   5   54.31    1.56
   6   4   5   53.48    1.44
   6   4   5   52.61    1.53
   6   4   5   54.89    1.40
   6   4   5   55.22    1.58
   5   5   6   79.61    1.99
   5   5   6   80.85    2.22
   5   5   6   77.54    2.13
   5   5   6   76.02    2.18
   4   6   7   22.29    0.87
   4   6   7   21.24    0.84
   3   7   8    7.41    0.49
   3   7   8    6.65    0.47
   3   7   8    6.16    0.45
   2   8   9   55.57    1.81
   2   8   9   53.18    1.70
   2   8   9   53.63    1.76
   1   9  10    0.56    0.22
   1   9  10    1.29    0.30
   1   9  10    1.19    0.29
   0  10  11    0.41    0.24
   0  10  11    0.17    0.22
   0  10  11    0.44    0.25
  -1  11  12   22.00    1.07
 -19   7   7    0.56    0.23
 -19   7   7    0.04    0.19
 -18   6   6   23.17    0.98
 -18   6   6   25.03    0.96
  17  -5  -5    4.25    0.40
  17  -5  -5    4.21    0.41
 -17   5   5    4.15    0.41
 -17   5   5    4.45    0.43
  16  -4  -4    4.07    0.39
  16  -4  -4    4.94    0.37
 -16   4   4    3.95    0.40
 -16   4   4    4.16    0.40
  15  -3  -3    6.80    0.40
  15  -3  -3    6.23    0.41
 -15   3   3    5.76    0.40
 -15   3   3    6.89    0.44
  14  -2  -2    0.21    0.13
  14  -2  -2    0.20    0.13
 -14   2   2    0.33    0.15
 -14   2   2    0.53    0.17
  13  -1  -1    2.36    0.25
  13  -1  -1    2.36    0.26
 -13   1   1    2.75    0.30
 -13   1   1    2.10    0.26
  12   0   0   85.02    2.27
  12   0   0   82.00    2.20
 -12   0   0   87.68    2.30
 -12   0   0   86.70    2.22
  11   1   1    8.26    0.38
  11   1   1    6.09    0.36
  10   2   2   13.02    0.53
  10   2   2   12.42    0.50
  10   2   2   12.56    0.54
 -10  -2  -2   12.18    0.53
   9   3   3   45.47    1.35
   9   3   3   46.45    1.32
   9   3   3   44.26    1.24
  -9  -3  -3   43.81    1.29
   8   4   4    7.76    0.37
   8   4   4    7.53    0.44
   8   4   4    6.82    0.41
   8   4   4    7.29    0.35
  -8  -4  -4    6.87    0.37
   7   5   5   52.76    1.53
   7   5   5   51.68    1.53
   7   5   5   50.45    1.57
   6   6   6    0.48    0.19
   6   6   6    0.29    0.14
   6   6   6    0.40    0.17
   5   7   7   16.35    0.76
   5   7   7   16.75    0.73
   5   7   7   15.37    0.74
   4   8   8   24.09    0.99
   4   8   8   23.72    1.00
   4   8   8   22.51    0.95
   3   9   9    2.56    0.38
   3   9   9    2.93    0.40
   3   9   9    2.56    0.38
   2  10  10    3.84    0.46
   2  10  10    4.39    0.53
   2  10  10    4.78    0.53
   1  11  11    1.38    0.34
   1  11  11    0.92    0.31
 -21   7   8   -0.19    0.20
 -21   7   8    0.08    0.19
 -20   6   7    0.23    0.21
 -20   6   7   -0.12    0.18
  19  -5  -6   23.26    0.99
  19  -5  -6   23.17    0.96
 -19   5   6   26.22    1.05
 -19   5   6   27.07    1.03
  18  -4  -5   18.83    0.82
  18  -4  -5   19.71    0.85
 -18   4   5   21.85    0.91
 -18   4   5   21.64    0.87
  17  -3  -4    9.83    0.54
  17  -3  -4    9.10    0.51
 -17   3   4   10.45    0.57
 -17   3   4    9.61    0.55
  16  -2  -3   10.05    0.51
  16  -2  -3   11.56    0.55
  15  -1  -2   -0.01    0.06
  15  -1  -2    0.00    0.05
 -15   1   2    0.22    0.15
 -15   1   2    0.16    0.15
  14   0  -1    0.06    0.10
  14   0  -1   -0.15    0.08
 -14   0   1    0.05    0.12
 -14   0   1   -0.10    0.10
  13   1   0   56.59    1.62
  13   1   0   56.86    1.57
 -13  -1   0   53.55    1.55
 -13  -1   0   53.37    1.61
  12   2   1   34.48    1.09
  12   2   1   35.76    1.13
 -12  -2  -1   32.85    1.10
 -12  -2  -1   35.56    1.08
  11   3   2   16.72    0.66
  11   3   2   15.53    0.67
 -11  -3  -2   15.57    0.63
  10   4   3   61.07    1.70
  10   4   3   59.05    1.74
 -10  -4  -3   55.94    1.62
   9   5   4   15.67    0.58
   9   5   4   15.79    0.69
   9   5   4   15.97    0.71
  -9  -5  -4   15.05    0.60
   8   6   5    3.87    0.39
   8   6   5    4.30    0.43
   7   7   6   42.95    1.46
   7   7   6   43.82    1.43
   6   8   7   10.55    0.64
   6   8   7   10.12    0.62
   5   9   8    2.57    0.38
   5   9   8    2.12    0.35
   4  10   9    2.84    0.41
   4  10   9    2.13    0.38
   4  10   9    2.58    0.39
   3  11  10   -0.01    0.20
   3  11  10   -0.09    0.19
 -22   6   8    0.02    0.22
 -22   6   8   -0.14    0.21
 -21   5   7    1.58    0.34
 -21   5   7    1.50    0.32
  20  -4  -6   10.68    0.66
  20  -4  -6   13.21    0.69
 -20   4   6   15.76    0.76
 -20   4   6   17.31    0.82
  19  -3  -5   28.50    1.12
  19  -3  -5   30.93    1.11
 -19   3   5   34.04    1.18
 -19   3   5   30.71    1.18
  18  -2  -4   13.98    0.65
  18  -2  -4   12.65    0.64
 -18   2   4   13.66    0.69
 -18   2   4   12.70    0.65
  17  -1  -3    0.85    0.22
  17  -1  -3    0.70    0.20
 -17   1   3    0.67    0.20
 -17   1   3    0.78    0.21
  16   0  -2    0.24    0.16
  16   0  -2    0.33    0.16
 -16   0   2    0.18    0.16
 -16   0   2    0.05    0.15
  15   1  -1    5.43    0.39
  15   1  -1    5.20    0.39
 -15  -1   1    6.12    0.41
 -15  -1   1    5.82    0.41
  14   2   0   11.93    0.56
  14   2   0   12.19    0.59
 -14  -2   0   10.86    0.56
 -14  -2   0   11.16    0.55
  13   3   1    0.65    0.19
  13   3   1    0.78    0.20
 -13  -3  -1    0.73    0.19
 -13  -3  -1    0.36    0.16
  12   4   2   39.25    1.25
  12   4   2   37.68    1.27
 -12  -4  -2   37.65    1.16
 -12  -4  -2   37.57    1.19
  11   5   3    2.41    0.33
  11   5   3    2.55    0.33
 -11  -5  -3    2.26    0.27
 -11  -5  -3    2.02    0.25
  10   6   4    1.65    0.29
  10   6   4    2.14    0.32
   9   7   5   21.45    0.92
   9   7   5   21.75    0.94
   8   8   6    6.33    0.51
   8   8   6    6.13    0.47
   7   9   7    2.99    0.43
   7   9   7    3.05    0.42
   6  10   8   10.06    0.68
   6  10   8    9.77    0.65
   5  11   9    0.02    0.22
 -23   5   8    0.10    0.23
  22  -4  -7    3.65    0.44
 -22   4   7    2.97    0.42
 -22   4   7    3.99    0.50
  21  -3  -6    7.73    0.54
  21  -3  -6    8.06    0.57
 -21   3   6    8.40    0.59
 -21   3   6    8.28    0.57
  20  -2  -5   21.46    0.88
  20  -2  -5   19.27    0.87
 -20   2   5   18.78    0.86
 -20   2   5   18.76    0.89
  19  -1  -4   22.21    0.91
  19  -1  -4   21.90    0.92
 -19   1   4   22.22    0.95
 -19   1   4   23.27    0.94
  18   0  -3   -0.12    0.14
  18   0  -3    0.11    0.15
 -18   0   3    0.12    0.17
 -18   0   3    0.03    0.16
  17   1  -2    3.60    0.39
  17   1  -2    3.58    0.39
 -17  -1   2    3.59    0.38
 -17  -1   2    2.99    0.36
  16   2  -1   24.80    0.96
  16   2  -1   24.15    0.93
 -16  -2   1   24.83    0.92
 -16  -2   1   24.16    0.94
  15   3   0   16.75    0.72
  15   3   0   15.42    0.72
 -15  -3   0   14.24    0.65
 -15  -3   0   14.48    0.68
  14   4   1    8.90    0.53
  14   4   1    8.73    0.53
 -14  -4  -1    7.78    0.47
 -14  -4  -1    7.18    0.44
  13   5   2   60.60    1.85
  13   5   2   59.43    1.80
 -13  -5  -2   59.20    1.72
 -13  -5  -2   59.52    1.67
  12   6   3    1.41    0.29
  12   6   3    1.71    0.29
  11   7   4   23.60    1.01
  11   7   4   24.50    1.00
  10   8   5   -0.22    0.15
  10   8   5    0.23    0.20
   9   9   6    1.75    0.35
   9   9   6    1.34    0.32
   8  10   7    0.63    0.27
   8  10   7    0.48    0.25
   7  11   8    4.32    0.52
 -24   4   8    0.30    0.23
  23  -3  -7    3.68    0.45
  23  -3  -7    3.28    0.44
 -23   3   7    3.68    0.48
 -23   3   7    3.29    0.44
  22  -2  -6    0.21    0.19
  22  -2  -6    0.20    0.20
 -22   2   6    0.15    0.21
 -22   2   6    0.28    0.21
  21  -1  -5    1.04    0.27
  21  -1  -5    1.62    0.31
 -21   1   5    0.74    0.24
 -21   1   5    1.13    0.29
  20   0  -4   15.51    0.76
  20   0  -4   14.12    0.75
 -20   0   4   16.31    0.78
 -20   0   4   16.54    0.81
  19   1  -3    5.25    0.48
  19   1  -3    3.51    0.41
 -19  -1   3    3.76    0.43
 -19  -1   3    3.93    0.44
  18   2  -2   -0.01    0.15
  18   2  -2    0.06    0.15
 -18  -2   2    0.21    0.18
 -18  -2   2   -0.02    0.15
  17   3  -1   13.29    0.70
  17   3  -1   14.76    0.71
 -17  -3   1   14.53    0.68
 -17  -3   1   13.77    0.68
  16   4   0    0.96    0.25
  16   4   0    0.85    0.24
 -16  -4   0    0.67    0.21
 -16  -4   0    1.00    0.23
  15   5   1    5.05    0.49
  15   5   1    4.60    0.47
 -15  -5  -1    4.38    0.41
 -15  -5  -1    4.96    0.37
  14   6   2   32.28    1.21
  14   6   2   33.36    1.26
  13   7   3    0.56    0.23
  13   7   3    0.71    0.24
  12   8   4    3.62    0.45
  12   8   4    2.54    0.40
  11   9   5    0.30    0.22
  11   9   5    0.32    0.21
  10  10   6    1.02    0.31
   9  11   7    0.04    0.22
  25  -3  -8    1.23    0.32
 -25   3   8    1.11    0.34
  24  -2  -7    4.85    0.53
  24  -2  -7    5.52    0.56
 -24   2   7    4.38    0.51
  23  -1  -6    0.24    0.21
  23  -1  -6    0.43    0.24
 -23   1   6    0.57    0.25
 -23   1   6   -0.04    0.19
  22   0  -5   -0.13    0.17
  22   0  -5   -0.03    0.17
 -22   0   5    0.17    0.21
 -22   0   5    0.23    0.21
  21   1  -4    9.02    0.60
  21   1  -4    8.73    0.59
 -21  -1   4    8.67    0.59
 -21  -1   4    8.55    0.57
  20   2  -3    1.63    0.32
  20   2  -3    1.73    0.31
 -20  -2   3    1.66    0.31
 -20  -2   3    1.98    0.34
  19   3  -2    1.69    0.31
  19   3  -2    2.18    0.35
 -19  -3   2    1.94    0.33
 -19  -3   2    1.98    0.32
  18   4  -1    5.00    0.50
  18   4  -1    5.14    0.51
 -18  -4   1    5.05    0.47
 -18  -4   1    5.07    0.47
  17   5   0    1.04    0.28
  17   5   0    0.91    0.26
 -17  -5   0    0.83    0.23
 -17  -5   0    1.02    0.25
  16   6   1    2.14    0.35
  16   6   1    2.54    0.38
  15   7   2    7.31    0.56
  15   7   2    8.29    0.60
  14   8   3    4.20    0.50
  14   8   3    4.79    0.54
  13   9   4    0.34    0.23
  13   9   4    0.14    0.21
  12  10   5    4.57    0.54
  11  11   6    0.04    0.23
  25  -1  -7    0.48    0.26
 -25   1   7    1.09    0.32
  24   0  -6    1.47    0.35
  24   0  -6    1.84    0.37
 -24   0   6    1.58    0.35
  23   1  -5    1.81    0.36
  23   1  -5    1.52    0.33
 -23  -1   5    1.97    0.36
 -23  -1   5    2.65    0.42
  22   2  -4    0.17    0.21
  22   2  -4    0.39    0.22
 -22  -2   4    0.60    0.24
 -22  -2   4    0.15    0.22
  21   3  -3    2.66    0.40
  21   3  -3    2.59    0.40
 -21  -3   3    2.25    0.36
 -21  -3   3    2.38    0.38
  20   4  -2    0.41    0.21
  20   4  -2   -0.06    0.18
 -20  -4   2    0.05    0.19
 -20  -4   2    0.21    0.21
  19   5  -1    2.29    0.38
  19   5  -1    2.20    0.36
 -19  -5   1    1.94    0.33
 -19  -5   1    2.08    0.34
  18   6   0    1.10    0.29
  18   6   0    0.43    0.22
  17   7   1    2.58    0.41
  17   7   1    2.14    0.38
  16   8   2    1.95    0.38
  16   8   2    1.78    0.38
  15   9   3    3.68    0.50
  14  10   4    4.55    0.59
  25   1  -6    0.77    0.30
 -25  -1   6    1.07    0.33
  24   2  -5    0.37    0.25
 -24  -2   5    0.34    0.25
  23   3  -4    3.64    0.49
  23   3  -4    3.45    0.47
 -23  -3   4    3.18    0.46
 -23  -3   4    3.38    0.46
  22   4  -3   -0.11    0.20
  22   4  -3    0.17    0.22
 -22  -4   3    0.36    0.26
 -22  -4   3    0.02    0.22
  21   5  -2    4.38    0.54
  21   5  -2    3.36    0.47
 -21  -5   2    3.40    0.43
  20   6  -1   -0.13    0.18
  20   6  -1    0.04    0.20
  19   7   0    0.32    0.24
  18   8   1    2.09    0.41
  17   9   2    4.69    0.59
  24   4  -4    0.13    0.25
 -24  -4   4    0.34    0.27
  23   5  -3    2.54    0.44
 -23  -5   3    2.51    0.42
  22   6  -2   13.27    0.83
  21   7  -1    3.90    0.53
  18  10 -11    0.43    0.28
  19   9 -12    1.80    0.40
 -20  -8  13    0.04    0.24
  20   8 -13   -0.08    0.22
  14  12  -8    8.62    0.64
  15  11  -9   -0.21    0.22
  15  11  -9   -0.05    0.23
  16  10 -10    0.17    0.23
  16  10 -10   -0.04    0.23
  17   9 -11    2.53    0.42
  17   9 -11    2.54    0.41
 -18  -8  12    0.59    0.28
 -18  -8  12    0.67    0.27
  18   8 -12    0.51    0.27
  18   8 -12    0.73    0.28
 -19  -7  13    2.44    0.42
 -19  -7  13    2.88    0.43
  19   7 -13    2.12    0.40
  19   7 -13    2.56    0.43
 -20  -6  14    8.30    0.63
  20   6 -14    7.31    0.60
 -21  -5  15    0.33    0.25
  21   5 -15    0.28    0.27
  13  11  -8    1.54    0.34
  13  11  -8    2.83    0.41
  14  10  -9    1.46    0.33
  14  10  -9    0.95    0.29
  15   9 -10    1.10    0.31
  15   9 -10    1.47    0.32
 -16  -8  11    5.50    0.52
 -16  -8  11    5.16    0.50
  16   8 -11    5.54    0.55
  16   8 -11    6.37    0.60
 -17  -7  12    1.61    0.33
 -17  -7  12    1.76    0.35
  17   7 -12    2.09    0.37
  17   7 -12    2.30    0.39
 -18  -6  13   -0.16    0.19
 -18  -6  13   -0.07    0.21
  18   6 -13   -0.03    0.20
  18   6 -13    0.04    0.20
 -19  -5  14    8.71    0.64
 -19  -5  14    6.53    0.62
  19   5 -14    7.91    0.58
  19   5 -14    8.00    0.62
 -20  -4  15    6.47    0.63
  20   4 -15    6.81    0.64
  20   4 -15    6.54    0.63
 -21  -3  16    3.75    0.52
  21   3 -16    2.42    0.43
  11  11  -7    8.80    0.60
  11  11  -7    8.64    0.58
  12  10  -8    4.76    0.50
  12  10  -8    5.92    0.54
  13   9  -9   10.19    0.63
  13   9  -9    9.19    0.59
 -14  -8  10   23.52    0.92
 -14  -8  10   21.57    0.93
  14   8 -10   24.10    1.00
  14   8 -10   21.73    0.94
 -15  -7  11    1.20    0.29
 -15  -7  11    1.23    0.28
  15   7 -11    1.55    0.31
  15   7 -11    1.29    0.31
 -16  -6  12    2.16    0.36
 -16  -6  12    1.27    0.30
  16   6 -12    2.15    0.35
  16   6 -12    1.14    0.29
 -17  -5  13    1.84    0.35
 -17  -5  13    1.55    0.33
  17   5 -13    1.87    0.35
  17   5 -13    1.90    0.34
 -18  -4  14    8.33    0.60
 -18  -4  14    9.35    0.62
  18   4 -14    8.81    0.61
  18   4 -14    7.37    0.58
 -19  -3  15    5.36    0.55
 -19  -3  15    6.64    0.63
  19   3 -15    5.19    0.55
  19   3 -15    5.80    0.61
 -20  -2  16    5.64    0.59
  20   2 -16    4.74    0.55
 -21  -1  17    0.18    0.24
  21   1 -17    0.54    0.29
   6  14  -3    0.22    0.27
   7  13  -4    2.31    0.41
   8  12  -5    0.43    0.25
   9  11  -6    1.43    0.29
  10  10  -7    5.03    0.49
  10  10  -7    5.53    0.50
  11   9  -8    0.05    0.16
  11   9  -8    0.30    0.20
 -12  -8   9   12.38    0.61
 -12  -8   9   12.47    0.62
  12   8  -9   12.44    0.65
  12   8  -9   12.24    0.66
 -13  -7  10   92.08    2.49
 -13  -7  10   97.37    2.58
  13   7 -10   88.61    2.55
  13   7 -10   91.10    2.63
 -14  -6  11    0.25    0.20
 -14  -6  11    0.35    0.21
  14   6 -11    0.14    0.20
  14   6 -11    0.31    0.20
 -15  -5  12    0.39    0.22
 -15  -5  12    0.74    0.23
  15   5 -12    0.82    0.25
  15   5 -12    0.79    0.24
 -16  -4  13   12.02    0.68
 -16  -4  13   12.64    0.71
  16   4 -13   12.15    0.68
  16   4 -13   12.56    0.71
 -17  -3  14    4.32    0.47
 -17  -3  14    4.11    0.48
  17   3 -14    3.97    0.48
  17   3 -14    3.74    0.44
 -18  -2  15    0.39    0.23
 -18  -2  15    0.22    0.21
  18   2 -15    0.42    0.25
  18   2 -15    0.61    0.26
 -19  -1  16    8.17    0.61
 -19  -1  16    5.76    0.57
  19   1 -16    8.02    0.64
  19   1 -16    8.32    0.62
 -20   0  17   -0.04    0.20
  20   0 -17   -0.36    0.19
   4  14  -2    0.32    0.29
   5  13  -3    9.86    0.71
   6  12  -4   21.27    1.03
   7  11  -5    0.52    0.25
   8  10  -6    0.69    0.21
   8  10  -6    0.68    0.22
   8  10  -6    0.65    0.24
   9   9  -7    0.01    0.16
   9   9  -7    0.00    0.15
   9   9  -7    0.06    0.16
 -10  -8   8   10.36    0.52
 -10  -8   8    9.44    0.51
  10   8  -8   10.64    0.60
  10   8  -8    9.51    0.56
  10   8  -8   10.14    0.56
 -11  -7   9   12.86    0.61
 -11  -7   9   12.70    0.63
  11   7  -9   13.33    0.66
  11   7  -9   13.57    0.64
  11   7  -9   14.64    0.70
 -12  -6  10   30.64    1.08
 -12  -6  10   34.07    1.14
  12   6 -10   29.74    1.09
  12   6 -10   33.61    1.19
  12   6 -10   31.56    1.14
 -13  -5  11    0.80    0.22
 -13  -5  11    1.19    0.26
  13   5 -11    1.09    0.24
  13   5 -11    0.79    0.22
  13   5 -11    0.76    0.22
 -14  -4  12    8.01    0.54
 -14  -4  12    8.08    0.52
  14   4 -12    6.63    0.50
  14   4 -12    8.37    0.52
 -15  -3  13    5.44    0.52
 -15  -3  13    4.79    0.46
  15   3 -13    5.23    0.50
  15   3 -13    5.36    0.43
 -16  -2  14    2.23    0.35
 -16  -2  14    1.77    0.32
  16   2 -14    2.57    0.37
  16   2 -14    2.29    0.37
 -17  -1  15    1.41    0.30
 -17  -1  15    1.40    0.29
  17   1 -15    2.08    0.35
  17   1 -15    1.36    0.32
 -18   0  16   14.84    0.80
 -18   0  16   15.03    0.83
  18   0 -16   15.70    0.83
  18   0 -16   15.92    0.88
 -19   1  17    1.89    0.36
  19  -1 -17    1.48    0.38
 -20   2  18   -0.09    0.21
  20  -2 -18    0.16    0.24
   2  14  -1    9.88    0.74
   3  13  -2    9.91    0.72
   4  12  -3    0.07    0.20
   5  11  -4   18.66    0.93
   6  10  -5   45.69    1.61
   6  10  -5   45.80    1.40
   6  10  -5   45.01    1.43
   7   9  -6   14.07    0.73
   7   9  -6   13.62    0.61
   7   9  -6   13.68    0.64
  -8  -8   7    3.67    0.34
  -8  -8   7    4.27    0.32
   8   8  -7    3.45    0.40
   8   8  -7    3.43    0.34
   8   8  -7    4.02    0.34
  -9  -7   8    7.35    0.43
  -9  -7   8    7.38    0.42
   9   7  -8    7.15    0.45
   9   7  -8    7.34    0.43
 -10  -6   9   -0.19    0.12
 -10  -6   9   -0.04    0.13
  10   6  -9    0.21    0.15
  10   6  -9    0.02    0.14
  10   6  -9   -0.12    0.13
 -11  -5  10   31.78    1.10
 -11  -5  10   32.36    1.07
  11   5 -10   30.59    1.09
  11   5 -10   30.72    1.06
  11   5 -10   31.22    1.12
 -12  -4  11    4.59    0.42
 -12  -4  11    5.23    0.41
  12   4 -11    4.07    0.39
  12   4 -11    4.44    0.37
  12   4 -11    3.97    0.40
 -13  -3  12   26.04    1.03
 -13  -3  12   28.43    1.02
  13   3 -12   28.08    1.06
  13   3 -12   27.99    1.02
 -14  -2  13    0.50    0.21
 -14  -2  13    0.70    0.22
 -14  -2  13    0.63    0.19
  14   2 -13    0.76    0.23
  14   2 -13    0.97    0.24
 -15  -1  14    0.10    0.16
 -15  -1  14   -0.17    0.13
 -15  -1  14   -0.03    0.14
  15   1 -14    0.02    0.16
  15   1 -14   -0.18    0.17
 -16   0  15    0.06    0.17
 -16   0  15   -0.04    0.16
  16   0 -15    0.05    0.17
  16   0 -15    0.04    0.19
 -17   1  16   18.24    0.87
 -17   1  16   17.60    0.88
  17  -1 -16   16.32    0.90
  17  -1 -16   18.30    0.91
 -18   2  17    0.81    0.26
 -18   2  17    0.54    0.24
  18  -2 -17    0.85    0.29
 -19   3  18    0.08    0.22
  19  -3 -18    0.06    0.25
   0  14   0   12.67    0.85
   1  13  -1    0.03    0.25
   2  12  -2   13.53    0.80
   3  11  -3    1.44    0.32
   4  10  -4    5.43    0.48
   4  10  -4    4.75    0.36
   4  10  -4    4.90    0.35
   5   9  -5    0.27    0.20
   5   9  -5    0.53    0.16
   5   9  -5    0.21    0.15
  -6  -8   6   13.83    0.58
  -6  -8   6   14.55    0.57
   6   8  -6   14.99    0.63
   6   8  -6   15.61    0.74
   6   8  -6   15.22    0.61
  -7  -7   7   10.86    0.48
  -7  -7   7   10.78    0.50
   7   7  -7   10.76    0.49
   7   7  -7    9.89    0.51
   7   7  -7   10.45    0.58
  -8  -6   8   11.07    0.52
  -8  -6   8   10.02    0.49
   8   6  -8   10.17    0.51
   8   6  -8   10.03    0.56
   8   6  -8   11.39    0.51
  -9  -5   9    2.85    0.31
  -9  -5   9    2.75    0.29
   9   5  -9    2.48    0.28
   9   5  -9    2.51    0.28
 -10  -4  10   67.71    1.89
 -10  -4  10   65.22    1.82
  10   4 -10   65.26    1.82
  10   4 -10   62.94    1.86
 -11  -3  11   13.51    0.62
 -11  -3  11   12.33    0.60
 -11  -3  11   13.50    0.65
  11   3 -11   13.59    0.64
  11   3 -11   12.90    0.61
 -12  -2  12   28.14    1.04
 -12  -2  12   27.09    1.01
 -12  -2  12   25.95    0.98
  12   2 -12   28.01    1.00
  12   2 -12   28.48    1.04
 -13  -1  13    0.15    0.14
 -13  -1  13    0.28    0.16
 -13  -1  13    0.23    0.16
  13   1 -13    0.09    0.18
  13   1 -13    0.09    0.16
 -14   0  14    0.18    0.18
 -14   0  14    0.27    0.19
 -14   0  14    0.51    0.19
  14   0 -14    0.29    0.20
  14   0 -14   -0.02    0.17
 -15   1  15    8.18    0.55
 -15   1  15    7.95    0.53
 -15   1  15    7.00    0.53
  15  -1 -15    8.37    0.56
  15  -1 -15    7.52    0.57
 -16   2  16    6.20    0.49
 -16   2  16    5.61    0.52
 -16   2  16    5.68    0.54
  16  -2 -16    6.38    0.61
  16  -2 -16    5.89    0.60
 -17   3  17    5.07    0.52
 -17   3  17    5.56    0.55
 -17   3  17    5.24    0.52
  17  -3 -17    6.10    0.61
 -18   4  18    3.79    0.46
  18  -4 -18    4.39    0.56
  -1  13   0   11.71    0.79
   0  12  -1    2.74    0.44
   1  11  -2    0.45    0.24
   2  10  -3   12.98    0.73
   3   9  -4   16.69    0.63
   3   9  -4   17.03    0.80
   3   9  -4   16.17    0.64
  -4  -8   5    0.17    0.11
  -4  -8   5    0.25    0.11
   4   8  -5    0.45    0.13
   4   8  -5    0.23    0.19
   4   8  -5    0.18    0.12
  -5  -7   6   11.61    0.50
  -5  -7   6   12.19    0.49
   5   7  -6   12.63    0.49
   5   7  -6   12.03    0.61
   5   7  -6   11.16    0.49
  -6  -6   7    0.13    0.11
  -6  -6   7    0.39    0.13
   6   6  -7    0.40    0.13
   6   6  -7    0.38    0.13
   6   6  -7    0.29    0.15
  -7  -5   8    0.24    0.13
  -7  -5   8    0.24    0.13
   7   5  -8    0.26    0.12
   7   5  -8    0.19    0.12
   7   5  -8    0.26    0.13
  -8  -4   9    4.16    0.31
  -8  -4   9    4.70    0.34
   8   4  -9    5.01    0.36
   8   4  -9    5.05    0.34
   8   4  -9    5.44    0.33
  -9  -3  10   10.03    0.51
  -9  -3  10    8.34    0.47
  -9  -3  10   10.10    0.52
   9   3 -10   10.09    0.50
   9   3 -10    9.80    0.48
 -10  -2  11    8.34    0.46
 -10  -2  11    8.06    0.47
 -10  -2  11    7.50    0.45
  10   2 -11    7.89    0.44
  10   2 -11    8.18    0.47
 -11  -1  12   42.56    1.32
 -11  -1  12   42.20    1.39
 -11  -1  12   40.33    1.35
  11   1 -12   41.75    1.37
  11   1 -12   42.79    1.34
 -12   0  13   -0.19    0.12
 -12   0  13    0.05    0.12
 -12   0  13   -0.03    0.14
  12   0 -13   -0.04    0.14
  12   0 -13    0.09    0.16
 -13   1  14    4.15    0.42
 -13   1  14    3.39    0.38
 -13   1  14    3.28    0.37
  13  -1 -14    3.28    0.40
  13  -1 -14    3.67    0.44
 -14   2  15   10.78    0.61
 -14   2  15    9.11    0.57
 -14   2  15    9.12    0.58
  14  -2 -15    9.74    0.61
  14  -2 -15    9.95    0.64
 -15   3  16    3.22    0.41
 -15   3  16    3.74    0.42
 -15   3  16    3.09    0.40
  15  -3 -16    2.99    0.42
  15  -3 -16    4.31    0.50
 -16   4  17    4.20    0.46
 -16   4  17    2.74    0.40
 -16   4  17    2.84    0.41
  16  -4 -17    3.25    0.47
  17  -5 -18   11.72    0.81
  -3  13   1    1.34    0.36
  -2  12   0   16.58    0.92
  -1  11  -1    0.57    0.25
   0  10  -2    4.90    0.50
   1   9  -3    2.96    0.28
   1   9  -3    3.34    0.41
  -2  -8   4   14.02    0.52
  -2  -8   4   14.88    0.51
   2   8  -4   14.41    0.53
   2   8  -4   14.39    0.55
   2   8  -4   15.03    0.72
  -3  -7   5   11.32    0.43
  -3  -7   5   11.20    0.45
   3   7  -5   10.12    0.42
   3   7  -5   10.18    0.56
   3   7  -5   11.33    0.45
  -4  -6   6  119.83    3.00
  -4  -6   6  124.78    2.92
   4   6  -6  122.16    3.03
   4   6  -6  120.62    3.32
   4   6  -6  116.89    2.94
  -5  -5   7   13.62    0.55
  -5  -5   7   13.88    0.54
   5   5  -7   13.73    0.51
   5   5  -7   13.56    0.52
   5   5  -7   12.87    0.61
  -6  -4   8    5.48    0.34
  -6  -4   8    5.74    0.34
   6   4  -8    5.74    0.33
   6   4  -8    5.15    0.36
   6   4  -8    6.26    0.32
  -7  -3   9    0.15    0.11
  -7  -3   9    0.10    0.11
  -7  -3   9    0.04    0.09
   7   3  -9    0.22    0.12
   7   3  -9    0.19    0.11
  -8  -2  10    1.04    0.20
  -8  -2  10    1.31    0.20
  -8  -2  10    1.06    0.20
   8   2 -10    1.21    0.20
   8   2 -10    0.97    0.17
  -9  -1  11    1.73    0.25
  -9  -1  11    1.47    0.24
  -9  -1  11    1.43    0.23
   9   1 -11    1.34    0.23
   9   1 -11    1.80    0.25
 -10   0  12   41.46    1.38
 -10   0  12   41.74    1.29
 -10   0  12   42.56    1.34
  10   0 -12   41.67    1.33
  10   0 -12   41.68    1.36
 -11   1  13    0.17    0.15
 -11   1  13    0.12    0.13
 -11   1  13    0.00    0.14
  11  -1 -13    0.09    0.14
  11  -1 -13   -0.02    0.14
 -12   2  14    9.72    0.58
 -12   2  14    9.52    0.54
 -12   2  14    9.95    0.57
  12  -2 -14    9.48    0.60
  12  -2 -14   10.00    0.60
 -13   3  15    6.95    0.48
 -13   3  15    5.47    0.47
 -13   3  15    6.62    0.48
  13  -3 -15    6.61    0.52
  13  -3 -15    6.31    0.60
 -14   4  16    1.00    0.27
 -14   4  16    1.01    0.25
 -14   4  16    0.92    0.25
  14  -4 -16    0.90    0.30
  14  -4 -16    0.88    0.29
 -15   5  17    0.71    0.26
  15  -5 -17    0.60    0.27
  -5  13   2   -0.12    0.23
  -4  12   1    0.07    0.20
  -3  11   0    7.11    0.56
  -2  10  -1    1.45    0.30
  -1   9  -2   22.90    0.98
   0  -8   3    0.20    0.10
   0   8  -3    0.15    0.10
   0   8  -3    0.41    0.19
   0   8  -3    0.18    0.10
  -1  -7   4    3.56    0.22
  -1  -7   4    3.07    0.22
   1   7  -4    3.39    0.22
   1   7  -4    3.42    0.37
   1   7  -4    3.20    0.21
  -2  -6   5    8.19    0.35
  -2  -6   5    7.13    0.35
   2   6  -5    7.69    0.46
   2   6  -5    7.32    0.31
   2   6  -5    7.68    0.33
  -3  -5   6  135.97    3.36
  -3  -5   6  133.33    3.24
   3   5  -6  131.78    3.66
   3   5  -6  143.41    3.35
   3   5  -6  139.20    3.27
  -4  -4   7   71.53    1.86
  -4  -4   7   72.36    1.93
   4   4  -7   73.05    2.10
   4   4  -7   73.90    1.84
   4   4  -7   74.44    1.89
  -5  -3   8    2.10    0.22
  -5  -3   8    1.96    0.23
   5   3  -8    2.05    0.20
   5   3  -8    2.37    0.22
  -6  -2   9   89.34    2.35
  -6  -2   9   92.05    2.29
  -6  -2   9   87.65    2.48
   6   2  -9   89.36    2.34
   6   2  -9   90.08    2.28
  -7  -1  10    1.56    0.22
  -7  -1  10    1.97    0.25
  -7  -1  10    1.35    0.22
   7   1 -10    1.68    0.22
   7   1 -10    1.71    0.23
  -8   0  11   -0.07    0.09
  -8   0  11    0.01    0.10
  -8   0  11    0.09    0.12
   8   0 -11    0.01    0.12
   8   0 -11   -0.11    0.11
  -9   1  12   54.89    1.72
  -9   1  12   55.84    1.63
  -9   1  12   54.86    1.57
   9  -1 -12   55.17    1.68
   9  -1 -12   55.00    1.63
 -10   2  13    6.71    0.46
 -10   2  13    6.50    0.43
 -10   2  13    7.13    0.44
  10  -2 -13    6.59    0.47
  10  -2 -13    7.26    0.50
 -11   3  14   61.79    1.82
 -11   3  14   59.58    1.75
 -11   3  14   60.11    1.96
  11  -3 -14   62.48    1.96
  11  -3 -14   61.95    1.90
 -12   4  15    1.47    0.27
 -12   4  15    1.14    0.24
 -12   4  15    1.04    0.26
  12  -4 -15    1.38    0.32
  12  -4 -15    1.45    0.32
 -13   5  16    0.46    0.22
  13  -5 -16    0.05    0.20
  13  -5 -16    0.34    0.24
  14  -6 -17    2.02    0.41
  -7  13   3    0.06    0.24
  -6  12   2    0.77    0.29
  -5  11   1    0.11    0.21
  -4  10   0    7.32    0.53
  -3   9  -1    7.21    0.52
   2  -8   2   68.89    1.71
  -2   8  -2   65.92    1.75
  -2   8  -2   64.77    2.04
   1  -7   3   14.58    0.51
   1  -7   3   14.74    0.50
  -1   7  -3   14.74    0.48
  -1   7  -3   13.96    0.67
  -1   7  -3   15.40    0.50
   0  -6   4  117.58    2.91
   0  -6   4  122.12    2.83
   0   6  -4  118.89    3.26
   0   6  -4  116.57    2.82
   0   6  -4  120.79    2.89
  -1  -5   5   19.29    0.65
  -1  -5   5   19.96    0.63
   1   5  -5   20.50    0.58
   1   5  -5   20.95    0.79
  -2  -4   6    5.05    0.28
  -2  -4   6    5.32    0.29
   2   4  -6    5.76    0.36
   2   4  -6    5.58    0.25
   2   4  -6    5.48    0.24
  -3  -3   7    1.83    0.20
  -3  -3   7    1.81    0.21
   3   3  -7    1.82    0.23
   3   3  -7    2.03    0.18
   3   3  -7    2.20    0.17
  -4  -2   8  119.43    2.89
  -4  -2   8  115.60    3.17
  -4  -2   8  118.14    2.98
   4   2  -8  120.90    2.97
   4   2  -8  121.23    2.90
  -5  -1   9   29.05    0.92
  -5  -1   9   27.67    0.88
  -5  -1   9   28.62    0.97
   5   1  -9   28.46    0.87
   5   1  -9   26.33    0.88
  -6   0  10   48.41    1.47
  -6   0  10   47.24    1.38
  -6   0  10   47.00    1.33
   6   0 -10   45.11    1.38
   6   0 -10   47.88    1.36
  -7   1  11    1.80    0.24
  -7   1  11    1.59    0.23
  -7   1  11    1.87    0.26
   7  -1 -11    1.38    0.22
   7  -1 -11    1.66    0.25
  -8   2  12   27.21    0.95
  -8   2  12   26.91    1.02
  -8   2  12   27.89    0.93
   8  -2 -12   27.18    0.99
   8  -2 -12   27.39    1.01
  -9   3  13   17.90    0.82
  -9   3  13   18.60    0.73
  -9   3  13   18.68    0.75
   9  -3 -13   19.30    0.84
   9  -3 -13   18.59    0.82
 -10   4  14   19.54    0.89
 -10   4  14   15.68    0.73
 -10   4  14   18.92    0.75
  10  -4 -14   19.49    0.88
  10  -4 -14   19.97    0.90
 -11   5  15    1.88    0.34
  11  -5 -15    2.73    0.40
  11  -5 -15    1.77    0.34
 -12   6  16    0.38    0.24
  12  -6 -16    0.18    0.22
  12  -6 -16    0.38    0.25
  13  -7 -17    1.10    0.33
  -8  12   3    0.05    0.21
  -7  11   2    0.28    0.23
  -6  10   1   -0.02    0.19
  -5   9   0    8.07    0.55
   4  -8   1   31.38    0.90
  -4   8  -1   28.42    1.12
   3  -7   2    4.98    0.27
   3  -7   2    4.87    0.27
  -3   7  -2    5.53    0.26
  -3   7  -2    4.66    0.37
   2  -6   3   36.58    1.01
   2  -6   3   37.41    1.05
  -2   6  -3   36.34    1.24
  -2   6  -3   38.57    0.98
   1  -5   4    0.22    0.09
   1  -5   4    0.06    0.08
  -1   5  -4    0.30    0.06
  -1   5  -4    0.35    0.14
   0  -4   5   22.78    0.69
   0  -4   5   21.31    0.71
   0   4  -5   23.19    0.83
   0   4  -5   23.21    0.60
  -1  -3   6   14.59    0.51
  -1  -3   6   13.38    0.52
   1   3  -6   15.21    0.45
   1   3  -6   14.96    0.60
  -2  -2   7   29.90    0.91
  -2  -2   7   30.69    0.88
  -2  -2   7   28.56    0.96
   2   2  -7   30.41    0.84
   2   2  -7   29.11    0.81
  -3  -1   8  188.91    4.88
  -3  -1   8  185.69    4.56
  -3  -1   8  195.14    4.44
   3   1  -8  187.46    4.49
   3   1  -8  190.94    4.60
  -4   0   9   -0.04    0.07
  -4   0   9    0.11    0.09
  -4   0   9    0.07    0.09
   4   0  -9   -0.03    0.08
   4   0  -9    0.02    0.08
  -5   1  10   23.17    0.85
  -5   1  10   23.15    0.77
  -5   1  10   23.41    0.79
   5  -1 -10   21.61    0.81
   5  -1 -10   22.84    0.80
  -6   2  11    6.05    0.35
  -6   2  11    6.67    0.37
  -6   2  11    5.97    0.41
   6  -2 -11    5.73    0.40
   6  -2 -11    5.87    0.40
  -7   3  12   14.87    0.71
   7  -3 -12   15.86    0.71
   7  -3 -12   15.39    0.72
  -8   4  13   12.35    0.67
  -8   4  13   11.55    0.55
  -8   4  13   12.19    0.58
   8  -4 -13   13.89    0.70
   8  -4 -13   10.61    0.63
  -9   5  14   17.76    0.87
   9  -5 -14   17.88    0.88
   9  -5 -14   17.89    0.87
 -10   6  15    1.07    0.28
  10  -6 -15    1.02    0.28
  10  -6 -15    0.90    0.29
 -11   7  16    0.69    0.27
  11  -7 -16    1.26    0.34
  12  -8 -17    0.41    0.28
 -10  12   4   14.60    0.88
  -9  11   3    1.88    0.36
  -8  10   2    4.49    0.49
  -7   9   1   36.32    1.34
  -6   8   0    0.04    0.15
   5  -7   1    5.91    0.30
   5  -7   1    5.89    0.30
   5  -7   1    5.93    0.31
  -5   7  -1    5.34    0.40
   4  -6   2   98.09    2.35
   4  -6   2   97.72    2.42
  -4   6  -2   95.86    2.72
   3  -5   3    6.88    0.33
   3  -5   3    6.79    0.31
  -3   5  -3    6.98    0.41
   2  -4   4   29.32    0.85
   2  -4   4   29.55    0.88
  -2   4  -4   30.83    1.01
   1  -3   5   36.83    1.00
   1  -3   5   35.25    1.04
  -1   3  -5   37.89    1.16
   0  -2   6   32.32    0.97
   0  -2   6   33.92    0.94
   0  -2   6   34.33    1.06
   0   2  -6   33.79    0.88
  -1  -1   7    6.99    0.37
  -1  -1   7    6.75    0.34
  -1  -1   7    6.82    0.33
   1   1  -7    6.84    0.30
   1   1  -7    7.02    0.29
  -2   0   8  100.65    2.42
  -2   0   8   97.82    2.40
  -2   0   8   96.62    2.66
  -2   0   8   97.33    2.48
   2   0  -8   97.71    2.49
  -3   1   9   11.24    0.46
  -3   1   9   10.41    0.49
  -3   1   9   10.17    0.46
  -3   1   9   10.45    0.45
   3  -1  -9   10.06    0.47
  -4   2  10    1.19    0.21
  -4   2  10    1.30    0.19
  -4   2  10    1.37    0.20
  -4   2  10    1.44    0.20
   4  -2 -10    1.34    0.22
  -5   3  11    1.00    0.21
  -5   3  11    1.16    0.18
  -5   3  11    0.87    0.17
  -5   3  11    0.65    0.19
   5  -3 -11    0.76    0.19
  -6   4  12    1.88    0.24
  -6   4  12    1.55    0.27
  -6   4  12    1.77    0.24
  -6   4  12    1.67    0.29
   6  -4 -12    1.74    0.29
  -7   5  13    0.59    0.22
  -7   5  13    1.17    0.26
   7  -5 -13    0.97    0.27
  -8   6  14   18.86    0.92
   8  -6 -14   17.84    0.91
  -9   7  15    0.06    0.18
   9  -7 -15    0.00    0.17
   9  -7 -15    0.29    0.22
  10  -8 -16    0.46    0.25
 -12  12   5    1.49    0.36
 -11  11   4    4.18    0.51
 -10  10   3    4.87    0.51
  -9   9   2   12.20    0.69
  -8   8   1   22.84    0.78
  -8   8   1   22.22    0.94
   7  -7   0   22.83    0.73
  -7   7   0   22.39    0.91
   6  -6   1    8.38    0.38
   6  -6   1    8.68    0.33
   6  -6   1    8.05    0.36
  -6   6  -1    7.02    0.44
   5  -5   2   74.10    1.80
   5  -5   2   74.05    1.91
   5  -5   2   75.87    1.86
  -5   5  -2   72.77    2.12
   4  -4   3    7.14    0.34
   4  -4   3    6.39    0.31
  -4   4  -3    6.93    0.38
   3  -3   4  180.56    4.35
   3  -3   4  187.75    4.23
  -3   3  -4  179.00    4.69
   2  -2   5   68.08    1.68
   2  -2   5   65.20    1.73
  -2   2  -5   66.24    1.87
  -2   2  -5   68.21    1.62
   1  -1   6  151.50    3.89
   1  -1   6  148.18    3.63
   1  -1   6  151.29    3.52
   0   0   7   -0.04    0.06
   0   0   7    0.04    0.06
   0   0   7   -0.04    0.07
   0   0   7    0.04    0.07
   0   0   7    0.00    0.07
  -1   1   8  175.84    4.23
  -1   1   8  174.80    4.54
  -1   1   8  175.58    4.10
  -2   2   9    0.87    0.17
  -2   2   9    0.45    0.11
  -2   2   9    0.75    0.15
  -2   2   9    0.28    0.09
  -2   2   9    0.54    0.14
  -3   3  10   35.40    1.10
  -3   3  10   33.52    1.19
  -3   3  10   35.98    1.03
  -3   3  10   35.71    1.06
  -4   4  11   11.15    0.50
  -4   4  11   11.33    0.60
  -4   4  11   10.94    0.47
  -4   4  11   11.02    0.56
   4  -4 -11   11.20    0.60
  -5   5  12    0.33    0.18
  -5   5  12    0.65    0.20
   5  -5 -12    0.31    0.18
  -6   6  13    0.26    0.19
  -6   6  13    0.21    0.18
   6  -6 -13    0.69    0.25
  -7   7  14   10.94    0.66
  -7   7  14    9.55    0.67
   7  -7 -14    9.87    0.69
  -8   8  15    0.33    0.23
  -8   8  15    0.05    0.22
   8  -8 -15    0.15    0.23
   9  -9 -16    0.56    0.29
 -13  11   5   -0.03    0.21
 -12  10   4   11.80    0.71
 -11   9   3    3.99    0.44
 -10   8   2   36.90    1.15
 -10   8   2   36.99    1.33
   9  -7  -1   21.19    0.72
  -9   7   1   21.75    0.77
  -9   7   1   20.38    0.86
   8  -6   0   33.97    0.99
   8  -6   0   33.08    0.97
  -8   6   0   34.33    1.16
   7  -5   1    9.87    0.35
   7  -5   1    9.95    0.42
   7  -5   1    9.67    0.43
  -7   5  -1    9.66    0.49
   6  -4   2  114.07    2.81
   6  -4   2  116.15    2.73
   6  -4   2  112.49    2.69
  -6   4  -2  109.76    3.02
   5  -3   3  299.71    6.75
   5  -3   3  291.76    6.95
  -5   3  -3  298.56    7.45
   4  -2   4   15.86    0.53
   4  -2   4   15.03    0.54
   4  -2   4   15.96    0.41
  -4   2  -4   14.75    0.58
   3  -1   5   22.43    0.62
   3  -1   5   22.04    0.71
   3  -1   5   22.57    0.75
   3  -1   5   22.71    0.69
   2   0   6    6.85    0.33
   2   0   6    6.97    0.32
   2   0   6    6.73    0.29
   2   0   6    7.46    0.36
   2   0   6    6.90    0.28
   1   1   7   15.07    0.54
   1   1   7   14.61    0.52
   1   1   7   14.84    0.58
   1   1   7   14.91    0.53
   1   1   7   15.48    0.52
  -1   3   9    0.81    0.15
  -1   3   9    0.61    0.16
  -1   3   9    0.41    0.14
  -1   3   9    0.54    0.15
  -1   3   9    0.64    0.13
  -2   4  10   10.10    0.54
  -2   4  10    9.53    0.44
  -2   4  10    9.36    0.50
  -2   4  10   10.09    0.52
  -2   4  10   10.07    0.42
  -3   5  11   25.81    0.95
  -3   5  11   25.60    0.97
  -3   5  11   25.08    1.01
  -4   6  12    1.63    0.29
  -4   6  12    1.34    0.28
  -5   7  13    0.02    0.16
  -5   7  13   -0.02    0.17
   5  -7 -13   -0.11    0.16
  -6   8  14    5.15    0.57
  -6   8  14    4.97    0.53
   6  -8 -14    4.78    0.56
  -7   9  15    0.74    0.29
 -15  11   6    0.92    0.29
 -14  10   5    0.90    0.29
 -13   9   4   10.27    0.64
 -12   8   3    8.04    0.53
 -11   7   2   41.06    1.19
 -11   7   2   38.40    1.34
 -11   7   2   37.52    1.21
  10  -6  -1    0.13    0.11
  10  -6  -1    0.18    0.12
 -10   6   1    0.27    0.15
 -10   6   1    0.04    0.08
   9  -5   0    1.10    0.18
   9  -5   0    1.10    0.15
   9  -5   0    1.45    0.16
  -9   5   0    1.35    0.22
  -9   5   0    1.33    0.20
   8  -4   1   64.20    1.75
   8  -4   1   64.88    1.70
   8  -4   1   65.44    1.61
   8  -4   1   67.49    1.66
  -8   4  -1   65.82    1.87
   7  -3   2   39.56    1.01
   7  -3   2   39.12    1.13
   7  -3   2   38.60    1.09
  -7   3  -2   38.91    1.18
   6  -2   3   83.88    2.08
   6  -2   3   84.00    2.04
   6  -2   3   82.77    2.15
  -6   2  -3   86.04    2.27
   5  -1   4  558.54   12.50
   5  -1   4  559.80   13.10
   5  -1   4  553.89   12.87
  -5   1  -4  560.81   13.73
   4   0   5    0.07    0.08
   4   0   5    0.05    0.06
   4   0   5    0.01    0.05
   4   0   5    0.03    0.06
   4   0   5    0.05    0.07
   3   1   6    3.35    0.21
   3   1   6    3.38    0.23
   3   1   6    3.76    0.25
   3   1   6    3.53    0.24
   3   1   6    3.47    0.23
   2   2   7   45.86    1.23
   2   2   7   38.13    1.10
   2   2   7   32.73    1.10
   1   3   8    0.01    0.09
   1   3   8    0.03    0.08
   1   3   8    0.17    0.12
   1   3   8    0.10    0.09
   1   3   8    0.25    0.12
   0   4   9    7.07    0.43
   0   4   9    6.22    0.33
   0   4   9    7.19    0.34
   0   4   9    6.88    0.40
   0   4   9    6.68    0.42
  -1   5  10   31.39    1.09
  -1   5  10   30.41    1.06
  -1   5  10   29.54    1.12
  -2   6  11    0.03    0.15
  -2   6  11   -0.06    0.15
  -2   6  11    0.11    0.16
  -3   7  12    1.40    0.28
  -3   7  12    1.92    0.33
  -3   7  12    1.14    0.28
  -4   8  13    3.64    0.47
  -4   8  13    2.97    0.42
  -4   8  13    4.22    0.47
  -5   9  14    4.09    0.50
  -5   9  14    3.98    0.51
  -6  10  15    0.15    0.26
 -16  10   6   -0.06    0.20
 -15   9   5    4.43    0.49
 -14   8   4    6.55    0.49
 -13   7   3    2.68    0.30
 -13   7   3    3.08    0.33
 -13   7   3    3.29    0.37
 -12   6   2   40.51    1.34
 -12   6   2   40.74    1.28
 -12   6   2   40.18    1.23
  11  -5  -1    0.11    0.10
  11  -5  -1    0.20    0.11
  11  -5  -1    0.14    0.13
 -11   5   1    0.08    0.12
 -11   5   1    0.07    0.12
  10  -4   0    7.82    0.39
  10  -4   0    7.21    0.32
  10  -4   0    7.60    0.34
 -10   4   0    7.77    0.41
 -10   4   0    6.73    0.39
   9  -3   1   14.93    0.59
   9  -3   1   14.91    0.48
   9  -3   1   14.89    0.50
   9  -3   1   15.00    0.57
  -9   3  -1   15.54    0.58
   8  -2   2    3.24    0.25
   8  -2   2    3.26    0.19
   8  -2   2    3.43    0.26
   8  -2   2    3.30    0.19
  -8   2  -2    3.36    0.23
   7  -1   3    2.82    0.18
   7  -1   3    3.51    0.24
   7  -1   3    3.50    0.25
   7  -1   3    3.20    0.18
  -7   1  -3    3.23    0.22
   6   0   4   16.02    0.57
   6   0   4   16.28    0.52
   6   0   4   15.48    0.58
   6   0   4   17.08    0.57
   6   0   4   16.54    0.54
   5   1   5    6.45    0.30
   5   1   5    6.78    0.32
   5   1   5    6.61    0.32
   5   1   5    6.42    0.32
   5   1   5    6.47    0.32
   3   3   7   57.83    1.54
   3   3   7   58.46    1.63
   3   3   7   57.95    1.68
   3   3   7   58.64    1.49
   3   3   7   56.66    1.57
   2   4   8   -0.02    0.10
   2   4   8    0.09    0.09
   2   4   8    0.12    0.12
   2   4   8    0.02    0.10
   2   4   8    0.02    0.08
   1   5   9    0.22    0.15
   1   5   9    0.23    0.15
   1   5   9    0.28    0.16
   0   6  10    5.18    0.42
   0   6  10    4.48    0.45
   0   6  10    5.46    0.43
  -1   7  11    5.96    0.46
  -1   7  11    6.43    0.50
  -1   7  11    6.74    0.50
  -2   8  12   -0.07    0.17
  -2   8  12    0.65    0.22
  -2   8  12    0.15    0.18
  -3   9  13    0.20    0.22
  -3   9  13    0.41    0.25
  -3   9  13    0.45    0.23
  -4  10  14    0.47    0.25
 -15   7   4    3.35    0.38
 -15   7   4    2.95    0.34
 -15   7   4    3.39    0.36
 -14   6   3   11.14    0.57
 -14   6   3   10.87    0.56
 -14   6   3   10.79    0.55
  13  -5  -2   44.80    1.34
 -13   5   2   48.13    1.39
 -13   5   2   44.25    1.41
 -13   5   2   45.92    1.42
  12  -4  -1    0.11    0.11
  12  -4  -1    0.15    0.11
 -12   4   1    0.36    0.15
 -12   4   1    0.25    0.13
  11  -3   0    5.77    0.31
  11  -3   0    6.18    0.32
  11  -3   0    6.48    0.38
 -11   3   0    6.36    0.34
 -11   3   0    6.52    0.39
  10  -2   1  195.79    4.67
  10  -2   1  195.47    4.78
  10  -2   1  193.01    4.65
 -10   2  -1  207.51    5.01
   9  -1   2   31.97    0.96
   9  -1   2   32.42    0.92
   9  -1   2   30.62    0.98
   9  -1   2   31.84    0.89
  -9   1  -2   31.61    0.95
   8   0   3   -0.05    0.06
   8   0   3    0.06    0.09
   8   0   3    0.08    0.07
   8   0   3   -0.13    0.07
  -8   0  -3    0.21    0.08
   7   1   4   48.43    1.35
   7   1   4   46.91    1.30
   7   1   4   47.16    1.33
   7   1   4   50.32    1.31
   7   1   4   48.02    1.35
   6   2   5    2.13    0.21
   6   2   5    1.79    0.20
   6   2   5    2.13    0.21
   5   3   6   25.73    0.86
   5   3   6   25.12    0.77
   5   3   6   25.42    0.84
   5   3   6   26.87    0.81
   5   3   6   25.02    0.86
   4   4   7    9.64    0.49
   4   4   7   10.25    0.41
   4   4   7    9.16    0.47
   4   4   7   10.07    0.42
   3   5   8    1.37    0.23
   3   5   8    1.54    0.25
   3   5   8    1.43    0.24
   2   6   9    0.12    0.14
   2   6   9   -0.01    0.14
   2   6   9    0.13    0.15
   1   7  10   65.97    2.08
   1   7  10   64.93    1.95
   0   8  11    2.57    0.38
   0   8  11    1.55    0.31
   0   8  11    1.61    0.31
  -1   9  12    6.91    0.56
  -1   9  12    5.48    0.58
  -1   9  12    5.97    0.58
  -2  10  13    5.43    0.58
 -17   7   5   -0.03    0.16
 -17   7   5   -0.05    0.16
 -16   6   4    2.01    0.30
 -16   6   4    2.37    0.31
 -15   5   3    0.30    0.16
 -15   5   3    0.12    0.14
  14  -4  -2    0.17    0.13
  14  -4  -2    0.06    0.12
 -14   4   2    0.18    0.15
 -14   4   2    0.22    0.16
  13  -3  -1    1.73    0.22
  13  -3  -1    1.78    0.22
 -13   3   1    1.40    0.23
 -13   3   1    1.36    0.23
  12  -2   0   12.99    0.58
  12  -2   0   13.88    0.52
  12  -2   0   13.19    0.53
 -12   2   0   13.83    0.61
  11  -1   1   16.57    0.58
  11  -1   1   16.79    0.63
  11  -1   1   16.40    0.60
 -11   1  -1   17.22    0.56
 -11   1  -1   16.27    0.66
  10   0   2    0.42    0.13
  10   0   2    0.38    0.11
  10   0   2    0.42    0.11
 -10   0  -2    0.34    0.09
   9   1   3    3.86    0.27
   9   1   3    3.82    0.28
   9   1   3    3.46    0.29
   9   1   3    4.20    0.27
   8   2   4  120.47    2.98
   8   2   4  117.63    2.88
   8   2   4  119.20    3.08
   7   3   5   61.70    1.69
   7   3   5   63.06    1.66
   7   3   5   59.90    1.59
   7   3   5   61.05    1.73
   7   3   5   62.15    1.72
   6   4   6   12.44    0.57
   6   4   6   12.10    0.54
   6   4   6   12.47    0.53
   6   4   6   11.49    0.48
   6   4   6   11.92    0.47
   5   5   7   13.16    0.62
   5   5   7   13.66    0.64
   5   5   7   14.13    0.62
   4   6   8   54.27    1.65
   4   6   8   56.11    1.71
   3   7   9    1.37    0.28
   3   7   9    1.42    0.29
   3   7   9    1.53    0.28
   2   8  10    3.93    0.45
   2   8  10    4.60    0.47
   2   8  10    4.50    0.49
   1   9  11    0.74    0.27
   1   9  11    1.57    0.33
   1   9  11    1.32    0.31
   0  10  12    2.58    0.42
   0  10  12    2.66    0.42
 -19   7   6   11.59    0.65
 -19   7   6   11.35    0.67
 -18   6   5   -0.16    0.16
 -18   6   5   -0.33    0.16
 -17   5   4    5.22    0.43
 -17   5   4    5.41    0.48
  16  -4  -3    6.56    0.41
  16  -4  -3    6.67    0.43
 -16   4   3    6.61    0.45
 -16   4   3    6.51    0.46
  15  -3  -2    4.03    0.33
  15  -3  -2    4.22    0.33
 -15   3   2    4.37    0.41
 -15   3   2    3.92    0.39
  14  -2  -1    3.38    0.31
  14  -2  -1    3.35    0.32
 -14   2   1    3.09    0.34
 -14   2   1    3.05    0.33
  13  -1   0   56.61    1.59
  13  -1   0   56.84    1.55
 -13   1   0   54.46    1.64
  12   0   1    0.16    0.11
  12   0   1   -0.01    0.12
  12   0   1    0.03    0.09
 -12   0  -1   -0.05    0.10
  11   1   2    2.79    0.27
  11   1   2    3.32    0.27
  11   1   2    3.57    0.31
 -11  -1  -2    3.41    0.32
  10   2   3   20.53    0.73
  10   2   3   19.70    0.74
  10   2   3   20.59    0.72
 -10  -2  -3   22.36    0.78
   9   3   4   54.80    1.54
   9   3   4   53.60    1.58
   8   4   5   80.40    2.19
   8   4   5   78.44    2.13
   8   4   5   78.82    1.99
   8   4   5   77.95    2.06
   8   4   5   76.88    2.15
   7   5   6  150.27    3.90
   7   5   6  148.22    3.75
   7   5   6  145.50    3.84
   6   6   7   21.63    0.87
   6   6   7   23.69    0.91
   6   6   7   23.61    0.94
   5   7   8    1.77    0.29
   5   7   8    1.65    0.30
   5   7   8    2.27    0.33
   4   8   9   21.51    0.95
   4   8   9   22.69    0.99
   4   8   9   21.68    0.96
   3   9  10   11.36    0.69
   3   9  10   10.40    0.66
   3   9  10    9.67    0.65
   2  10  11    2.24    0.40
   2  10  11    2.53    0.41
   1  11  12   12.06    0.79
 -21   7   7    0.21    0.24
 -21   7   7    0.42    0.23
 -20   6   6   10.18    0.65
 -20   6   6   11.15    0.65
 -19   5   5    0.60    0.23
 -19   5   5    0.26    0.20
  18  -4  -4    0.24    0.16
 -18   4   4    0.20    0.18
 -18   4   4    0.35    0.19
  17  -3  -3   18.62    0.76
  17  -3  -3   16.50    0.71
 -17   3   3   17.82    0.80
 -17   3   3   18.65    0.79
  16  -2  -2    0.14    0.14
  16  -2  -2    0.49    0.17
 -16   2   2    0.49    0.19
 -16   2   2    0.56    0.19
  15  -1  -1    5.82    0.38
  15  -1  -1    4.97    0.37
 -15   1   1    5.17    0.40
 -15   1   1    5.89    0.41
  14   0   0   45.72    1.40
  14   0   0   46.30    1.37
 -14   0   0   47.27    1.41
 -14   0   0   47.36    1.47
  12   2   2   11.96    0.55
  12   2   2   12.48    0.57
  12   2   2   12.84    0.56
 -12  -2  -2   11.53    0.56
  11   3   3    0.68    0.18
  11   3   3    0.81    0.18
  11   3   3    0.95    0.20
 -11  -3  -3    0.65    0.17
  10   4   4   40.86    1.17
  10   4   4   39.49    1.30
  10   4   4   39.45    1.26
 -10  -4  -4   39.68    1.22
   9   5   5    4.99    0.44
   9   5   5    5.23    0.42
   8   6   6    6.16    0.45
   8   6   6    6.18    0.46
   7   7   7   28.92    1.15
   7   7   7   32.26    1.16
   6   8   8    8.89    0.58
   6   8   8    8.63    0.59
   5   9   9    2.05    0.37
   5   9   9    0.99    0.28
   4  10  10    0.64    0.27
   3  11  11    1.01    0.32
 -23   7   8    0.27    0.26
 -22   6   7    0.58    0.27
 -22   6   7    1.00    0.32
 -21   5   6   13.16    0.72
 -21   5   6   11.71    0.72
 -20   4   5    2.46    0.37
 -20   4   5    1.93    0.33
  19  -3  -4    4.22    0.42
  19  -3  -4    3.65    0.39
 -19   3   4    3.53    0.42
 -19   3   4    4.03    0.43
  18  -2  -3    6.19    0.43
  18  -2  -3    6.74    0.46
 -18   2   3    6.43    0.47
 -18   2   3    6.83    0.49
  17  -1  -2    3.28    0.36
  17  -1  -2    2.46    0.31
 -17   1   2    3.35    0.38
 -17   1   2    3.16    0.37
  16   0  -1   -0.06    0.06
  16   0  -1    0.00    0.06
 -16   0   1    0.08    0.14
 -16   0   1   -0.03    0.13
  15   1   0   32.85    1.13
  15   1   0   34.57    1.11
 -15  -1   0   33.82    1.16
 -15  -1   0   32.09    1.11
  14   2   1    4.96    0.38
  14   2   1    4.52    0.36
 -14  -2  -1    5.35    0.39
 -14  -2  -1    4.28    0.34
  13   3   2    2.78    0.32
  13   3   2    2.80    0.33
 -13  -3  -2    2.17    0.30
 -13  -3  -2    2.91    0.32
  12   4   3   40.93    1.33
  12   4   3   37.72    1.26
 -12  -4  -3   39.58    1.25
 -12  -4  -3   39.19    1.20
  11   5   4   13.70    0.68
  11   5   4   13.39    0.65
  10   6   5   -0.25    0.13
  10   6   5   -0.04    0.14
   9   7   6   17.76    0.84
   9   7   6   17.91    0.81
   8   8   7   30.36    1.22
   8   8   7   30.17    1.17
   7   9   8   10.95    0.70
   7   9   8   11.75    0.70
   6  10   9    0.40    0.23
   5  11  10   -0.05    0.24
 -23   5   7    1.06    0.31
 -22   4   6    3.20    0.43
 -22   4   6    3.93    0.49
 -21   3   5   10.69    0.65
 -21   3   5   12.45    0.72
 -20   2   4   21.10    0.95
 -20   2   4   21.39    0.92
  19  -1  -3    4.39    0.42
  19  -1  -3    3.52    0.38
 -19   1   3    3.82    0.43
 -19   1   3    4.34    0.45
  18   0  -2   39.87    1.31
  18   0  -2   39.68    1.34
 -18   0   2   39.70    1.33
 -18   0   2   39.33    1.37
  17   1  -1   60.63    1.84
  17   1  -1   64.30    1.82
 -17  -1   1   60.09    1.80
 -17  -1   1   59.03    1.85
  16   2   0    7.20    0.47
  16   2   0    6.10    0.44
 -16  -2   0    5.74    0.44
 -16  -2   0    6.41    0.46
  15   3   1   34.18    1.21
  15   3   1   36.59    1.20
 -15  -3  -1   34.37    1.15
 -15  -3  -1   32.30    1.16
  14   4   2   21.97    0.88
  14   4   2   21.86    0.90
 -14  -4  -2   21.46    0.82
 -14  -4  -2   20.14    0.83
  13   5   3   22.00    0.90
  13   5   3   21.16    0.91
 -13  -5  -3   21.20    0.80
  12   6   4    0.93    0.25
  12   6   4    0.54    0.21
  11   7   5    0.53    0.23
  11   7   5    0.30    0.21
  10   8   6   14.95    0.80
  10   8   6   14.02    0.76
   9   9   7    5.50    0.57
   9   9   7    6.61    0.55
   8  10   8    7.14    0.58
   7  11   9    1.32    0.35
 -24   4   7    2.86    0.44
 -23   3   6    2.58    0.41
 -23   3   6    2.78    0.44
  22  -2  -5    4.40    0.47
 -22   2   5    4.39    0.48
 -22   2   5    3.60    0.47
  21  -1  -4    8.83    0.57
  21  -1  -4    9.34    0.59
 -21   1   4    7.59    0.57
 -21   1   4    8.63    0.59
  20   0  -3    0.13    0.17
  20   0  -3   -0.07    0.14
 -20   0   3    0.20    0.18
 -20   0   3   -0.02    0.16
  19   1  -2    0.27    0.18
  19   1  -2    0.75    0.23
 -19  -1   2    0.79    0.25
 -19  -1   2    0.50    0.21
  18   2  -1    6.60    0.49
  18   2  -1    6.70    0.48
 -18  -2   1    6.87    0.50
 -18  -2   1    6.24    0.47
  17   3   0   16.47    0.78
  17   3   0   15.59    0.74
 -17  -3   0   16.37    0.75
 -17  -3   0   16.11    0.73
  16   4   1   10.86    0.62
  16   4   1   10.50    0.62
 -16  -4  -1   10.37    0.57
 -16  -4  -1   10.44    0.58
  15   5   2   47.28    1.58
  15   5   2   49.28    1.56
 -15  -5  -2   43.12    1.40
  14   6   3   -0.11    0.17
  14   6   3    0.15    0.18
  13   7   4    1.69    0.34
  13   7   4    2.04    0.36
  12   8   5    1.49    0.33
  12   8   5    1.76    0.35
  11   9   6    0.46    0.25
  11   9   6    0.82    0.28
  10  10   7   -0.06    0.19
 -25   3   7    9.02    0.68
 -24   2   6    1.06    0.30
  23  -1  -5    1.95    0.34
  23  -1  -5    2.05    0.36
 -23   1   5    1.77    0.34
 -23   1   5    1.95    0.38
  22   0  -4    4.23    0.47
  22   0  -4    4.82    0.51
 -22   0   4    4.28    0.51
 -22   0   4    3.80    0.47
  21   1  -3    4.22    0.47
  21   1  -3    4.43    0.47
 -21  -1   3    4.14    0.47
 -21  -1   3    4.16    0.47
  20   2  -2    3.91    0.44
  20   2  -2    3.61    0.43
 -20  -2   2    4.08    0.45
 -20  -2   2    4.45    0.48
  19   3  -1    0.02    0.17
  19   3  -1    0.07    0.17
 -19  -3   1    0.04    0.18
 -19  -3   1    0.05    0.18
  18   4   0    0.51    0.21
  18   4   0    0.87    0.26
 -18  -4   0    0.70    0.23
 -18  -4   0    0.78    0.23
  17   5   1    7.79    0.55
  17   5   1    8.82    0.59
 -17  -5  -1    6.98    0.50
  16   6   2   21.69    1.01
  16   6   2   23.15    0.99
  15   7   3    7.10    0.66
  15   7   3    6.45    0.54
  14   8   4    1.28    0.34
  14   8   4    0.65    0.25
  13   9   5    6.68    0.65
  12  10   6    4.16    0.54
  25  -1  -6    1.25    0.33
 -25   1   6    1.31    0.34
  24   0  -5    0.13    0.21
  24   0  -5   -0.03    0.20
 -24   0   5    0.13    0.21
  23   1  -4   11.48    0.72
  23   1  -4   12.52    0.73
 -23  -1   4   13.76    0.77
 -23  -1   4   11.09    0.73
  22   2  -3   10.80    0.69
  22   2  -3   10.50    0.66
 -22  -2   3   10.00    0.66
 -22  -2   3   10.54    0.69
  21   3  -2   20.03    0.95
  21   3  -2   22.60    1.01
 -21  -3   2   20.79    0.94
 -21  -3   2   21.17    0.98
  20   4  -1    5.22    0.53
  20   4  -1    5.74    0.57
 -20  -4   1    5.51    0.53
 -20  -4   1    5.62    0.53
  19   5   0    0.25    0.20
  19   5   0    0.53    0.25
 -19  -5   0    0.22    0.20
  18   6   1    0.30    0.23
  18   6   1    0.33    0.23
  17   7   2    3.66    0.48
  17   7   2    3.54    0.47
  16   8   3   -0.09    0.21
  15   9   4    2.02    0.39
  25   1  -5    1.06    0.31
 -25  -1   5    1.12    0.33
  24   2  -4    4.88    0.54
 -24  -2   4    4.66    0.54
  23   3  -3    2.48    0.42
  23   3  -3    2.19    0.39
 -23  -3   3    2.19    0.40
  22   4  -2    6.07    0.62
  22   4  -2    4.93    0.55
 -22  -4   2    5.24    0.56
 -22  -4   2    4.00    0.49
  21   5  -1   -0.08    0.19
  21   5  -1    0.12    0.23
 -21  -5   1   -0.22    0.20
  20   6   0    0.59    0.27
  19   7   1    0.17    0.23
  18   8   2    4.06    0.55
  23   5  -2    5.00    0.58
  16  10 -11    0.42    0.26
  17   9 -12    2.36    0.41
  17   9 -12    2.18    0.40
 -18  -8  13    3.66    0.47
 -18  -8  13    4.10    0.49
  18   8 -13    3.07    0.46
  18   8 -13    3.47    0.48
 -19  -7  14   12.08    0.74
  19   7 -14   11.12    0.73
 -20  -6  15    0.20    0.26
  20   6 -15   -0.04    0.20
 -21  -5  16   -0.48    0.21
  21   5 -16    0.26    0.28
  14  10 -10    0.78    0.27
  15   9 -11    0.06    0.20
  15   9 -11    0.07    0.20
 -16  -8  12    0.58    0.23
 -16  -8  12    0.75    0.26
  16   8 -12    0.30    0.24
  16   8 -12    0.72    0.27
 -17  -7  13    2.33    0.39
 -17  -7  13    2.27    0.37
  17   7 -13    2.95    0.42
  17   7 -13    2.30    0.39
 -18  -6  14    9.85    0.68
 -18  -6  14    9.72    0.65
  18   6 -14   10.06    0.66
  18   6 -14   10.00    0.68
 -19  -5  15    4.23    0.50
  19   5 -15    3.77    0.50
  19   5 -15    4.90    0.55
 -20  -4  16    0.88    0.30
  20   4 -16    0.87    0.31
 -21  -3  17   -0.08    0.24
  21   3 -17    0.14    0.23
  12  10  -9    4.06    0.46
  13   9 -10    3.66    0.44
  13   9 -10    4.76    0.49
 -14  -8  11    0.31    0.21
 -14  -8  11    0.37    0.21
  14   8 -11    0.21    0.21
  14   8 -11    0.15    0.20
 -15  -7  12    0.43    0.20
 -15  -7  12   -0.15    0.17
  15   7 -12    0.04    0.19
  15   7 -12   -0.18    0.16
 -16  -6  13    1.29    0.30
 -16  -6  13    1.09    0.28
  16   6 -13    1.29    0.30
  16   6 -13    0.59    0.25
 -17  -5  14   22.89    1.03
 -17  -5  14   23.00    1.00
  17   5 -14   21.22    0.97
  17   5 -14   21.91    1.00
 -18  -4  15    7.04    0.55
 -18  -4  15    6.68    0.56
  18   4 -15    6.57    0.56
  18   4 -15    8.53    0.59
 -19  -3  16    0.66    0.27
  19   3 -16    0.23    0.24
  19   3 -16    0.58    0.28
 -20  -2  17    2.95    0.45
  20   2 -17    3.17    0.47
   6  14  -4    1.60    0.41
   7  13  -5    2.55    0.44
   8  12  -6   -0.18    0.19
   9  11  -7    0.03    0.19
  11   9  -9    3.14    0.38
  11   9  -9    3.35    0.40
 -12  -8  10   20.62    0.85
 -12  -8  10   19.26    0.82
  12   8 -10   19.68    0.87
  12   8 -10   21.23    0.87
 -13  -7  11    0.94    0.25
 -13  -7  11    0.16    0.19
  13   7 -11    0.09    0.19
  13   7 -11    0.34    0.21
 -14  -6  12    0.06    0.18
 -14  -6  12   -0.24    0.15
  14   6 -12    0.01    0.17
  14   6 -12   -0.22    0.15
 -15  -5  13    1.21    0.28
 -15  -5  13    1.85    0.33
  15   5 -13    1.87    0.32
  15   5 -13    1.37    0.30
 -16  -4  14   25.40    1.09
 -16  -4  14   25.57    1.05
  16   4 -14   27.21    1.07
  16   4 -14   27.53    1.12
 -17  -3  15    8.97    0.60
 -17  -3  15    9.75    0.64
  17   3 -15    9.50    0.64
  17   3 -15    7.60    0.56
 -18  -2  16    5.45    0.56
 -18  -2  16    5.30    0.54
  18   2 -16    6.40    0.62
  18   2 -16    4.65    0.52
 -19  -1  17    1.04    0.31
  19   1 -17    1.38    0.34
 -20   0  18    0.03    0.23
  20   0 -18    0.65    0.28
   4  14  -3    2.66    0.48
   5  13  -4    6.52    0.66
   6  12  -5    0.13    0.25
   7  11  -6    4.70    0.53
   8  10  -7    1.57    0.32
   9   9  -8   23.52    1.04
   9   9  -8   26.61    0.96
   9   9  -8   25.52    0.97
 -10  -8   9   13.04    0.63
 -10  -8   9   12.86    0.60
  10   8  -9   13.24    0.64
  10   8  -9   12.08    0.63
 -11  -7  10   37.13    1.25
 -11  -7  10   35.79    1.20
  11   7 -10   37.76    1.34
  11   7 -10   36.77    1.26
  11   7 -10   37.58    1.23
 -12  -6  11    0.13    0.17
 -12  -6  11   -0.06    0.15
  12   6 -11    0.04    0.16
  12   6 -11   -0.07    0.15
  12   6 -11   -0.09    0.15
 -13  -5  12    0.11    0.15
 -13  -5  12    0.31    0.18
  13   5 -12    0.17    0.18
  13   5 -12    0.07    0.16
  13   5 -12    0.43    0.19
 -14  -4  13   19.90    0.92
 -14  -4  13   24.04    0.95
  14   4 -13   23.48    0.93
  14   4 -13   23.68    0.97
  14   4 -13   22.36    0.95
 -15  -3  14    3.26    0.41
 -15  -3  14    2.14    0.35
  15   3 -14    2.28    0.36
  15   3 -14    2.37    0.36
 -16  -2  15    4.61    0.48
 -16  -2  15    3.63    0.45
  16   2 -15    4.57    0.50
  16   2 -15    4.92    0.50
 -17  -1  16   17.73    0.90
 -17  -1  16   18.71    0.89
  17   1 -16   18.80    0.93
  17   1 -16   17.21    0.87
 -18   0  17   -0.16    0.17
 -18   0  17   -0.15    0.18
  18   0 -17   -0.10    0.21
  18   0 -17   -0.12    0.20
 -19   1  18    0.49    0.27
  19  -1 -18    0.46    0.28
   2  14  -2    0.41    0.32
   3  13  -3    0.07    0.23
   4  12  -4   19.50    1.01
   5  11  -5   25.59    1.14
   6  10  -6    9.99    0.66
   7   9  -7    0.23    0.21
  -8  -8   8    1.40    0.23
  -8  -8   8    1.21    0.21
   8   8  -8    1.12    0.22
   8   8  -8    1.20    0.27
   8   8  -8    1.26    0.22
  -9  -7   9    5.08    0.38
  -9  -7   9    5.18    0.37
   9   7  -9    5.43    0.37
   9   7  -9    5.26    0.39
   9   7  -9    5.45    0.44
 -10  -6  10   19.06    0.78
 -10  -6  10   20.04    0.81
  10   6 -10   20.00    0.78
  10   6 -10   20.19    0.81
 -11  -5  11    0.14    0.15
 -11  -5  11    0.07    0.14
  11   5 -11   -0.01    0.07
  11   5 -11    0.05    0.14
  11   5 -11   -0.03    0.14
 -12  -4  12    0.13    0.16
 -12  -4  12    0.10    0.16
  12   4 -12    0.02    0.10
  12   4 -12    0.00    0.15
  12   4 -12   -0.02    0.14
 -13  -3  13    4.33    0.38
 -13  -3  13    5.12    0.42
 -13  -3  13    4.11    0.42
  13   3 -13    4.23    0.44
  13   3 -13    4.58    0.44
 -14  -2  14   -0.08    0.13
 -14  -2  14   -0.19    0.14
 -14  -2  14    0.08    0.16
  14   2 -14   -0.19    0.14
  14   2 -14   -0.18    0.15
 -15  -1  15    7.59    0.53
 -15  -1  15    8.22    0.57
 -15  -1  15    7.30    0.51
  15   1 -15    8.69    0.57
  15   1 -15    9.04    0.60
 -16   0  16   34.19    1.31
 -16   0  16   32.69    1.29
 -16   0  16   33.70    1.26
  16   0 -16   35.08    1.35
  16   0 -16   34.70    1.31
 -17   1  17    1.20    0.28
 -17   1  17    0.87    0.28
  17  -1 -17    1.41    0.33
  17  -1 -17    1.21    0.34
 -18   2  18    0.75    0.27
  18  -2 -18    1.22    0.35
   1  13  -2    0.07    0.25
   2  12  -3    4.31    0.54
   3  11  -4   46.87    1.71
   4  10  -5   11.91    0.70
   5   9  -6   15.12    0.77
  -6  -8   7   29.69    0.95
  -6  -8   7   30.40    0.99
   6   8  -7   29.60    0.99
   6   8  -7   31.27    0.98
   6   8  -7   29.05    1.15
  -7  -7   8    4.55    0.32
  -7  -7   8    4.84    0.34
   7   7  -8    4.26    0.43
   7   7  -8    4.03    0.32
   7   7  -8    4.24    0.33
  -8  -6   9    0.24    0.15
  -8  -6   9    0.21    0.14
   8   6  -9   -0.01    0.14
   8   6  -9    0.09    0.12
   8   6  -9    0.17    0.14
  -9  -5  10   33.94    1.15
  -9  -5  10   33.66    1.10
   9   5 -10   34.54    1.09
   9   5 -10   32.82    1.20
   9   5 -10   35.59    1.13
 -10  -4  11    0.20    0.16
 -10  -4  11   -0.21    0.11
  10   4 -11    0.13    0.15
  10   4 -11    0.21    0.14
  10   4 -11    0.03    0.13
 -11  -3  12    1.82    0.27
 -11  -3  12    1.78    0.28
 -11  -3  12    1.80    0.28
  11   3 -12    1.97    0.29
  11   3 -12    1.87    0.28
 -12  -2  13    0.04    0.14
 -12  -2  13    0.14    0.14
 -12  -2  13    0.14    0.15
  12   2 -13    0.38    0.19
  12   2 -13    0.01    0.14
 -13  -1  14    4.29    0.42
 -13  -1  14    3.47    0.40
 -13  -1  14    3.07    0.38
  13   1 -14    3.83    0.41
  13   1 -14    2.98    0.37
 -14   0  15   -0.07    0.16
 -14   0  15    0.13    0.16
 -14   0  15   -0.06    0.15
  14   0 -15   -0.15    0.16
  14   0 -15    0.03    0.17
 -15   1  16   25.40    1.05
 -15   1  16   22.77    0.98
 -15   1  16   24.26    1.03
  15  -1 -16   24.97    1.10
  15  -1 -16   22.30    1.02
 -16   2  17    3.90    0.47
 -16   2  17    4.17    0.46
 -16   2  17    4.50    0.51
  16  -2 -17    3.53    0.48
  16  -2 -17    4.91    0.57
 -17   3  18    3.00    0.41
 -17   3  18    2.06    0.37
 -17   3  18    2.72    0.41
  17  -3 -18    2.76    0.45
  -1  13  -1    2.36    0.44
   0  12  -2    0.71    0.28
   1  11  -3    5.23    0.56
   2  10  -4   23.80    1.05
   3   9  -5   11.70    0.68
  -4  -8   6   42.52    1.19
  -4  -8   6   41.85    1.23
   4   8  -6   43.60    1.24
   4   8  -6   41.42    1.46
  -5  -7   7    0.10    0.11
  -5  -7   7    0.02    0.12
   5   7  -7    0.28    0.13
   5   7  -7    0.31    0.12
   5   7  -7    0.23    0.15
  -6  -6   8    0.24    0.13
  -6  -6   8    0.13    0.12
   6   6  -8    0.06    0.11
   6   6  -8    1.30    0.25
   6   6  -8    0.15    0.12
  -7  -5   9    0.20    0.14
  -7  -5   9    0.12    0.11
   7   5  -9    0.04    0.13
   7   5  -9    0.21    0.12
   7   5  -9    0.02    0.10
  -8  -4  10   15.53    0.66
  -8  -4  10   17.04    0.70
   8   4 -10   17.83    0.68
   8   4 -10   16.45    0.73
   8   4 -10   16.88    0.64
  -9  -3  11    0.27    0.14
  -9  -3  11    0.65    0.18
  -9  -3  11    0.78    0.19
   9   3 -11    0.88    0.20
   9   3 -11    0.76    0.18
 -10  -2  12   19.24    0.80
 -10  -2  12   19.55    0.80
 -10  -2  12   18.94    0.76
  10   2 -12   18.27    0.77
  10   2 -12   18.66    0.75
 -11  -1  13   -0.06    0.13
 -11  -1  13    0.30    0.17
 -11  -1  13    0.07    0.14
  11   1 -13    0.12    0.15
  11   1 -13    0.01    0.16
 -12   0  14    0.73    0.22
 -12   0  14    1.29    0.25
 -12   0  14    0.94    0.23
  12   0 -14    0.90    0.24
  12   0 -14    0.92    0.24
 -13   1  15    0.99    0.24
 -13   1  15    0.44    0.20
 -13   1  15    0.52    0.20
  13  -1 -15    0.44    0.22
  13  -1 -15    1.06    0.27
 -14   2  16    8.85    0.59
 -14   2  16    8.91    0.58
 -14   2  16    8.52    0.55
  14  -2 -16    8.04    0.60
  14  -2 -16    8.86    0.63
 -15   3  17    1.49    0.31
 -15   3  17    1.80    0.32
 -15   3  17    1.30    0.29
  15  -3 -17    1.69    0.36
  15  -3 -17    1.18    0.31
 -16   4  18    3.93    0.46
  16  -4 -18    4.10    0.54
  -3  13   0    5.43    0.62
  -2  12  -1    1.21    0.32
  -1  11  -2   -0.05    0.22
   0  10  -3   11.70    0.69
   1   9  -4    1.32    0.28
  -2  -8   5    0.77    0.14
  -2  -8   5    0.30    0.12
   2   8  -5    0.62    0.22
  -3  -7   6   57.04    1.48
  -3  -7   6   54.14    1.52
   3   7  -6   53.37    1.45
   3   7  -6   57.32    1.50
   3   7  -6   55.18    1.76
  -4  -6   7    1.60    0.21
  -4  -6   7    1.60    0.21
   4   6  -7    1.93    0.29
   4   6  -7    1.79    0.20
   4   6  -7    1.94    0.20
  -5  -5   8    3.39    0.26
  -5  -5   8    2.95    0.29
   5   5  -8    3.17    0.25
   5   5  -8    2.52    0.31
   5   5  -8    2.82    0.25
  -6  -4   9    0.21    0.12
  -6  -4   9    0.01    0.09
   6   4  -9    0.03    0.09
   6   4  -9    0.01    0.11
   6   4  -9    0.20    0.12
  -7  -3  10   26.91    0.96
  -7  -3  10   24.96    0.87
  -7  -3  10   25.90    0.91
   7   3 -10   25.61    0.84
   7   3 -10   25.47    0.87
  -8  -2  11    2.65    0.31
  -8  -2  11    3.27    0.33
  -8  -2  11    3.22    0.33
   8   2 -11    2.45    0.28
   8   2 -11    2.65    0.28
  -9  -1  12   55.94    1.73
  -9  -1  12   54.05    1.64
  -9  -1  12   55.83    1.60
   9   1 -12   54.04    1.60
   9   1 -12   55.45    1.66
 -10   0  13   -0.01    0.13
 -10   0  13    0.13    0.14
 -10   0  13   -0.12    0.10
  10   0 -13   -0.05    0.15
  10   0 -13   -0.13    0.13
 -11   1  14    0.21    0.15
 -11   1  14    0.44    0.19
 -11   1  14    0.08    0.14
  11  -1 -14    0.44    0.20
  11  -1 -14    0.55    0.21
 -12   2  15   11.94    0.62
 -12   2  15   11.77    0.64
 -12   2  15   12.01    0.67
  12  -2 -15   11.59    0.66
  12  -2 -15   12.20    0.70
 -13   3  16    5.37    0.46
 -13   3  16    4.59    0.46
 -13   3  16    5.25    0.48
  13  -3 -16    5.60    0.55
  13  -3 -16    5.29    0.55
 -14   4  17    3.10    0.39
 -14   4  17    2.87    0.42
  14  -4 -17    2.77    0.45
  14  -4 -17    2.64    0.42
  15  -5 -18    7.87    0.64
  -5  13   1    1.18    0.35
  -4  12   0    9.42    0.69
  -3  11  -1    0.78    0.27
  -2  10  -2    0.03    0.18
  -1   9  -3   11.00    0.65
   0  -8   4    0.95    0.15
   0  -8   4    0.69    0.13
   0   8  -4    0.61    0.21
  -1  -7   5    2.30    0.23
  -1  -7   5    2.72    0.21
   1   7  -5    2.25    0.19
   1   7  -5    2.12    0.31
  -2  -6   6  164.07    3.85
  -2  -6   6  163.25    3.97
   2   6  -6  157.50    4.36
   2   6  -6  168.76    3.95
   2   6  -6  163.40    3.85
  -3  -5   7   67.47    1.73
  -3  -5   7   64.18    1.78
   3   5  -7   67.51    1.72
   3   5  -7   66.54    1.67
   3   5  -7   66.06    1.99
  -4  -4   8    3.18    0.25
  -4  -4   8    3.29    0.29
   4   4  -8    3.36    0.22
   4   4  -8    3.40    0.24
   4   4  -8    2.92    0.32
  -5  -3   9   21.16    0.77
  -5  -3   9   21.54    0.75
   5   3  -9   21.84    0.72
   5   3  -9   21.53    0.69
  -6  -2  10    3.56    0.32
  -6  -2  10    3.12    0.31
  -6  -2  10    2.04    0.26
   6   2 -10    2.32    0.24
   6   2 -10    2.97    0.28
  -7  -1  11    1.24    0.21
  -7  -1  11    0.99    0.20
  -7  -1  11    1.47    0.23
   7   1 -11    1.47    0.22
   7   1 -11    1.98    0.25
  -8   0  12   39.94    1.27
  -8   0  12   38.14    1.32
  -8   0  12   39.52    1.22
   8   0 -12   38.66    1.23
   8   0 -12   40.27    1.29
  -9   1  13    1.40    0.24
  -9   1  13    1.15    0.22
  -9   1  13    0.75    0.21
   9  -1 -13    0.90    0.21
   9  -1 -13    0.74    0.22
 -10   2  14    4.50    0.40
 -10   2  14    4.96    0.39
 -10   2  14    4.74    0.42
  10  -2 -14    4.74    0.45
  10  -2 -14    4.02    0.44
 -11   3  15   25.37    1.07
 -11   3  15   25.60    0.99
 -11   3  15   24.60    0.94
  11  -3 -15   24.89    1.07
  11  -3 -15   24.03    1.02
 -12   4  16    0.35    0.19
 -12   4  16    0.42    0.23
 -12   4  16    0.37    0.18
  12  -4 -16    0.29    0.23
  12  -4 -16    0.44    0.22
 -13   5  17   -0.09    0.19
  13  -5 -17    0.07    0.23
  13  -5 -17    0.20    0.24
  14  -6 -18    9.81    0.73
  -7  13   2   -0.08    0.23
  -6  12   1    0.70    0.30
  -5  11   0   11.77    0.72
  -4  10  -1    0.10    0.19
  -3   9  -2    0.43    0.22
   2  -8   3    0.99    0.16
   2  -8   3    0.85    0.15
  -2   8  -3    0.49    0.20
   1  -7   4   26.19    0.78
   1  -7   4   25.73    0.81
  -1   7  -4   25.23    0.99
   0  -6   5    1.52    0.19
   0  -6   5    1.60    0.18
   0   6  -5    1.50    0.25
   0   6  -5    1.71    0.14
  -1  -5   6  123.13    2.98
  -1  -5   6  118.04    3.06
   1   5  -6  130.13    3.00
   1   5  -6  124.99    3.39
  -2  -4   7   21.44    0.74
  -2  -4   7   22.86    0.73
   2   4  -7   20.63    0.83
   2   4  -7   22.42    0.63
   2   4  -7   22.24    0.65
  -3  -3   8   72.33    1.98
  -3  -3   8   75.25    1.92
   3   3  -8   75.45    1.91
   3   3  -8   73.35    1.85
   3   3  -8   75.96    2.15
  -4  -2   9   25.81    0.86
  -4  -2   9   25.14    0.83
  -4  -2   9   25.88    0.92
   4   2  -9   26.19    0.82
   4   2  -9   25.67    0.79
  -5  -1  10   23.32    0.82
  -5  -1  10   23.99    0.80
  -5  -1  10   23.22    0.88
   5   1 -10   23.87    0.80
   5   1 -10   22.27    0.76
  -6   0  11    0.03    0.11
  -6   0  11    0.02    0.10
  -6   0  11   -0.01    0.10
   6   0 -11   -0.05    0.10
   6   0 -11   -0.01    0.11
  -7   1  12   62.89    1.82
  -7   1  12   65.72    1.78
  -7   1  12   63.22    1.95
   7  -1 -12   64.75    1.84
   7  -1 -12   65.89    1.89
  -8   2  13   19.72    0.86
  -8   2  13   20.52    0.81
  -8   2  13   20.47    0.78
   8  -2 -13   21.24    0.87
   8  -2 -13   19.62    0.83
  -9   3  14   13.06    0.63
  -9   3  14   13.02    0.61
  -9   3  14   12.93    0.69
   9  -3 -14   13.43    0.71
   9  -3 -14   12.89    0.68
 -10   4  15   10.05    0.58
 -10   4  15   12.03    0.61
 -10   4  15   16.38    0.81
  10  -4 -15   15.57    0.80
  10  -4 -15   16.21    0.78
 -11   5  16    6.13    0.53
  11  -5 -16    5.06    0.55
  11  -5 -16    6.97    0.57
  12  -6 -17   10.46    0.72
  -8  12   2   -0.17    0.21
  -7  11   1   -0.01    0.19
  -6  10   0   15.83    0.83
  -5   9  -1    4.38    0.47
   4  -8   2   23.63    0.76
   4  -8   2   23.55    0.74
  -4   8  -2   23.83    0.98
   3  -7   3   13.55    0.52
   3  -7   3   13.96    0.50
  -3   7  -3   13.62    0.67
   2  -6   4    3.78    0.25
   2  -6   4    4.16    0.25
  -2   6  -4    3.49    0.36
   1  -5   5   10.36    0.43
   1  -5   5   10.54    0.42
  -1   5  -5    9.95    0.52
   0  -4   6  116.21    2.80
   0  -4   6  113.69    2.88
   0   4  -6  120.41    2.77
   0   4  -6  113.41    3.15
  -1  -3   7   29.87    0.95
  -1  -3   7   32.06    0.93
   1   3  -7   32.09    0.84
   1   3  -7   29.60    1.04
  -2  -2   8   18.13    0.65
  -2  -2   8   16.07    0.68
  -2  -2   8   19.26    0.64
   2   2  -8   18.31    0.57
   2   2  -8   18.40    0.59
  -3  -1   9    9.57    0.49
  -3  -1   9   10.73    0.48
  -3  -1   9   10.29    0.46
   3   1  -9   10.45    0.44
   3   1  -9   10.32    0.42
  -4   0  10   59.99    1.78
  -4   0  10   60.36    1.67
  -4   0  10   58.03    1.60
   4   0 -10   60.51    1.62
   4   0 -10   58.07    1.65
  -5   1  11    0.58    0.15
  -5   1  11    0.39    0.16
  -5   1  11    0.61    0.15
   5  -1 -11    0.40    0.15
   5  -1 -11    0.27    0.14
  -6   2  12    8.71    0.47
  -6   2  12    8.96    0.52
  -6   2  12    9.15    0.46
   6  -2 -12    8.82    0.49
   6  -2 -12    8.09    0.50
  -7   3  13   13.29    0.67
  -7   3  13    9.86    0.51
  -7   3  13   11.55    0.56
   7  -3 -13   12.14    0.63
   7  -3 -13   13.12    0.66
  -8   4  14   10.85    0.54
  -8   4  14   10.08    0.61
  -8   4  14    9.96    0.53
   8  -4 -14    9.76    0.62
   8  -4 -14   11.07    0.64
  -9   5  15    1.00    0.28
   9  -5 -15    0.58    0.26
   9  -5 -15    0.35    0.23
 -10   6  16    1.38    0.32
  10  -6 -16    1.55    0.35
  10  -6 -16    1.18    0.31
  11  -7 -17    2.16    0.43
 -10  12   3    2.41    0.43
  -9  11   2    0.85    0.29
  -8  10   1    1.38    0.32
  -7   9   0    0.82    0.26
   6  -8   1    5.21    0.32
   6  -8   1    5.64    0.33
  -6   8  -1    5.97    0.45
   5  -7   2   29.48    0.87
   5  -7   2   29.03    0.90
  -5   7  -2   28.62    1.08
   4  -6   3   11.95    0.48
   4  -6   3   12.39    0.47
  -4   6  -3   11.55    0.59
   3  -5   4    7.26    0.35
   3  -5   4    6.86    0.33
  -3   5  -4    6.43    0.41
   2  -4   5   54.29    1.51
   2  -4   5   58.98    1.47
  -2   4  -5   54.67    1.67
   1  -3   6   78.75    2.09
   1  -3   6   83.11    2.04
  -1   3  -6   83.80    1.95
  -1   3  -6   80.48    2.29
   0  -2   7    8.50    0.38
   0  -2   7    8.08    0.42
   0  -2   7    9.06    0.41
   0   2  -7    8.92    0.32
  -1  -1   8  176.57    4.58
  -1  -1   8  175.51    4.28
  -1  -1   8  177.26    4.15
   1   1  -8  173.56    4.17
   1   1  -8  179.22    4.28
  -2   0   9    0.06    0.10
  -2   0   9    0.04    0.09
  -2   0   9    0.15    0.10
   2   0  -9   -0.04    0.07
  -3   1  10    1.67    0.24
  -3   1  10    2.26    0.24
  -3   1  10    2.16    0.23
  -3   1  10    1.94    0.23
   3  -1 -10    2.00    0.25
  -4   2  11    0.17    0.14
  -4   2  11    0.32    0.14
  -4   2  11    0.11    0.12
  -4   2  11    0.29    0.12
   4  -2 -11    0.09    0.12
  -5   3  12    0.12    0.15
  -5   3  12    0.10    0.14
  -5   3  12    0.01    0.09
  -5   3  12    0.04    0.10
   5  -3 -12    0.26    0.17
  -6   4  13   29.50    0.97
  -6   4  13   28.98    1.15
  -6   4  13   30.18    1.08
  -6   4  13   29.72    1.01
   6  -4 -13   28.86    1.13
  -7   5  14   32.54    1.29
   7  -5 -14   32.58    1.27
  -8   6  15    0.36    0.22
   8  -6 -15    0.51    0.24
   8  -6 -15    0.38    0.23
  -9   7  16    0.14    0.22
   9  -7 -16    0.34    0.25
   9  -7 -16    0.70    0.28
  10  -8 -17    1.10    0.35
 -12  12   4    5.38    0.60
 -11  11   3    0.36    0.24
 -10  10   2    3.05    0.42
  -9   9   1    7.68    0.54
   8  -8   0    0.18    0.12
  -8   8   0    0.05    0.11
  -8   8   0   -0.10    0.14
   7  -7   1    3.91    0.28
   7  -7   1    3.56    0.27
  -7   7  -1    3.74    0.39
   6  -6   2   42.52    1.18
   6  -6   2   41.17    1.21
  -6   6  -2   43.07    1.39
   5  -5   3    7.72    0.38
   5  -5   3    9.22    0.40
  -5   5  -3    8.43    0.46
   4  -4   4    4.97    0.28
   4  -4   4    4.85    0.28
  -4   4  -4    4.31    0.33
   3  -3   5   51.71    1.37
   3  -3   5   50.53    1.41
  -3   3  -5   52.14    1.54
   2  -2   6   26.02    0.83
   2  -2   6   26.72    0.81
  -2   2  -6   27.19    0.91
  -2   2  -6   26.99    0.71
   1  -1   7   14.42    0.46
   1  -1   7   15.98    0.57
   1  -1   7   14.96    0.60
   1  -1   7   15.34    0.54
  -1   1  -7   14.90    0.49
   0   0   8  157.60    3.86
   0   0   8  161.11    3.75
   0   0   8  156.35    3.77
   0   0   8  159.16    4.14
  -1   1   9    0.85    0.18
  -1   1   9    0.85    0.15
  -1   1   9    1.08    0.17
  -1   1   9    0.99    0.17
  -2   2  10   18.12    0.75
  -2   2  10   19.06    0.69
  -2   2  10   18.55    0.66
  -2   2  10   18.76    0.68
  -3   3  11   27.37    0.94
  -3   3  11   28.80    0.93
  -3   3  11   27.51    0.89
  -3   3  11   27.32    1.03
   3  -3 -11   27.96    1.02
  -4   4  12    0.83    0.21
  -4   4  12    0.49    0.16
  -4   4  12    0.38    0.18
  -4   4  12    0.61    0.16
   4  -4 -12    0.52    0.20
  -5   5  13   -0.11    0.12
  -5   5  13   -0.05    0.14
   5  -5 -13   -0.06    0.15
  -6   6  14   24.10    1.08
  -6   6  14   23.24    0.98
   6  -6 -14   24.41    1.08
  -7   7  15    2.54    0.41
  -7   7  15    2.87    0.43
   7  -7 -15    2.98    0.46
 -13  11   4    3.91    0.50
 -12  10   3    1.66    0.35
 -11   9   2   14.41    0.76
 -10   8   1    7.07    0.41
 -10   8   1    6.55    0.48
   9  -7   0   17.56    0.65
  -9   7   0   17.00    0.77
  -9   7   0   16.52    0.66
   8  -6   1    0.18    0.12
   8  -6   1    0.10    0.11
  -8   6  -1    0.08    0.14
   7  -5   2   65.88    1.81
   7  -5   2   70.50    1.77
  -7   5  -2   67.09    1.98
   6  -4   3   76.31    2.02
   6  -4   3   78.18    1.96
  -6   4  -3   76.91    2.18
   5  -3   4   43.95    1.19
   5  -3   4   41.12    1.21
  -5   3  -4   43.53    1.32
   4  -2   5   72.95    1.71
   4  -2   5   70.92    1.80
   4  -2   5   68.15    1.85
  -4   2  -5   70.79    1.99
   3  -1   6    3.76    0.25
   3  -1   6    3.25    0.25
   3  -1   6    3.27    0.18
   3  -1   6    2.97    0.22
   3  -1   6    3.37    0.17
   2   0   7   -0.02    0.07
   2   0   7   -0.03    0.06
   2   0   7    0.09    0.08
   2   0   7    0.05    0.09
   2   0   7    0.04    0.06
   1   1   8  138.31    3.46
   1   1   8  141.55    3.33
   1   1   8  138.93    3.43
   1   1   8  140.43    3.69
   1   1   8  139.11    3.38
   0   2   9    1.41    0.21
   0   2   9    1.54    0.20
   0   2   9    1.02    0.16
   0   2   9    1.00    0.17
   0   2   9    0.63    0.13
  -1   3  10    4.11    0.31
  -1   3  10    3.50    0.27
  -1   3  10    3.63    0.32
  -1   3  10    4.18    0.33
  -1   3  10    3.58    0.27
  -2   4  11    0.24    0.17
  -2   4  11    0.16    0.11
  -2   4  11    0.29    0.13
  -2   4  11    0.06    0.14
  -2   4  11    0.34    0.15
  -3   5  12    5.74    0.44
  -3   5  12    5.49    0.41
  -3   5  12    5.52    0.45
  -4   6  13    0.82    0.23
  -5   7  14    8.19    0.56
  -5   7  14    8.12    0.61
   5  -7 -14    8.20    0.62
  -6   8  15    0.18    0.22
  -6   8  15    0.17    0.22
   6  -8 -15   -0.04    0.19
  -7   9  16    3.47    0.50
 -15  11   5    0.22    0.26
 -14  10   4   16.11    0.87
 -13   9   3    3.68    0.45
 -12   8   2   21.53    0.84
 -12   8   2   21.25    0.93
 -12   8   2   22.49    0.83
 -11   7   1    3.27    0.33
 -11   7   1    3.62    0.40
  10  -6   0    9.89    0.47
 -10   6   0    9.35    0.52
 -10   6   0    9.70    0.49
   9  -5   1    0.76    0.16
   9  -5   1    0.51    0.15
  -9   5  -1    0.66    0.18
   8  -4   2   -0.04    0.08
   8  -4   2    0.11    0.10
  -8   4  -2    0.06    0.11
   7  -3   3  100.28    2.38
   7  -3   3   98.26    2.53
   7  -3   3   98.70    2.45
  -7   3  -3   99.87    2.69
   6  -2   4   63.01    1.53
   6  -2   4   57.43    1.65
   6  -2   4   63.41    1.63
  -6   2  -4   64.01    1.77
   5  -1   5    6.87    0.34
   5  -1   5    6.88    0.27
   5  -1   5    6.02    0.34
   5  -1   5    6.41    0.25
  -5   1  -5    6.51    0.35
   4   0   6    1.16    0.17
   4   0   6    1.30    0.18
   4   0   6    1.09    0.13
   4   0   6    1.13    0.14
   3   1   7   11.48    0.46
   3   1   7   11.68    0.44
   3   1   7   11.03    0.47
   3   1   7   11.34    0.50
   3   1   7   11.21    0.46
   1   3   9   45.14    1.35
   1   3   9   43.83    1.30
   1   3   9   44.00    1.41
   1   3   9   44.09    1.22
   1   3   9   45.21    1.27
   0   4  10    0.99    0.21
   0   4  10    0.87    0.17
   0   4  10    0.58    0.18
   0   4  10    1.09    0.17
   0   4  10    0.90    0.20
  -1   5  11   -0.05    0.14
  -1   5  11   -0.14    0.14
  -1   5  11   -0.08    0.11
  -2   6  12   -0.05    0.16
  -2   6  12   -0.11    0.15
  -2   6  12    0.36    0.18
  -3   7  13    0.09    0.19
  -3   7  13   -0.02    0.18
  -3   7  13   -0.15    0.17
  -4   8  14    0.11    0.20
  -4   8  14    0.06    0.19
  -5   9  15    0.91    0.31
 -16  10   5    2.33    0.40
 -15   9   4    6.37    0.52
 -14   8   3    4.09    0.39
 -14   8   3    3.52    0.37
 -14   8   3    3.62    0.41
 -13   7   2   37.61    1.21
 -13   7   2   36.21    1.24
 -13   7   2   40.33    1.35
 -12   6   1   18.49    0.78
 -12   6   1   19.11    0.76
  11  -5   0    6.51    0.38
 -11   5   0    6.28    0.39
 -11   5   0    6.39    0.41
  10  -4   1    0.69    0.16
  10  -4   1    0.75    0.17
 -10   4  -1    0.81    0.17
   9  -3   2   73.80    1.93
   9  -3   2   73.57    1.99
   9  -3   2   73.59    1.86
  -9   3  -2   75.39    2.06
   8  -2   3    0.34    0.12
   8  -2   3    0.27    0.12
   8  -2   3    0.38    0.08
   8  -2   3    0.34    0.08
  -8   2  -3    0.28    0.11
   7  -1   4   47.13    1.31
   7  -1   4   47.44    1.23
   7  -1   4   48.27    1.26
   7  -1   4   47.87    1.36
  -7   1  -4   48.96    1.40
   6   0   5    0.16    0.09
   6   0   5    0.06    0.06
   6   0   5    0.09    0.10
   6   0   5    0.11    0.09
   6   0   5   -0.01    0.06
   5   1   6    7.54    0.38
   5   1   6    7.57    0.36
   5   1   6    7.86    0.37
   5   1   6    7.63    0.38
   5   1   6    7.58    0.35
   4   2   7   32.03    1.05
   4   2   7   42.47    1.13
   4   2   7   30.74    1.01
   4   2   7   40.51    1.08
   3   3   8   35.76    1.02
   3   3   8   34.26    1.15
   3   3   8   35.09    1.12
   3   3   8   36.00    1.09
   3   3   8   35.31    1.05
   2   4   9   33.29    1.08
   2   4   9   31.79    1.10
   2   4   9   32.57    1.15
   2   4   9   33.91    1.01
   2   4   9   34.52    0.98
   1   5  10   94.68    2.56
   1   5  10   94.06    2.73
   1   5  10   96.26    2.64
   0   6  11    0.56    0.21
   0   6  11    0.14    0.16
   0   6  11    0.48    0.21
  -1   7  12    3.49    0.43
  -1   7  12    3.28    0.41
  -1   7  12    2.85    0.39
  -2   8  13    0.99    0.28
  -2   8  13    0.68    0.25
  -2   8  13    1.01    0.30
  -3   9  14    3.20    0.45
 -16   8   4    0.06    0.12
 -15   7   3    0.20    0.17
 -15   7   3    0.02    0.16
 -14   6   2   28.05    1.00
 -14   6   2   27.78    1.03
 -14   6   2   27.91    1.03
 -13   5   1    4.31    0.34
 -13   5   1    4.07    0.39
 -13   5   1    4.14    0.38
  12  -4   0    0.36    0.16
 -12   4   0    0.17    0.13
 -12   4   0    0.18    0.13
  11  -3   1   34.67    1.08
  11  -3   1   35.81    1.02
 -11   3  -1   33.82    1.14
 -11   3  -1   37.19    1.11
  10  -2   2   12.56    0.45
  10  -2   2   12.65    0.47
  10  -2   2   13.47    0.57
  10  -2   2   12.80    0.54
 -10   2  -2   13.86    0.53
   9  -1   3    4.00    0.24
   9  -1   3    3.82    0.29
   9  -1   3    3.80    0.29
   9  -1   3    3.57    0.22
  -9   1  -3    3.47    0.24
   8   0   4   80.34    2.03
   8   0   4   78.60    2.08
   8   0   4   78.73    1.98
   8   0   4   77.72    2.01
  -8   0  -4   78.38    2.12
   7   1   5    0.04    0.08
   7   1   5    0.14    0.09
   7   1   5    0.10    0.10
   7   1   5    0.13    0.09
   7   1   5    0.18    0.10
   6   2   6    2.94    0.24
   6   2   6    3.35    0.26
   6   2   6    3.50    0.27
   6   2   6    3.42    0.26
   6   2   6    3.82    0.26
   5   3   7    5.48    0.34
   5   3   7    5.11    0.30
   5   3   7    4.58    0.30
   5   3   7    5.40    0.35
   5   3   7    5.47    0.34
   4   4   8    0.40    0.14
   4   4   8    0.46    0.13
   4   4   8    0.10    0.08
   4   4   8    0.37    0.12
   4   4   8    0.41    0.16
   3   5   9   53.99    1.63
   3   5   9   54.36    1.72
   3   5   9   56.87    1.70
   2   6  10   43.57    1.45
   2   6  10   41.38    1.39
   2   6  10   44.64    1.49
   1   7  11   14.21    0.72
   1   7  11   14.10    0.75
   1   7  11   13.97    0.74
   0   8  12    1.76    0.33
   0   8  12    2.07    0.36
   0   8  12    1.62    0.32
  -1   9  13    0.71    0.27
  -1   9  13    1.29    0.33
  -1   9  13    0.98    0.29
  -2  10  14    0.19    0.24
 -18   8   5    2.92    0.38
 -17   7   4    0.20    0.18
 -17   7   4    0.24    0.19
 -16   6   3    1.47    0.28
 -16   6   3    1.36    0.28
 -15   5   2   22.45    0.89
 -15   5   2   23.04    0.92
 -14   4   1    0.10    0.13
 -14   4   1    0.07    0.13
  13  -3   0    5.43    0.33
  13  -3   0    5.14    0.39
 -13   3   0    5.87    0.41
  12  -2   1   35.84    1.04
  12  -2   1   32.84    1.08
  12  -2   1   34.84    1.01
 -12   2  -1   34.33    1.14
  11  -1   2    2.79    0.22
  11  -1   2    2.95    0.24
  11  -1   2    3.60    0.32
  10   0   3    0.05    0.11
  10   0   3    0.08    0.08
  10   0   3    0.20    0.12
  10   0   3    0.04    0.08
 -10   0  -3    0.26    0.10
   9   1   4   46.50    1.36
   9   1   4   46.17    1.32
   9   1   4   48.20    1.34
   9   1   4   47.19    1.30
   9   1   4   45.47    1.32
   8   2   5    1.90    0.23
   8   2   5    2.46    0.26
   8   2   5    2.37    0.23
   8   2   5    2.04    0.24
   8   2   5    2.54    0.25
   7   3   6   45.75    1.37
   7   3   6   45.20    1.26
   7   3   6   46.26    1.33
   7   3   6   45.20    1.30
   7   3   6   44.79    1.35
   6   4   7    5.30    0.35
   6   4   7    5.24    0.31
   6   4   7    5.16    0.33
   6   4   7    5.81    0.40
   6   4   7    5.32    0.37
   5   5   8   51.10    1.58
   5   5   8   48.91    1.55
   5   5   8   50.13    1.52
   4   6   9   15.92    0.72
   4   6   9   14.67    0.71
   4   6   9   14.93    0.72
   3   7  10   67.47    2.05
   3   7  10   67.60    2.09
   3   7  10   62.65    1.96
   2   8  11    4.02    0.47
   2   8  11    3.53    0.43
   2   8  11    3.56    0.43
   1   9  12    2.24    0.39
   1   9  12    1.65    0.35
   1   9  12    1.64    0.36
   0  10  13    0.68    0.29
 -19   7   5    2.08    0.34
 -19   7   5    1.98    0.33
 -18   6   4    3.86    0.44
 -18   6   4    3.95    0.43
 -17   5   3    1.28    0.27
 -17   5   3    1.40    0.29
 -16   4   2    5.33    0.43
 -16   4   2    6.14    0.43
 -15   3   1    3.45    0.38
 -15   3   1    3.49    0.37
  14  -2   0   10.26    0.49
  14  -2   0   11.59    0.50
 -14   2   0   11.17    0.58
  13  -1   1    3.41    0.34
  13  -1   1    3.86    0.29
  13  -1   1    3.79    0.29
 -13   1  -1    3.70    0.37
  12   0   2    1.25    0.19
  12   0   2    0.87    0.18
  12   0   2    0.98    0.18
 -12   0  -2    0.87    0.19
  11   1   3    0.07    0.10
  11   1   3    0.04    0.11
  11   1   3    0.10    0.10
 -11  -1  -3    0.03    0.11
  10   2   4    1.05    0.18
  10   2   4    1.83    0.25
  10   2   4    2.17    0.26
  10   2   4    0.79    0.15
   9   3   5   87.42    2.36
   9   3   5   85.65    2.30
   8   4   6   55.28    1.51
   8   4   6   55.09    1.62
   8   4   6   55.28    1.66
   8   4   6   56.95    1.57
   7   5   7    0.18    0.13
   7   5   7    0.43    0.18
   7   5   7    0.35    0.17
   6   6   8   11.05    0.61
   6   6   8   11.10    0.58
   6   6   8   11.19    0.61
   5   7   9   10.69    0.63
   5   7   9    9.23    0.56
   5   7   9   11.43    0.64
   4   8  10   19.84    0.91
   4   8  10   18.79    0.91
   4   8  10   18.72    0.89
   3   9  11    1.06    0.30
   3   9  11    0.77    0.26
   3   9  11    1.36    0.31
   2  10  12    9.93    0.70
   2  10  12    9.52    0.68
 -21   7   6   10.14    0.68
 -21   7   6   10.20    0.66
 -20   6   5    1.17    0.28
 -20   6   5    0.79    0.27
 -19   5   4    0.43    0.22
 -19   5   4    0.61    0.24
 -18   4   3    3.24    0.40
 -18   4   3    3.49    0.41
 -17   3   2    5.10    0.41
 -17   3   2    5.77    0.44
  16  -2  -1   25.28    0.88
  16  -2  -1   23.28    0.88
 -16   2   1   24.28    0.97
 -16   2   1   25.56    0.96
  15  -1   0   33.89    1.10
  15  -1   0   33.59    1.07
 -15   1   0   33.41    1.18
 -15   1   0   33.20    1.14
  14   0   1    0.16    0.13
  14   0   1    0.06    0.11
 -14   0  -1   -0.05    0.12
  13   1   2   54.60    1.64
  13   1   2   58.21    1.62
  13   1   2   59.15    1.64
 -13  -1  -2   56.71    1.71
  11   3   4   29.31    1.02
  11   3   4   31.83    1.07
  11   3   4   30.94    0.99
 -11  -3  -4   30.12    1.03
  10   4   5   10.07    0.53
  10   4   5    9.97    0.48
  10   4   5    9.89    0.55
 -10  -4  -5   10.37    0.51
   9   5   6   30.37    1.12
   9   5   6   32.11    1.11
   8   6   7    6.21    0.47
   8   6   7    6.11    0.46
   7   7   8    7.89    0.55
   7   7   8    8.75    0.57
   6   8   9   10.37    0.66
   6   8   9   11.44    0.66
   5   9  10    4.13    0.50
   5   9  10    5.08    0.54
   4  10  11    6.55    0.63
 -22   6   6    4.20    0.51
 -22   6   6    3.87    0.48
 -21   5   5    0.00    0.21
 -20   4   4    3.33    0.42
 -20   4   4    4.34    0.48
 -19   3   3   10.66    0.63
 -19   3   3   10.36    0.62
  18  -2  -2   -0.13    0.13
 -18   2   2   -0.18    0.16
 -18   2   2   -0.12    0.15
  17  -1  -1   59.19    1.80
  17  -1  -1   62.70    1.77
 -17   1   1   60.28    1.82
 -17   1   1   62.22    1.89
  16   0   0  132.76    3.30
  16   0   0  126.67    3.36
 -16   0   0  126.72    3.40
 -16   0   0  126.09    3.30
 -15  -1  -1   27.04    0.98
 -15  -1  -1   25.59    1.00
  14   2   2   29.82    1.04
  14   2   2   29.96    1.02
 -14  -2  -2   28.50    1.01
 -14  -2  -2   28.60    1.05
  13   3   3   28.10    1.04
  13   3   3   30.02    1.04
 -13  -3  -3   30.25    1.05
  12   4   4    0.00    0.13
  12   4   4    0.12    0.14
  12   4   4    0.28    0.15
 -12  -4  -4    0.12    0.14
  11   5   5    7.38    0.50
  11   5   5    7.11    0.49
  10   6   6   31.79    1.17
  10   6   6   29.10    1.12
   9   7   7    2.57    0.37
   9   7   7    3.04    0.40
   8   8   8    0.05    0.18
   8   8   8    0.18    0.20
   7   9   9    3.01    0.44
   7   9   9    2.40    0.39
   6  10  10   -0.22    0.19
 -23   5   6    3.69    0.48
 -22   4   5    1.13    0.31
 -22   4   5    1.31    0.32
 -21   3   4   13.14    0.76
 -21   3   4   14.91    0.78
 -20   2   3    1.51    0.32
 -20   2   3    2.15    0.35
  19  -1  -2    0.57    0.20
  19  -1  -2    0.58    0.20
 -19   1   2    0.85    0.24
 -19   1   2    0.86    0.24
  18   0  -1   -0.02    0.11
  18   0  -1   -0.01    0.12
 -18   0   1    0.17    0.17
 -18   0   1    0.37    0.19
  17   1   0  104.40    3.12
  17   1   0  116.68    3.08
 -17  -1   0  126.22    3.21
 -17  -1   0  121.19    3.09
  16   2   1   27.15    0.99
  16   2   1   25.54    1.00
 -16  -2  -1   26.32    0.99
 -16  -2  -1   26.84    1.03
  15   3   2   19.70    0.83
  15   3   2   19.36    0.80
 -15  -3  -2   17.76    0.77
 -15  -3  -2   18.79    0.81
  14   4   3   37.88    1.25
  14   4   3   37.11    1.28
 -14  -4  -3   33.64    1.15
 -14  -4  -3   33.88    1.20
  13   5   4    1.77    0.31
  13   5   4    2.09    0.33
  12   6   5    2.15    0.35
  12   6   5    2.36    0.34
  11   7   6   22.55    0.98
  11   7   6   23.39    1.03
  10   8   7    7.46    0.56
  10   8   7    8.45    0.61
   9   9   8    7.35    0.59
   9   9   8    6.91    0.56
   8  10   9    0.13    0.24
 -24   4   6   11.00    0.73
 -23   3   5    1.44    0.34
 -22   2   4    0.31    0.23
 -22   2   4    0.32    0.24
 -21   1   3    4.08    0.48
 -21   1   3    4.29    0.48
  20   0  -2    2.57    0.35
  20   0  -2    2.60    0.35
 -20   0   2    3.74    0.43
 -20   0   2    2.31    0.35
  19   1  -1    0.58    0.22
  19   1  -1    0.23    0.18
 -19  -1   1    0.08    0.17
 -19  -1   1    0.45    0.22
  18   2   0    6.03    0.46
  18   2   0    6.36    0.48
 -18  -2   0    5.91    0.47
 -18  -2   0    6.22    0.48
  17   3   1    3.70    0.42
  17   3   1    4.41    0.44
 -17  -3  -1    4.40    0.45
 -17  -3  -1    4.37    0.43
  16   4   2   28.78    1.09
  16   4   2   28.58    1.12
 -16  -4  -2   28.89    1.04
 -16  -4  -2   27.35    1.06
  15   5   3    0.34    0.21
  15   5   3    0.08    0.17
  14   6   4    0.38    0.22
  14   6   4    0.28    0.18
  13   7   5   -0.22    0.15
  13   7   5    0.33    0.20
  12   8   6   13.04    0.78
  12   8   6   13.07    0.75
  11   9   7   13.67    0.81
  10  10   8    5.33    0.60
 -25   3   6    2.19    0.42
 -24   2   5    0.42    0.25
 -23   1   4   12.33    0.75
  22   0  -3   -0.10    0.16
 -22   0   3    0.09    0.19
 -22   0   3    0.07    0.18
  21   1  -2    0.22    0.18
  21   1  -2    0.22    0.19
 -21  -1   2    0.31    0.22
 -21  -1   2    0.70    0.26
  20   2  -1    4.38    0.47
  20   2  -1    4.55    0.48
 -20  -2   1    4.01    0.45
 -20  -2   1    4.29    0.47
  19   3   0    0.06    0.18
  19   3   0    0.33    0.20
 -19  -3   0    0.33    0.21
 -19  -3   0    0.51    0.22
  18   4   1    7.90    0.55
  18   4   1    7.96    0.57
 -18  -4  -1    8.51    0.56
 -18  -4  -1    8.83    0.55
  17   5   2   23.02    1.00
  17   5   2   23.16    1.02
  16   6   3    4.63    0.50
  16   6   3    4.40    0.51
  15   7   4    3.09    0.44
  15   7   4    3.83    0.50
  14   8   5    3.81    0.49
  14   8   5    3.50    0.48
  13   9   6    0.12    0.23
 -25   1   5    1.10    0.33
 -24   0   4   12.36    0.77
  23   1  -3    1.58    0.33
  23   1  -3    2.34    0.38
 -23  -1   3    2.30    0.39
  22   2  -2    0.09    0.19
  22   2  -2   -0.19    0.16
 -22  -2   2    0.39    0.23
 -22  -2   2    0.26    0.23
  21   3  -1    1.71    0.34
  21   3  -1    1.61    0.34
 -21  -3   1    1.76    0.32
 -21  -3   1    2.09    0.37
  20   4   0   -0.21    0.16
  20   4   0    0.03    0.19
 -20  -4   0    0.07    0.20
 -20  -4   0   -0.09    0.18
  19   5   1    6.78    0.55
  19   5   1    7.23    0.58
  18   6   2    2.78    0.42
  18   6   2    3.41    0.46
  17   7   3    0.82    0.28
  17   7   3    0.93    0.31
  16   8   4    2.41    0.41
  15   9   5    2.11    0.41
  25   1  -4   12.51    0.77
 -25  -1   4   11.62    0.77
  24   2  -3    4.28    0.51
 -24  -2   3    3.69    0.48
  23   3  -2    5.24    0.57
  22   4  -1    1.07    0.30
 -22  -4   1    0.44    0.27
 -22  -4   1    0.92    0.30
  21   5   0    0.77    0.27
  20   6   1    3.37    0.47
  19   7   2    1.32    0.34
  17   9 -13    1.12    0.32
 -18  -8  14    4.24    0.50
  18   8 -14    3.76    0.49
 -19  -7  15    0.44    0.27
  19   7 -15    0.37    0.26
  15   9 -12    5.17    0.54
 -16  -8  13    3.68    0.46
 -16  -8  13    2.76    0.40
  16   8 -13    2.65    0.41
  16   8 -13    3.27    0.44
 -17  -7  14    0.07    0.21
 -17  -7  14    0.75    0.26
  17   7 -14    0.51    0.24
  17   7 -14    0.95    0.29
 -18  -6  15    0.65    0.27
 -18  -6  15    0.32    0.24
  18   6 -15    0.26    0.24
  18   6 -15    0.57    0.27
 -19  -5  16    1.35    0.35
  19   5 -16    1.26    0.34
 -20  -4  17    0.44    0.27
  20   4 -17    0.66    0.29
 -14  -8  12    0.01    0.19
 -14  -8  12    0.13    0.20
  14   8 -12    0.01    0.18
  14   8 -12   -0.07    0.18
 -15  -7  13    0.54    0.25
 -15  -7  13    0.67    0.25
  15   7 -13    0.82    0.26
  15   7 -13    0.66    0.24
 -16  -6  14   16.39    0.85
 -16  -6  14   16.62    0.82
  16   6 -14   15.28    0.82
  16   6 -14   16.39    0.82
 -17  -5  15    6.06    0.57
 -17  -5  15    5.74    0.57
  17   5 -15    6.32    0.52
  17   5 -15    6.68    0.55
 -18  -4  16    0.05    0.20
  18   4 -16   -0.06    0.19
  18   4 -16    0.16    0.23
 -19  -3  17    3.94    0.51
  19   3 -17    4.18    0.52
 -20  -2  18   -0.16    0.21
  20   2 -18   -0.32    0.21
   7  13  -6    0.47    0.30
   8  12  -7    1.71    0.40
   9  11  -8    9.86    0.68
  10  10  -9    0.08    0.17
 -12  -8  11    5.07    0.48
 -12  -8  11    5.14    0.46
  12   8 -11    4.86    0.47
 -13  -7  12    0.63    0.23
 -13  -7  12    0.80    0.24
  13   7 -12    0.46    0.21
  13   7 -12    0.34    0.21
 -14  -6  13    4.37    0.45
 -14  -6  13    3.85    0.43
  14   6 -13    4.94    0.48
  14   6 -13    3.76    0.43
 -15  -5  14   23.34    1.01
 -15  -5  14   21.39    0.94
  15   5 -14   22.24    0.95
  15   5 -14   23.11    0.99
 -16  -4  15    6.61    0.52
 -16  -4  15    6.62    0.53
  16   4 -15    6.85    0.55
  16   4 -15    6.60    0.59
 -17  -3  16    1.42    0.32
 -17  -3  16    1.93    0.35
  17   3 -16    1.59    0.35
  17   3 -16    2.19    0.39
  18   2 -17    0.94    0.32
  18   2 -17    0.69    0.28
 -19  -1  18    0.32    0.25
  19   1 -18    0.51    0.28
   5  13  -5   -0.23    0.23
   6  12  -6    1.36    0.36
   7  11  -7   -0.12    0.22
   8  10  -8   29.37    1.23
   9   9  -9    4.34    0.49
 -10  -8  10   12.68    0.62
 -10  -8  10   13.08    0.65
  10   8 -10   14.03    0.65
  10   8 -10   12.68    0.71
 -11  -7  11    1.19    0.25
 -11  -7  11    0.95    0.23
  11   7 -11    1.10    0.24
  11   7 -11    1.10    0.25
 -12  -6  12    0.37    0.20
 -12  -6  12    0.19    0.17
  12   6 -12    0.26    0.18
  12   6 -12    0.29    0.18
  12   6 -12    0.13    0.14
 -13  -5  13    6.40    0.49
 -13  -5  13    8.35    0.52
  13   5 -13    7.83    0.50
  13   5 -13    7.53    0.52
  13   5 -13    7.69    0.51
 -14  -4  14   18.66    0.86
 -14  -4  14   18.83    0.85
  14   4 -14   17.71    0.83
  14   4 -14   18.32    0.86
  14   4 -14   16.63    0.80
 -15  -3  15   12.59    0.70
 -15  -3  15   13.78    0.75
  15   3 -15   13.40    0.74
  15   3 -15   12.28    0.69
 -16  -2  16    6.20    0.57
 -16  -2  16    5.31    0.54
  16   2 -16    5.55    0.55
  16   2 -16    6.11    0.59
 -17  -1  17    1.54    0.33
 -17  -1  17    1.51    0.32
  17   1 -17    1.43    0.35
  17   1 -17    1.62    0.34
 -18   0  18    1.42    0.33
  18   0 -18    0.77    0.30
   3  13  -4    1.12    0.35
   4  12  -5    0.13    0.23
   5  11  -6    2.42    0.41
   6  10  -7    1.71    0.33
   7   9  -8    6.66    0.53
  -8  -8   9    7.04    0.44
  -8  -8   9    6.38    0.41
   8   8  -9    8.00    0.55
  -9  -7  10   15.64    0.71
  -9  -7  10   16.10    0.70
   9   7 -10   15.76    0.79
   9   7 -10   16.74    0.68
   9   7 -10   17.12    0.72
 -10  -6  11    0.84    0.22
 -10  -6  11    0.75    0.20
  10   6 -11    1.04    0.22
  10   6 -11    0.82    0.23
  10   6 -11    1.10    0.22
 -11  -5  12    0.03    0.15
 -11  -5  12    0.02    0.15
  11   5 -12    0.26    0.17
  11   5 -12   -0.09    0.13
  11   5 -12    0.21    0.16
 -12  -4  13    5.42    0.44
 -12  -4  13    5.84    0.43
  12   4 -13    5.48    0.44
  12   4 -13    5.81    0.42
  12   4 -13    5.49    0.44
 -13  -3  14    7.26    0.50
 -13  -3  14    8.61    0.56
 -13  -3  14    7.12    0.51
  13   3 -14    7.89    0.54
  13   3 -14    8.04    0.52
 -14  -2  15    9.23    0.59
 -14  -2  15    8.51    0.55
 -14  -2  15    9.57    0.61
  14   2 -15    9.60    0.61
  14   2 -15    9.80    0.59
 -15  -1  16   25.61    1.06
 -15  -1  16   23.36    1.04
 -15  -1  16   24.93    1.03
  15   1 -16   25.19    1.08
  15   1 -16   23.54    1.03
 -16   0  17    0.30    0.22
 -16   0  17    0.07    0.20
 -16   0  17    0.11    0.19
  16   0 -17   -0.15    0.18
  16   0 -17    0.01    0.19
 -17   1  18    0.79    0.27
  17  -1 -18    0.68    0.27
 -18   2  19    6.13    0.60
  18  -2 -19    4.53    0.58
   1  13  -3    0.56    0.29
   2  12  -4   25.72    1.20
   3  11  -5    6.05    0.61
   4  10  -6    0.86    0.29
   5   9  -7   11.19    0.67
  -6  -8   8   -0.05    0.11
  -6  -8   8   -0.04    0.11
   6   8  -8   -0.15    0.16
  -7  -7   9    6.53    0.40
  -7  -7   9    6.19    0.41
   7   7  -9    6.37    0.48
   7   7  -9    6.17    0.39
  -8  -6  10   37.23    1.20
  -8  -6  10   35.35    1.15
   8   6 -10   34.40    1.14
   8   6 -10   35.11    1.29
   8   6 -10   35.23    1.11
  -9  -5  11    4.83    0.38
  -9  -5  11    4.55    0.36
   9   5 -11    4.84    0.35
   9   5 -11    5.05    0.41
   9   5 -11    4.84    0.37
 -10  -4  12    0.91    0.22
 -10  -4  12    0.36    0.16
  10   4 -12    0.74    0.21
  10   4 -12    0.79    0.22
  10   4 -12    0.63    0.18
 -11  -3  13    0.34    0.18
 -11  -3  13    0.54    0.20
 -11  -3  13    0.33    0.18
  11   3 -13    0.26    0.18
  11   3 -13    0.43    0.18
 -12  -2  14    9.81    0.58
 -12  -2  14   10.48    0.60
 -12  -2  14   10.11    0.57
  12   2 -14    9.04    0.56
  12   2 -14    9.39    0.55
 -13  -1  15    0.42    0.19
 -13  -1  15    0.32    0.18
 -13  -1  15    0.72    0.23
  13   1 -15    0.72    0.24
  13   1 -15    0.51    0.22
 -14   0  16    1.08    0.27
 -14   0  16    1.08    0.27
 -14   0  16    0.92    0.26
  14   0 -16    1.06    0.29
  14   0 -16    0.62    0.23
 -15   1  17    2.57    0.37
 -15   1  17    2.57    0.39
 -15   1  17    3.13    0.40
  15  -1 -17    2.76    0.41
  15  -1 -17    3.57    0.48
 -16   2  18    0.18    0.21
 -16   2  18    0.01    0.19
 -16   2  18    0.02    0.20
  16  -2 -18    0.07    0.24
 -17   3  19    2.65    0.40
  17  -3 -19    3.51    0.51
  -1  13  -2    0.33    0.26
   0  12  -3    1.84    0.39
   1  11  -4   22.46    1.06
   2  10  -5    0.20    0.21
   3   9  -6    1.37    0.31
  -4  -8   7   17.82    0.69
  -4  -8   7   18.67    0.67
   4   8  -7   17.68    0.85
  -5  -7   8    0.47    0.16
  -5  -7   8    0.36    0.14
   5   7  -8    0.51    0.21
  -6  -6   9    1.29    0.22
  -6  -6   9    1.18    0.20
   6   6  -9    1.28    0.19
   6   6  -9    1.21    0.25
   6   6  -9    0.87    0.18
  -7  -5  10   45.66    1.42
  -7  -5  10   44.85    1.37
   7   5 -10   46.74    1.33
   7   5 -10   47.68    1.55
   7   5 -10   46.22    1.36
  -8  -4  11    7.58    0.45
  -8  -4  11    7.96    0.47
   8   4 -11    8.43    0.46
   8   4 -11    7.80    0.50
   8   4 -11    8.53    0.44
  -9  -3  12   12.03    0.60
  -9  -3  12   12.69    0.64
  -9  -3  12   12.93    0.63
   9   3 -12   11.83    0.56
   9   3 -12   13.23    0.61
 -10  -2  13    6.48    0.46
 -10  -2  13    8.09    0.50
 -10  -2  13    7.04    0.46
  10   2 -13    7.72    0.48
  10   2 -13    7.35    0.45
 -11  -1  14    0.56    0.20
 -11  -1  14    0.34    0.18
 -11  -1  14    0.54    0.21
  11   1 -14    0.32    0.19
  11   1 -14    0.44    0.18
 -12   0  15    0.08    0.16
 -12   0  15    0.03    0.15
 -12   0  15   -0.02    0.13
  12   0 -15    0.06    0.16
  12   0 -15   -0.04    0.17
 -13   1  16   11.05    0.66
 -13   1  16   10.96    0.62
 -13   1  16   11.05    0.65
  13  -1 -16   11.22    0.69
  13  -1 -16   10.89    0.66
 -14   2  17    0.06    0.18
 -14   2  17    0.11    0.19
 -14   2  17    0.21    0.19
  14  -2 -17   -0.27    0.17
  14  -2 -17    0.12    0.19
 -15   3  18    0.49    0.25
 -15   3  18    0.31    0.22
 -15   3  18    0.39    0.22
  15  -3 -18    0.46    0.26
  16  -4 -19    1.62    0.39
  -3  13  -1    1.57    0.39
  -2  12  -2    0.55    0.26
  -1  11  -3    6.35    0.55
   0  10  -4    9.29    0.63
   1   9  -5   11.65    0.68
  -2  -8   6   43.72    1.29
  -2  -8   6   46.50    1.27
   2   8  -6   46.02    1.57
  -3  -7   7    2.29    0.25
  -3  -7   7    2.09    0.25
   3   7  -7    2.60    0.34
  -4  -6   8    1.65    0.22
  -4  -6   8    1.65    0.22
   4   6  -8    1.62    0.20
   4   6  -8    1.33    0.26
  -5  -5   9    2.38    0.28
  -5  -5   9    2.17    0.26
   5   5  -9    2.15    0.30
   5   5  -9    2.42    0.24
   5   5  -9    2.12    0.22
  -6  -4  10   23.69    0.83
  -6  -4  10   22.87    0.85
   6   4 -10   20.96    0.89
   6   4 -10   22.04    0.77
   6   4 -10   23.60    0.76
  -7  -3  11    1.46    0.24
  -7  -3  11    1.18    0.21
  -7  -3  11    1.75    0.27
   7   3 -11    1.35    0.22
   7   3 -11    2.07    0.25
  -8  -2  12   29.29    1.03
  -8  -2  12   27.60    0.98
  -8  -2  12   28.33    1.06
   8   2 -12   28.95    0.99
   8   2 -12   28.09    0.95
  -9  -1  13    0.87    0.21
  -9  -1  13    1.09    0.23
  -9  -1  13    1.12    0.23
   9   1 -13    0.96    0.22
   9   1 -13    1.09    0.24
 -10   0  14    1.08    0.24
 -10   0  14    0.85    0.21
 -10   0  14    0.97    0.22
  10   0 -14    1.31    0.26
  10   0 -14    0.92    0.22
 -11   1  15    2.56    0.33
 -11   1  15    2.24    0.32
 -11   1  15    2.70    0.37
  11  -1 -15    3.17    0.39
  11  -1 -15    3.21    0.39
 -12   2  16   17.47    0.86
 -12   2  16   16.43    0.80
 -12   2  16   17.30    0.79
  12  -2 -16   17.30    0.85
  12  -2 -16   17.88    0.88
 -13   3  17    6.22    0.48
 -13   3  17    6.76    0.51
 -13   3  17    5.84    0.50
  13  -3 -17    5.97    0.60
  13  -3 -17    6.80    0.56
  14  -4 -18    0.99    0.31
  -5  13   0    3.19    0.50
  -4  12  -1    0.66    0.30
  -3  11  -2    1.68    0.35
  -2  10  -3    0.94    0.28
  -1   9  -4    2.40    0.37
   0  -8   5    3.96    0.27
   0  -8   5    4.08    0.28
   0   8  -5    4.05    0.44
  -1  -7   6   45.59    1.33
  -1  -7   6   47.26    1.29
   1   7  -6   47.50    1.57
  -2  -6   7    0.11    0.11
  -2  -6   7    0.07    0.11
   2   6  -7    0.10    0.15
  -3  -5   8    0.40    0.12
  -3  -5   8    0.10    0.10
   3   5  -8    0.29    0.15
   3   5  -8    0.44    0.11
  -4  -4   9   15.78    0.61
  -4  -4   9   15.57    0.64
   4   4  -9   15.51    0.54
   4   4  -9   14.11    0.68
   4   4  -9   16.07    0.56
  -5  -3  10   70.62    1.93
  -5  -3  10   71.19    1.99
  -5  -3  10   72.65    2.13
   5   3 -10   74.13    1.88
   5   3 -10   72.94    1.93
  -6  -2  11    5.09    0.39
  -6  -2  11    6.44    0.40
  -6  -2  11    6.66    0.39
   6   2 -11    6.04    0.36
   6   2 -11    5.56    0.36
  -7  -1  12   66.27    1.84
  -7  -1  12   66.20    2.01
  -7  -1  12   64.97    1.88
   7   1 -12   66.20    1.83
   7   1 -12   65.71    1.88
  -8   0  13    0.13    0.15
  -8   0  13   -0.16    0.12
  -8   0  13    0.09    0.13
   8   0 -13   -0.01    0.14
   8   0 -13   -0.06    0.13
  -9   1  14   -0.08    0.12
  -9   1  14   -0.07    0.12
  -9   1  14   -0.05    0.13
   9  -1 -14    0.01    0.13
   9  -1 -14   -0.12    0.15
 -10   2  15    3.30    0.40
 -10   2  15    3.84    0.40
 -10   2  15    3.22    0.37
  10  -2 -15    3.09    0.39
  10  -2 -15    3.02    0.38
 -11   3  16   10.33    0.60
 -11   3  16   10.29    0.65
 -11   3  16   10.36    0.59
  11  -3 -16    9.38    0.65
  11  -3 -16   11.90    0.68
 -12   4  17   10.04    0.66
  12  -4 -17    7.75    0.63
  12  -4 -17    8.66    0.63
  13  -5 -18   18.18    0.97
  -7  13   1    0.78    0.31
  -6  12   0   12.79    0.81
  -5  11  -1    0.25    0.23
  -4  10  -2    0.76    0.25
  -3   9  -3    0.28    0.22
   2  -8   4   12.36    0.51
   2  -8   4   12.69    0.50
  -2   8  -4   12.36    0.68
   1  -7   5    8.88    0.41
   1  -7   5    9.38    0.43
  -1   7  -5    9.75    0.58
   0  -6   6   51.91    1.47
   0  -6   6   54.26    1.43
   0   6  -6   52.97    1.70
  -1  -5   7    5.75    0.33
  -1  -5   7    6.42    0.34
   1   5  -7    6.03    0.43
  -2  -4   8    0.62    0.15
  -2  -4   8    0.96    0.17
   2   4  -8    0.69    0.19
   2   4  -8    0.78    0.12
   2   4  -8    0.97    0.12
  -3  -3   9   77.18    2.09
  -3  -3   9   78.42    2.02
   3   3  -9   77.05    1.94
   3   3  -9   78.33    2.00
  -4  -2  10    0.91    0.19
  -4  -2  10    1.19    0.21
  -4  -2  10    1.74    0.24
   4   2 -10    1.42    0.19
   4   2 -10    1.18    0.17
  -5  -1  11    0.49    0.16
  -5  -1  11    0.62    0.16
  -5  -1  11    0.50    0.15
   5   1 -11    0.71    0.16
   5   1 -11    0.41    0.14
  -6   0  12  121.14    3.06
  -6   0  12  122.44    3.37
  -6   0  12  120.69    3.15
   6   0 -12  123.85    3.20
   6   0 -12  120.22    3.10
  -7   1  13   11.41    0.55
  -7   1  13   11.85    0.62
  -7   1  13   10.82    0.56
   7  -1 -13   11.09    0.59
   7  -1 -13   11.53    0.58
  -8   2  14    8.62    0.51
  -8   2  14    8.55    0.49
  -8   2  14    9.08    0.56
   8  -2 -14    7.87    0.51
   8  -2 -14    9.50    0.57
  -9   3  15    8.01    0.49
  -9   3  15    8.87    0.52
  -9   3  15    7.77    0.55
   9  -3 -15    7.28    0.54
   9  -3 -15    7.54    0.53
 -10   4  16    0.07    0.12
 -10   4  16   -0.19    0.16
  10  -4 -16    0.13    0.21
  10  -4 -16    0.07    0.21
 -11   5  17    2.74    0.42
  11  -5 -17    1.79    0.38
  11  -5 -17    2.49    0.42
  12  -6 -18    3.97    0.54
  -8  12   1    0.59    0.27
  -7  11   0   15.20    0.86
  -6  10  -1    8.91    0.62
  -5   9  -2   25.16    1.08
   4  -8   3    0.45    0.14
   4  -8   3    0.44    0.13
  -4   8  -3    0.65    0.22
   3  -7   4    0.32    0.12
   3  -7   4    0.34    0.12
  -3   7  -4    0.31    0.17
   2  -6   5    2.71    0.26
   2  -6   5    2.63    0.25
  -2   6  -5    2.74    0.33
   1  -5   6   68.51    1.75
   1  -5   6   67.81    1.80
  -1   5  -6   64.96    2.00
   0  -4   7    0.79    0.15
   0  -4   7    0.80    0.15
   0   4  -7    1.15    0.21
   0   4  -7    1.00    0.10
  -1  -3   8    2.98    0.25
  -1  -3   8    3.43    0.25
   1   3  -8    2.97    0.19
   1   3  -8    3.59    0.30
   1   3  -8    2.90    0.18
  -2  -2   9    0.77    0.18
  -2  -2   9    0.95    0.17
  -2  -2   9    0.81    0.15
   2   2  -9    0.97    0.15
   2   2  -9    0.87    0.13
  -3  -1  10    1.77    0.23
  -3  -1  10    1.96    0.24
   3   1 -10    1.80    0.21
   3   1 -10    2.33    0.23
  -4   0  11    0.12    0.11
  -4   0  11    0.09    0.11
  -4   0  11    0.04    0.12
   4   0 -11   -0.14    0.09
   4   0 -11    0.00    0.10
  -5   1  12   53.70    1.73
  -5   1  12   54.18    1.61
  -5   1  12   55.58    1.56
   5  -1 -12   55.86    1.60
   5  -1 -12   55.14    1.64
  -6   2  13   40.92    1.27
  -6   2  13   41.29    1.43
  -6   2  13   41.36    1.32
   6  -2 -13   42.40    1.39
   6  -2 -13   41.90    1.35
  -7   3  14    1.72    0.28
  -7   3  14    1.71    0.30
  -7   3  14    1.61    0.25
   7  -3 -14    1.31    0.27
   7  -3 -14    1.41    0.28
  -8   4  15   30.02    1.05
  -8   4  15   29.30    1.22
  -8   4  15   30.60    1.09
   8  -4 -15   31.08    1.20
   8  -4 -15   31.29    1.23
  -9   5  16    0.39    0.23
   9  -5 -16    0.30    0.22
   9  -5 -16    0.33    0.22
  10  -6 -17    0.27    0.24
  11  -7 -18   24.33    1.20
 -10  12   2    0.65    0.29
  -9  11   1   -0.14    0.21
  -8  10   0   15.51    0.83
  -7   9  -1    2.40    0.37
   6  -8   2   19.12    0.71
   6  -8   2   20.96    0.70
  -6   8  -2   19.30    0.88
   5  -7   3    3.68    0.28
   5  -7   3    3.96    0.28
  -5   7  -3    3.71    0.40
   4  -6   4    1.30    0.19
   4  -6   4    1.40    0.19
  -4   6  -4    1.53    0.26
   3  -5   5   16.48    0.62
   3  -5   5   16.95    0.60
  -3   5  -5   16.78    0.72
   2  -4   6   59.35    1.63
   2  -4   6   60.52    1.58
  -2   4  -6   58.86    1.79
   1  -3   7    9.61    0.42
   1  -3   7   10.09    0.45
  -1   3  -7    9.26    0.50
  -1   3  -7    9.63    0.31
   0  -2   8   16.08    0.59
   0  -2   8   16.37    0.66
   0  -2   8   15.50    0.60
   0   2  -8   14.91    0.48
   0   2  -8   15.41    0.50
  -1  -1   9    0.96    0.20
  -1  -1   9    0.67    0.15
  -1  -1   9    0.73    0.15
   1   1  -9    0.79    0.13
   1   1  -9    0.85    0.14
  -2   0  10    8.57    0.44
  -2   0  10    8.98    0.44
  -2   0  10    9.05    0.48
   2   0 -10    8.60    0.42
  -3   1  11   18.31    0.73
  -3   1  11   20.47    0.72
  -3   1  11   19.42    0.80
   3  -1 -11   19.79    0.75
  -4   2  12    3.09    0.36
  -4   2  12    3.40    0.32
  -4   2  12    3.36    0.33
  -4   2  12    3.26    0.33
   4  -2 -12    3.60    0.37
  -6   4  14   33.45    1.07
  -6   4  14   31.02    1.24
  -6   4  14   32.73    1.11
   6  -4 -14   31.68    1.23
  -7   5  15    2.25    0.36
   7  -5 -15    2.48    0.39
   7  -5 -15    2.19    0.36
  -8   6  16    5.01    0.55
   8  -6 -16    5.31    0.58
   8  -6 -16    4.99    0.55
   9  -7 -17    0.63    0.30
 -12  12   3    0.13    0.25
 -11  11   2   -0.05    0.20
 -10  10   1    2.69    0.41
  -9   9   0    4.17    0.46
   8  -8   1    1.64    0.24
   8  -8   1    2.40    0.27
  -8   8  -1    2.47    0.36
   7  -7   2   73.06    2.00
   7  -7   2   77.45    1.95
  -7   7  -2   73.40    2.25
   6  -6   3    0.32    0.12
   6  -6   3    0.29    0.11
  -6   6  -3    0.11    0.16
   5  -5   4    0.32    0.12
   5  -5   4    0.36    0.13
  -5   5  -4    0.07    0.14
   4  -4   5   85.55    2.14
   4  -4   5   84.25    2.20
  -4   4  -5   84.20    2.40
   3  -3   6   40.10    1.20
   3  -3   6   42.99    1.18
  -3   3  -6   40.59    1.31
   2  -2   7   45.87    1.31
   2  -2   7   46.30    1.27
  -2   2  -7   44.89    1.17
   1  -1   8  134.57    3.28
   1  -1   8  140.21    3.44
   1  -1   8  135.78    3.32
   1  -1   8  138.10    3.68
  -1   1  -8  143.26    3.39
   0   0   9    0.03    0.10
   0   0   9    0.01    0.09
   0   0   9   -0.01    0.08
   0   0   9    0.02    0.09
   0   0  -9    0.01    0.07
  -1   1  10    0.39    0.12
  -1   1  10    0.32    0.13
  -1   1  10    0.14    0.13
  -1   1  10    0.37    0.12
   1  -1 -10    0.17    0.11
  -2   2  11    0.96    0.18
  -2   2  11    0.85    0.20
  -2   2  11    0.87    0.18
  -2   2  11    1.31    0.21
   2  -2 -11    1.10    0.21
  -3   3  12   44.15    1.34
  -3   3  12   45.14    1.30
  -3   3  12   42.92    1.48
  -3   3  12   45.69    1.37
   3  -3 -12   44.66    1.45
  -4   4  13   17.81    0.78
  -4   4  13   17.67    0.72
  -4   4  13   17.93    0.85
  -4   4  13   19.13    0.71
   4  -4 -13   20.08    0.87
  -5   5  14   39.89    1.50
  -5   5  14   41.52    1.40
   5  -5 -14   43.29    1.52
  -6   6  15    1.00    0.28
  -6   6  15    0.86    0.26
   6  -6 -15    0.54    0.24
   7  -7 -16    0.27    0.24
   8  -8 -17    1.86    0.41
 -13  11   3    0.04    0.22
 -12  10   2   -0.22    0.17
 -11   9   1   10.79    0.66
  10  -8   0    3.31    0.32
 -10   8   0    3.58    0.35
 -10   8   0    4.06    0.43
   9  -7   1    0.98    0.21
   9  -7   1    0.94    0.19
  -9   7  -1    0.86    0.24
   8  -6   2   35.76    1.12
   8  -6   2   36.34    1.08
  -8   6  -2   35.15    1.23
   7  -5   3   57.54    1.56
   7  -5   3   58.92    1.62
  -7   5  -3   57.60    1.76
   6  -4   4    0.23    0.11
   6  -4   4    0.05    0.10
  -6   4  -4   -0.04    0.11
   5  -3   5  104.29    2.49
   5  -3   5   99.36    2.56
  -5   3  -5   95.70    2.73
   4  -2   6   20.72    0.56
   4  -2   6   19.74    0.71
   4  -2   6   20.58    0.69
  -4   2  -6   19.29    0.76
   3  -1   7   11.16    0.47
   3  -1   7   11.67    0.50
   3  -1   7   11.65    0.40
   3  -1   7   11.31    0.52
   3  -1   7   11.25    0.39
   2   0   8  406.73   10.08
   2   0   8  401.70    9.51
   2   0   8  404.19    9.42
   2   0   8  405.10    9.30
   2   0   8  394.76    9.13
   1   1   9    0.54    0.15
   1   1   9    0.77    0.16
   1   1   9    0.33    0.13
   1   1   9    0.51    0.13
   1   1   9    0.52    0.13
   0   2  10   36.75    1.13
   0   2  10   38.34    1.10
   0   2  10   35.53    1.23
  -1   3  11    2.57    0.32
  -1   3  11    2.86    0.30
  -1   3  11    2.59    0.28
  -1   3  11    2.44    0.27
  -1   3  11    2.73    0.32
  -2   4  12    1.91    0.25
  -2   4  12    2.04    0.29
  -2   4  12    2.14    0.31
  -2   4  12    2.10    0.30
  -2   4  12    2.54    0.27
  -3   5  13    1.81    0.30
  -3   5  13    1.65    0.31
  -4   6  14   18.17    0.92
  -4   6  14   19.30    0.88
   4  -6 -14   20.62    0.97
  -5   7  15    5.75    0.60
  -5   7  15    5.53    0.55
   5  -7 -15    5.95    0.63
  -6   8  16    0.39    0.26
 -15  11   4    5.30    0.59
 -14  10   3    0.05    0.20
 -13   9   2    0.08    0.19
 -12   8   1   16.54    0.72
 -12   8   1   15.92    0.70
 -12   8   1   16.11    0.80
  11  -7   0    0.91    0.20
 -11   7   0    1.45    0.27
 -11   7   0    1.16    0.22
  10  -6   1   14.17    0.61
 -10   6  -1   14.45    0.68
   9  -5   2   19.39    0.74
   9  -5   2   19.97    0.73
  -9   5  -2   20.59    0.81
   8  -4   3   17.73    0.67
   8  -4   3   17.25    0.64
  -8   4  -3   16.00    0.68
   7  -3   4   12.71    0.51
   7  -3   4   11.31    0.52
  -7   3  -4   12.46    0.55
   6  -2   5    2.04    0.13
   6  -2   5    2.14    0.24
   6  -2   5    1.94    0.23
  -6   2  -5    1.97    0.24
   5  -1   6    7.35    0.38
   5  -1   6    7.65    0.40
   5  -1   6    7.90    0.31
   5  -1   6    7.40    0.29
   4   0   7   -0.13    0.07
   4   0   7    0.29    0.12
   4   0   7   -0.03    0.07
   4   0   7    0.00    0.09
   4   0   7   -0.03    0.09
   3   1   8  140.35    3.35
   3   1   8  141.78    3.39
   3   1   8  137.98    3.69
   3   1   8  138.21    3.47
   3   1   8  137.60    3.45
   2   2   9    7.63    0.39
   2   2   9    7.77    0.44
   2   2   9    7.97    0.40
   2   2   9    7.68    0.41
   2   2   9    7.83    0.40
   1   3  10   98.23    2.62
   1   3  10   95.10    2.75
   1   3  10   95.67    2.55
   1   3  10  101.33    2.54
   1   3  10   97.82    2.44
   0   4  11    4.99    0.33
   0   4  11    4.91    0.33
   0   4  11    5.14    0.39
   0   4  11    4.70    0.39
   0   4  11    5.30    0.40
  -1   5  12    3.67    0.41
  -1   5  12    3.39    0.38
  -1   5  12    4.06    0.42
  -2   6  13    0.15    0.18
  -2   6  13   -0.21    0.16
  -2   6  13    0.14    0.18
  -3   7  14    9.11    0.60
  -3   7  14    7.74    0.59
  -4   8  15    3.35    0.45
  -5   9  16    0.14    0.24
 -15   9   3    1.92    0.35
 -14   8   2    5.42    0.40
 -14   8   2    5.76    0.41
 -13   7   1    9.65    0.57
 -13   7   1    8.83    0.52
 -13   7   1    9.43    0.54
  12  -6   0    5.09    0.38
 -12   6   0    5.21    0.41
 -12   6   0    5.52    0.40
  11  -5   1    4.64    0.36
 -11   5  -1    4.41    0.35
  10  -4   2   28.87    0.97
  10  -4   2   28.67    0.94
 -10   4  -2   27.90    0.98
   9  -3   3   44.58    1.36
   9  -3   3   46.57    1.32
  -9   3  -3   46.72    1.40
   8  -2   4  119.47    2.84
   8  -2   4  115.55    2.97
   8  -2   4  116.67    2.88
  -8   2  -4  115.04    3.10
   7  -1   5    0.03    0.07
   7  -1   5    0.04    0.09
   7  -1   5    0.03    0.09
   7  -1   5   -0.02    0.05
  -7   1  -5    0.12    0.11
   6   0   6    9.58    0.38
   6   0   6    9.33    0.44
   6   0   6   10.11    0.40
   6   0   6    9.28    0.44
   6   0   6    9.09    0.45
   5   1   7   38.74    1.20
   5   1   7   37.54    1.10
   5   1   7   37.33    1.14
   5   1   7   37.74    1.08
   5   1   7   37.28    1.10
   4   2   8   59.63    1.59
   4   2   8   61.61    1.65
   4   2   8   60.20    1.62
   4   2   8   53.61    1.73
   4   2   8   62.29    1.67
   3   3   9    5.67    0.33
   3   3   9    5.49    0.37
   3   3   9    5.17    0.37
   3   3   9    6.11    0.38
   3   3   9    5.78    0.35
   2   4  10    0.66    0.16
   2   4  10    0.56    0.17
   2   4  10    0.27    0.13
   2   4  10    0.75    0.20
   2   4  10    0.58    0.18
   1   5  11    6.81    0.48
   1   5  11    7.36    0.47
   1   5  11    6.93    0.48
   0   6  12    0.36    0.19
   0   6  12    0.82    0.24
   0   6  12    0.86    0.23
  -1   7  13    0.16    0.20
  -1   7  13    0.20    0.19
  -1   7  13   -0.10    0.15
  -2   8  14   11.08    0.70
  -2   8  14   11.91    0.74
  -2   8  14   12.32    0.76
  -3   9  15    3.20    0.47
 -16   8   3    0.05    0.15
 -16   8   3    0.09    0.17
 -15   7   2   82.09    2.31
 -15   7   2   78.12    2.23
 -14   6   1    0.42    0.19
 -14   6   1    0.10    0.16
  13  -5   0   10.27    0.53
 -13   5   0   10.96    0.55
 -13   5   0    9.91    0.55
  12  -4   1    2.88    0.32
 -12   4  -1    2.76    0.30
 -12   4  -1    3.15    0.34
  11  -3   2   14.85    0.65
  11  -3   2   16.73    0.69
 -11   3  -2   16.68    0.65
  10  -2   3   20.03    0.75
  10  -2   3   22.25    0.80
  10  -2   3   21.24    0.66
 -10   2  -3   21.84    0.76
   9  -1   4   46.01    1.32
   9  -1   4   45.77    1.24
   9  -1   4   47.15    1.22
   9  -1   4   42.85    1.34
  -9   1  -4   46.34    1.35
   8   0   5   -0.05    0.07
   8   0   5    0.23    0.12
   8   0   5    0.21    0.12
   8   0   5    0.11    0.09
  -8   0  -5    0.19    0.10
   7   1   6    0.23    0.11
   7   1   6    0.03    0.08
   7   1   6    0.16    0.11
   7   1   6    0.11    0.10
   7   1   6    0.17    0.10
   6   2   7    5.95    0.35
   6   2   7    6.15    0.36
   6   2   7    5.60    0.35
   6   2   7    5.42    0.34
   6   2   7    5.56    0.35
   5   3   8   29.92    1.00
   5   3   8   31.01    0.93
   5   3   8   28.87    1.02
   5   3   8   28.88    0.96
   5   3   8   29.34    0.95
   4   4   9    1.13    0.22
   4   4   9    1.04    0.21
   4   4   9    1.14    0.19
   4   4   9    1.29    0.20
   4   4   9    0.97    0.21
   3   5  10    7.33    0.49
   3   5  10    6.86    0.46
   3   5  10    8.90    0.51
   2   6  11    3.04    0.38
   2   6  11    2.92    0.37
   2   6  11    3.45    0.39
   1   7  12    0.69    0.25
   1   7  12    0.29    0.20
   1   7  12    0.36    0.19
   0   8  13    0.05    0.19
   0   8  13    0.14    0.21
   0   8  13    0.09    0.20
  -1   9  14    1.91    0.38
 -18   8   4    0.26    0.21
 -18   8   4   -0.19    0.16
 -17   7   3    2.59    0.37
 -17   7   3    2.51    0.35
 -16   6   2   49.13    1.54
 -16   6   2   47.52    1.57
 -15   5   1    1.73    0.30
 -15   5   1    2.55    0.33
  14  -4   0   16.89    0.73
 -14   4   0   16.95    0.76
  13  -3   1    0.32    0.17
 -13   3  -1    0.84    0.21
  12  -2   2   11.15    0.54
  11  -1   3    0.08    0.09
  11  -1   3    0.13    0.13
  11  -1   3    0.09    0.09
  11  -1   3    0.10    0.13
  10   0   4    1.99    0.26
  10   0   4    1.69    0.20
  10   0   4    2.00    0.21
  10   0   4    2.15    0.26
   9   1   5   29.23    0.91
   9   1   5   29.38    0.94
   9   1   5   28.62    0.93
   9   1   5   28.94    0.93
   9   1   5   29.74    0.98
   8   2   6    0.12    0.11
   8   2   6    0.38    0.13
   8   2   6    0.30    0.13
   8   2   6    0.41    0.14
   8   2   6    0.37    0.14
   7   3   7    2.82    0.29
   7   3   7    2.61    0.28
   7   3   7    2.85    0.29
   7   3   7    2.43    0.28
   7   3   7    2.61    0.27
   6   4   8    0.77    0.20
   6   4   8    0.62    0.17
   6   4   8    0.78    0.19
   6   4   8    0.58    0.16
   6   4   8    0.95    0.18
   5   5   9   -0.03    0.13
   5   5   9    0.16    0.14
   5   5   9    0.20    0.16
   4   6  10   31.41    1.19
   4   6  10   32.02    1.15
   4   6  10   31.88    1.18
   3   7  11    0.10    0.16
   3   7  11    0.09    0.16
   3   7  11   -0.18    0.15
   2   8  12    0.73    0.26
   2   8  12    0.60    0.24
   2   8  12    0.85    0.26
   1   9  13    9.78    0.69
   1   9  13    9.19    0.66
 -20   8   5    2.71    0.40
 -19   7   4    0.13    0.20
 -19   7   4    0.21    0.21
 -18   6   3    0.31    0.21
 -18   6   3   -0.12    0.17
 -17   5   2   18.45    0.83
 -17   5   2   19.04    0.86
 -16   4   1    0.26    0.18
 -16   4   1    0.25    0.19
 -15   3   0   15.24    0.73
  14  -2   1    4.60    0.42
 -14   2  -1    5.26    0.41
  13  -1   2   57.42    1.64
  13  -1   2   56.96    1.55
  13  -1   2   56.46    1.59
 -13   1  -2   55.77    1.70
  12   0   3    0.00    0.10
  12   0   3    0.04    0.13
  12   0   3    0.09    0.11
  11   1   4   24.66    0.81
  11   1   4   23.94    0.84
  11   1   4   24.14    0.88
  11   1   4   23.42    0.84
  10   2   5   12.16    0.56
  10   2   5   11.67    0.53
  10   2   5   13.35    0.59
  10   2   5   12.78    0.57
   9   3   6   42.08    1.36
   9   3   6   46.61    1.35
   8   4   7    0.52    0.16
   8   4   7    0.37    0.16
   8   4   7    0.41    0.17
   8   4   7    0.63    0.16
   7   5   8    1.14    0.24
   7   5   8    0.91    0.22
   6   6   9    0.09    0.16
   6   6   9    0.20    0.16
   6   6   9    0.13    0.14
   5   7  10   18.85    0.88
   5   7  10   20.77    0.94
   4   8  11    0.37    0.21
   4   8  11    0.08    0.17
   4   8  11    0.05    0.18
   3   9  12    0.95    0.28
   3   9  12    0.73    0.28
   2  10  13    3.95    0.52
 -21   7   5    0.49    0.27
 -21   7   5    0.41    0.26
 -20   6   4    0.09    0.17
 -20   6   4    0.34    0.21
 -19   5   3    7.15    0.55
 -19   5   3    9.16    0.59
 -18   4   2   16.18    0.77
 -18   4   2   15.14    0.78
 -17   3   1   13.63    0.70
 -17   3   1   14.76    0.74
 -16   2   0    6.41    0.45
 -16   2   0    5.23    0.43
 -15   1  -1   26.46    1.02
  14   0   2   22.77    0.85
  14   0   2   24.36    0.84
  14   0   2   24.45    0.91
 -14   0  -2   24.00    0.95
  13   1   3   19.50    0.73
  13   1   3   19.09    0.74
  13   1   3   18.34    0.76
 -13  -1  -3   19.54    0.81
  12   2   4   44.95    1.41
  12   2   4   47.08    1.39
  12   2   4   46.77    1.38
 -12  -2  -4   46.14    1.45
  11   3   5   31.13    1.10
  11   3   5   33.74    1.09
  11   3   5   31.96    1.04
 -11  -3  -5   31.84    1.10
  10   4   6   20.27    0.81
  10   4   6   20.30    0.83
  10   4   6   20.13    0.76
   9   5   7    9.90    0.56
   9   5   7    8.20    0.52
   8   6   8    0.29    0.19
   8   6   8   -0.03    0.16
   7   7   9    4.03    0.45
   7   7   9    3.47    0.43
   6   8  10   14.62    0.79
   6   8  10   15.63    0.83
   5   9  11    0.53    0.26
   4  10  12    3.69    0.50
 -22   6   5    0.70    0.27
 -21   5   4    0.14    0.22
 -21   5   4    0.14    0.21
 -20   4   3    8.07    0.56
 -20   4   3    8.56    0.60
 -19   3   2    1.55    0.31
 -19   3   2    1.41    0.29
 -18   2   1    6.17    0.48
 -18   2   1    5.46    0.51
 -17   1   0  125.94    3.38
 -17   1   0  122.89    3.26
  16   0   1    0.08    0.14
  16   0   1    0.03    0.14
 -16   0  -1    0.15    0.18
 -16   0  -1   -0.04    0.15
  15   1   2    0.51    0.17
  15   1   2    0.14    0.15
 -15  -1  -2    0.43    0.19
  14   2   3   41.41    1.30
 -14  -2  -3   39.90    1.35
  13   3   4    1.19    0.24
  13   3   4    1.07    0.22
  13   3   4    0.66    0.20
 -13  -3  -4    0.96    0.23
  12   4   5    9.68    0.56
  12   4   5   10.34    0.53
  12   4   5    9.81    0.55
 -12  -4  -5    9.23    0.53
  11   5   6   14.85    0.73
  11   5   6   15.14    0.72
  10   6   7    2.19    0.33
  10   6   7    1.92    0.33
   9   7   8    1.12    0.28
   9   7   8    1.81    0.33
   8   8   9    2.51    0.39
   8   8   9    3.03    0.43
   7   9  10    1.48    0.34
   6  10  11    2.34    0.42
 -23   5   5    0.11    0.23
 -22   4   4    0.57    0.25
 -22   4   4    0.73    0.28
 -21   3   3    3.14    0.43
 -21   3   3    2.67    0.40
 -20   2   2    3.40    0.44
 -20   2   2    3.37    0.42
 -19   1   1    0.73    0.24
 -19   1   1    0.46    0.22
  18   0   0    0.91    0.22
 -18   0   0    0.92    0.25
 -18   0   0    0.56    0.22
  17   1   1    8.52    0.51
  17   1   1    8.08    0.51
 -17  -1  -1    8.52    0.56
 -17  -1  -1    7.16    0.52
  16   2   2    0.10    0.11
  16   2   2    0.66    0.19
 -16  -2  -2    0.61    0.22
 -16  -2  -2    0.92    0.23
  15   3   3   34.27    1.19
  15   3   3   34.85    1.22
 -15  -3  -3   34.62    1.19
 -15  -3  -3   34.48    1.23
  14   4   4    1.57    0.29
  14   4   4    2.14    0.32
 -14  -4  -4    1.68    0.28
 -14  -4  -4    1.91    0.30
  13   5   5    3.42    0.40
  13   5   5    3.79    0.43
  12   6   6   25.64    1.04
  12   6   6   24.96    1.06
  11   7   7    4.25    0.49
  11   7   7    4.71    0.50
  10   8   8    1.36    0.32
  10   8   8    0.76    0.27
   9   9   9    0.09    0.21
 -24   4   5    1.40    0.35
 -23   3   4    2.47    0.41
 -22   2   3   11.00    0.67
 -22   2   3    9.05    0.64
 -21   1   2    0.45    0.22
 -21   1   2    0.80    0.26
 -20   0   1    0.16    0.20
 -20   0   1    0.10    0.20
  18   2   1    0.16    0.16
  18   2   1    0.15    0.16
 -18  -2  -1    0.09    0.17
 -18  -2  -1   -0.07    0.15
  17   3   2    1.67    0.30
  17   3   2    1.76    0.30
 -17  -3  -2    1.79    0.32
 -17  -3  -2    2.20    0.35
  16   4   3   11.33    0.64
  16   4   3   11.46    0.66
 -16  -4  -3   11.61    0.63
 -16  -4  -3   10.96    0.62
  15   5   4    1.35    0.29
  15   5   4    1.66    0.32
  14   6   5    0.26    0.21
  14   6   5    0.35    0.22
  13   7   6   33.96    1.33
  13   7   6   32.41    1.27
  12   8   7    9.12    0.66
  12   8   7    8.01    0.59
  11   9   8    2.66    0.44
 -24   2   4    4.63    0.54
 -23   1   3    1.59    0.34
 -22   0   2    2.98    0.42
 -22   0   2    2.51    0.41
  21   1  -1    0.86    0.24
 -21  -1   1    1.10    0.29
 -21  -1   1    1.06    0.27
  20   2   0   16.77    0.84
  20   2   0   17.79    0.83
 -20  -2   0   17.41    0.86
 -20  -2   0   17.51    0.83
  19   3   1    8.97    0.59
  19   3   1    9.08    0.60
 -19  -3  -1    8.80    0.59
 -19  -3  -1   10.13    0.61
  18   4   2    6.10    0.50
  18   4   2    7.87    0.56
 -18  -4  -2    7.65    0.53
 -18  -4  -2    7.13    0.52
  17   5   3    1.40    0.30
  17   5   3    0.96    0.27
  16   6   4    0.36    0.23
  16   6   4    0.18    0.22
  15   7   5    0.47    0.25
  15   7   5    0.79    0.28
  14   8   6    8.55    0.64
  13   9   7    2.67    0.44
 -25   1   4   11.50    0.77
 -24   0   3    0.19    0.26
 -23  -1   2    1.68    0.35
  22   2  -1    0.78    0.28
 -22  -2   1    1.01    0.30
 -22  -2   1    1.39    0.32
  21   3   0    6.42    0.52
  21   3   0    4.15    0.49
 -21  -3   0    4.77    0.51
 -21  -3   0    5.00    0.54
  20   4   1   12.00    0.72
  20   4   1   13.91    0.78
 -20  -4  -1   11.97    0.70
 -20  -4  -1   12.49    0.72
  19   5   2   30.72    1.27
  19   5   2   29.26    1.21
  18   6   3    0.31    0.25
  18   6   3    0.80    0.29
  17   7   4   -0.09    0.21
  16   8   5    3.73    0.52
 -24  -2   2    1.32    0.35
  23   3  -1   -0.21    0.17
 -23  -3   1   -0.12    0.22
  22   4   0    0.22    0.21
 -22  -4   0   -0.07    0.21
  21   5   1    0.62    0.27
  20   6   2    1.85    0.39
 -17  -9  14   -0.04    0.20
 -18  -8  15    2.38    0.42
 -15  -9  13    9.99    0.63
 -16  -8  14    5.75    0.56
 -16  -8  14    7.43    0.58
 -17  -7  15    0.24    0.23
  17   7 -15    0.12    0.22
 -18  -6  16    0.16    0.24
  18   6 -16    0.05    0.22
  18   6 -16   -0.07    0.23
 -19  -5  17    0.85    0.32
  19   5 -17    0.90    0.31
 -13  -9  12   -0.01    0.19
 -14  -8  13    2.81    0.40
 -14  -8  13    2.03    0.35
 -15  -7  14    7.48    0.57
 -15  -7  14    7.61    0.57
  15   7 -14    7.82    0.57
 -16  -6  15    6.11    0.59
 -16  -6  15    5.76    0.57
  16   6 -15    5.75    0.57
  16   6 -15    5.69    0.55
 -17  -5  16    0.83    0.28
 -17  -5  16    0.81    0.29
  17   5 -16    1.53    0.33
  17   5 -16    1.04    0.30
 -18  -4  17    3.57    0.48
  18   4 -17    3.79    0.50
  18   4 -17    3.91    0.49
 -19  -3  18    0.03    0.23
  19   3 -18    0.00    0.23
   7  13  -7    0.13    0.28
   8  12  -8    4.46    0.56
   9  11  -9    0.14    0.24
  10  10 -10    2.84    0.42
 -11  -9  11    1.43    0.28
  11   9 -11    1.22    0.30
 -12  -8  12    3.69    0.41
 -12  -8  12    4.07    0.44
 -13  -7  13    2.50    0.36
 -13  -7  13    2.45    0.35
 -14  -6  14   17.67    0.85
 -14  -6  14   15.59    0.80
  14   6 -14   15.60    0.77
  14   6 -14   17.83    0.83
 -15  -5  15    3.11    0.43
 -15  -5  15    3.99    0.47
  15   5 -15    2.86    0.40
  15   5 -15    2.99    0.41
 -16  -4  16    1.52    0.32
 -16  -4  16    1.15    0.31
  16   4 -16    1.85    0.36
  16   4 -16    1.48    0.33
 -17  -3  17    7.12    0.56
  17   3 -17    6.42    0.60
  17   3 -17    5.96    0.60
 -18  -2  18    0.97    0.29
  18   2 -18    0.98    0.31
   5  13  -6    0.88    0.34
   6  12  -7   -0.23    0.20
   7  11  -8   10.80    0.71
   8  10  -9   -0.18    0.20
  -9  -9  10    4.69    0.43
   9   9 -10    4.36    0.49
 -10  -8  11    7.53    0.50
 -10  -8  11    6.40    0.46
  10   8 -11    6.12    0.52
 -11  -7  12    3.10    0.38
 -11  -7  12    3.77    0.42
  11   7 -12    4.11    0.47
 -12  -6  13    2.44    0.36
 -12  -6  13    2.35    0.34
  12   6 -13    2.43    0.35
  12   6 -13    2.13    0.32
  12   6 -13    2.13    0.34
 -13  -5  14   22.52    0.97
 -13  -5  14   22.68    0.95
  13   5 -14   21.66    0.92
  13   5 -14   19.99    0.95
  13   5 -14   21.60    0.90
 -14  -4  15    7.92    0.55
 -14  -4  15    8.18    0.57
  14   4 -15    7.92    0.54
  14   4 -15    8.51    0.58
  14   4 -15    7.86    0.56
 -15  -3  16    3.83    0.46
 -15  -3  16    4.05    0.48
  15   3 -16    3.24    0.43
  15   3 -16    4.07    0.48
 -16  -2  17    3.96    0.49
 -16  -2  17    3.79    0.46
  16   2 -17    4.75    0.53
  16   2 -17    4.54    0.51
 -17  -1  18    0.99    0.28
  17   1 -18    0.37    0.26
  17   1 -18    0.27    0.26
 -18   0  19   -0.10    0.21
  18   0 -19    0.14    0.26
   3  13  -5    0.17    0.25
   4  12  -6    0.18    0.25
   5  11  -7   -0.04    0.23
   6  10  -8   17.96    0.93
  -7  -9   9    9.66    0.50
  -7  -9   9    9.47    0.52
   7   9  -9    9.25    0.62
  -8  -8  10   15.67    0.72
  -8  -8  10   16.41    0.71
   8   8 -10   17.19    0.85
  -9  -7  11    3.88    0.40
  -9  -7  11    4.54    0.42
   9   7 -11    4.04    0.46
 -10  -6  12    0.02    0.15
 -10  -6  12    0.02    0.15
  10   6 -12   -0.04    0.15
  10   6 -12    0.09    0.14
 -11  -5  13    4.00    0.43
 -11  -5  13    4.47    0.44
  11   5 -13    4.55    0.47
  11   5 -13    4.04    0.41
  11   5 -13    4.63    0.38
 -12  -4  14    7.82    0.52
 -12  -4  14    8.63    0.56
  12   4 -14    8.16    0.51
  12   4 -14    7.52    0.52
  12   4 -14    8.38    0.56
 -13  -3  15    6.38    0.50
 -13  -3  15    6.80    0.51
 -13  -3  15    6.51    0.49
  13   3 -15    6.64    0.49
  13   3 -15    6.48    0.50
 -14  -2  16    9.86    0.63
 -14  -2  16    9.56    0.63
 -14  -2  16   10.35    0.64
  14   2 -16    9.58    0.61
  14   2 -16    8.88    0.61
 -15  -1  17    3.15    0.42
 -15  -1  17    2.89    0.42
 -15  -1  17    2.83    0.41
  15   1 -17    2.72    0.42
  15   1 -17    3.38    0.44
 -16   0  18    0.23    0.22
 -16   0  18    0.49    0.24
 -16   0  18    0.22    0.23
  16   0 -18    0.62    0.28
  16   0 -18    0.57    0.27
 -17   1  19    0.75    0.29
  17  -1 -19    0.79    0.30
   1  13  -4    8.23    0.70
   2  12  -5    5.14    0.59
   3  11  -6   -0.10    0.20
   4  10  -7    0.90    0.29
  -5  -9   8    1.23    0.22
   5   9  -8    1.77    0.33
  -6  -8   9    4.81    0.36
  -6  -8   9    4.75    0.36
   6   8  -9    4.44    0.49
  -7  -7  10   26.30    0.94
  -7  -7  10   27.50    0.99
   7   7 -10   26.76    1.11
  -8  -6  11    0.10    0.16
  -8  -6  11   -0.16    0.13
   8   6 -11   -0.10    0.15
  -9  -5  12    1.76    0.29
  -9  -5  12    1.30    0.26
   9   5 -12    2.16    0.29
   9   5 -12    1.72    0.25
   9   5 -12    1.90    0.32
 -10  -4  13    2.57    0.33
 -10  -4  13    2.26    0.33
  10   4 -13    2.97    0.35
  10   4 -13    2.85    0.33
  10   4 -13    2.38    0.35
 -11  -3  14   60.73    1.82
 -11  -3  14   61.81    1.97
 -11  -3  14   62.53    1.90
  11   3 -14   60.33    1.85
  11   3 -14   59.93    1.79
 -12  -2  15   12.07    0.65
 -12  -2  15   11.76    0.66
 -12  -2  15   11.94    0.67
  12   2 -15   11.36    0.64
  12   2 -15   12.20    0.64
 -13  -1  16   10.01    0.62
 -13  -1  16   10.87    0.66
 -13  -1  16   11.77    0.67
  13   1 -16   10.95    0.63
  13   1 -16   10.25    0.64
 -14   0  17   -0.17    0.14
 -14   0  17    0.14    0.19
 -14   0  17    0.16    0.18
  14   0 -17    0.03    0.17
  14   0 -17    0.02    0.19
 -15   1  18    1.38    0.31
 -15   1  18    1.56    0.32
 -15   1  18    1.87    0.36
  15  -1 -18    1.28    0.33
  15  -1 -18    1.30    0.33
 -16   2  19    1.96    0.36
  16  -2 -19    1.73    0.39
  -1  13  -3    0.43    0.31
   0  12  -4   29.13    1.32
   1  11  -5    3.70    0.49
   2  10  -6    0.30    0.22
   3   9  -7    7.12    0.54
  -4  -8   8    0.49    0.16
  -4  -8   8    0.39    0.15
   4   8  -8    0.87    0.25
  -5  -7   9    0.21    0.14
  -5  -7   9    0.35    0.16
   5   7  -9    0.23    0.19
  -6  -6  10   17.55    0.71
  -6  -6  10   17.74    0.74
   6   6 -10   17.33    0.83
  -7  -5  11   11.56    0.58
  -7  -5  11   11.86    0.60
   7   5 -11   12.13    0.65
   7   5 -11   11.76    0.54
  -8  -4  12    2.66    0.32
  -8  -4  12    2.85    0.33
   8   4 -12    3.57    0.35
   8   4 -12    2.75    0.30
   8   4 -12    3.18    0.38
  -9  -3  13   19.95    0.84
  -9  -3  13   18.47    0.79
  -9  -3  13   20.68    0.88
   9   3 -13   18.78    0.75
   9   3 -13   18.57    0.77
 -10  -2  14    4.56    0.44
 -10  -2  14    4.04    0.42
 -10  -2  14    5.47    0.41
  10   2 -14    4.24    0.40
  10   2 -14    4.96    0.41
 -11  -1  15    2.43    0.34
 -11  -1  15    3.26    0.39
 -11  -1  15    2.41    0.35
  11   1 -15    2.53    0.35
  11   1 -15    3.71    0.40
 -12   0  16   18.17    0.83
 -12   0  16   16.13    0.77
 -12   0  16   14.43    0.79
  12   0 -16   14.56    0.78
  12   0 -16   15.98    0.77
 -13   1  17   -0.03    0.15
 -13   1  17    0.05    0.18
 -13   1  17    0.37    0.20
  13  -1 -17   -0.13    0.19
  13  -1 -17    0.08    0.19
 -14   2  18   -0.01    0.19
 -14   2  18    0.09    0.20
 -14   2  18    0.31    0.22
  14  -2 -18   -0.12    0.19
  14  -2 -18   -0.23    0.18
 -15   3  19    0.75    0.27
  15  -3 -19    0.52    0.29
  -3  13  -2    0.96    0.35
  -2  12  -3    0.29    0.24
  -1  11  -4   26.68    1.20
   0  10  -5    2.53    0.39
   1   9  -6    2.50    0.38
  -2  -8   7    9.01    0.45
  -2  -8   7    9.14    0.44
   2   8  -7    7.27    0.54
  -3  -7   8    0.23    0.14
  -3  -7   8    0.09    0.11
   3   7  -8   -0.09    0.14
  -4  -6   9    0.17    0.13
  -4  -6   9    0.09    0.12
   4   6  -9   -0.13    0.14
  -5  -5  10   61.89    1.79
  -5  -5  10   63.00    1.73
   5   5 -10   60.16    1.94
  -6  -4  11   20.46    0.81
  -6  -4  11   21.45    0.79
   6   4 -11   21.04    0.74
   6   4 -11   20.12    0.71
   6   4 -11   17.59    0.84
  -7  -3  12   15.39    0.74
  -7  -3  12   15.79    0.71
  -7  -3  12   15.46    0.68
   7   3 -12   16.48    0.66
   7   3 -12   15.75    0.63
  -8  -2  13   19.77    0.80
  -8  -2  13   20.62    0.84
  -8  -2  13   19.94    0.87
   8   2 -13   19.04    0.76
   8   2 -13   19.50    0.79
  -9  -1  14   -0.05    0.14
  -9  -1  14    0.03    0.15
  -9  -1  14    0.07    0.16
   9   1 -14   -0.05    0.13
   9   1 -14   -0.10    0.14
 -10   0  15    0.03    0.14
 -10   0  15   -0.25    0.13
 -10   0  15    0.08    0.16
  10   0 -15    0.00    0.16
  10   0 -15   -0.06    0.14
 -11   1  16   26.19    1.05
 -11   1  16   26.49    1.03
 -11   1  16   26.93    1.12
  11  -1 -16   25.47    1.08
  11  -1 -16   26.05    1.06
 -12   2  17    2.72    0.37
 -12   2  17    2.27    0.38
 -12   2  17    3.06    0.38
  12  -2 -17    2.69    0.40
  12  -2 -17    2.77    0.41
 -13   3  18    0.52    0.23
 -13   3  18    0.93    0.25
 -13   3  18    1.01    0.31
  13  -3 -18    0.62    0.27
  13  -3 -18    0.85    0.29
  14  -4 -19    1.18    0.36
  -5  13  -1    0.89    0.32
  -4  12  -2    0.13    0.23
  -3  11  -3    1.74    0.37
  -2  10  -4   21.10    1.01
  -1   9  -5    7.14    0.54
   0  -8   6    4.83    0.33
   0  -8   6    4.99    0.31
   0   8  -6    4.98    0.44
  -1  -7   7    2.23    0.25
  -1  -7   7    2.43    0.27
   1   7  -7    1.73    0.31
  -2  -6   8    0.15    0.11
  -2  -6   8    0.03    0.09
   2   6  -8    0.05    0.16
  -3  -5   9    1.61    0.23
  -3  -5   9    1.40    0.22
   3   5  -9    1.39    0.26
  -4  -4  10   50.69    1.49
  -4  -4  10   48.88    1.43
   4   4 -10   50.07    1.38
   4   4 -10   47.82    1.61
  -5  -3  11    0.87    0.21
  -5  -3  11    0.58    0.18
  -5  -3  11    0.85    0.20
   5   3 -11    0.70    0.16
   5   3 -11    0.83    0.16
  -6  -2  12    9.23    0.50
  -6  -2  12   10.12    0.53
  -6  -2  12    9.31    0.54
   6   2 -12    8.73    0.47
   6   2 -12    9.43    0.46
  -7  -1  13   10.55    0.57
  -7  -1  13   11.11    0.61
  -7  -1  13   11.31    0.57
   7   1 -13   11.96    0.58
   7   1 -13   11.65    0.55
  -8   0  14    1.00    0.23
  -8   0  14    1.00    0.23
  -8   0  14    1.20    0.25
   8   0 -14    1.28    0.25
   8   0 -14    0.85    0.22
  -9   1  15   -0.01    0.15
  -9   1  15    0.01    0.15
  -9   1  15    0.11    0.15
   9  -1 -15    0.35    0.19
   9  -1 -15   -0.06    0.14
 -10   2  16    3.09    0.41
 -10   2  16    2.73    0.36
 -10   2  16    1.99    0.32
  10  -2 -16    2.36    0.35
  10  -2 -16    3.35    0.43
 -11   3  17   14.25    0.80
 -11   3  17   12.99    0.69
 -11   3  17   12.83    0.70
  11  -3 -17   14.40    0.80
  11  -3 -17   15.18    0.79
 -12   4  18    7.27    0.60
  12  -4 -18    7.38    0.61
  12  -4 -18    8.53    0.66
  13  -5 -19    2.94    0.47
  -7  13   0    4.82    0.60
  -6  12  -1   -0.34    0.17
  -5  11  -2    2.30    0.41
  -4  10  -3    5.61    0.57
  -3   9  -4   14.13    0.76
   2  -8   5   11.75    0.50
   2  -8   5   11.73    0.52
  -2   8  -5   12.04    0.68
   1  -7   6   30.89    1.01
   1  -7   6   33.21    1.00
  -1   7  -6   33.21    1.23
   0  -6   7    0.51    0.16
   0  -6   7    0.71    0.16
   0   6  -7    0.45    0.19
  -1  -5   8   47.14    1.33
  -1  -5   8   48.17    1.39
   1   5  -8   45.42    1.54
  -2  -4   9    7.09    0.39
  -2  -4   9    7.77    0.42
   2   4  -9    7.00    0.47
  -3  -3  10   33.79    1.10
  -3  -3  10   32.92    1.06
   3   3 -10   33.12    0.96
   3   3 -10   34.68    1.00
  -4  -2  11    0.08    0.12
  -4  -2  11    0.08    0.13
  -4  -2  11    0.48    0.16
   4   2 -11    0.30    0.13
   4   2 -11    0.21    0.12
  -5  -1  12   53.02    1.60
  -5  -1  12   53.01    1.71
  -5  -1  12   53.89    1.55
   5   1 -12   53.44    1.51
   5   1 -12   52.57    1.55
  -6   0  13   -0.15    0.11
  -6   0  13    0.12    0.14
  -6   0  13    0.00    0.14
   6   0 -13    0.03    0.14
   6   0 -13    0.58    0.19
  -7   1  14   19.86    0.83
  -7   1  14   21.02    0.91
  -7   1  14   19.17    0.80
   7  -1 -14   19.35    0.81
   7  -1 -14   20.38    0.85
  -8   2  15    0.66    0.21
  -8   2  15    0.72    0.22
  -8   2  15    0.54    0.21
   8  -2 -15    0.15    0.17
   8  -2 -15    0.53    0.21
  -9   3  16   53.15    1.68
  -9   3  16   54.56    1.63
  -9   3  16   50.71    1.82
   9  -3 -16   54.05    1.80
   9  -3 -16   52.02    1.74
 -10   4  17    0.19    0.18
  10  -4 -17    0.02    0.20
  10  -4 -17    0.02    0.19
  11  -5 -18    3.06    0.47
  -8  12   0    3.31    0.49
  -7  11  -1    0.24    0.23
  -6  10  -2    1.64    0.35
  -5   9  -3    2.10    0.36
   4  -8   4    3.84    0.29
   4  -8   4    4.16    0.30
  -4   8  -4    4.57    0.47
   3  -7   5    4.24    0.30
   3  -7   5    4.57    0.30
  -3   7  -5    3.93    0.43
   2  -6   6   60.73    1.60
   2  -6   6   60.05    1.65
  -2   6  -6   56.52    1.85
   1  -5   7    0.13    0.11
   1  -5   7    0.23    0.12
  -1   5  -7    0.01    0.13
   0  -4   8    1.10    0.19
   0  -4   8    0.84    0.16
   0   4  -8    0.83    0.20
  -1  -3   9    0.32    0.14
  -1  -3   9    0.83    0.17
   1   3  -9    0.59    0.12
   1   3  -9    0.73    0.18
  -2  -2  10   17.24    0.75
  -2  -2  10   17.63    0.71
  -2  -2  10   18.67    0.69
   2   2 -10   18.12    0.62
   2   2 -10   18.31    0.60
  -3  -1  11   20.25    0.74
  -3  -1  11   19.69    0.77
  -3  -1  11   19.47    0.82
   3   1 -11   19.64    0.71
   3   1 -11   19.81    0.69
  -4   0  12  178.24    4.44
  -4   0  12  177.31    4.76
  -4   0  12  176.42    4.30
   4   0 -12  180.84    4.38
   4   0 -12  177.85    4.47
  -5   1  13   33.31    1.12
  -5   1  13   33.24    1.22
  -5   1  13   32.63    1.08
   5  -1 -13   33.11    1.14
   5  -1 -13   31.62    1.09
  -6   2  14   11.51    0.64
  -6   2  14   10.85    0.55
  -6   2  14   10.70    0.57
   6  -2 -14    9.39    0.56
   6  -2 -14   11.96    0.62
  -7   3  15   50.77    1.57
  -7   3  15   51.88    1.75
  -7   3  15   50.22    1.52
   7  -3 -15   48.35    1.62
   7  -3 -15   48.53    1.65
  -8   4  16    1.50    0.31
   8  -4 -16    1.36    0.30
   8  -4 -16    1.57    0.32
  -9   5  17    6.00    0.62
   9  -5 -17    4.52    0.53
   9  -5 -17    5.31    0.58
  10  -6 -18   10.28    0.73
 -10  12   1   -0.27    0.23
  -9  11   0   15.28    0.88
  -8  10  -1    3.05    0.44
  -7   9  -2   20.72    0.97
   6  -8   3    3.21    0.32
   6  -8   3    3.33    0.30
  -6   8  -3    3.80    0.44
   5  -7   4    1.48    0.22
   5  -7   4    1.54    0.21
  -5   7  -4    1.77    0.30
   4  -6   5   -0.11    0.09
   4  -6   5   -0.08    0.09
  -4   6  -5    0.23    0.17
   3  -5   6   59.34    1.59
   3  -5   6   60.16    1.65
  -3   5  -6   57.42    1.82
   2  -4   7   43.18    1.21
   2  -4   7   40.05    1.24
  -2   4  -7   42.07    1.38
   1  -3   8    0.29    0.12
   1  -3   8    0.14    0.10
  -1   3  -8    0.22    0.13
   0  -2   9    1.42    0.21
   0  -2   9    1.10    0.20
   0  -2   9    0.90    0.17
   0   2  -9    1.19    0.15
  -1  -1  10    0.39    0.13
  -1  -1  10    0.20    0.12
  -1  -1  10    0.32    0.14
   1   1 -10    0.25    0.11
  -2   0  11    0.17    0.12
  -2   0  11    0.00    0.11
  -2   0  11    0.04    0.13
   2   0 -11   -0.15    0.08
   2   0 -11   -0.04    0.09
  -3   1  12   57.19    1.63
  -3   1  12   52.81    1.55
  -3   1  12   55.87    1.76
   3  -1 -12   53.86    1.62
  -4   2  13   20.86    0.81
  -4   2  13   19.20    0.87
  -4   2  13   20.79    0.78
   4  -2 -13   21.59    0.86
  -5   3  14   35.28    1.33
   5  -3 -14   36.32    1.29
  -6   4  15    8.81    0.60
   6  -4 -15    9.29    0.60
   6  -4 -15    9.12    0.61
  -7   5  16   -0.13    0.15
   7  -5 -16    0.00    0.18
   7  -5 -16   -0.09    0.18
   8  -6 -17    0.15    0.24
   8  -6 -17    0.23    0.23
   9  -7 -18    9.44    0.74
 -12  12   2   -0.13    0.22
 -11  11   1    0.18    0.23
 -10  10   0   12.02    0.74
  -9   9  -1    1.03    0.28
   8  -8   2   35.76    1.09
   8  -8   2   34.24    1.12
  -8   8  -2   34.95    1.31
   7  -7   3    5.35    0.37
   7  -7   3    5.61    0.36
  -7   7  -3    5.48    0.45
   6  -6   4    4.32    0.31
   6  -6   4    3.57    0.29
  -6   6  -4    3.50    0.38
   5  -5   5   11.89    0.54
   5  -5   5   12.71    0.53
  -5   5  -5   13.09    0.64
   4  -4   6   90.66    2.28
   4  -4   6   89.93    2.36
  -4   4  -6   89.53    2.56
   3  -3   7   57.71    1.57
   3  -3   7   57.02    1.62
  -3   3  -7   57.47    1.76
   2  -2   8   31.29    1.02
   2  -2   8   32.35    0.99
  -2   2  -8   31.85    0.87
   1  -1   9    0.60    0.17
   1  -1   9    0.94    0.18
   1  -1   9    0.72    0.12
   1  -1   9    0.56    0.17
  -1   1  -9    0.73    0.13
   0   0  10    6.92    0.38
   0   0  10    6.00    0.41
   0   0  10    6.48    0.38
   0   0  10    6.56    0.34
   0   0 -10    6.29    0.35
  -1   1  11   42.05    1.25
  -1   1  11   43.12    1.24
  -1   1  11   42.80    1.30
  -1   1  11   43.21    1.42
   1  -1 -11   41.18    1.30
  -2   2  12    0.02    0.13
  -2   2  12    0.07    0.14
  -2   2  12    0.10    0.12
  -2   2  12    0.27    0.14
   2  -2 -12    0.00    0.13
  -3   3  13    0.51    0.19
  -3   3  13    0.14    0.11
  -3   3  13    0.12    0.11
  -3   3  13    0.47    0.17
   3  -3 -13    0.32    0.17
  -4   4  14   14.25    0.69
  -4   4  14   13.15    0.73
   4  -4 -14   13.05    0.72
  -5   5  15    0.00    0.17
  -5   5  15   -0.15    0.15
   5  -5 -15    0.11    0.19
  -6   6  16    1.58    0.34
  -6   6  16    1.57    0.34
   6  -6 -16    1.66    0.37
 -13  11   2   -0.20    0.18
 -12  10   1   -0.23    0.18
 -11   9   0   29.57    1.21
  10  -8   1    1.27    0.22
 -10   8  -1    0.85    0.21
 -10   8  -1    0.79    0.24
   9  -7   2   46.65    1.43
   9  -7   2   50.04    1.40
  -9   7  -2   46.56    1.60
   8  -6   3    1.67    0.23
   8  -6   3    1.48    0.23
  -8   6  -3    1.33    0.27
   7  -5   4    6.14    0.36
   7  -5   4    5.87    0.38
  -7   5  -4    5.87    0.41
   6  -4   5   52.56    1.48
   6  -4   5   54.47    1.53
  -6   4  -5   52.28    1.64
   5  -3   6   25.24    0.86
   5  -3   6   24.57    0.82
  -5   3  -6   24.12    0.91
   4  -2   7   40.56    1.19
   4  -2   7   41.32    1.24
  -4   2  -7   41.95    1.33
   3  -1   8  136.07    3.28
   3  -1   8  136.48    3.46
   3  -1   8  139.92    3.70
   3  -1   8  140.12    3.36
   2   0   9    0.12    0.11
   2   0   9   -0.03    0.11
   2   0   9    0.05    0.11
   2   0   9    0.07    0.09
   2   0   9   -0.06    0.09
   1   1  10    0.33    0.14
   1   1  10    0.57    0.14
   1   1  10    0.31    0.13
   1   1  10    0.27    0.13
   1   1  10    0.59    0.15
   0   2  11   71.68    1.97
   0   2  11   70.40    2.14
   0   2  11   73.29    1.91
  -1   3  12    0.62    0.17
  -1   3  12    0.42    0.17
  -1   3  12    0.46    0.18
  -1   3  12    0.23    0.14
  -1   3  12    0.58    0.20
  -2   4  13    2.44    0.32
  -2   4  13    2.22    0.33
  -3   5  14   21.66    0.92
  -3   5  14   21.25    0.99
   3  -5 -14   22.79    1.02
  -4   6  15    0.84    0.25
  -4   6  15    0.93    0.28
   4  -6 -15    1.66    0.35
  -5   7  16    2.35    0.40
   5  -7 -16    2.81    0.44
  -6   8  17    0.02    0.26
 -15  11   3    0.90    0.32
 -14  10   2    1.16    0.31
 -13   9   1    2.12    0.36
  12  -8   0    2.71    0.33
 -12   8   0    2.60    0.38
  11  -7   1    5.50    0.39
 -11   7  -1    4.82    0.38
 -11   7  -1    4.93    0.48
  10  -6   2   54.00    1.55
  10  -6   2   52.95    1.59
 -10   6  -2   54.60    1.72
   9  -5   3    7.26    0.42
   9  -5   3    7.56    0.43
  -9   5  -3    8.26    0.49
   8  -4   4    7.50    0.43
   8  -4   4    7.80    0.42
  -8   4  -4    6.49    0.42
   7  -3   5   59.68    1.63
   7  -3   5   59.42    1.69
  -7   3  -5   59.94    1.78
   6  -2   6    3.27    0.31
   6  -2   6    3.71    0.30
  -6   2  -6    3.31    0.33
   5  -1   7   37.51    1.02
   5  -1   7   37.65    1.13
   5  -1   7   37.13    1.16
   4   0   8  222.65    5.25
   4   0   8  230.74    5.38
   4   0   8  217.02    5.22
   4   0   8  219.39    5.74
   4   0   8  225.65    5.39
   3   1   9    6.66    0.36
   3   1   9    6.84    0.39
   3   1   9    6.58    0.42
   3   1   9    6.73    0.36
   3   1   9    6.79    0.38
   2   2  10    4.10    0.32
   2   2  10    4.27    0.33
   2   2  10    3.72    0.30
   2   2  10    3.72    0.32
   2   2  10    4.42    0.32
   1   3  11   59.77    1.87
   1   3  11   60.55    1.65
   1   3  11   59.93    1.76
   1   3  11   58.66    1.71
   1   3  11   61.84    1.71
   0   4  12    0.50    0.19
   0   4  12    0.67    0.17
   0   4  12    0.60    0.19
   0   4  12    0.48    0.15
   0   4  12    0.77    0.20
  -1   5  13    1.03    0.25
  -1   5  13    1.40    0.27
  -1   5  13    1.52    0.30
  -2   6  14   18.62    0.89
  -2   6  14   20.03    0.96
  -2   6  14   18.33    0.86
  -3   7  15    0.29    0.22
  -3   7  15    0.04    0.16
   3  -7 -15    0.18    0.21
  -4   8  16    0.44    0.26
 -14   8   1    4.55    0.48
 -14   8   1    4.76    0.46
 -14   8   1    5.66    0.44
 -13   7   0    0.91    0.25
 -13   7   0    1.15    0.26
  12  -6   1   -0.02    0.14
 -12   6  -1   -0.11    0.14
 -12   6  -1   -0.01    0.13
  11  -5   2   53.12    1.55
  11  -5   2   53.48    1.61
 -11   5  -2   53.94    1.67
  10  -4   3   57.62    1.63
  10  -4   3   59.49    1.70
 -10   4  -3   57.26    1.74
   9  -3   4   54.59    1.54
   9  -3   4   50.06    1.47
  -9   3  -4   51.55    1.58
   8  -2   5    2.11    0.25
   8  -2   5    2.19    0.26
  -8   2  -5    2.33    0.27
   7  -1   6    0.04    0.11
   7  -1   6    0.17    0.12
  -7   1  -6    0.05    0.10
   6   0   7    0.02    0.08
   6   0   7   -0.14    0.08
   6   0   7   -0.04    0.08
   6   0   7   -0.08    0.09
   6   0   7   -0.03    0.09
   5   1   8   98.25    2.47
   5   1   8   97.20    2.48
   5   1   8   98.04    2.56
   5   1   8   99.01    2.53
   4   2   9   39.07    1.20
   4   2   9   38.44    1.20
   4   2   9   37.58    1.29
   4   2   9   40.56    1.18
   4   2   9   40.49    1.17
   3   3  10    3.32    0.34
   3   3  10    3.56    0.31
   3   3  10    4.19    0.37
   3   3  10    3.47    0.32
   3   3  10    3.20    0.35
   2   4  11    5.37    0.40
   2   4  11    5.43    0.41
   2   4  11    6.03    0.38
   2   4  11    6.28    0.37
   2   4  11    5.22    0.42
   1   5  12    7.96    0.52
   1   5  12    8.03    0.52
   1   5  12    7.46    0.53
   0   6  13    4.15    0.45
   0   6  13    3.98    0.46
   0   6  13    4.81    0.50
  -1   7  14    6.95    0.55
  -1   7  14    6.07    0.57
  -1   7  14    5.64    0.56
  -2   8  15    1.40    0.33
 -16   8   2    7.78    0.52
 -16   8   2    7.16    0.52
 -15   7   1    6.34    0.49
 -15   7   1    6.33    0.48
  14  -6   0    0.85    0.24
 -14   6   0    1.49    0.29
  13  -5   1    2.50    0.31
 -13   5  -1    3.17    0.36
  12  -4   2   36.57    1.20
 -12   4  -2   38.92    1.24
  11  -3   3    0.72    0.20
  11  -3   3    0.76    0.19
 -11   3  -3    0.72    0.18
  10  -2   4    2.01    0.26
  10  -2   4    2.48    0.29
 -10   2  -4    2.24    0.26
   9  -1   5   28.93    0.96
   9  -1   5   28.56    0.99
  -9   1  -5   29.32    0.98
   8   0   6    0.33    0.13
   8   0   6    0.32    0.14
   8   0   6    0.30    0.11
   8   0   6    0.19    0.10
   7   1   7    4.01    0.32
   7   1   7    4.19    0.29
   7   1   7    4.05    0.31
   7   1   7    4.59    0.31
   7   1   7    3.77    0.29
   6   2   8   23.28    0.87
   6   2   8   23.66    0.84
   6   2   8   23.15    0.82
   6   2   8   24.53    0.82
   6   2   8   22.76    0.80
   5   3   9    4.20    0.31
   5   3   9    2.77    0.31
   4   4  10   20.10    0.74
   4   4  10   20.01    0.85
   4   4  10   20.70    0.81
   4   4  10   20.74    0.76
   4   4  10   21.48    0.84
   3   5  11    0.18    0.17
   3   5  11    0.26    0.17
   3   5  11    0.14    0.15
   2   6  12   -0.01    0.16
   2   6  12   -0.03    0.16
   2   6  12   -0.03    0.15
   1   7  13    3.03    0.41
   1   7  13    3.31    0.43
   1   7  13    3.94    0.46
   0   8  14    4.95    0.56
   0   8  14    4.75    0.56
   0   8  14    5.30    0.55
  -1   9  15    0.88    0.32
 -18   8   3    9.97    0.61
 -18   8   3    9.41    0.62
 -17   7   2   26.27    1.08
 -17   7   2   27.19    1.06
 -16   6   1    0.72    0.24
 -16   6   1    0.45    0.22
 -15   5   0    0.99    0.24
  14  -4   1    8.50    0.51
 -14   4  -1    8.46    0.53
  13  -3   2    2.79    0.33
 -13   3  -2    2.68    0.34
  12  -2   3    7.90    0.46
  12  -2   3    7.05    0.45
  11  -1   4   23.65    0.86
  11  -1   4   23.54    0.89
  10   0   5    0.11    0.10
  10   0   5   -0.02    0.12
  10   0   5    0.04    0.12
   9   1   6    0.17    0.11
   9   1   6    0.09    0.12
   9   1   6    0.08    0.10
   9   1   6    0.16    0.12
   9   1   6    0.02    0.12
   8   2   7    0.87    0.19
   8   2   7    0.98    0.20
   8   2   7    0.99    0.19
   8   2   7    0.97    0.18
   8   2   7    0.84    0.18
   7   3   8   10.66    0.51
   7   3   8    7.43    0.43
   7   3   8    7.87    0.42
   6   4   9    2.84    0.32
   6   4   9    3.40    0.35
   6   4   9    2.86    0.30
   6   4   9    2.79    0.33
   6   4   9    2.94    0.31
   5   5  10   17.39    0.77
   5   5  10   17.08    0.79
   4   6  11    0.46    0.20
   4   6  11    1.00    0.25
   4   6  11    0.56    0.21
   3   7  12    0.41    0.20
   3   7  12    0.41    0.22
   3   7  12    0.20    0.19
   2   8  13    0.95    0.29
   2   8  13    1.13    0.30
   1   9  14    7.73    0.63
 -20   8   4   -0.07    0.19
 -20   8   4    0.39    0.24
 -19   7   3    0.64    0.25
 -19   7   3   -0.02    0.19
 -18   6   2   31.20    1.24
 -18   6   2   33.19    1.22
 -17   5   1    1.16    0.28
 -17   5   1    1.62    0.31
 -16   4   0    0.79    0.23
 -16   4   0    0.60    0.22
  15  -3   1   35.49    1.21
 -15   3  -1   36.00    1.28
  14  -2   2   28.68    1.04
 -14   2  -2   30.99    1.12
  13  -1   3   18.61    0.76
 -13   1  -3   18.57    0.81
  12   0   4    3.47    0.36
  12   0   4    2.96    0.35
  11   1   5    3.55    0.32
  11   1   5    3.72    0.36
  11   1   5    3.30    0.34
  11   1   5    2.80    0.28
  10   2   6    2.25    0.27
  10   2   6    1.99    0.27
  10   2   6    1.73    0.24
  10   2   6    1.90    0.27
   9   3   7    0.26    0.11
   9   3   7    0.14    0.09
   9   3   7    0.53    0.15
   9   3   7    0.18    0.10
   8   4   8   16.42    0.68
   8   4   8   17.02    0.66
   8   4   8   16.88    0.73
   8   4   8   16.30    0.73
   7   5   9    0.21    0.16
   7   5   9    0.09    0.15
   6   6  10   27.04    1.07
   6   6  10   26.14    1.04
   5   7  11    0.00    0.17
   5   7  11    0.00    0.17
   4   8  12    0.06    0.20
   4   8  12    0.31    0.22
   3   9  13    0.95    0.31
 -21   7   4    1.45    0.33
 -21   7   4    1.26    0.32
 -20   6   3    0.82    0.28
 -20   6   3    0.93    0.29
 -19   5   2   19.32    0.92
 -19   5   2   19.21    0.90
 -18   4   1    5.59    0.53
 -18   4   1    5.33    0.53
 -17   3   0   15.40    0.79
 -17   3   0   16.67    0.78
 -16   2  -1   24.67    1.01
  15  -1   2    0.47    0.19
 -15   1  -2    0.16    0.17
  14   0   3   -0.04    0.13
 -14   0  -3   -0.06    0.13
  13   1   4   48.63    1.48
  13   1   4   48.96    1.48
  13   1   4   48.63    1.43
 -13  -1  -4   50.13    1.56
  12   2   5    7.37    0.46
  12   2   5    7.84    0.45
  12   2   5    7.11    0.44
  10   4   7    0.54    0.19
  10   4   7    0.43    0.17
  10   4   7    0.55    0.18
  10   4   7    0.66    0.19
   9   5   8    1.20    0.25
   9   5   8    1.47    0.27
   8   6   9    2.89    0.38
   8   6   9    2.97    0.38
   7   7  10    6.23    0.50
   7   7  10    6.02    0.57
   6   8  11    0.47    0.25
   6   8  11    1.21    0.30
   5   9  12    3.45    0.46
 -22   6   4    0.42    0.23
 -21   5   3    0.30    0.23
 -21   5   3    0.49    0.23
 -20   4   2   -0.04    0.17
 -20   4   2    0.14    0.20
 -19   3   1    0.27    0.19
 -19   3   1    0.36    0.21
 -18   2   0    5.85    0.55
 -18   2   0    6.06    0.55
 -17   1  -1    7.30    0.51
 -17   1  -1    7.04    0.53
 -16   0  -2   13.89    0.72
  15   1   3    0.71    0.19
  15   1   3    0.49    0.20
 -15  -1  -3    1.33    0.28
  14   2   4   20.66    0.83
  14   2   4   21.88    0.86
  14   2   4   21.62    0.83
 -14  -2  -4   21.32    0.90
  13   3   5   -0.01    0.08
  13   3   5   -0.01    0.07
  13   3   5    0.34    0.17
 -13  -3  -5    0.26    0.18
  12   4   6    3.30    0.38
  12   4   6    3.42    0.36
  12   4   6    2.72    0.34
 -12  -4  -6    2.67    0.34
  11   5   7    2.47    0.34
  11   5   7    2.29    0.34
  10   6   8    0.17    0.18
  10   6   8    0.05    0.17
   9   7   9    0.73    0.25
   9   7   9    0.70    0.24
   8   8  10    3.28    0.45
   8   8  10    3.23    0.44
   7   9  11    5.55    0.58
 -23   5   4    0.51    0.27
 -22   4   3    0.17    0.22
 -21   3   2   19.74    0.94
 -21   3   2   21.46    1.00
 -20   2   1    4.06    0.47
 -20   2   1    4.56    0.50
 -19   1   0   22.25    1.00
 -19   1   0   26.17    1.08
 -18   0  -1    0.05    0.17
 -18   0  -1    0.13    0.19
 -17  -1  -2    0.01    0.19
 -17  -1  -2    0.07    0.17
  16   2   3   13.92    0.66
  16   2   3   14.06    0.68
 -16  -2  -3   13.65    0.71
 -16  -2  -3   12.77    0.68
  15   3   4    3.43    0.38
  15   3   4    2.76    0.35
 -15  -3  -4    3.47    0.41
  14   4   5   31.60    1.16
  14   4   5   32.16    1.20
 -14  -4  -5   32.60    1.17
  13   5   6   27.85    1.08
  13   5   6   26.55    1.09
  12   6   7    0.06    0.15
  12   6   7   -0.15    0.15
  11   7   8    2.79    0.42
  11   7   8    2.84    0.41
  10   8   9    0.15    0.21
   9   9  10    2.29    0.42
 -24   4   4    0.11    0.25
 -23   3   3    2.79    0.44
 -22   2   2    0.12    0.20
 -22   2   2    0.19    0.22
 -21   1   1    1.38    0.32
 -21   1   1    1.02    0.30
 -20   0   0   19.83    0.95
 -20   0   0   20.96    0.95
 -19  -1  -1    1.63    0.33
 -19  -1  -1    1.22    0.29
  18   2   2   -0.05    0.09
 -18  -2  -2    0.20    0.20
 -18  -2  -2   -0.07    0.15
  17   3   3   13.60    0.70
  17   3   3   15.41    0.76
 -17  -3  -3   15.38    0.78
 -17  -3  -3   14.97    0.75
  16   4   4    0.07    0.18
  16   4   4    0.07    0.17
 -16  -4  -4   -0.08    0.16
 -16  -4  -4    0.10    0.19
  15   5   5    5.33    0.52
  15   5   5    6.08    0.51
  14   6   6   24.49    1.06
  14   6   6   25.41    1.09
  13   7   7    6.43    0.62
  13   7   7    5.26    0.56
  12   8   8    1.75    0.37
 -24   2   3    4.20    0.51
 -23   1   2    1.42    0.34
 -22   0   1    0.21    0.23
 -22   0   1   -0.11    0.18
 -21  -1   0    6.85    0.55
 -21  -1   0    7.43    0.58
 -20  -2  -1    0.20    0.21
 -20  -2  -1    0.35    0.22
  19   3   2    3.02    0.40
 -19  -3  -2    2.32    0.38
 -19  -3  -2    3.13    0.41
  18   4   3    4.67    0.49
  18   4   3    4.19    0.48
 -18  -4  -3    5.02    0.51
 -18  -4  -3    3.87    0.45
  17   5   4    0.77    0.26
  17   5   4    0.91    0.28
  16   6   5    0.33    0.23
  16   6   5    0.33    0.22
  15   7   6   27.67    1.18
  14   8   7    4.07    0.51
 -24   0   2    4.59    0.53
 -23  -1   1   -0.11    0.21
 -22  -2   0    2.94    0.44
  21   3   1    8.88    0.61
 -21  -3  -1    7.83    0.60
 -21  -3  -1    8.99    0.62
  20   4   2   15.01    0.80
 -20  -4  -2   13.94    0.76
  19   5   3    0.45    0.25
  19   5   3    0.33    0.22
  18   6   4    0.42    0.24
 -15  -9  14    4.01    0.47
 -16  -8  15    0.54    0.26
 -17  -7  16    0.79    0.29
 -18  -6  17   -0.05    0.23
 -13  -9  13    3.16    0.41
 -13  -9  13    2.78    0.40
 -14  -8  14    1.04    0.28
 -14  -8  14    0.95    0.29
 -15  -7  15    0.27    0.23
 -15  -7  15    0.18    0.22
 -16  -6  16    1.02    0.28
 -17  -5  17    0.95    0.30
  17   5 -17    1.08    0.31
 -18  -4  18    3.91    0.51
  18   4 -18    4.58    0.54
   7  13  -8    4.02    0.58
   8  12  -9    0.16    0.26
   9  11 -10    0.38    0.27
  10  10 -11    2.10    0.39
 -11  -9  12    3.73    0.43
 -11  -9  12    4.23    0.44
  11   9 -12    3.60    0.48
 -12  -8  13    7.09    0.54
 -12  -8  13    8.70    0.56
  12   8 -13    8.38    0.62
 -13  -7  14   12.49    0.69
 -13  -7  14   11.88    0.70
 -14  -6  15    0.95    0.28
 -14  -6  15    0.71    0.27
 -15  -5  16    0.09    0.20
  15   5 -16    0.17    0.20
 -16  -4  17    4.14    0.50
  16   4 -17    3.36    0.46
  16   4 -17    3.89    0.46
 -17  -3  18    2.97    0.45
  17   3 -18    2.82    0.44
  17   3 -18    3.12    0.45
 -18  -2  19    5.72    0.60
  18   2 -19    5.89    0.61
   5  13  -7   -0.07    0.26
   6  12  -8   13.13    0.84
   7  11  -9    0.29    0.26
   8  10 -10    1.67    0.37
  -9  -9  11    5.18    0.47
  -9  -9  11    6.87    0.49
   9   9 -11    6.13    0.52
 -10  -8  12    3.52    0.40
 -10  -8  12    2.97    0.38
  10   8 -12    3.24    0.43
 -11  -7  13   -0.01    0.17
 -11  -7  13    0.24    0.18
  11   7 -13    0.13    0.18
 -12  -6  14    2.47    0.37
 -12  -6  14    3.05    0.39
  12   6 -14    3.50    0.44
 -13  -5  15    1.61    0.31
 -13  -5  15    1.74    0.33
  13   5 -15    2.27    0.37
 -14  -4  16    1.22    0.30
 -14  -4  16    1.16    0.29
  14   4 -16    1.27    0.30
  14   4 -16    1.16    0.29
  14   4 -16    0.81    0.26
 -15  -3  17    1.87    0.36
 -15  -3  17    1.85    0.36
  15   3 -17    1.32    0.31
  15   3 -17    1.23    0.30
 -16  -2  18    0.29    0.23
  16   2 -18    0.67    0.27
  16   2 -18    0.28    0.24
 -17  -1  19    1.05    0.31
  17   1 -19    0.71    0.30
   3  13  -6    0.57    0.31
   4  12  -7    1.07    0.37
   5  11  -8    7.23    0.62
   6  10  -9    2.11    0.38
  -7  -9  10   10.74    0.56
  -7  -9  10   10.67    0.58
   7   9 -10   11.90    0.72
  -8  -8  11   12.60    0.65
  -8  -8  11   12.65    0.63
   8   8 -11   12.24    0.74
  -9  -7  12    2.43    0.34
  -9  -7  12    3.25    0.38
   9   7 -12    2.75    0.41
 -10  -6  13   -0.16    0.15
 -10  -6  13    0.01    0.16
  10   6 -13    0.02    0.17
 -11  -5  14   15.93    0.80
 -11  -5  14   15.97    0.78
  11   5 -14   17.71    0.87
 -12  -4  15    1.31    0.29
 -12  -4  15    0.88    0.26
  12   4 -15    1.25    0.28
  12   4 -15    0.98    0.26
  12   4 -15    1.44    0.28
 -13  -3  16    5.91    0.55
 -13  -3  16    4.37    0.49
 -13  -3  16    5.62    0.49
  13   3 -16    5.68    0.46
  13   3 -16    5.78    0.53
 -14  -2  17    0.08    0.19
 -14  -2  17    0.18    0.20
 -14  -2  17    0.04    0.20
  14   2 -17    0.25    0.22
  14   2 -17    0.07    0.20
 -15  -1  18    1.41    0.32
 -15  -1  18    1.48    0.33
 -15  -1  18    1.38    0.32
  15   1 -18    1.49    0.34
  15   1 -18    1.57    0.33
 -16   0  19   -0.04    0.20
 -16   0  19    0.15    0.22
  16   0 -19    0.00    0.23
   1  13  -5   -0.02    0.25
   2  12  -6    0.08    0.24
   3  11  -7    0.63    0.28
   4  10  -8    3.19    0.45
  -5  -9   9   12.99    0.62
  -5  -9   9   14.10    0.62
   5   9  -9   14.61    0.81
  -6  -8  10   29.83    1.06
  -6  -8  10   28.30    1.01
   6   8 -10   30.80    1.24
  -7  -7  11   -0.08    0.15
  -7  -7  11   -0.12    0.13
   7   7 -11    0.09    0.19
  -8  -6  12   16.88    0.75
  -8  -6  12   17.26    0.78
   8   6 -12   16.52    0.84
  -9  -5  13   14.30    0.71
  -9  -5  13   13.71    0.69
   9   5 -13   14.89    0.78
 -10  -4  14   19.63    0.85
 -10  -4  14   20.00    0.88
  10   4 -14   19.92    0.80
  10   4 -14   19.70    0.93
 -11  -3  15   26.15    1.06
 -11  -3  15   25.38    1.02
 -11  -3  15   24.81    1.07
  11   3 -15   25.81    1.01
  11   3 -15   25.54    0.97
 -12  -2  16   17.21    0.84
 -12  -2  16   17.10    0.82
 -12  -2  16   17.63    0.87
  12   2 -16   18.40    0.84
  12   2 -16   17.06    0.79
 -13  -1  17   -0.03    0.18
 -13  -1  17    0.01    0.17
 -13  -1  17    0.22    0.20
  13   1 -17    0.26    0.22
  13   1 -17   -0.01    0.17
 -14   0  18   -0.10    0.19
 -14   0  18    0.06    0.18
 -14   0  18   -0.13    0.17
  14   0 -18   -0.14    0.18
  14   0 -18    0.16    0.21
 -15   1  19    1.60    0.36
 -15   1  19    1.61    0.35
  15  -1 -19    1.65    0.36
  -1  13  -4   10.22    0.78
   0  12  -5   -0.15    0.21
   1  11  -6    0.47    0.27
   2  10  -7    2.44    0.41
  -3  -9   8    4.05    0.34
  -3  -9   8    3.58    0.33
   3   9  -8    4.74    0.52
  -4  -8   9   11.12    0.55
  -4  -8   9   11.70    0.55
   4   8  -9   11.00    0.67
  -5  -7  10   57.45    1.65
  -5  -7  10   59.22    1.72
   5   7 -10   55.71    1.91
  -6  -6  11   23.12    0.90
  -6  -6  11   26.26    0.97
   6   6 -11   25.06    1.06
  -7  -5  12   18.93    0.80
  -7  -5  12   20.39    0.84
   7   5 -12   19.08    0.90
  -8  -4  13   11.17    0.60
  -8  -4  13   12.18    0.63
   8   4 -13   11.54    0.67
  -9  -3  14   13.26    0.69
  -9  -3  14   12.04    0.68
  -9  -3  14   13.38    0.67
   9   3 -14   13.31    0.64
   9   3 -14   13.84    0.62
 -10  -2  15    3.56    0.42
 -10  -2  15    3.10    0.38
 -10  -2  15    2.93    0.37
  10   2 -15    3.88    0.42
  10   2 -15    3.12    0.36
 -11  -1  16   26.12    1.11
 -11  -1  16   26.08    1.03
 -11  -1  16   24.39    1.04
  11   1 -16   25.43    1.01
  11   1 -16   26.67    1.06
 -12   0  17   -0.04    0.15
 -12   0  17    0.04    0.19
 -12   0  17   -0.03    0.16
  12   0 -17   -0.15    0.17
  12   0 -17    0.11    0.20
 -13   1  18    1.74    0.35
 -13   1  18    1.95    0.35
 -13   1  18    1.96    0.35
  13  -1 -18    2.15    0.38
  13  -1 -18    2.30    0.40
 -14   2  19    5.19    0.54
 -14   2  19    5.31    0.53
  14  -2 -19    5.60    0.60
  -3  13  -3   -0.05    0.26
  -2  12  -4   14.40    0.88
  -1  11  -5    0.19    0.23
   0  10  -6    0.63    0.26
  -1  -9   7    3.98    0.31
  -1  -9   7    5.25    0.35
   1   9  -7    4.66    0.51
  -2  -8   8    0.98    0.19
  -2  -8   8    1.37    0.23
   2   8  -8    1.16    0.29
  -3  -7   9   18.95    0.73
  -3  -7   9   19.95    0.77
   3   7  -9   19.66    0.91
  -4  -6  10   64.07    1.84
  -4  -6  10   63.56    1.78
   4   6 -10   62.60    2.04
  -5  -5  11    9.65    0.54
  -5  -5  11   12.91    0.61
   5   5 -11   11.66    0.65
  -6  -4  12    1.47    0.25
  -6  -4  12    2.04    0.30
   6   4 -12    1.71    0.30
  -7  -3  13   12.86    0.64
  -7  -3  13   13.37    0.70
  -7  -3  13   12.12    0.61
   7   3 -13   12.47    0.56
   7   3 -13   12.50    0.58
  -8  -2  14    8.67    0.53
  -8  -2  14    8.98    0.56
  -8  -2  14    9.19    0.55
   8   2 -14    8.64    0.51
   8   2 -14    9.06    0.50
  -9  -1  15    0.07    0.16
  -9  -1  15    0.00    0.15
  -9  -1  15    0.32    0.18
   9   1 -15    0.20    0.17
   9   1 -15    0.00    0.15
 -10   0  16    1.71    0.30
 -10   0  16    1.98    0.32
 -10   0  16    1.27    0.29
  10   0 -16    2.13    0.33
  10   0 -16    1.76    0.31
 -11   1  17    3.58    0.42
 -11   1  17    3.84    0.43
 -11   1  17    3.32    0.44
  11  -1 -17    3.43    0.44
  11  -1 -17    3.71    0.46
 -12   2  18   -0.02    0.18
 -12   2  18    0.13    0.18
 -12   2  18    0.10    0.17
  12  -2 -18   -0.07    0.20
  12  -2 -18   -0.13    0.19
 -13   3  19    0.31    0.22
 -13   3  19    0.20    0.21
  13  -3 -19    0.14    0.24
  -5  13  -2    0.11    0.25
  -4  12  -3    0.93    0.31
  -3  11  -4   32.25    1.37
  -2  10  -5    3.42    0.47
   1  -9   6    1.80    0.24
   1  -9   6    2.16    0.25
  -1   9  -6    1.97    0.36
   0  -8   7    2.92    0.29
   0  -8   7    2.83    0.30
   0   8  -7    2.86    0.40
  -1  -7   8    2.71    0.30
  -1  -7   8    2.34    0.27
   1   7  -8    2.27    0.34
  -2  -6   9    2.26    0.27
  -2  -6   9    2.38    0.28
   2   6  -9    3.03    0.38
  -3  -5  10   55.44    1.61
  -3  -5  10   57.19    1.68
   3   5 -10   58.20    1.86
  -4  -4  11   11.76    0.57
  -4  -4  11   10.80    0.54
   4   4 -11   10.47    0.62
  -5  -3  12    0.18    0.16
  -5  -3  12    0.06    0.14
  -5  -3  12    0.12    0.14
  -6  -2  13   41.65    1.37
  -6  -2  13   41.00    1.44
  -6  -2  13   41.08    1.31
   6   2 -13   41.78    1.29
   6   2 -13   41.08    1.25
  -7  -1  14   21.39    0.92
  -7  -1  14   18.53    0.80
  -7  -1  14   18.95    0.83
   7   1 -14   19.32    0.78
   7   1 -14   19.99    0.81
  -8   0  15   -0.17    0.10
  -8   0  15   -0.12    0.12
  -8   0  15    0.22    0.18
   8   0 -15   -0.06    0.15
   8   0 -15    0.00    0.14
  -9   1  16   20.58    0.96
  -9   1  16   20.01    0.89
  -9   1  16   19.83    0.86
   9  -1 -16   20.59    0.89
   9  -1 -16   21.35    0.93
 -10   2  17    0.23    0.19
 -10   2  17    0.47    0.23
 -10   2  17    0.70    0.24
  10  -2 -17    0.78    0.25
  10  -2 -17    0.51    0.24
 -11   3  18   13.80    0.81
 -11   3  18   14.07    0.72
 -11   3  18   12.49    0.71
  11  -3 -18   12.63    0.75
  11  -3 -18   12.52    0.78
  12  -4 -19    0.25    0.24
  -6  12  -2   -0.08    0.20
  -5  11  -3    2.24    0.41
  -4  10  -4   19.92    1.00
   3  -9   5    1.24    0.22
   3  -9   5    1.10    0.20
  -3   9  -5    1.30    0.32
   2  -8   6    1.78    0.25
   2  -8   6    1.98    0.25
  -2   8  -6    2.38    0.38
   1  -7   7    4.34    0.32
   1  -7   7    4.36    0.33
  -1   7  -7    4.43    0.47
   0  -6   8   13.45    0.59
   0  -6   8   13.58    0.58
   0   6  -8   13.56    0.71
  -1  -5   9    1.60    0.24
  -1  -5   9    1.51    0.22
   1   5  -9    1.55    0.28
  -2  -4  10    9.89    0.48
  -2  -4  10    9.32    0.49
   2   4 -10    8.89    0.55
  -3  -3  11   28.46    0.97
  -3  -3  11   28.52    1.01
  -4  -2  12    3.21    0.34
  -4  -2  12    4.32    0.34
  -4  -2  12    2.59    0.34
   4   2 -12    2.74    0.27
   4   2 -12    3.34    0.31
  -5  -1  13   34.16    1.24
  -5  -1  13   33.09    1.11
  -5  -1  13   33.51    1.15
   5   1 -13   34.00    1.11
   5   1 -13   31.52    1.05
  -6   0  14   54.21    1.83
  -6   0  14   55.80    1.71
  -6   0  14   55.48    1.65
   6   0 -14   54.97    1.64
   6   0 -14   56.53    1.70
  -7   1  15    1.50    0.27
  -7   1  15    1.48    0.26
  -7   1  15    1.64    0.30
   7  -1 -15    1.32    0.27
   7  -1 -15    1.01    0.24
  -8   2  16   36.74    1.32
  -8   2  16   38.96    1.46
  -8   2  16   39.58    1.30
   8  -2 -16   38.22    1.39
   8  -2 -16   37.77    1.35
  -9   3  17   23.52    0.98
  -9   3  17   23.59    1.10
  -9   3  17   24.70    0.97
   9  -3 -17   24.57    1.08
   9  -3 -17   22.03    1.01
  10  -4 -18    6.49    0.63
  10  -4 -18    6.12    0.63
  11  -5 -19    3.01    0.47
  -8  12  -1    0.74    0.30
  -7  11  -2    2.18    0.42
  -6  10  -3    8.80    0.63
   5  -9   4   19.84    0.76
   5  -9   4   20.60    0.74
  -5   9  -4   18.65    0.93
   4  -8   5    2.12    0.27
   4  -8   5    1.66    0.23
  -4   8  -5    2.35    0.37
   3  -7   6   34.35    1.11
   3  -7   6   34.48    1.07
  -3   7  -6   37.19    1.33
   2  -6   7    1.13    0.20
   2  -6   7    1.08    0.21
  -2   6  -7    1.09    0.25
   1  -5   8    0.80    0.18
   1  -5   8    0.65    0.17
  -1   5  -8    0.60    0.21
   0  -4   9    6.17    0.38
   0  -4   9    6.59    0.40
   0   4  -9    6.24    0.45
  -1  -3  10    3.71    0.30
  -1  -3  10    3.74    0.30
   1   3 -10    3.48    0.38
  -2  -2  11    0.66    0.20
  -2  -2  11    1.05    0.20
  -2  -2  11    0.90    0.20
  -3  -1  12   54.76    1.59
  -3  -1  12   54.00    1.77
  -3  -1  12   55.61    1.65
   3   1 -12   54.32    1.58
   3   1 -12   56.88    1.55
  -4   0  13    0.12    0.16
  -4   0  13   -0.27    0.11
  -4   0  13    0.05    0.15
   4   0 -13    0.07    0.13
   4   0 -13    0.19    0.14
  -5   1  14    7.75    0.53
  -5   1  14    8.12    0.48
  -5   1  14    8.06    0.50
   5  -1 -14    7.61    0.49
   5  -1 -14    7.87    0.48
  -6   2  15   39.66    1.30
  -6   2  15   41.44    1.49
  -6   2  15   41.28    1.35
   6  -2 -15   40.00    1.36
   6  -2 -15   38.28    1.38
  -7   3  16    6.08    0.45
  -7   3  16    6.67    0.52
  -7   3  16    6.27    0.46
   7  -3 -16    6.20    0.51
   7  -3 -16    6.28    0.58
  -8   4  17    0.48    0.25
   8  -4 -17    0.39    0.23
   8  -4 -17    0.23    0.22
   9  -5 -18   15.14    0.87
 -10  12   0    8.33    0.70
  -9  11  -1    6.59    0.58
  -8  10  -2    1.46    0.34
   7  -9   3   15.31    0.64
  -7   9  -3   14.56    0.81
   6  -8   4    5.65    0.39
   6  -8   4    6.38    0.40
  -6   8  -4    6.65    0.51
   5  -7   5    0.55    0.17
   5  -7   5    0.22    0.14
  -5   7  -5    0.41    0.20
   4  -6   6   53.93    1.57
   4  -6   6   55.09    1.52
  -4   6  -6   54.21    1.77
   3  -5   7    0.18    0.13
   3  -5   7    0.56    0.17
  -3   5  -7    0.85    0.22
   2  -4   8   -0.03    0.10
   2  -4   8   -0.10    0.10
  -2   4  -8   -0.07    0.11
   1  -3   9   44.15    1.33
   1  -3   9   42.89    1.28
  -1   3  -9   43.25    1.45
   0  -2  10   35.43    1.15
   0  -2  10   36.87    1.26
   0  -2  10   34.47    1.10
  -1  -1  11   42.47    1.27
  -1  -1  11   40.65    1.30
  -1  -1  11   42.13    1.42
   1   1 -11   42.66    1.20
   1   1 -11   41.84    1.22
  -2   0  12   17.00    0.69
  -2   0  12   16.70    0.78
  -2   0  12   18.10    0.73
   2   0 -12   17.63    0.69
   2   0 -12   16.59    0.67
  -3   1  13   18.41    0.75
  -3   1  13   18.25    0.83
  -3   1  13   19.86    0.79
   3  -1 -13   18.51    0.77
   3  -1 -13   18.57    0.76
  -4   2  14    0.92    0.22
  -4   2  14    1.13    0.22
  -4   2  14    0.76    0.23
   4  -2 -14    1.02    0.23
   4  -2 -14    0.66    0.20
  -5   3  15   13.63    0.74
  -5   3  15   13.05    0.64
  -5   3  15   12.97    0.62
   5  -3 -15   12.83    0.69
   5  -3 -15   13.93    0.73
  -6   4  16    1.19    0.29
   6  -4 -16    0.92    0.28
   6  -4 -16    0.94    0.28
  -7   5  17    2.70    0.42
   7  -5 -17    2.24    0.40
   7  -5 -17    2.20    0.39
   8  -6 -18   14.57    0.88
 -12  12   1    0.53    0.30
 -11  11   0    9.79    0.71
 -10  10  -1    1.18    0.31
   9  -9   2    4.43    0.40
  -9   9  -2    4.43    0.50
   8  -8   3    4.27    0.34
   8  -8   3    3.46    0.35
  -8   8  -3    3.86    0.45
   7  -7   4    1.06    0.21
   7  -7   4    1.24    0.23
  -7   7  -4    1.18    0.28
   6  -6   5    0.14    0.12
   6  -6   5    0.42    0.15
  -6   6  -5    0.29    0.18
   5  -5   6   79.04    2.14
   5  -5   6   78.10    2.07
  -5   5  -6   78.91    2.34
   4  -4   7    9.69    0.47
   4  -4   7    9.76    0.49
  -4   4  -7   10.35    0.56
   3  -3   8   36.28    1.12
   3  -3   8   37.40    1.17
  -3   3  -8   35.33    1.25
   2  -2   9    7.39    0.41
   2  -2   9    7.27    0.42
   1  -1  10    0.29    0.13
   1  -1  10    0.51    0.17
   1  -1  10    0.35    0.14
   0   0  11   -0.07    0.12
   0   0  11    0.35    0.14
   0   0  11    0.08    0.10
   0   0  11    0.28    0.13
   0   0 -11    0.02    0.10
  -1   1  12   66.97    1.86
  -1   1  12   67.17    1.92
  -1   1  12   68.04    1.84
  -1   1  12   69.27    2.09
   1  -1 -12   68.12    1.94
  -2   2  13   17.10    0.80
  -2   2  13   16.41    0.70
  -2   2  13   16.70    0.69
   2  -2 -13   16.39    0.74
  -3   3  14    0.69    0.21
  -3   3  14    0.62    0.21
   3  -3 -14    0.82    0.24
  -4   4  15   20.02    0.96
  -4   4  15   19.27    0.87
   4  -4 -15   20.43    0.94
  -5   5  16   -0.18    0.17
  -5   5  16    0.06    0.18
   5  -5 -16   -0.02    0.18
   6  -6 -17    0.71    0.29
 -13  11   1   -0.04    0.23
 -12  10   0    5.79    0.59
 -11   9  -1    0.09    0.21
  10  -8   2    6.10    0.43
  10  -8   2    7.01    0.45
 -10   8  -2    7.82    0.55
   9  -7   3    1.90    0.27
   9  -7   3    2.15    0.29
  -9   7  -3    2.12    0.33
   8  -6   4    2.08    0.27
   8  -6   4    2.14    0.29
  -8   6  -4    2.73    0.36
   7  -5   5   48.47    1.43
   7  -5   5   50.86    1.49
  -7   5  -5   50.25    1.61
   6  -4   6   12.85    0.57
   6  -4   6   11.63    0.55
  -6   4  -6   11.42    0.60
   5  -3   7    4.64    0.34
   5  -3   7    4.63    0.33
  -5   3  -7    4.88    0.38
   4  -2   8   61.05    1.69
   4  -2   8   58.30    1.62
  -4   2  -8   56.18    1.78
   3  -1   9    6.50    0.39
   3  -1   9    6.65    0.43
   3  -1   9    6.16    0.39
   2   0  10    4.00    0.32
   2   0  10    3.91    0.31
   2   0  10    4.40    0.36
   2   0  10    4.15    0.28
   2   0  10    4.38    0.29
   1   1  11   22.30    0.79
   1   1  11   23.42    0.84
   1   1  11   23.03    0.81
   1   1  11   21.20    0.89
   1   1  11   21.02    0.76
   0   2  12   65.15    1.76
   0   2  12   60.79    1.97
   0   2  12   61.98    1.76
   0   2  12   64.37    1.81
  -1   3  13   47.89    1.39
  -1   3  13   35.86    1.26
  -1   3  13   47.70    1.55
  -2   4  14    9.95    0.58
  -2   4  14    9.56    0.62
   2  -4 -14   10.28    0.63
  -3   5  15    2.32    0.35
  -3   5  15    2.35    0.39
   3  -5 -15    2.05    0.36
  -4   6  16   -0.10    0.17
  -4   6  16    0.35    0.21
   4  -6 -16   -0.04    0.20
  -5   7  17    0.46    0.26
 -15  11   2    0.07    0.23
 -14  10   1    1.56    0.36
 -13   9   0    2.10    0.36
  12  -8   1    7.52    0.49
 -12   8  -1    7.97    0.56
 -12   8  -1    8.17    0.52
  11  -7   2   14.06    0.65
  11  -7   2   13.55    0.66
 -11   7  -2   14.04    0.72
  10  -6   3    4.52    0.40
  10  -6   3    4.94    0.39
 -10   6  -3    4.89    0.47
   9  -5   4   16.03    0.66
   9  -5   4   15.93    0.68
  -9   5  -4   14.89    0.71
   8  -4   5   75.33    2.10
   8  -4   5   74.60    2.03
  -8   4  -5   77.20    2.23
   7  -3   6   43.20    1.30
   7  -3   6   44.82    1.36
  -7   3  -6   44.54    1.43
   6  -2   7    5.98    0.38
   6  -2   7    5.21    0.35
  -6   2  -7    5.37    0.38
   5  -1   8   96.31    2.47
   5  -1   8   99.07    2.56
   5  -1   8   93.43    2.68
   4   0   9   -0.09    0.10
   4   0   9    0.08    0.12
   4   0   9   -0.12    0.07
   4   0   9    0.13    0.12
   3   1  10    0.75    0.18
   3   1  10    0.49    0.17
   3   1  10    0.69    0.18
   3   1  10    0.65    0.16
   3   1  10    0.63    0.15
   2   2  11    9.05    0.53
   2   2  11    8.69    0.46
   2   2  11    9.63    0.48
   2   2  11    8.55    0.47
   2   2  11    8.52    0.47
   1   3  12   11.69    0.56
   1   3  12   10.19    0.59
   1   3  12   11.93    0.54
   1   3  12    8.96    0.52
   1   3  12   10.71    0.53
   0   4  13   19.55    0.81
   0   4  13   18.64    0.88
   0   4  13   19.60    0.84
  -1   5  14   34.35    1.24
  -1   5  14   35.28    1.29
  -1   5  14   34.76    1.36
  -2   6  15    2.46    0.37
  -2   6  15    2.45    0.39
  -3   7  16    2.09    0.37
 -14   8   0    0.42    0.22
 -14   8   0    0.53    0.22
  13  -7   1    1.07    0.24
 -13   7  -1    1.07    0.25
 -13   7  -1    1.25    0.28
  12  -6   2   11.93    0.61
 -12   6  -2   13.01    0.66
  11  -5   3    2.40    0.31
  11  -5   3    2.00    0.28
 -11   5  -3    2.58    0.34
  10  -4   4   39.60    1.28
  10  -4   4   39.00    1.23
 -10   4  -4   39.52    1.31
   9  -3   5   85.05    2.34
   9  -3   5   86.45    2.27
  -9   3  -5   85.51    2.43
   8  -2   6    0.25    0.15
   8  -2   6    0.21    0.14
  -8   2  -6    0.47    0.17
   7  -1   7    4.20    0.32
   7  -1   7    3.96    0.31
  -7   1  -7    3.81    0.31
   6   0   8   95.46    2.45
   6   0   8   91.91    2.51
   6   0   8   96.47    2.65
   5   1   9   37.66    1.11
   5   1   9   36.94    1.15
   5   1   9   36.37    1.13
   5   1   9   38.80    1.21
   4   2  10   10.52    0.49
   4   2  10    8.60    0.46
   4   2  10    9.90    0.53
   4   2  10    9.30    0.49
   4   2  10    9.23    0.48
   3   3  11    3.46    0.34
   3   3  11    2.95    0.30
   3   3  11    2.67    0.34
   2   4  12    0.00    0.13
   2   4  12    0.18    0.16
   2   4  12   -0.01    0.13
   1   5  13    4.57    0.46
   1   5  13    5.53    0.45
   1   5  13    4.57    0.49
   0   6  14    9.10    0.59
   0   6  14    8.11    0.60
   0   6  14    8.46    0.59
  -1   7  15    0.61    0.26
  -1   7  15    0.76    0.28
  -1   7  15    0.91    0.29
  -2   8  16    1.90    0.38
 -16   8   1    6.73    0.52
 -16   8   1    6.39    0.50
 -15   7   0    0.03    0.18
  14  -6   1   -0.01    0.16
 -14   6  -1    0.30    0.19
  13  -5   2   60.91    1.76
 -13   5  -2   59.52    1.84
  12  -4   3   39.53    1.26
  12  -4   3   38.24    1.30
  11  -3   4   29.85    1.06
  11  -3   4   30.26    1.03
 -11   3  -4   28.25    1.01
  10  -2   5   12.39    0.60
  10  -2   5   11.73    0.58
 -10   2  -5   11.36    0.56
   9  -1   6    0.10    0.13
   9  -1   6    0.15    0.13
  -9   1  -6    0.33    0.14
   8   0   7   -0.01    0.12
   8   0   7   -0.13    0.10
   7   1   8   35.74    1.07
   7   1   8   35.95    1.20
   7   1   8   36.17    1.11
   7   1   8   35.67    1.13
   7   1   8   36.16    1.17
   6   2   9   24.62    0.88
   6   2   9   26.21    0.97
   6   2   9   25.78    0.90
   6   2   9   26.26    0.92
   6   2   9   25.13    0.87
   5   3  10   10.35    0.53
   5   3  10    8.95    0.48
   5   3  10    8.61    0.47
   5   3  10    9.60    0.50
   4   4  11   15.19    0.73
   4   4  11   14.60    0.68
   4   4  11   16.16    0.73
   3   5  12    2.11    0.32
   3   5  12    1.95    0.32
   3   5  12    2.20    0.33
   2   6  13    0.62    0.24
   2   6  13    0.34    0.20
   2   6  13    0.18    0.20
   1   7  14   15.31    0.86
   1   7  14   15.26    0.83
   1   7  14   16.42    0.84
   0   8  15    0.16    0.22
 -18   8   2    8.80    0.62
 -18   8   2    7.22    0.55
 -17   7   1    1.18    0.30
 -17   7   1    0.97    0.27
 -16   6   0    0.46    0.22
 -16   6   0    0.45    0.22
  15  -5   1    4.54    0.45
 -15   5  -1    4.76    0.47
  14  -4   2   20.76    0.86
 -14   4  -2   22.57    0.92
  13  -3   3   30.94    1.09
  12  -2   4   44.36    1.40
  12  -2   4   46.38    1.46
  11  -1   5    2.89    0.33
  11  -1   5    3.37    0.36
  10   0   6    2.18    0.29
  10   0   6    1.77    0.27
   9   1   7   12.49    0.58
   9   1   7   12.42    0.60
   8   2   8    8.97    0.48
   8   2   8    8.77    0.47
   8   2   8    9.01    0.49
   8   2   8    8.56    0.48
   8   2   8    9.01    0.47
   7   3   9    2.06    0.28
   7   3   9    1.88    0.26
   7   3   9    1.77    0.26
   6   4  10   24.40    0.94
   6   4  10   25.34    0.98
   6   4  10   25.81    1.00
   5   5  11    0.92    0.23
   5   5  11    0.89    0.23
   4   6  12    0.25    0.19
   4   6  12   -0.07    0.14
   4   6  12    0.08    0.17
   3   7  13    3.26    0.44
   3   7  13    2.71    0.40
   3   7  13    2.82    0.41
   2   8  14    1.74    0.36
   2   8  14    1.86    0.36
 -20   8   3    0.53    0.25
 -19   7   2   21.81    0.98
 -19   7   2   20.98    0.99
 -18   6   1    0.02    0.20
 -18   6   1   -0.33    0.16
 -17   5   0    0.81    0.25
 -17   5   0    0.95    0.26
  16  -4   1   11.10    0.63
 -16   4  -1   11.26    0.66
  15  -3   2   18.88    0.81
 -15   3  -2   18.51    0.85
  14  -2   3   38.98    1.30
 -14   2  -3   40.06    1.38
  13  -1   4   48.47    1.52
  13  -1   4   51.63    1.60
  12   0   5   -0.03    0.12
  12   0   5    0.06    0.13
  11   1   6    0.19    0.15
  11   1   6    0.18    0.15
  10   2   7    3.22    0.34
  10   2   7    2.55    0.28
  10   2   7    3.73    0.35
  10   2   7    2.95    0.33
   9   3   8    7.86    0.45
   9   3   8    9.51    0.50
   8   4   9    1.04    0.23
   8   4   9    1.24    0.24
   7   5  10   25.61    0.98
   7   5  10   23.42    0.98
   6   6  11    4.10    0.44
   6   6  11    4.36    0.47
   5   7  12    1.09    0.28
   5   7  12    0.60    0.24
   4   8  13    0.37    0.24
 -21   7   3    0.35    0.24
 -20   6   2    3.63    0.46
 -20   6   2    3.20    0.44
 -19   5   1    1.87    0.36
 -19   5   1    2.06    0.36
 -18   4   0    0.72    0.25
 -18   4   0    0.61    0.23
 -17   3  -1    4.12    0.47
 -17   3  -1    5.03    0.49
  16  -2   2    0.52    0.22
 -16   2  -2    1.27    0.28
  15  -1   3    0.65    0.21
 -15   1  -3    1.00    0.25
  14   0   4   38.84    1.29
 -14   0  -4   38.83    1.35
  13   1   5    0.44    0.18
  12   2   6    5.39    0.42
  12   2   6    5.83    0.40
  12   2   6    5.80    0.43
  11   3   7    4.22    0.41
  11   3   7    5.44    0.41
  11   3   7    4.82    0.42
  11   3   7    5.03    0.38
  10   4   8   15.70    0.71
  10   4   8   14.59    0.71
   9   5   9    0.67    0.22
   9   5   9    0.81    0.23
   8   6  10   23.96    1.02
   8   6  10   23.18    0.98
   7   7  11    5.09    0.53
   7   7  11    4.21    0.48
   6   8  12    0.36    0.24
 -22   6   3   -0.15    0.20
 -21   5   2    2.64    0.41
 -21   5   2    4.00    0.50
 -20   4   1    6.39    0.61
 -20   4   1    4.97    0.53
 -19   3   0    0.52    0.25
 -19   3   0    0.38    0.21
 -18   2  -1    0.08    0.19
 -18   2  -1    0.03    0.19
 -17   1  -2   -0.01    0.16
  16   0   3   -0.03    0.18
 -16   0  -3   -0.16    0.16
  15   1   4   41.08    1.36
 -15  -1  -4   41.36    1.44
  14   2   5   18.74    0.81
 -14  -2  -5   18.88    0.85
  13   3   6    2.47    0.33
  13   3   6    3.22    0.36
  13   3   6    3.43    0.37
 -13  -3  -6    3.19    0.38
  12   4   7    3.40    0.39
  12   4   7    4.43    0.41
  12   4   7    4.64    0.45
  11   5   8    0.38    0.19
  11   5   8    0.61    0.22
  10   6   9    1.61    0.32
  10   6   9    1.17    0.28
   9   7  10   10.33    0.67
   9   7  10   11.42    0.68
   8   8  11    6.03    0.60
 -23   5   3    2.91    0.45
 -22   4   2    4.27    0.50
 -21   3   1    1.42    0.32
 -21   3   1    1.87    0.36
 -20   2   0   18.01    0.91
 -20   2   0   17.56    0.88
 -19   1  -1    1.65    0.33
 -19   1  -1    2.31    0.38
 -18   0  -2    1.93    0.34
 -18   0  -2    1.98    0.33
 -17  -1  -3    2.90    0.40
 -17  -1  -3    2.77    0.38
 -16  -2  -4    9.26    0.60
  15   3   5    8.44    0.55
  15   3   5    7.53    0.49
 -15  -3  -5    8.34    0.56
  14   4   6    0.87    0.24
  14   4   6    0.93    0.24
  13   5   7    5.49    0.52
  13   5   7    5.17    0.50
  12   6   8    3.28    0.43
  12   6   8    3.53    0.44
  11   7   9    1.02    0.30
  11   7   9    0.63    0.25
  10   8  10    9.97    0.68
 -23   3   2    5.20    0.57
 -22   2   1    0.96    0.29
 -21   1   0    6.98    0.56
 -21   1   0    7.61    0.59
 -20   0  -1    0.25    0.22
 -20   0  -1    0.18    0.21
 -19  -1  -2    1.57    0.32
 -19  -1  -2    1.70    0.34
 -18  -2  -3   -0.11    0.19
 -18  -2  -3    0.29    0.21
 -17  -3  -4    2.51    0.39
 -17  -3  -4    2.33    0.37
  16   4   5    1.37    0.29
 -16  -4  -5    1.33    0.29
  15   5   6    6.15    0.57
  15   5   6    6.50    0.51
  14   6   7    0.15    0.20
  14   6   7    0.49    0.24
  13   7   8    2.13    0.39
  12   8   9    1.41    0.36
 -24   2   2    1.58    0.37
 -23   1   1    0.09    0.23
 -22   0   0    9.23    0.66
 -21  -1  -1    0.81    0.28
 -21  -1  -1    0.41    0.24
 -20  -2  -2    1.66    0.33
 -20  -2  -2    1.76    0.36
 -19  -3  -3    2.24    0.38
 -19  -3  -3    1.72    0.35
  18   4   4    0.06    0.18
 -18  -4  -4   -0.05    0.20
  17   5   5    0.78    0.27
  16   6   6   10.86    0.70
  16   6   6   10.51    0.71
  15   7   7    3.64    0.50
 -23  -1   0    6.17    0.62
 -22  -2  -1    1.69    0.36
 -21  -3  -2    4.77    0.54
  19   5   4    1.38    0.33
 -15  -9  15    0.91    0.31
 -16  -8  16    1.40    0.34
 -13  -9  14    0.79    0.28
 -13  -9  14    0.70    0.26
 -14  -8  15    1.77    0.36
 -14  -8  15    2.50    0.40
 -15  -7  16    1.34    0.33
 -16  -6  17    0.17    0.23
 -17  -5  18   12.10    0.76
   8  12 -10    0.10    0.25
   9  11 -11    0.05    0.26
  10  10 -12    7.11    0.60
 -11  -9  13    9.96    0.62
 -11  -9  13    8.04    0.56
  11   9 -13    8.27    0.65
 -12  -8  14    3.91    0.47
 -12  -8  14    3.94    0.46
  12   8 -14    3.82    0.51
 -13  -7  15    0.35    0.24
 -13  -7  15    0.27    0.23
  13   7 -15    0.16    0.20
 -14  -6  16    0.70    0.26
 -14  -6  16    0.83    0.28
 -15  -5  17    0.87    0.29
 -16  -4  18    4.59    0.54
 -17  -3  19    3.51    0.49
   6  12  -9    0.21    0.27
   7  11 -10    1.06    0.33
   8  10 -11    0.29    0.24
  -9  -9  12   24.30    0.97
  -9  -9  12   24.69    1.00
   9   9 -12   23.75    1.12
 -10  -8  13    9.34    0.60
 -10  -8  13    9.66    0.59
  10   8 -13   10.69    0.71
 -11  -7  14    3.20    0.41
 -11  -7  14    4.85    0.50
  11   7 -14    3.99    0.50
 -12  -6  15   -0.06    0.18
 -12  -6  15   -0.10    0.17
  12   6 -15    0.09    0.19
 -13  -5  16    0.22    0.22
 -13  -5  16    0.47    0.24
  13   5 -16    0.64    0.25
 -14  -4  17    2.79    0.41
 -14  -4  17    2.55    0.39
  14   4 -17    3.10    0.44
 -15  -3  18    0.32    0.22
  15   3 -18    0.14    0.22
 -16  -2  19    1.52    0.35
  16   2 -19    1.86    0.40
   3  13  -7    0.04    0.27
   4  12  -8    8.73    0.71
   5  11  -9    2.55    0.45
   6  10 -10    5.13    0.57
  -7  -9  11    9.47    0.56
  -7  -9  11    9.34    0.56
   7   9 -11   10.23    0.70
  -8  -8  12    0.23    0.17
  -8  -8  12    0.37    0.20
   8   8 -12    0.39    0.24
  -9  -7  13    2.43    0.35
  -9  -7  13    1.74    0.31
   9   7 -13    1.77    0.34
 -10  -6  14    7.14    0.51
 -10  -6  14    6.70    0.49
  10   6 -14    6.07    0.53
 -11  -5  15    2.00    0.33
 -11  -5  15    2.19    0.36
  11   5 -15    2.03    0.37
 -12  -4  16    0.21    0.19
 -12  -4  16    0.20    0.21
  12   4 -16    0.46    0.23
 -13  -3  17    5.26    0.53
 -13  -3  17    6.01    0.56
 -14  -2  18    0.16    0.21
 -14  -2  18    0.07    0.20
 -14  -2  18    0.12    0.22
  14   2 -18   -0.17    0.19
 -15  -1  19    2.09    0.38
 -15  -1  19    2.22    0.39
  15   1 -19    1.89    0.38
  15   1 -19    1.51    0.35
   1  13  -6    0.83    0.35
   2  12  -7    0.47    0.31
   3  11  -8    7.27    0.63
   4  10  -9    3.75    0.50
  -5  -9  10   19.94    0.81
  -5  -9  10   19.44    0.78
   5   9 -10   17.62    0.93
  -6  -8  11    6.96    0.48
  -6  -8  11    6.23    0.45
   6   8 -11    6.36    0.62
  -7  -7  12    3.03    0.37
  -7  -7  12    3.37    0.39
   7   7 -12    2.98    0.41
  -8  -6  13    2.62    0.36
  -8  -6  13    2.88    0.35
   8   6 -13    3.11    0.42
  -9  -5  14   18.59    0.86
  -9  -5  14   17.75    0.82
   9   5 -14   19.00    0.93
 -10  -4  15   16.48    0.78
 -10  -4  15   16.74    0.81
  10   4 -15   15.29    0.84
 -11  -3  16   10.61    0.67
 -11  -3  16   10.59    0.64
 -11  -3  16   10.44    0.64
 -12  -2  17    2.46    0.38
 -12  -2  17    2.31    0.38
 -12  -2  17    2.19    0.35
  12   2 -17    2.73    0.37
 -13  -1  18    1.66    0.34
 -13  -1  18    1.53    0.33
 -13  -1  18    2.35    0.39
  13   1 -18    2.32    0.39
  13   1 -18    1.74    0.34
 -14   0  19    0.04    0.21
 -14   0  19    0.12    0.19
  14   0 -19   -0.01    0.22
  14   0 -19   -0.07    0.20
 -15   1  20   13.95    0.81
  15  -1 -20   15.28    0.87
  -1  13  -5    0.35    0.28
   0  12  -6    0.31    0.29
   1  11  -7    0.61    0.30
   2  10  -8    2.39    0.41
  -3  -9   9    5.48    0.38
  -3  -9   9    5.89    0.41
   3   9  -9    7.09    0.56
  -4  -8  10    0.80    0.20
  -4  -8  10    0.96    0.22
   4   8 -10    0.50    0.25
  -5  -7  11    7.64    0.49
  -5  -7  11    8.61    0.52
   5   7 -11    8.81    0.61
  -6  -6  12    0.23    0.18
  -6  -6  12    0.10    0.16
   6   6 -12    0.39    0.20
  -7  -5  13    0.74    0.21
  -7  -5  13    0.99    0.24
   7   5 -13    1.01    0.27
  -8  -4  14   10.14    0.60
  -8  -4  14   10.73    0.62
   8   4 -14   10.99    0.67
  -9  -3  15    7.81    0.54
  -9  -3  15    6.63    0.48
  -9  -3  15    6.89    0.53
 -10  -2  16    2.79    0.39
 -10  -2  16    3.14    0.43
 -10  -2  16    2.98    0.40
  10   2 -16    2.83    0.36
 -11  -1  17    3.68    0.44
 -11  -1  17    3.54    0.46
 -11  -1  17    3.63    0.43
  11   1 -17    3.77    0.43
  11   1 -17    3.79    0.45
 -12   0  18    2.23    0.36
 -12   0  18    2.15    0.37
 -12   0  18    1.71    0.34
  12   0 -18    2.34    0.39
  12   0 -18    1.51    0.32
 -13   1  19    0.81    0.28
 -13   1  19    1.15    0.30
  13  -1 -19    0.94    0.31
  13  -1 -19    1.48    0.34
 -14   2  20    3.17    0.44
  14  -2 -20    3.42    0.51
  -3  13  -4    9.13    0.74
  -2  12  -5    0.08    0.25
  -1  11  -6   -0.16    0.21
   0  10  -7   13.63    0.83
  -1  -9   8    3.45    0.35
  -1  -9   8    2.80    0.31
   1   9  -8    3.14    0.44
  -2  -8   9    7.31    0.45
  -2  -8   9    6.95    0.42
   2   8  -9    6.83    0.55
  -3  -7  10   65.06    1.83
  -3  -7  10   67.06    1.90
   3   7 -10   64.36    2.14
  -4  -6  11    0.53    0.20
  -4  -6  11    0.46    0.18
   4   6 -11    0.16    0.19
  -5  -5  12    0.54    0.18
  -5  -5  12    0.32    0.17
   5   5 -12    0.51    0.23
  -6  -4  13   30.95    1.12
  -6  -4  13   31.69    1.10
   6   4 -13   28.51    1.20
  -7  -3  14    1.30    0.26
  -7  -3  14    1.28    0.29
  -7  -3  14    1.73    0.29
  -8  -2  15    0.46    0.20
  -8  -2  15    0.61    0.22
  -8  -2  15    0.84    0.24
  -9  -1  16   21.85    0.99
  -9  -1  16   19.68    0.88
  -9  -1  16   20.58    0.92
   9   1 -16   19.19    0.84
   9   1 -16   21.97    0.91
 -10   0  17   -0.16    0.18
 -10   0  17    0.01    0.17
 -10   0  17   -0.15    0.16
  10   0 -17    0.21    0.19
  10   0 -17   -0.02    0.18
 -11   1  18   -0.14    0.17
 -11   1  18    0.08    0.20
 -11   1  18   -0.07    0.17
  11  -1 -18   -0.13    0.18
  11  -1 -18    0.25    0.21
 -12   2  19    9.72    0.63
 -12   2  19    7.44    0.58
  12  -2 -19    8.98    0.68
  12  -2 -19    8.11    0.63
  -4  12  -4    5.67    0.64
  -3  11  -5    0.97    0.33
  -2  10  -6    0.03    0.22
   1  -9   7    2.15    0.28
   1  -9   7    2.77    0.29
  -1   9  -7    2.69    0.41
   0  -8   8    0.92    0.20
   0  -8   8    0.78    0.19
   0   8  -8    1.02    0.26
  -1  -7   9    0.90    0.20
  -1  -7   9    1.15    0.22
   1   7  -9    0.83    0.25
  -2  -6  10   85.51    2.24
  -2  -6  10   87.03    2.33
   2   6 -10   78.51    2.54
  -3  -5  11   24.45    0.93
  -3  -5  11   24.58    0.90
   3   5 -11   23.69    1.03
  -4  -4  12    0.45    0.18
  -4  -4  12    0.63    0.18
   4   4 -12    0.56    0.22
  -5  -3  13   32.49    1.15
  -5  -3  13   35.13    1.21
  -5  -3  13   34.18    1.29
  -6  -2  14   10.45    0.58
  -6  -2  14   11.22    0.62
  -6  -2  14   11.49    0.65
  -7  -1  15    1.22    0.28
  -7  -1  15    1.26    0.26
  -7  -1  15    1.26    0.26
   7   1 -15    1.65    0.27
   7   1 -15    1.59    0.27
  -8   0  16    1.57    0.30
  -8   0  16    1.87    0.31
  -8   0  16    1.29    0.29
   8   0 -16    1.55    0.29
   8   0 -16    1.49    0.29
  -9   1  17    0.13    0.18
  -9   1  17    0.32    0.21
  -9   1  17    0.48    0.24
   9  -1 -17    0.20    0.21
   9  -1 -17    0.14    0.19
 -10   2  18    0.55    0.26
 -10   2  18    0.31    0.21
 -10   2  18    0.71    0.24
  10  -2 -18    0.17    0.22
  10  -2 -18    0.86    0.28
 -11   3  19    0.54    0.23
  11  -3 -19    0.24    0.24
  -6  12  -3    0.21    0.25
  -5  11  -4   21.35    1.08
  -4  10  -5   10.49    0.72
   3  -9   6    4.88    0.37
   3  -9   6    4.69    0.35
  -3   9  -6    4.65    0.53
   2  -8   7    5.26    0.37
   2  -8   7    4.86    0.35
  -2   8  -7    5.09    0.52
   1  -7   8    1.14    0.22
   1  -7   8    1.50    0.24
  -1   7  -8    1.25    0.29
   0  -6   9    9.90    0.52
   0  -6   9   10.76    0.55
   0   6  -9   11.02    0.65
  -1  -5  10   30.05    1.02
  -1  -5  10   30.16    1.05
   1   5 -10   31.11    1.20
  -2  -4  11    0.27    0.16
  -2  -4  11    0.05    0.13
   2   4 -11    0.25    0.17
  -3  -3  12   46.53    1.46
  -3  -3  12   45.34    1.40
  -4  -2  13   19.88    0.84
  -4  -2  13   19.89    0.81
  -4  -2  13   21.78    0.93
  -5  -1  14    8.92    0.58
  -5  -1  14    8.85    0.52
  -5  -1  14    8.79    0.54
  -6   0  15    0.06    0.15
  -6   0  15    0.12    0.16
  -6   0  15    0.00    0.16
   6   0 -15   -0.10    0.14
   6   0 -15    0.04    0.15
  -7   1  16   28.86    1.21
  -7   1  16   28.80    1.08
  -7   1  16   29.83    1.13
   7  -1 -16   30.79    1.15
   7  -1 -16   29.30    1.10
  -8   2  17   13.12    0.69
  -8   2  17   13.12    0.71
  -8   2  17   13.13    0.78
   8  -2 -17   13.42    0.73
   8  -2 -17   14.07    0.77
  -9   3  18    3.60    0.48
  -9   3  18    3.00    0.39
  -9   3  18    3.20    0.41
   9  -3 -18    3.41    0.45
   9  -3 -18    3.22    0.46
  10  -4 -19    1.00    0.31
  -8  12  -2    3.97    0.54
  -7  11  -3   11.36    0.78
  -6  10  -4    7.40    0.60
   5  -9   5    4.19    0.39
   5  -9   5    4.76    0.36
  -5   9  -5    4.03    0.50
   4  -8   6    8.24    0.45
   4  -8   6    8.52    0.47
  -4   8  -6    7.96    0.59
   3  -7   7    8.53    0.45
   3  -7   7    8.01    0.45
  -3   7  -7    8.77    0.58
   2  -6   8    4.73    0.35
   2  -6   8    3.52    0.34
  -2   6  -8    4.16    0.45
   1  -5   9    0.10    0.14
   1  -5   9    0.10    0.13
  -1   5  -9    0.02    0.14
   0  -4  10    0.94    0.20
   0  -4  10    1.04    0.22
   0   4 -10    1.00    0.25
  -1  -3  11    2.47    0.30
  -1  -3  11    2.47    0.30
   1   3 -11    2.32    0.33
  -2  -2  12    0.14    0.14
  -2  -2  12    0.08    0.15
  -2  -2  12   -0.05    0.13
  -3  -1  13   18.94    0.81
  -3  -1  13   20.29    0.89
  -3  -1  13   19.80    0.79
  -4   0  14   81.11    2.28
  -4   0  14   80.08    2.19
  -4   0  14   78.55    2.44
   4   0 -14   77.40    2.23
   4   0 -14   79.74    2.18
  -5   1  15    1.98    0.34
  -5   1  15    2.32    0.32
  -5   1  15    2.09    0.30
   5  -1 -15    2.29    0.32
   5  -1 -15    2.69    0.34
  -6   2  16   15.97    0.84
  -6   2  16   15.62    0.75
  -6   2  16   15.54    0.73
   6  -2 -16   15.40    0.78
   6  -2 -16   15.13    0.75
  -7   3  17    1.01    0.26
  -7   3  17    1.10    0.25
  -7   3  17    0.74    0.27
   7  -3 -17    1.06    0.29
   7  -3 -17    1.46    0.32
   8  -4 -18    7.35    0.60
   8  -4 -18    8.47    0.64
   9  -5 -19    3.24    0.48
 -10  12  -1    0.08    0.26
  -9  11  -2    0.09    0.23
  -8  10  -3    6.05    0.62
   7  -9   4    8.85    0.50
   7  -9   4    7.77    0.47
  -7   9  -4    8.28    0.62
   6  -8   5    1.40    0.23
   6  -8   5    0.88    0.21
  -6   8  -5    1.24    0.30
   5  -7   6    6.72    0.42
   5  -7   6    6.98    0.43
  -5   7  -6    6.50    0.52
   4  -6   7   19.27    0.74
   4  -6   7   19.38    0.77
  -4   6  -7   20.07    0.90
   3  -5   8    1.05    0.20
   3  -5   8    1.44    0.23
  -3   5  -8    1.05    0.26
   2  -4   9   33.53    1.08
   2  -4   9   33.16    1.12
  -2   4  -9   34.32    1.26
   1  -3  10   94.44    2.53
   1  -3  10   94.75    2.46
  -1   3 -10   92.67    2.74
   0  -2  11   71.71    1.94
   0  -2  11   70.84    2.01
   0  -2  11   69.90    2.16
  -1  -1  12   66.45    1.89
  -1  -1  12   69.74    2.13
  -1  -1  12   68.77    1.96
  -2   0  13   -0.06    0.12
  -2   0  13    0.01    0.13
  -2   0  13   -0.14    0.10
  -3   1  14   14.84    0.68
  -3   1  14   15.85    0.77
  -3   1  14   14.07    0.65
   3  -1 -14   13.64    0.65
   3  -1 -14   13.26    0.66
  -4   2  15    3.43    0.42
  -4   2  15    4.10    0.39
  -4   2  15    3.07    0.36
   4  -2 -15    3.67    0.41
  -5   3  16    5.74    0.43
  -5   3  16    4.89    0.41
  -5   3  16    4.67    0.51
   5  -3 -16    4.30    0.47
   5  -3 -16    5.77    0.55
  -6   4  17    0.33    0.23
   6  -4 -17    0.02    0.20
   6  -4 -17    0.17    0.22
   7  -5 -18   24.33    1.13
 -12  12   0    3.24    0.52
 -11  11  -1   -0.22    0.21
 -10  10  -2    0.85    0.30
   9  -9   3    7.16    0.48
   9  -9   3    7.33    0.48
  -9   9  -3    6.79    0.56
   8  -8   4    0.86    0.20
   8  -8   4    0.86    0.22
  -8   8  -4    0.83    0.27
   7  -7   5    3.99    0.38
   7  -7   5    3.78    0.36
  -7   7  -5    4.41    0.47
   6  -6   6    0.48    0.18
   6  -6   6    0.43    0.16
  -6   6  -6    0.69    0.23
   5  -5   7   13.12    0.60
   5  -5   7   11.80    0.60
  -5   5  -7   14.63    0.72
   4  -4   8    0.24    0.14
   4  -4   8    0.35    0.16
  -4   4  -8    0.12    0.16
   3  -3   9    5.85    0.39
   3  -3   9    5.13    0.36
  -3   3  -9    5.90    0.43
   2  -2  10    4.14    0.34
   2  -2  10    4.05    0.37
   1  -1  11   21.46    0.83
   1  -1  11   19.69    0.79
   1  -1  11   23.28    0.92
   0   0  12  103.98    2.95
   0   0  12   99.48    2.63
   0   0  12  100.96    2.72
  -1   1  13    6.61    0.43
  -1   1  13    6.08    0.41
  -1   1  13    7.27    0.43
  -1   1  13    6.79    0.49
   1  -1 -13    6.14    0.43
  -2   2  14    0.00    0.13
  -2   2  14    0.01    0.16
  -2   2  14   -0.16    0.12
  -2   2  14    0.09    0.14
   2  -2 -14   -0.10    0.14
  -3   3  15    5.69    0.46
  -3   3  15    6.37    0.51
   3  -3 -15    6.49    0.50
  -4   4  16    0.00    0.18
  -4   4  16    0.18    0.20
   4  -4 -16   -0.08    0.17
  -5   5  17    1.05    0.30
   5  -5 -17    0.93    0.29
   6  -6 -18    5.40    0.60
 -13  11   0    2.77    0.48
 -12  10  -1    1.06    0.31
  11  -9   2    1.40    0.27
 -11   9  -2    0.94    0.30
 -11   9  -2    0.93    0.23
  10  -8   3    3.90    0.39
  10  -8   3    3.78    0.40
 -10   8  -3    4.59    0.50
   9  -7   4   27.58    0.99
   9  -7   4   29.47    1.04
  -9   7  -4   28.20    1.14
   8  -6   5    3.55    0.36
   8  -6   5    3.78    0.38
  -8   6  -5    3.53    0.41
   7  -5   6  145.14    3.60
   7  -5   6  148.45    3.72
  -7   5  -6  142.54    3.98
   6  -4   7    4.33    0.36
   6  -4   7    5.05    0.38
  -6   4  -7    5.66    0.43
   5  -3   8   28.59    1.01
   5  -3   8   27.49    0.96
  -5   3  -8   29.97    1.09
   4  -2   9   39.28    1.21
   4  -2   9   38.23    1.24
  -4   2  -9   38.14    1.33
   3  -1  10    0.85    0.21
   3  -1  10    0.60    0.18
   3  -1  10    0.48    0.17
   2   0  11    0.11    0.13
   2   0  11    0.17    0.15
   2   0  11   -0.04    0.12
   1   1  12   37.10    1.17
   1   1  12   41.52    1.42
   1   1  12   38.58    1.27
   1   1  12   40.70    1.24
   0   2  13    4.64    0.37
   0   2  13    4.91    0.37
   0   2  13    5.08    0.42
   0   2  13    4.78    0.37
   0  -2 -13    5.30    0.42
  -1   3  14    0.02    0.08
  -1   3  14    0.29    0.19
  -1   3  14    0.03    0.08
  -1   3  14    0.52    0.18
   1  -3 -14    0.25    0.18
  -2   4  15   12.86    0.74
  -2   4  15   13.16    0.68
   2  -4 -15   13.53    0.74
  -3   5  16    0.50    0.25
  -3   5  16    0.61    0.24
   3  -5 -16    0.55    0.25
  -4   6  17   -0.11    0.19
 -14  10   0    2.59    0.43
  13  -9   1    7.85    0.55
 -13   9  -1    7.57    0.59
  12  -8   2    3.90    0.42
 -12   8  -2    3.34    0.43
 -12   8  -2    3.20    0.39
  11  -7   3    0.14    0.17
  11  -7   3    0.10    0.17
 -11   7  -3    0.19    0.20
  10  -6   4    2.03    0.29
  10  -6   4    1.50    0.27
 -10   6  -4    1.88    0.32
   9  -5   5    5.11    0.40
   9  -5   5    5.32    0.38
  -9   5  -5    4.84    0.41
   8  -4   6   55.00    1.63
   8  -4   6   52.59    1.56
  -8   4  -6   53.39    1.71
   7  -3   7    3.11    0.32
   7  -3   7    3.26    0.34
  -7   3  -7    2.57    0.33
   6  -2   8   23.66    0.89
   6  -2   8   24.33    0.87
  -6   2  -8   23.44    0.93
   5  -1   9   39.02    1.29
   5  -1   9   37.12    1.18
   5  -1   9   35.98    1.21
   4   0  10    1.18    0.21
   4   0  10    1.26    0.24
   4   0  10    1.12    0.21
   3   1  11    7.48    0.45
   3   1  11    7.22    0.48
   3   1  11    7.70    0.45
   2   2  12   18.75    0.73
   2   2  12   17.82    0.74
   2   2  12   19.28    0.75
   2   2  12   18.29    0.76
   2   2  12   17.59    0.82
   1   3  13   20.46    0.74
   1   3  13   13.76    0.67
   0   4  14   13.12    0.73
   0   4  14   13.05    0.67
   0   4  14   13.83    0.70
  -1   5  15    1.01    0.26
  -1   5  15    1.78    0.35
  -2   6  16    2.19    0.40
  -2   6  16    2.08    0.37
  -3   7  17    6.49    0.63
 -15   9   0    1.56    0.31
  14  -8   1    0.63    0.24
 -14   8  -1    0.78    0.25
  13  -7   2   15.03    0.71
 -13   7  -2   12.74    0.69
 -13   7  -2   14.97    0.76
  12  -6   3    1.61    0.29
  12  -6   3    1.31    0.27
 -12   6  -3    1.36    0.28
  11  -5   4   12.92    0.64
  11  -5   4   12.65    0.65
 -11   5  -4   13.58    0.68
  10  -4   5    9.95    0.54
  10  -4   5    9.24    0.51
 -10   4  -5    9.06    0.53
   9  -3   6   48.22    1.47
   9  -3   6   50.95    1.54
  -9   3  -6   49.20    1.58
   8  -2   7    0.46    0.17
   8  -2   7    1.11    0.22
  -8   2  -7    0.80    0.20
   7  -1   8   35.55    1.19
   7  -1   8   36.36    1.16
  -7   1  -8   36.64    1.24
   6   0   9   -0.02    0.07
   6   0   9   -0.12    0.10
   6   0   9   -0.05    0.12
   5   1  10    0.95    0.20
   5   1  10    1.06    0.21
   5   1  10    0.55    0.18
   4   2  11   13.18    0.62
   4   2  11   13.11    0.59
   4   2  11   12.88    0.60
   4   2  11   13.75    0.69
   4   2  11   13.56    0.61
   3   3  12   52.10    1.56
   3   3  12   51.87    1.72
   3   3  12   50.73    1.59
   2   4  13   39.47    1.45
   2   4  13   40.21    1.36
   2   4  13   39.76    1.33
   1   5  14   18.88    0.89
   1   5  14   20.51    0.97
   1   5  14   19.67    0.87
   0   6  15    1.70    0.33
   0   6  15    1.26    0.32
   0   6  15    1.59    0.34
  -1   7  16    0.79    0.27
 -17   9   1    7.42    0.55
 -16   8   0    1.69    0.33
 -16   8   0    1.35    0.29
  15  -7   1    0.86    0.27
 -15   7  -1    0.54    0.24
  14  -6   2   34.63    1.19
 -14   6  -2   31.29    1.21
  13  -5   3   21.60    0.88
  13  -5   3   21.29    0.90
  12  -4   4   -0.12    0.13
  12  -4   4    0.00    0.14
  11  -3   5   31.88    1.14
  11  -3   5   32.09    1.10
  10  -2   6    1.72    0.27
  10  -2   6    2.01    0.28
 -10   2  -6    1.85    0.27
   9  -1   7   13.21    0.63
   9  -1   7   13.61    0.63
  -9   1  -7   12.38    0.61
   8   0   8   45.93    1.41
   8   0   8   47.49    1.47
   7   1   9   18.12    0.77
   7   1   9   18.61    0.76
   7   1   9   17.64    0.73
   6   2  10   -0.12    0.12
   6   2  10    0.11    0.13
   6   2  10   -0.05    0.13
   5   3  11   12.98    0.60
   5   3  11   12.96    0.63
   5   3  11   11.56    0.63
   4   4  12    3.20    0.37
   4   4  12    3.00    0.36
   4   4  12    3.21    0.39
   3   5  13    7.45    0.54
   3   5  13    7.60    0.53
   3   5  13    7.12    0.52
   2   6  14   18.46    0.93
   2   6  14   18.62    0.90
   2   6  14   19.46    0.90
   1   7  15   -0.04    0.19
 -18   8   1   11.98    0.72
 -18   8   1   11.03    0.69
 -17   7   0    0.31    0.21
 -17   7   0    0.61    0.24
  16  -6   1    3.06    0.42
 -16   6  -1    2.96    0.41
  15  -5   2   52.48    1.61
 -15   5  -2   48.31    1.66
  14  -4   3   34.90    1.23
 -14   4  -3   36.38    1.31
  13  -3   4    0.80    0.23
  13  -3   4    1.26    0.27
  12  -2   5    6.73    0.46
  12  -2   5    6.90    0.46
  11  -1   6    0.25    0.17
  11  -1   6    0.21    0.17
  10   0   7    0.11    0.14
  10   0   7    0.07    0.14
   9   1   8   32.48    1.10
   9   1   8   33.55    1.15
   8   2   9    4.28    0.41
   8   2   9    4.36    0.39
   7   3  10   16.22    0.70
   7   3  10   16.40    0.72
   6   4  11    2.74    0.35
   6   4  11    1.37    0.25
   6   4  11    0.82    0.20
   5   5  12    0.70    0.23
   5   5  12    0.48    0.21
   5   5  12    0.26    0.18
   4   6  13    0.63    0.23
   4   6  13    0.46    0.23
   4   6  13    0.94    0.27
   3   7  14    3.92    0.48
   3   7  14    4.93    0.54
   3   7  14    5.86    0.58
 -20   8   2    5.19    0.54
 -19   7   1    2.13    0.37
 -19   7   1    1.58    0.34
 -18   6   0    0.66    0.25
 -18   6   0    0.73    0.26
 -17   5  -1    7.69    0.57
  16  -4   2   30.25    1.12
 -16   4  -2   27.06    1.15
  15  -3   3   36.35    1.23
 -15   3  -3   32.33    1.25
  14  -2   4   20.94    0.88
  13  -1   5    0.24    0.17
  13  -1   5    0.36    0.18
  12   0   6    3.33    0.38
  12   0   6    2.87    0.35
  11   1   7   19.17    0.82
  11   1   7   18.66    0.78
  10   2   8    2.46    0.31
  10   2   8    2.57    0.33
   9   3   9    0.59    0.19
   9   3   9    0.33    0.17
   9   3   9    0.52    0.18
   8   4  10    0.23    0.10
   8   4  10    0.07    0.08
   7   5  11    2.80    0.37
   7   5  11    2.99    0.39
   6   6  12   -0.06    0.17
   6   6  12    0.18    0.18
   5   7  13    0.11    0.21
   5   7  13    0.43    0.23
 -21   7   2    7.15    0.65
 -20   6   1   -0.04    0.22
 -20   6   1    0.02    0.21
 -19   5   0    0.40    0.24
 -19   5   0   -0.01    0.21
 -18   4  -1    8.39    0.60
 -18   4  -1    9.70    0.62
  17  -3   2    1.68    0.31
 -17   3  -2    1.57    0.32
  16  -2   3   15.07    0.75
 -16   2  -3   13.78    0.76
  15  -1   4   40.03    1.36
 -15   1  -4   41.96    1.46
  14   0   5    0.31    0.19
  13   1   6    1.17    0.26
  13   1   6    1.40    0.27
  12   2   7   13.75    0.69
  12   2   7   14.74    0.69
  11   3   8    3.82    0.40
  11   3   8    2.67    0.34
  10   4   9    0.03    0.08
   9   5  10   22.53    0.96
   9   5  10   22.57    0.93
   8   6  11    3.27    0.41
   8   6  11    3.28    0.43
   7   7  12    0.26    0.21
   7   7  12    0.46    0.24
 -22   6   2   13.56    0.81
 -21   5   1   -0.01    0.20
 -20   4   0   -0.02    0.21
 -20   4   0    0.18    0.22
 -19   3  -1    9.98    0.64
 -19   3  -1    8.84    0.64
 -18   2  -2    0.23    0.20
 -18   2  -2    0.16    0.20
  17  -1   3    2.57    0.38
 -17   1  -3    3.11    0.43
  16   0   4   49.46    1.60
 -16   0  -4   51.05    1.71
  15   1   5    5.88    0.52
 -15  -1  -5    5.99    0.49
  14   2   6    0.89    0.23
 -14  -2  -6    0.80    0.25
  13   3   7    8.96    0.56
 -13  -3  -7   10.38    0.61
  12   4   8    0.10    0.09
  11   5   9    0.07    0.18
  11   5   9    0.01    0.16
  10   6  10   11.63    0.69
  10   6  10   10.93    0.66
   9   7  11    2.40    0.39
   9   7  11    2.66    0.41
 -23   5   2    3.47    0.48
 -22   4   1    0.83    0.30
 -21   3   0    4.52    0.53
 -20   2  -1   -0.17    0.20
 -20   2  -1    0.20    0.22
 -19   1  -2    1.56    0.34
 -19   1  -2    1.13    0.31
 -18   0  -3   -0.13    0.15
 -18   0  -3    0.22    0.19
 -17  -1  -4    7.07    0.54
  16   2   5   10.29    0.62
 -16  -2  -5   10.66    0.66
  15   3   6    4.33    0.45
 -15  -3  -6    3.67    0.45
  13   5   8    0.37    0.21
  12   6   9    2.94    0.43
  12   6   9    1.85    0.34
  11   7  10   17.89    0.90
 -23   3   1   -0.29    0.19
 -22   2   0    2.53    0.42
 -21   1  -1    0.49    0.25
 -20   0  -2    0.14    0.22
 -20   0  -2    0.42    0.25
 -19  -1  -3    0.14    0.20
 -19  -1  -3    0.05    0.21
 -18  -2  -4    3.03    0.43
 -18  -2  -4    2.92    0.41
 -17  -3  -5    5.00    0.51
 -17  -3  -5    5.15    0.54
  15   5   7    2.94    0.41
  14   6   8    0.21    0.23
  13   7   9    5.45    0.59
 -23   1   0    6.31    0.64
 -22   0  -1    0.11    0.23
 -21  -1  -2    0.24    0.22
 -20  -2  -3    1.75    0.36
 -20  -2  -3    1.42    0.34
 -19  -3  -4    4.21    0.50
 -19  -3  -4    3.86    0.48
  16   6   7    0.12    0.21
 -13  -9  15    2.12    0.38
 -13  -9  15    1.63    0.36
 -14  -8  16    1.74    0.36
 -15  -7  17    0.76    0.31
   9  11 -12    3.73    0.54
  10  10 -13    1.10    0.34
 -11  -9  14    0.83    0.27
 -11  -9  14    1.24    0.30
  11   9 -14    1.35    0.35
 -12  -8  15    0.29    0.23
 -12  -8  15    0.46    0.24
  12   8 -15    0.19    0.25
 -13  -7  16    0.86    0.28
 -13  -7  16    0.46    0.23
  13   7 -16    0.59    0.28
 -14  -6  17    2.03    0.38
 -15  -5  18    8.19    0.63
 -16  -4  19    1.51    0.36
   6  12 -10    0.37    0.27
   7  11 -11    0.52    0.31
   8  10 -12    7.04    0.61
  -9  -9  13    3.33    0.41
  -9  -9  13    2.75    0.39
   9   9 -13    3.11    0.48
 -10  -8  14    0.24    0.22
 -10  -8  14    0.14    0.21
  10   8 -14    0.19    0.23
 -11  -7  15    3.00    0.42
 -11  -7  15    2.30    0.37
  11   7 -15    2.33    0.41
 -12  -6  16    0.55    0.25
 -12  -6  16    0.52    0.24
  12   6 -16    0.36    0.24
 -13  -5  17    0.34    0.22
 -13  -5  17    0.12    0.22
  13   5 -17   -0.01    0.20
 -14  -4  18    1.77    0.37
  14   4 -18    1.67    0.37
 -15  -3  19    0.47    0.25
   4  12  -9   -0.04    0.26
   5  11 -10    2.85    0.48
   6  10 -11    6.81    0.68
  -7  -9  12    4.90    0.47
  -7  -9  12    4.42    0.47
   7   9 -12    4.47    0.56
  -8  -8  13    3.18    0.40
  -8  -8  13    2.82    0.39
   8   8 -13    3.24    0.47
  -9  -7  14   11.19    0.64
  -9  -7  14    9.78    0.63
   9   7 -14   11.64    0.74
 -10  -6  15    1.10    0.29
 -10  -6  15    1.08    0.29
  10   6 -15    1.10    0.30
 -11  -5  16    6.11    0.57
 -11  -5  16    6.20    0.57
  11   5 -16    5.31    0.58
 -12  -4  17    8.25    0.61
 -12  -4  17    9.31    0.61
  12   4 -17    8.95    0.66
 -13  -3  18    0.87    0.29
 -14  -2  19    6.16    0.64
 -14  -2  19    5.91    0.60
 -15  -1  20   13.02    0.78
   2  12  -8    4.94    0.63
   3  11  -9   -0.33    0.19
   4  10 -10   -0.04    0.22
  -5  -9  11    4.70    0.43
  -5  -9  11    5.41    0.43
   5   9 -11    4.49    0.54
  -6  -8  12    1.11    0.26
  -6  -8  12    1.15    0.25
   6   8 -12    1.32    0.32
  -7  -7  13    0.52    0.21
  -7  -7  13    0.59    0.22
   7   7 -13    0.90    0.29
  -8  -6  14   18.90    0.84
  -8  -6  14   19.07    0.87
   8   6 -14   17.16    0.93
  -9  -5  15    0.89    0.25
  -9  -5  15    1.12    0.26
   9   5 -15    0.79    0.26
 -10  -4  16   -0.04    0.17
 -10  -4  16   -0.01    0.19
  10   4 -16    0.23    0.22
 -11  -3  17   13.26    0.77
 -11  -3  17   14.97    0.78
 -12  -2  18    0.15    0.19
 -12  -2  18    0.06    0.20
 -12  -2  18   -0.15    0.17
 -13  -1  19    1.21    0.30
 -13  -1  19    1.29    0.35
 -14   0  20    9.88    0.68
  14   0 -20    8.74    0.66
   0  12  -7    2.37    0.48
   1  11  -8   17.49    0.99
   2  10  -9    4.40    0.53
  -3  -9  10    0.99    0.23
  -3  -9  10    0.53    0.21
   3   9 -10    0.72    0.27
  -4  -8  11   24.28    0.94
  -4  -8  11   22.76    0.89
   4   8 -11   22.12    1.07
  -5  -7  12    0.06    0.15
  -5  -7  12    0.17    0.16
   5   7 -12    0.00    0.18
  -6  -6  13    0.52    0.20
  -6  -6  13    0.47    0.19
   6   6 -13    0.39    0.23
  -7  -5  14   33.00    1.18
  -7  -5  14   33.75    1.23
   7   5 -14   30.46    1.30
  -8  -4  15   30.49    1.20
  -8  -4  15   32.37    1.17
   8   4 -15   31.35    1.31
  -9  -3  16   51.27    1.74
  -9  -3  16   53.04    1.69
  -9  -3  16   54.00    1.87
 -10  -2  17    0.92    0.26
 -10  -2  17    0.60    0.24
 -10  -2  17    0.48    0.25
 -11  -1  18   -0.24    0.14
 -11  -1  18    0.00    0.16
 -11  -1  18    0.11    0.20
 -12   0  19   -0.13    0.17
 -12   0  19   -0.05    0.19
  12   0 -19    0.16    0.21
 -13   1  20   11.04    0.71
  13  -1 -20   11.42    0.74
  -2  12  -6    0.40    0.30
  -1  11  -7    3.58    0.51
   0  10  -8    0.17    0.25
  -1  -9   9    4.68    0.43
  -1  -9   9    5.11    0.40
   1   9  -9    5.54    0.58
  -2  -8  10   17.34    0.73
  -2  -8  10   17.17    0.75
   2   8 -10   16.21    0.88
  -3  -7  11    1.49    0.28
  -3  -7  11    1.23    0.25
   3   7 -11    1.21    0.30
  -4  -6  12    0.89    0.23
  -4  -6  12    1.21    0.26
   4   6 -12    1.45    0.32
  -5  -5  13    0.06    0.15
  -5  -5  13    0.03    0.16
   5   5 -13   -0.11    0.16
  -6  -4  14   34.73    1.20
  -6  -4  14   34.09    1.24
   6   4 -14   31.71    1.32
  -7  -3  15   49.62    1.65
  -7  -3  15   51.27    1.78
  -7  -3  15   50.56    1.61
  -8  -2  16   37.38    1.45
  -8  -2  16   38.33    1.38
  -8  -2  16   37.34    1.32
  -9  -1  17    0.03    0.18
  -9  -1  17    0.24    0.22
  -9  -1  17    0.21    0.21
 -10   0  18    3.59    0.47
 -10   0  18    4.39    0.47
 -10   0  18    3.40    0.44
  10   0 -18    3.36    0.42
 -11   1  19    2.25    0.37
 -11   1  19    2.34    0.38
  11  -1 -19    3.33    0.45
 -12   2  20    4.79    0.53
  12  -2 -20    5.87    0.61
  -4  12  -5    0.38    0.27
  -3  11  -6    0.33    0.29
  -2  10  -7   10.89    0.74
   1  -9   8    0.40    0.18
   1  -9   8    0.33    0.17
  -1   9  -8    0.55    0.28
   0  -8   9    5.51    0.40
   0  -8   9    5.70    0.42
   0   8  -9    6.57    0.55
  -1  -7  10   55.75    1.67
  -1  -7  10   54.58    1.61
   1   7 -10   53.23    1.88
  -2  -6  11   -0.06    0.13
  -2  -6  11   -0.09    0.14
   2   6 -11    0.10    0.18
  -3  -5  12    5.74    0.43
  -3  -5  12    5.50    0.40
   3   5 -12    5.56    0.49
  -4  -4  13   18.06    0.79
  -4  -4  13   19.11    0.83
   4   4 -13   18.59    0.91
  -5  -3  14   34.35    1.20
  -5  -3  14   35.05    1.25
  -6  -2  15   38.38    1.44
  -6  -2  15   37.03    1.34
  -6  -2  15   39.29    1.32
  -7  -1  16   29.75    1.16
  -7  -1  16   30.88    1.26
  -7  -1  16   30.33    1.13
  -8   0  17    0.05    0.20
  -8   0  17   -0.11    0.13
  -8   0  17    0.72    0.24
  -9   1  18    4.89    0.49
  -9   1  18    4.25    0.53
  -9   1  18    4.44    0.48
   9  -1 -18    4.87    0.50
 -10   2  19    0.26    0.21
 -10   2  19    0.40    0.23
  10  -2 -19    0.48    0.25
  10  -2 -19    0.42    0.25
  -6  12  -4    9.62    0.74
  -5  11  -5    4.89    0.60
  -4  10  -6    0.43    0.26
   3  -9   7   14.23    0.64
   3  -9   7   14.58    0.66
  -3   9  -7   13.92    0.82
   2  -8   8    1.40    0.25
   2  -8   8    1.29    0.24
  -2   8  -8    1.51    0.34
   1  -7   9    2.48    0.32
   1  -7   9    2.50    0.31
  -1   7  -9    3.59    0.45
   0  -6  10    4.79    0.37
   0  -6  10    4.84    0.38
   0   6 -10    5.99    0.49
  -1  -5  11   -0.01    0.14
  -1  -5  11   -0.02    0.14
   1   5 -11    0.10    0.17
  -2  -4  12    2.06    0.30
  -2  -4  12    2.52    0.32
   2   4 -12    2.88    0.40
  -3  -3  13    0.52    0.20
  -3  -3  13    0.27    0.16
  -4  -2  14    0.95    0.22
  -4  -2  14    0.90    0.24
  -4  -2  14    0.73    0.21
  -5  -1  15    1.81    0.32
  -5  -1  15    2.51    0.34
  -5  -1  15    1.79    0.29
  -6   0  16    8.49    0.54
  -6   0  16    7.66    0.53
  -6   0  16    7.94    0.58
  -7   1  17    9.26    0.59
  -7   1  17    8.99    0.65
  -7   1  17    9.11    0.58
   7  -1 -17    9.67    0.60
  -8   2  18    3.85    0.49
  -8   2  18    4.98    0.51
  -8   2  18    4.50    0.47
   8  -2 -18    4.11    0.47
   8  -2 -18    4.14    0.49
   9  -3 -19    0.18    0.22
   9  -3 -19   -0.09    0.19
  -8  12  -3    0.09    0.28
  -7  11  -4   14.42    0.88
  -6  10  -5   16.50    0.92
   5  -9   6   24.11    0.89
   5  -9   6   25.61    0.94
  -5   9  -6   24.45    1.12
   4  -8   7    3.78    0.37
   4  -8   7    4.11    0.39
  -4   8  -7    3.38    0.47
   3  -7   8    6.42    0.42
   3  -7   8    5.88    0.42
  -3   7  -8    6.70    0.54
   2  -6   9   -0.03    0.14
   2  -6   9    0.05    0.14
  -2   6  -9   -0.06    0.16
   1  -5  10   90.83    2.44
   1  -5  10   93.53    2.53
  -1   5 -10   92.43    2.77
   0  -4  11    5.24    0.39
   0  -4  11    5.38    0.39
   0   4 -11    5.58    0.46
  -1  -3  12    0.47    0.19
  -1  -3  12    0.18    0.16
   1   3 -12    0.08    0.16
  -2  -2  13   17.60    0.86
  -2  -2  13   17.31    0.75
  -2  -2  13   18.13    0.79
  -3  -1  14   16.04    0.80
  -3  -1  14   13.92    0.69
  -3  -1  14   14.08    0.68
  -4   0  15    0.18    0.15
  -4   0  15    0.04    0.17
  -4   0  15   -0.17    0.11
  -5   1  16   12.23    0.74
  -5   1  16   12.38    0.67
  -5   1  16   12.91    0.67
   5  -1 -16   13.30    0.67
  -6   2  17    5.77    0.51
  -6   2  17    6.79    0.50
  -6   2  17    5.59    0.51
   6  -2 -17    6.07    0.49
   6  -2 -17    5.88    0.50
  -7   3  18    5.03    0.48
   7  -3 -18    4.33    0.49
   7  -3 -18    4.31    0.51
   8  -4 -19    3.67    0.50
 -10  12  -2    0.35    0.28
  -9  11  -3    1.91    0.41
  -8  10  -4    7.94    0.63
   7  -9   5   26.74    0.97
   7  -9   5   27.80    1.02
  -7   9  -5   28.01    1.21
   6  -8   6   39.41    1.26
   6  -8   6   41.62    1.32
  -6   8  -6   40.55    1.52
   5  -7   7   17.23    0.72
   5  -7   7   15.11    0.67
  -5   7  -7   16.12    0.83
   4  -6   8   55.26    1.65
   4  -6   8   51.99    1.57
  -4   6  -8   57.26    1.86
   3  -5   9   55.65    1.61
   3  -5   9   54.99    1.66
  -3   5  -9   55.13    1.85
   2  -4  10    0.32    0.16
   2  -4  10    0.47    0.18
  -2   4 -10    0.46    0.20
   1  -3  11   57.38    1.67
   1  -3  11   56.22    1.72
  -1   3 -11   58.79    1.90
   0  -2  12   63.76    1.83
   0  -2  12   63.53    1.88
   0  -2  12   64.43    2.05
  -1  -1  13    7.03    0.45
  -1  -1  13    6.44    0.49
  -1  -1  13    6.60    0.46
  -2   0  14   25.99    0.98
  -2   0  14   24.39    1.06
  -2   0  14   25.58    0.96
  -3   1  15    0.61    0.19
  -3   1  15    0.62    0.20
  -3   1  15    0.76    0.25
  -4   2  16   11.14    0.60
  -4   2  16   11.23    0.70
  -4   2  16   11.63    0.63
   4  -2 -16   10.89    0.63
  -5   3  17    0.26    0.17
  -5   3  17    0.45    0.23
   5  -3 -17    0.24    0.20
   5  -3 -17    0.06    0.18
   6  -4 -18    0.39    0.25
   6  -4 -18    0.65    0.27
 -11  11  -2    0.34    0.25
 -10  10  -3    5.19    0.59
   9  -9   4   18.78    0.81
   9  -9   4   18.97    0.79
  -9   9  -4   18.07    0.95
   8  -8   5    0.38    0.19
   8  -8   5    0.43    0.20
  -8   8  -5    0.18    0.22
   7  -7   6   43.60    1.41
   7  -7   6   43.90    1.36
  -7   7  -6   44.54    1.59
   6  -6   7   22.42    0.88
   6  -6   7   22.69    0.86
  -6   6  -7   22.23    0.98
   5  -5   8   50.31    1.52
   5  -5   8   48.29    1.46
  -5   5  -8   46.60    1.64
   4  -4   9    1.01    0.22
   4  -4   9    1.00    0.21
  -4   4  -9    1.10    0.25
   3  -3  10    2.81    0.33
   3  -3  10    3.95    0.38
  -3   3 -10    4.49    0.45
   2  -2  11    8.67    0.50
   2  -2  11    8.73    0.50
   1  -1  12   37.54    1.27
   1  -1  12   37.50    1.22
   1  -1  12   39.10    1.38
   0   0  13    0.03    0.14
   0   0  13    0.01    0.13
   0   0  13    0.00    0.13
  -1   1  14   13.96    0.68
  -1   1  14   12.93    0.73
  -1   1  14   15.54    0.68
  -2   2  15    8.90    0.60
  -2   2  15    9.55    0.54
  -2   2  15    8.71    0.54
  -3   3  16    4.68    0.45
  -3   3  16    4.08    0.41
  -3   3  16    3.76    0.47
   3  -3 -16    4.77    0.49
  -4   4  17    0.09    0.19
   4  -4 -17    0.27    0.22
   5  -5 -18    4.37    0.54
 -13  11  -1   -0.36    0.18
 -12  10  -2    1.96    0.40
  11  -9   3    5.94    0.48
  11  -9   3    7.44    0.51
 -11   9  -3    6.71    0.57
  10  -8   4    7.04    0.49
  10  -8   4    8.16    0.52
 -10   8  -4    6.84    0.56
   9  -7   5   21.26    0.85
   9  -7   5   20.96    0.86
  -9   7  -5   20.37    0.96
   8  -6   6    6.33    0.44
   8  -6   6    6.51    0.45
  -8   6  -6    7.03    0.51
   7  -5   7    0.00    0.15
   7  -5   7    0.00    0.15
  -7   5  -7    0.33    0.20
   6  -4   8    0.50    0.17
   6  -4   8    0.46    0.17
  -6   4  -8    0.63    0.20
   5  -3   9    4.27    0.35
   5  -3   9    5.11    0.37
  -5   3  -9    4.85    0.40
   4  -2  10    8.71    0.49
   4  -2  10    9.49    0.52
  -4   2 -10    9.38    0.57
   3  -1  11    7.43    0.45
   3  -1  11    8.54    0.53
   3  -1  11    7.22    0.46
   2   0  12    8.55    0.50
   2   0  12    8.90    0.52
   2   0  12    8.91    0.56
   1   1  13    5.07    0.38
   1   1  13    5.26    0.45
   1   1  13    4.83    0.38
   0   2  14    0.37    0.19
   0   2  14    0.36    0.17
   0   2  14    0.39    0.17
  -1   3  15    8.29    0.60
   1  -3 -15   10.89    0.63
  -2   4  16    1.60    0.34
  -2   4  16    1.11    0.27
   2  -4 -16    1.71    0.33
  -3   5  17    0.87    0.28
   3  -5 -17    1.75    0.37
 -14  10  -1    0.20    0.25
  13  -9   2    4.81    0.47
 -13   9  -2    5.86    0.59
 -13   9  -2    5.35    0.51
  12  -8   3   12.50    0.67
 -12   8  -3   13.03    0.75
  11  -7   4   23.50    0.92
  11  -7   4   23.44    0.95
 -11   7  -4   24.05    1.03
  10  -6   5    0.03    0.16
  10  -6   5    0.03    0.16
 -10   6  -5    0.16    0.19
   9  -5   6   28.96    1.08
   9  -5   6   30.84    1.06
  -9   5  -6   30.01    1.15
   8  -4   7    0.45    0.19
   8  -4   7    0.30    0.17
  -8   4  -7    0.32    0.18
   7  -3   8   10.63    0.56
   7  -3   8   10.57    0.56
  -7   3  -8   10.09    0.58
   6  -2   9   24.36    0.94
   6  -2   9   25.73    0.94
  -6   2  -9   26.30    1.02
   5  -1  10    0.99    0.22
   5  -1  10    0.84    0.20
   4   0  11   -0.08    0.11
   4   0  11    0.14    0.16
   4   0  11   -0.12    0.10
   3   1  12   30.32    1.06
   3   1  12   32.49    1.12
   3   1  12   31.96    1.21
   2   2  13    0.12    0.15
   2   2  13    0.38    0.20
   2   2  13    0.47    0.17
   1   3  14    2.67    0.33
   1   3  14    2.23    0.35
   0   4  15    3.09    0.38
   0   4  15    3.65    0.46
  -1   5  16    0.18    0.20
  -1   5  16    0.14    0.21
   1  -5 -16    0.30    0.22
  -2   6  17    1.54    0.35
 -15   9  -1    5.20    0.52
  14  -8   2    3.78    0.44
 -14   8  -2    3.30    0.42
  13  -7   3    0.78    0.24
  12  -6   4    0.57    0.21
  12  -6   4    0.38    0.20
 -12   6  -4    0.42    0.23
  11  -5   5    8.41    0.53
  11  -5   5    7.45    0.51
 -11   5  -5    8.28    0.54
  10  -4   6   20.84    0.87
  10  -4   6   20.66    0.84
 -10   4  -6   20.81    0.88
   9  -3   7    2.18    0.30
   9  -3   7    2.15    0.31
  -9   3  -7    2.16    0.31
   8  -2   8    9.42    0.53
   8  -2   8    9.96    0.53
  -8   2  -8    7.78    0.50
   7  -1   9   17.12    0.73
   7  -1   9   17.48    0.76
  -7   1  -9   17.29    0.77
   6   0  10   44.22    1.41
   6   0  10   43.75    1.37
   5   1  11    7.55    0.50
   5   1  11    7.65    0.47
   5   1  11    7.26    0.47
   4   2  12   19.00    0.78
   4   2  12   19.31    0.88
   4   2  12   18.54    0.79
   2   4  14   16.16    0.78
   2   4  14   14.80    0.82
   2   4  14   17.37    0.77
   1   5  15    3.32    0.43
   1   5  15    2.60    0.40
   1   5  15    1.98    0.34
   0   6  16    0.04    0.19
 -17   9   0    2.40    0.40
 -16   8  -1    1.12    0.30
  15  -7   2    7.33    0.55
 -15   7  -2    7.33    0.56
  14  -6   3    0.34    0.22
 -14   6  -3   -0.21    0.15
  13  -5   4    1.57    0.30
  13  -5   4    1.50    0.29
  12  -4   5   11.04    0.61
  12  -4   5    9.96    0.59
  11  -3   6   11.87    0.63
  11  -3   6   11.27    0.61
  10  -2   7    3.71    0.40
  10  -2   7    3.04    0.36
   9  -1   8   35.15    1.21
   9  -1   8   35.46    1.18
  -9   1  -8   33.04    1.20
   8   0   9   -0.16    0.10
   8   0   9    0.08    0.13
   7   1  10    1.99    0.29
   7   1  10    1.81    0.28
   7   1  10    1.77    0.28
   6   2  11    6.87    0.46
   6   2  11    6.34    0.44
   3   5  14   19.64    0.97
   3   5  14   20.96    0.93
   3   5  14   20.99    0.92
   2   6  15    0.59    0.26
   2   6  15    0.32    0.23
   2   6  15    0.76    0.26
 -19   9   1    3.57    0.46
 -18   8   0    1.47    0.34
 -18   8   0    1.05    0.31
 -17   7  -1    2.45    0.40
  16  -6   2   21.49    0.95
 -16   6  -2   22.45    1.02
  15  -5   3    0.24    0.21
 -15   5  -3    0.34    0.20
  14  -4   4    1.82    0.32
  14  -4   4    1.74    0.31
  13  -3   5    0.12    0.17
  13  -3   5   -0.01    0.15
  12  -2   6    5.37    0.43
  12  -2   6    5.85    0.44
  11  -1   7   20.19    0.86
  11  -1   7   19.26    0.82
  10   0   8   29.54    1.06
  10   0   8   29.27    1.09
   9   1   9    2.01    0.30
   9   1   9    2.16    0.31
   8   2  10    0.96    0.22
   8   2  10    0.66    0.21
   7   3  11    4.01    0.39
   7   3  11    3.37    0.35
   6   4  12    3.29    0.36
   5   5  13    0.36    0.21
   5   5  13    0.39    0.21
   4   6  14   10.78    0.66
   4   6  14    8.50    0.63
   3   7  15   -0.10    0.20
 -20   8   1    3.28    0.46
 -19   7   0   -0.21    0.21
 -19   7   0    0.05    0.21
 -18   6  -1    0.91    0.28
 -18   6  -1    0.62    0.25
  17  -5   2   24.28    1.01
 -17   5  -2   21.15    1.01
  16  -4   3   11.43    0.67
 -16   4  -3   11.62    0.70
  15  -3   4    4.63    0.47
 -15   3  -4    3.04    0.41
  14  -2   5   18.32    0.85
  14  -2   5   17.55    0.81
  13  -1   6    1.16    0.26
  13  -1   6    1.27    0.27
  12   0   7    0.00    0.15
  12   0   7    0.07    0.15
  11   1   8   55.53    1.76
  11   1   8   58.80    1.72
  10   2   9   28.95    1.07
  10   2   9   27.10    1.02
   9   3  10   10.48    0.58
   9   3  10    9.68    0.56
   7   5  12    1.21    0.28
   6   6  13    1.03    0.27
   6   6  13    0.74    0.26
   5   7  14    0.47    0.24
 -21   7   1    3.53    0.50
 -20   6   0    0.30    0.26
 -19   5  -1    6.20    0.62
 -19   5  -1    7.44    0.57
 -18   4  -2    7.07    0.57
  17  -3   3   15.66    0.79
 -17   3  -3   15.34    0.83
  16  -2   4    7.97    0.55
 -16   2  -4    7.90    0.58
  15  -1   5    5.03    0.50
 -15   1  -5    6.49    0.52
  14   0   6    1.90    0.33
  13   1   7    3.17    0.40
  13   1   7    2.70    0.37
  12   2   8   20.43    0.88
  12   2   8   19.64    0.85
  11   3   9    5.63    0.49
  11   3   9    5.28    0.49
   8   6  12    0.20    0.19
   7   7  13    1.98    0.37
 -21   5   0    0.60    0.28
 -20   4  -1   11.76    0.74
 -19   3  -2    2.22    0.38
 -19   3  -2    2.69    0.41
  18  -2   3    0.00    0.19
 -18   2  -3    0.19    0.20
  17  -1   4    8.21    0.57
 -17   1  -4    8.04    0.59
  16   0   5    0.05    0.18
 -16   0  -5   -0.14    0.16
  15   1   6   -0.17    0.17
 -15  -1  -6   -0.04    0.17
  14   2   7    6.82    0.52
 -14  -2  -7    6.03    0.56
  13   3   8    6.44    0.49
  10   6  11    3.76    0.47
 -22   4   0    0.05    0.23
 -21   3  -1    8.12    0.64
 -20   2  -2    2.43    0.41
 -19   1  -3    0.22    0.23
 -19   1  -3    0.00    0.19
 -18   0  -4    7.36    0.59
  17   1   5    5.21    0.53
 -17  -1  -5    4.79    0.54
  16   2   6    1.72    0.34
 -16  -2  -6    2.21    0.38
  15   3   7    8.31    0.57
 -15  -3  -7    8.23    0.60
 -22   2  -1    1.67    0.36
 -21   1  -2    0.05    0.23
 -20   0  -3   -0.09    0.18
 -19  -1  -4    2.71    0.43
 -19  -1  -4    2.71    0.43
 -18  -2  -5   -0.06    0.21
 -18  -2  -5   -0.07    0.19
 -17  -3  -6    0.14    0.23
 -22   0  -2    1.12    0.33
 -21  -1  -3    5.10    0.59
 -20  -2  -4    3.19    0.47
 -19  -3  -5    2.73    0.43
  10  10 -14    0.69    0.30
 -11  -9  15    1.20    0.32
 -11  -9  15    1.40    0.33
  11   9 -15    1.23    0.36
 -12  -8  16    0.27    0.23
  12   8 -16    0.10    0.24
 -13  -7  17    1.31    0.34
  13   7 -17    0.64    0.30
 -14  -6  18   11.09    0.74
   7  11 -12    7.07    0.72
   8  10 -13    7.42    0.65
  -9  -9  14    2.54    0.38
  -9  -9  14    2.92    0.42
   9   9 -14    2.73    0.48
 -10  -8  15   -0.21    0.17
 -10  -8  15    0.06    0.18
  10   8 -15    0.09    0.24
 -11  -7  16    1.04    0.30
 -11  -7  16    0.83    0.28
  11   7 -16    1.24    0.33
 -12  -6  17    9.27    0.64
  12   6 -17   10.61    0.74
 -13  -5  18   17.20    0.90
  13   5 -18   18.32    1.01
 -14  -4  19    1.08    0.31
   5  11 -11    0.15    0.24
   6  10 -12    4.76    0.59
  -7  -9  13    5.73    0.52
  -7  -9  13    5.75    0.54
   7   9 -13    5.64    0.65
  -8  -8  14   12.12    0.70
  -8  -8  14   11.76    0.67
   8   8 -14   11.54    0.77
  -9  -7  15    0.18    0.21
  -9  -7  15   -0.07    0.18
   9   7 -15    0.30    0.22
 -10  -6  16    1.58    0.33
 -10  -6  16    1.64    0.34
  10   6 -16    1.55    0.36
 -11  -5  17    2.27    0.38
 -11  -5  17    1.81    0.36
  11   5 -17    2.17    0.41
 -12  -4  18    7.74    0.60
  12   4 -18    8.06    0.65
 -13  -3  19    0.42    0.25
 -14  -2  20    3.59    0.49
   2  12  -9    4.18    0.59
   3  11 -10    0.33    0.27
   4  10 -11    1.14    0.35
  -5  -9  12    4.45    0.46
  -5  -9  12    5.19    0.47
   5   9 -12    5.21    0.60
  -6  -8  13    2.34    0.36
  -6  -8  13    2.28    0.34
   6   8 -13    1.57    0.37
  -7  -7  14   11.77    0.65
  -7  -7  14    9.96    0.63
   7   7 -14    9.95    0.70
  -8  -6  15    0.24    0.19
  -8  -6  15    0.66    0.23
   8   6 -15    0.46    0.25
  -9  -5  16    0.69    0.25
  -9  -5  16    0.38    0.22
   9   5 -16    0.12    0.20
 -10  -4  17    0.17    0.20
 -10  -4  17    0.32    0.22
  10   4 -17    0.10    0.22
 -11  -3  18   13.68    0.77
 -11  -3  18   12.70    0.77
 -12  -2  19    9.07    0.64
 -13  -1  20   11.06    0.73
   0  12  -8    5.33    0.64
   1  11  -9    0.07    0.26
   2  10 -10   -0.05    0.21
  -3  -9  11   10.81    0.61
  -3  -9  11   11.49    0.60
   3   9 -11   10.41    0.72
  -4  -8  12    1.40    0.28
  -4  -8  12    1.38    0.28
   4   8 -12    1.42    0.34
  -5  -7  13   -0.23    0.14
  -5  -7  13   -0.02    0.14
   5   7 -13    0.12    0.20
  -6  -6  14   26.09    1.06
  -6  -6  14   26.37    1.03
   6   6 -14   23.87    1.14
  -7  -5  15    2.59    0.37
  -7  -5  15    1.89    0.32
   7   5 -15    1.90    0.38
  -8  -4  16    1.32    0.29
  -8  -4  16    1.67    0.32
   8   4 -16    1.38    0.32
  -9  -3  17   24.68    1.03
  -9  -3  17   22.84    1.04
 -10  -2  18    0.63    0.25
 -10  -2  18    0.49    0.25
 -10  -2  18    0.67    0.24
 -11  -1  19    2.39    0.40
 -12   0  20   28.15    1.19
  -2  12  -7    2.57    0.49
  -1  11  -8    4.67    0.60
   0  10  -9    4.42    0.56
  -1  -9  10    2.83    0.35
  -1  -9  10    2.24    0.32
   1   9 -10    2.34    0.43
  -2  -8  11    4.58    0.44
  -2  -8  11    3.73    0.41
   2   8 -11    3.78    0.50
  -3  -7  12    1.84    0.31
  -3  -7  12    1.63    0.30
   3   7 -12    1.91    0.36
  -4  -6  13    1.01    0.24
  -4  -6  13    0.75    0.23
   4   6 -13    0.72    0.26
  -5  -5  14   42.25    1.42
  -5  -5  14   43.07    1.48
   5   5 -14   43.34    1.64
  -6  -4  15    9.79    0.62
  -6  -4  15    9.82    0.60
   6   4 -15   10.18    0.68
  -7  -3  16    6.14    0.49
  -7  -3  16    5.88    0.47
  -8  -2  17   13.11    0.72
  -8  -2  17   12.71    0.78
  -8  -2  17   13.71    0.75
  -9  -1  18    4.77    0.49
  -9  -1  18    3.95    0.47
  -9  -1  18    4.37    0.53
 -10   0  19    0.08    0.19
 -10   0  19   -0.02    0.17
 -11   1  20    6.29    0.60
  -4  12  -6    0.56    0.31
  -3  11  -7    0.11    0.24
  -2  10  -8   22.45    1.13
   1  -9   9   21.32    0.87
   1  -9   9   21.37    0.85
  -1   9  -9   21.78    1.08
   0  -8  10   10.12    0.56
   0  -8  10   10.17    0.58
   0   8 -10   10.08    0.69
  -1  -7  11    6.37    0.46
  -1  -7  11    6.86    0.48
   1   7 -11    6.05    0.53
  -2  -6  12    0.08    0.17
  -2  -6  12    0.11    0.16
   2   6 -12   -0.19    0.15
  -3  -5  13    2.37    0.33
  -3  -5  13    1.95    0.31
   3   5 -13    2.15    0.37
  -4  -4  14   13.45    0.70
  -4  -4  14   11.96    0.64
   4   4 -14   13.69    0.79
  -5  -3  15   13.62    0.70
  -5  -3  15   12.95    0.71
  -6  -2  16   15.29    0.76
  -6  -2  16   15.93    0.80
  -6  -2  16   15.87    0.86
  -7  -1  17    8.70    0.63
  -7  -1  17    8.85    0.60
  -7  -1  17    9.02    0.59
  -8   0  18    2.97    0.41
  -8   0  18    2.64    0.41
  -8   0  18    3.48    0.43
  -9   1  19    5.20    0.52
  -9   1  19    3.69    0.47
 -10   2  20    2.17    0.37
  -6  12  -5    0.05    0.25
  -5  11  -6    0.57    0.30
  -4  10  -7    2.09    0.41
   3  -9   8   36.63    1.21
   3  -9   8   36.31    1.25
  -3   9  -8   36.75    1.49
   2  -8   9   55.07    1.65
   2  -8   9   51.62    1.57
  -2   8  -9   52.00    1.88
   1  -7  10   66.76    1.90
   1  -7  10   69.04    1.98
  -1   7 -10   64.10    2.20
   0  -6  11    0.22    0.16
   0  -6  11    0.38    0.18
   0   6 -11   -0.24    0.15
  -1  -5  12    3.53    0.38
  -1  -5  12    4.06    0.41
   1   5 -12    3.37    0.44
  -2  -4  13    1.51    0.28
  -2  -4  13    2.23    0.31
   2   4 -13    2.41    0.38
  -3  -3  14    0.82    0.23
  -3  -3  14    0.77    0.21
   3   3 -14    1.06    0.27
  -4  -2  15    3.54    0.40
  -4  -2  15    3.81    0.41
  -4  -2  15    3.05    0.42
  -5  -1  16   13.08    0.75
  -5  -1  16   12.30    0.68
  -5  -1  16   11.33    0.65
  -6   0  17    0.15    0.20
  -6   0  17    0.09    0.17
  -6   0  17    0.24    0.20
  -7   1  18    2.50    0.38
  -7   1  18    3.01    0.40
  -7   1  18    2.06    0.39
  -8   2  19    2.10    0.36
  -8   2  19    1.77    0.33
  -8  12  -4    7.11    0.74
  -7  11  -5    3.15    0.50
  -6  10  -6    8.17    0.67
   5  -9   7   17.00    0.76
   5  -9   7   17.68    0.75
  -5   9  -7   18.09    0.95
   4  -8   8   21.87    0.89
   4  -8   8   21.86    0.87
  -4   8  -8   23.54    1.07
   3  -7   9    1.62    0.27
   3  -7   9    1.31    0.24
  -3   7  -9    1.31    0.32
   2  -6  10   42.64    1.40
   2  -6  10   41.79    1.35
  -2   6 -10   42.92    1.58
   1  -5  11    7.66    0.47
   1  -5  11    6.46    0.45
  -1   5 -11    6.92    0.54
   0  -4  12    0.53    0.19
   0  -4  12    0.43    0.18
   0   4 -12    0.50    0.23
  -1  -3  13   48.70    1.57
  -1  -3  13   48.59    1.51
   1   3 -13   47.97    1.71
  -2  -2  14   -0.07    0.13
  -2  -2  14   -0.06    0.14
  -2  -2  14    0.17    0.18
  -3  -1  15    0.49    0.21
  -3  -1  15    0.39    0.18
  -3  -1  15    0.56    0.20
  -4   0  16   41.48    1.38
  -4   0  16   42.10    1.58
  -4   0  16   41.49    1.44
  -5   1  17    5.97    0.48
  -5   1  17    5.76    0.59
  -5   1  17    5.41    0.50
  -6   2  18    1.23    0.33
  -6   2  18    1.15    0.27
  -6   2  18    1.50    0.31
   7  -3 -19    1.64    0.35
  -9  11  -4    8.03    0.69
  -8  10  -5    0.61    0.29
   7  -9   6   22.14    0.90
   7  -9   6   22.43    0.88
  -7   9  -6   21.93    1.07
   6  -8   7   10.06    0.56
   6  -8   7    8.94    0.54
  -6   8  -7   10.39    0.68
   5  -7   8    1.27    0.26
   5  -7   8    1.51    0.27
  -5   7  -8    1.16    0.31
   4  -6   9   15.14    0.70
   4  -6   9   14.65    0.68
  -4   6  -9   14.24    0.79
   3  -5  10    7.07    0.46
   3  -5  10    8.08    0.50
  -3   5 -10    7.23    0.55
   2  -4  11    5.65    0.42
   2  -4  11    5.68    0.41
  -2   4 -11    5.81    0.48
   1  -3  12   10.50    0.58
   1  -3  12   12.08    0.62
  -1   3 -12   11.12    0.67
   0  -2  13    5.41    0.48
   0  -2  13    5.79    0.48
   0  -2  13    5.21    0.42
  -1  -1  14   15.27    0.79
  -1  -1  14   13.11    0.69
  -1  -1  14   13.86    0.68
  -2   0  15    0.18    0.17
  -2   0  15   -0.08    0.14
  -2   0  15   -0.07    0.14
  -3   1  16   19.45    0.96
  -3   1  16   17.62    0.80
  -3   1  16   17.68    0.83
  -4   2  17   -0.06    0.15
  -4   2  17   -0.03    0.17
  -4   2  17    0.01    0.16
   6  -4 -19    0.25    0.26
 -11  11  -3   -0.13    0.25
 -10  10  -4   10.17    0.73
   9  -9   5    5.17    0.47
   9  -9   5    5.58    0.45
  -9   9  -5    5.71    0.61
   8  -8   6    6.83    0.47
   8  -8   6    6.39    0.47
  -8   8  -6    7.18    0.59
   7  -7   7   28.59    1.03
   7  -7   7   27.91    1.05
  -7   7  -7   29.33    1.20
   6  -6   8    9.77    0.56
   6  -6   8   10.71    0.58
  -6   6  -8   10.33    0.66
   5  -5   9    0.35    0.17
   5  -5   9    0.12    0.14
  -5   5  -9   -0.05    0.16
   4  -4  10   19.17    0.81
   4  -4  10   20.36    0.80
  -4   4 -10   18.50    0.89
   3  -3  11    2.70    0.33
   3  -3  11    2.71    0.33
  -3   3 -11    3.65    0.43
   2  -2  12   17.48    0.78
   2  -2  12   17.02    0.75
   1  -1  13    4.93    0.44
   1  -1  13    5.56    0.46
   1  -1  13    4.66    0.45
   0   0  14    0.34    0.18
   0   0  14    0.29    0.16
   0   0  14    0.53    0.22
  -1   1  15    6.83    0.49
  -1   1  15    7.29    0.55
  -1   1  15    7.24    0.49
  -2   2  16    8.14    0.61
  -2   2  16    9.72    0.58
  -2   2  16    7.55    0.52
  -3   3  17    1.80    0.36
   4  -4 -18    6.00    0.60
 -13  11  -2    0.54    0.31
 -12  10  -3   22.09    1.11
  11  -9   4    0.56    0.24
  11  -9   4    0.59    0.24
 -11   9  -4    0.64    0.27
  10  -8   5    0.41    0.21
  10  -8   5    0.09    0.18
 -10   8  -5    0.07    0.23
   9  -7   6   19.28    0.85
   9  -7   6   19.45    0.82
  -9   7  -6   21.06    0.97
   8  -6   7    6.53    0.45
   8  -6   7    6.61    0.46
  -8   6  -7    6.56    0.50
   7  -5   8    1.23    0.25
   7  -5   8    0.89    0.22
  -7   5  -8    1.12    0.28
   6  -4   9    3.32    0.37
   6  -4   9    2.80    0.35
  -6   4  -9    2.77    0.39
   5  -3  10    7.69    0.49
   5  -3  10    8.07    0.50
  -5   3 -10   10.25    0.60
   4  -2  11   13.38    0.66
   4  -2  11   13.92    0.65
  -4   2 -11   13.28    0.71
   3  -1  12   32.32    1.23
   3  -1  12   29.64    1.07
   3  -1  12   31.14    1.13
   2   0  13    0.21    0.15
   2   0  13    0.11    0.16
   2   0  13   -0.01    0.11
   1   1  14    0.75    0.24
   1   1  14    0.27    0.18
   1   1  14    0.38    0.17
   0   2  15   13.58    0.69
   0   2  15   15.57    0.84
   0   2  15   15.92    0.75
  -1   3  16    0.53    0.23
  -1   3  16    0.43    0.18
  -2   4  17    4.15    0.48
  13  -9   3    1.63    0.31
 -13   9  -3    1.15    0.33
 -13   9  -3    1.81    0.33
  12  -8   4    2.62    0.38
  12  -8   4    3.91    0.43
 -12   8  -4    2.99    0.45
  11  -7   5    0.83    0.25
  11  -7   5    0.51    0.22
 -11   7  -5    0.69    0.26
  10  -6   6   30.37    1.10
  10  -6   6   29.73    1.12
 -10   6  -6   30.59    1.21
   9  -5   7    8.94    0.55
   9  -5   7    8.61    0.53
  -9   5  -7    8.28    0.56
   8  -4   8   18.15    0.79
   8  -4   8   17.01    0.75
  -8   4  -8   16.59    0.81
   7  -3   9    2.00    0.30
   7  -3   9    1.84    0.30
  -7   3  -9    2.63    0.36
   6  -2  10    0.02    0.14
   6  -2  10    0.14    0.15
  -6   2 -10    0.23    0.18
   5  -1  11    7.78    0.50
   5  -1  11    7.96    0.49
   4   0  12    3.89    0.40
   4   0  12    3.77    0.43
   4   0  12    4.27    0.42
   3   1  13    0.06    0.16
   3   1  13   -0.04    0.14
   3   1  13    0.06    0.13
   2   2  14    0.09    0.15
   2   2  14    0.16    0.18
   2   2  14    0.13    0.15
   1   3  15    9.31    0.63
   0   4  16    0.09    0.19
  -1   5  17    1.08    0.30
  15  -9   2    6.49    0.59
 -15   9  -2    4.53    0.52
  14  -8   3    3.76    0.44
 -14   8  -3    5.22    0.51
  13  -7   4    2.19    0.36
  13  -7   4    2.43    0.37
  12  -6   5    2.79    0.38
  12  -6   5    3.24    0.40
  11  -5   6   14.91    0.73
  11  -5   6   14.64    0.74
 -11   5  -6   15.11    0.76
  10  -4   7    0.61    0.21
  10  -4   7    0.47    0.21
 -10   4  -7    0.29    0.20
   9  -3   8   14.99    0.70
   9  -3   8   15.21    0.73
  -9   3  -8   14.34    0.72
   8  -2   9    4.79    0.46
   8  -2   9    4.24    0.42
  -8   2  -9    4.65    0.41
   7  -1  10    1.72    0.28
   7  -1  10    2.41    0.32
  -7   1 -10    1.83    0.30
   6   0  11    0.10    0.14
   6   0  11    0.11    0.17
   6   0  11    0.02    0.14
   5   1  12    8.46    0.51
   5   1  12    7.66    0.54
   5   1  12    7.98    0.52
   4   2  13   12.75    0.64
   4   2  13   12.98    0.72
   4   2  13   12.06    0.65
   3   3  14   10.96    0.69
   2   4  15    7.57    0.58
   1   5  16    0.42    0.23
 -17   9  -1    1.23    0.34
 -17   9  -1    1.38    0.34
  16  -8   2    1.88    0.38
 -16   8  -2    1.44    0.34
  15  -7   3    6.66    0.51
 -15   7  -3    5.73    0.56
  14  -6   4    0.37    0.21
  13  -5   5    4.50    0.47
  13  -5   5    3.62    0.43
  12  -4   6    4.00    0.44
  12  -4   6    3.66    0.42
  11  -3   7    4.78    0.46
  11  -3   7    5.39    0.49
  10  -2   8    2.19    0.33
  10  -2   8    2.27    0.32
   9  -1   9    1.64    0.28
   9  -1   9    2.49    0.34
   8   0  10    0.68    0.21
   8   0  10    0.21    0.17
   7   1  11    2.63    0.34
   7   1  11    2.72    0.36
   7   1  11    3.16    0.38
   6   2  12   10.94    0.60
   6   2  12    9.69    0.56
   5   3  13    7.23    0.53
   4   4  14   15.85    0.84
   3   5  15    3.48    0.47
   2   6  16    0.07    0.22
 -18   8  -1    1.53    0.34
  17  -7   2    3.47    0.47
 -17   7  -2    2.45    0.41
  16  -6   3    5.21    0.54
 -16   6  -3    4.26    0.51
  15  -5   4    0.78    0.27
 -15   5  -4    1.43    0.32
  14  -4   5   32.09    1.18
  14  -4   5   30.85    1.21
  13  -3   6    3.04    0.39
  13  -3   6    2.80    0.38
  12  -2   7   13.55    0.70
  12  -2   7   14.91    0.75
  11  -1   8   57.49    1.72
  11  -1   8   54.57    1.76
  10   0   9   -0.05    0.15
  10   0   9    0.01    0.15
   9   1  10    0.84    0.24
   9   1  10    0.75    0.23
   8   2  11    4.99    0.47
   8   2  11    3.77    0.41
   7   3  12    5.54    0.43
 -19   7  -1    0.17    0.22
 -18   6  -2    2.59    0.42
  17  -5   3    0.58    0.26
 -17   5  -3    1.36    0.32
  16  -4   4    0.07    0.21
 -16   4  -4    0.01    0.19
  15  -3   5    7.21    0.53
  14  -2   6    0.77    0.24
  14  -2   6    1.12    0.27
  13  -1   7    3.82    0.45
  13  -1   7    3.99    0.45
  12   0   8   49.12    1.63
  12   0   8   49.84    1.58
  11   1   9    4.45    0.46
  11   1   9    4.40    0.44
  10   2  10    0.19    0.19
  10   2  10   -0.11    0.15
   9   3  11   12.62    0.65
 -20   6  -1    3.63    0.49
 -19   5  -2   27.23    1.18
  18  -4   3    2.91    0.42
 -18   4  -3    3.35    0.46
  17  -3   4    2.95    0.42
 -17   3  -4    2.71    0.42
  16  -2   5   10.89    0.67
 -16   2  -5   10.42    0.68
  15  -1   6   -0.12    0.17
  14   0   7   -0.03    0.19
  14   0   7    0.01    0.17
  13   1   8   40.71    1.39
  13   1   8   39.68    1.42
  12   2   9    3.71    0.43
  12   2   9    2.95    0.39
  11   3  10    0.60    0.23
 -21   5  -1    0.44    0.28
 -20   4  -2   14.71    0.85
  18  -2   4    2.71    0.42
 -18   2  -4    3.07    0.46
  17  -1   5    3.73    0.46
 -17   1  -5    4.62    0.53
  16   0   6    1.07    0.30
 -16   0  -6    0.59    0.25
  15   1   7   11.81    0.67
 -15  -1  -7   11.17    0.71
  14   2   8   16.99    0.82
  13   3   9   12.35    0.69
 -21   3  -2    4.49    0.55
 -20   2  -3    1.92    0.40
  18   0   5   -0.06    0.20
 -18   0  -5   -0.15    0.19
  17   1   6    3.09    0.43
 -17  -1  -6    2.78    0.43
  16   2   7    1.44    0.31
 -16  -2  -7    1.57    0.34
  15   3   8    1.09    0.30
 -21   1  -3    3.42    0.49
 -20   0  -4    9.05    0.66
 -19  -1  -5    0.07    0.23
 -10 -10  15    1.46    0.34
 -11  -9  16    2.21    0.38
 -12  -8  17    0.60    0.29
  -8 -10  14   -0.11    0.18
  -9  -9  15    2.39    0.38
  -9  -9  15    3.07    0.44
 -10  -8  16    0.54    0.26
 -11  -7  17    2.28    0.39
 -12  -6  18    3.52    0.48
 -13  -5  19    3.26    0.47
  -6 -10  13    2.91    0.39
   6  10 -13    3.33    0.52
  -7  -9  14    1.63    0.32
  -7  -9  14    1.63    0.33
   7   9 -14    2.91    0.49
  -8  -8  15    0.06    0.21
  -8  -8  15    0.00    0.20
   8   8 -15    0.14    0.24
  -9  -7  16    0.46    0.23
  -9  -7  16    0.30    0.23
   9   7 -16   -0.01    0.20
 -10  -6  17   -0.01    0.18
  10   6 -17   -0.04    0.20
 -11  -5  18    4.61    0.54
 -12  -4  19    0.31    0.25
   3  11 -11    0.74    0.32
  -4 -10  12    5.87    0.47
   4  10 -12    5.60    0.64
  -5  -9  13    1.39    0.29
   5   9 -13    1.34    0.35
  -6  -8  14    4.88    0.50
  -6  -8  14    5.52    0.52
   6   8 -14    5.21    0.61
  -7  -7  15    2.85    0.40
  -7  -7  15    2.72    0.41
   7   7 -15    2.35    0.44
  -8  -6  16    5.79    0.57
  -8  -6  16    5.83    0.55
   8   6 -16    4.41    0.56
  -9  -5  17    6.33    0.61
  -9  -5  17    6.26    0.58
   9   5 -17    5.27    0.62
 -10  -4  18    5.61    0.57
  10   4 -18    5.86    0.65
 -11  -3  19    1.00    0.30
 -12  -2  20    5.47    0.58
   1  11 -10    3.98    0.58
  -2 -10  11    0.51    0.21
   2  10 -11    0.07    0.23
  -3  -9  12    8.01    0.54
  -3  -9  12    9.04    0.57
   3   9 -12    7.91    0.65
  -4  -8  13    3.68    0.41
  -4  -8  13    4.08    0.45
   4   8 -13    3.32    0.49
  -5  -7  14    8.01    0.55
  -5  -7  14    8.56    0.57
   5   7 -14    8.33    0.67
  -6  -6  15    0.62    0.24
  -6  -6  15    0.99    0.28
   6   6 -15    1.09    0.31
  -7  -5  16    0.02    0.17
  -7  -5  16   -0.07    0.16
   7   5 -16    0.14    0.20
  -8  -4  17    0.46    0.23
  -8  -4  17    0.64    0.25
   8   4 -17    0.72    0.28
  -9  -3  18    3.24    0.44
  -9  -3  18    2.95    0.42
 -10  -2  19    0.86    0.29
 -11  -1  20    6.08    0.60
  -1  11  -9    4.45    0.60
   0 -10  10    1.77    0.30
   0  10 -10    1.80    0.40
  -1  -9  11   18.00    0.82
  -1  -9  11   17.12    0.77
   1   9 -11   18.22    1.00
  -2  -8  12    0.25    0.19
  -2  -8  12   -0.04    0.17
   2   8 -12    0.26    0.23
  -3  -7  13    0.09    0.16
  -3  -7  13    0.12    0.18
   3   7 -13    0.12    0.20
  -4  -6  14   20.20    0.87
  -4  -6  14   19.91    0.90
   4   6 -14   19.47    1.01
  -5  -5  15    0.10    0.18
  -5  -5  15   -0.11    0.16
   5   5 -15    0.09    0.19
  -6  -4  16    1.09    0.27
  -6  -4  16    1.60    0.31
   6   4 -16    0.97    0.30
  -7  -3  17    0.91    0.26
  -7  -3  17    0.79    0.25
  -8  -2  18    5.12    0.59
  -8  -2  18    3.97    0.47
  -8  -2  18    4.38    0.48
  -9  -1  19    3.68    0.46
 -10   0  20   17.42    0.89
  -3  11  -8    1.32    0.36
   2 -10   9    0.60    0.22
  -2  10  -9    0.84    0.32
   1  -9  10    1.02    0.24
   1  -9  10    0.72    0.23
  -1   9 -10    0.68    0.29
   0  -8  11    1.84    0.31
   0  -8  11    2.15    0.33
   0   8 -11    2.04    0.40
  -1  -7  12    3.65    0.41
  -1  -7  12    3.51    0.39
   1   7 -12    4.30    0.54
  -2  -6  13   -0.07    0.16
  -2  -6  13   -0.02    0.17
   2   6 -13    0.31    0.22
  -3  -5  14   21.05    0.92
  -3  -5  14   23.24    0.97
   3   5 -14   22.43    1.09
  -4  -4  15   19.03    0.89
  -4  -4  15   20.58    0.88
   4   4 -15   19.17    1.00
  -5  -3  16    5.92    0.54
  -5  -3  16    4.92    0.50
  -6  -2  17    5.80    0.55
  -6  -2  17    6.20    0.63
  -6  -2  17    6.55    0.52
  -7  -1  18    2.65    0.39
  -7  -1  18    2.88    0.41
  -7  -1  18    2.23    0.40
  -8   0  19   -0.01    0.19
  -9   1  20   20.08    0.96
  -5  11  -7    5.57    0.65
   4 -10   8    1.53    0.29
  -4  10  -8    1.67    0.40
   3  -9   9    2.85    0.35
   3  -9   9    2.37    0.34
  -3   9  -9    3.69    0.51
   2  -8  10    5.03    0.48
   2  -8  10    5.09    0.46
  -2   8 -10    5.43    0.60
   1  -7  11   13.33    0.68
   1  -7  11   14.64    0.72
  -1   7 -11   14.17    0.84
   0  -6  12    0.74    0.21
   0  -6  12    0.63    0.21
   0   6 -12    0.62    0.25
  -1  -5  13    1.76    0.29
  -1  -5  13    1.54    0.29
   1   5 -13    1.67    0.34
  -2  -4  14   10.43    0.62
  -2  -4  14   10.67    0.60
   2   4 -14    9.31    0.66
  -3  -3  15    6.71    0.49
  -3  -3  15    7.00    0.49
   3   3 -15    5.89    0.60
  -4  -2  16   11.33    0.73
  -4  -2  16   10.01    0.63
  -4  -2  16   11.24    0.64
  -5  -1  17    5.53    0.52
  -5  -1  17    4.76    0.49
  -5  -1  17    4.89    0.53
  -6   0  18    3.15    0.46
  -6   0  18    2.72    0.38
  -6   0  18    2.00    0.34
  -7   1  19    0.93    0.28
  -7   1  19    0.77    0.26
  -8   2  20    8.13    0.59
  -7  11  -6    0.42    0.31
  -6  10  -7   11.24    0.77
   5  -9   8    1.77    0.30
   5  -9   8    2.14    0.32
  -5   9  -8    2.03    0.40
   4  -8   9   21.25    0.89
   4  -8   9   21.07    0.87
  -4   8  -9   19.98    1.03
   3  -7  10   64.52    1.85
   3  -7  10   64.53    1.92
  -3   7 -10   60.62    2.13
   2  -6  11    3.28    0.39
   2  -6  11    2.43    0.34
  -2   6 -11    3.17    0.46
   1  -5  12    7.31    0.48
   1  -5  12    7.51    0.51
  -1   5 -12    8.37    0.60
   0  -4  13   19.58    0.84
   0  -4  13   19.05    0.86
   0   4 -13   19.34    0.97
  -1  -3  14    0.31    0.19
  -1  -3  14    0.33    0.19
   1   3 -14    0.26    0.20
  -2  -2  15   10.59    0.62
  -2  -2  15    9.30    0.58
  -2  -2  15   10.23    0.67
  -3  -1  16   17.40    0.85
  -3  -1  16   18.24    0.93
  -3  -1  16   18.07    0.83
  -4   0  17    0.22    0.19
  -4   0  17    0.23    0.20
  -4   0  17    0.18    0.21
  -5   1  18    0.07    0.20
  -5   1  18    0.16    0.18
  -5   1  18    0.19    0.18
  -6   2  19    0.69    0.24
  -6   2  19    0.82    0.27
  -9  11  -5   -0.03    0.27
  -8  10  -6   -0.11    0.24
   7  -9   7    2.69    0.37
   7  -9   7    2.74    0.36
  -7   9  -7    2.38    0.44
   6  -8   8    7.19    0.50
   6  -8   8    8.09    0.51
  -6   8  -8    9.25    0.65
   5  -7   9   11.96    0.64
   5  -7   9   11.75    0.61
  -5   7  -9   11.49    0.73
   4  -6  10   29.36    1.06
   4  -6  10   29.18    1.09
  -4   6 -10   27.89    1.21
   3  -5  11    0.34    0.18
   3  -5  11    0.24    0.17
  -3   5 -11    0.08    0.18
   2  -4  12   -0.02    0.13
   2  -4  12   -0.20    0.12
  -2   4 -12    0.06    0.18
   1  -3  13   49.49    1.63
   1  -3  13   50.17    1.58
  -1   3 -13   52.28    1.81
   0  -2  14    0.61    0.21
   0  -2  14    0.29    0.20
   0  -2  14    0.47    0.20
  -1  -1  15    6.22    0.47
  -1  -1  15    5.38    0.44
  -1  -1  15    6.79    0.54
  -2   0  16   54.39    1.93
  -2   0  16   53.15    1.70
  -2   0  16   55.86    1.78
  -3   1  17    0.22    0.18
  -3   1  17    0.10    0.18
  -3   1  17    0.05    0.20
  -4   2  18    0.92    0.26
  -4   2  18    1.73    0.33
 -11  11  -4   21.31    1.12
 -10  10  -5    4.69    0.59
   9  -9   6    1.34    0.29
   9  -9   6    1.48    0.29
  -9   9  -6    0.97    0.33
   8  -8   7   29.61    1.09
   8  -8   7   30.09    1.13
  -8   8  -7   29.37    1.26
   7  -7   8    8.76    0.54
   7  -7   8    8.14    0.53
  -7   7  -8    7.52    0.58
   6  -6   9    0.05    0.16
   6  -6   9   -0.04    0.16
  -6   6  -9    0.32    0.23
   5  -5  10   16.85    0.78
   5  -5  10   17.37    0.77
  -5   5 -10   16.50    0.86
   4  -4  11   14.57    0.71
   4  -4  11   14.93    0.69
  -4   4 -11   14.55    0.80
   3  -3  12   49.72    1.60
   3  -3  12   48.68    1.54
  -3   3 -12   48.13    1.72
   2  -2  13    0.08    0.16
   2  -2  13    0.52    0.20
  -2   2 -13    0.21    0.19
   1  -1  14   -0.02    0.15
   1  -1  14    0.39    0.19
   1  -1  14    0.70    0.25
   0   0  15   -0.15    0.14
   0   0  15    0.30    0.18
   0   0  15   -0.02    0.16
  -1   1  16   33.61    1.26
  -1   1  16   35.28    1.23
  -1   1  16   32.96    1.37
  -2   2  17    1.03    0.31
  -2   2  17    1.08    0.28
  -2   2  17    1.52    0.30
 -12  10  -4   -0.10    0.25
  11  -9   5    0.22    0.22
  11  -9   5    0.58    0.24
 -11   9  -5    0.45    0.25
  10  -8   6   16.07    0.77
  10  -8   6   16.05    0.78
 -10   8  -6   14.02    0.84
   9  -7   7    3.28    0.40
   9  -7   7    3.10    0.39
  -9   7  -7    3.21    0.45
   8  -6   8    0.14    0.17
   8  -6   8   -0.05    0.16
  -8   6  -8    0.34    0.21
   7  -5   9    0.19    0.16
   7  -5   9    0.24    0.17
  -7   5  -9    0.24    0.20
   6  -4  10   24.91    0.99
   6  -4  10   24.35    0.96
  -6   4 -10   23.90    1.05
   5  -3  11   12.30    0.65
   5  -3  11   12.52    0.64
  -5   3 -11   12.69    0.73
   4  -2  12   18.64    0.80
   4  -2  12   20.02    0.85
  -4   2 -12   16.91    0.87
   3  -1  13    0.18    0.16
   3  -1  13    0.04    0.17
   3  -1  13   -0.10    0.14
   2   0  14    0.10    0.16
   2   0  14   -0.09    0.14
   2   0  14   -0.03    0.15
   1   1  15    1.61    0.29
   1   1  15    1.69    0.30
   1   1  15    1.72    0.34
   0   2  16    9.38    0.59
   0   2  16    9.44    0.67
   0   2  16   10.02    0.59
  -1   3  17    7.38    0.61
  13  -9   4    0.22    0.23
  12  -8   5    1.28    0.29
  12  -8   5    1.19    0.29
 -12   8  -5    0.92    0.31
  11  -7   6   22.42    0.97
  11  -7   6   23.05    0.96
 -11   7  -6   22.22    1.04
  10  -6   7    1.79    0.31
  10  -6   7    1.96    0.32
 -10   6  -7    1.76    0.34
   9  -5   8    1.28    0.28
   9  -5   8    1.34    0.28
  -9   5  -8    1.47    0.31
   8  -4   9    1.24    0.26
   8  -4   9    0.93    0.24
  -8   4  -9    1.66    0.32
   7  -3  10   15.43    0.76
   7  -3  10   17.03    0.77
  -7   3 -10   15.97    0.81
   6  -2  11    6.63    0.48
   6  -2  11    7.24    0.50
  -6   2 -11    6.58    0.50
   5  -1  12    8.02    0.53
   5  -1  12    7.74    0.51
   4   0  13   -0.05    0.13
   4   0  13    0.24    0.17
   4   0  13   -0.06    0.15
   3   1  14    0.06    0.14
   3   1  14    0.11    0.16
   3   1  14    0.37    0.21
   2   2  15    2.46    0.35
   2   2  15    2.43    0.34
   2   2  15    2.98    0.44
   1   3  16    0.74    0.28
  15  -9   3    3.52    0.47
 -15   9  -3    3.84    0.48
  14  -8   4    0.82    0.27
 -14   8  -4    0.90    0.26
  13  -7   5    0.20    0.21
  13  -7   5   -0.05    0.20
  12  -6   6   25.77    1.08
  12  -6   6   27.12    1.06
  11  -5   7    2.23    0.35
  11  -5   7    2.29    0.35
  10  -4   8   14.50    0.71
  10  -4   8   15.33    0.76
   9  -3   9    0.46    0.19
   9  -3   9    0.57    0.20
  -9   3  -9    0.50    0.22
   8  -2  10    0.51    0.20
   8  -2  10    0.69    0.22
  -8   2 -10    0.90    0.24
   7  -1  11    3.59    0.41
   7  -1  11    3.22    0.38
  -7   1 -11    3.15    0.40
   6   0  12    0.03    0.15
   6   0  12   -0.08    0.16
   6   0  12    0.18    0.16
   5   1  13    1.24    0.26
   5   1  13    1.13    0.26
   5   1  13    0.70    0.24
   4   2  14    3.20    0.40
   4   2  14    5.02    0.47
   4   2  14    4.24    0.49
   3   3  15    0.28    0.23
   2   4  16   12.69    0.80
  16  -8   3    0.01    0.23
 -16   8  -3    0.27    0.24
  15  -7   4    3.15    0.44
 -15   7  -4    3.19    0.45
  14  -6   5    0.36    0.24
  14  -6   5    0.46    0.24
  13  -5   6   27.35    1.11
  13  -5   6   24.82    1.04
  12  -4   7    3.98    0.45
  12  -4   7    3.84    0.44
  11  -3   8    3.91    0.43
  11  -3   8    3.61    0.42
  10  -2   9   26.69    1.08
  10  -2   9   27.13    1.05
   9  -1  10    0.57    0.21
   9  -1  10    0.84    0.24
   8   0  11   -0.06    0.15
   8   0  11   -0.03    0.13
   7   1  12   10.14    0.60
   7   1  12   10.25    0.59
   6   2  13    6.76    0.50
   6   2  13    7.23    0.51
   5   3  14   19.24    0.96
   4   4  15    0.36    0.24
 -18   8  -2    3.45    0.46
  17  -7   3    0.82    0.31
  16  -6   4    0.61    0.25
 -16   6  -4    0.65    0.25
  15  -5   5    5.70    0.56
  14  -4   6    1.35    0.31
  14  -4   6    1.43    0.30
  13  -3   7   10.10    0.63
  13  -3   7    9.22    0.61
  12  -2   8   19.16    0.86
  12  -2   8   19.07    0.89
  11  -1   9    4.27    0.46
  11  -1   9    4.54    0.47
  10   0  10   -0.18    0.15
  10   0  10    0.17    0.18
   9   1  11    0.09    0.16
   9   1  11    0.23    0.19
   8   2  12   18.56    0.83
   8   2  12   18.98    0.86
 -19   7  -2    1.16    0.32
  18  -6   3    0.24    0.25
  17  -5   4    1.04    0.30
 -17   5  -4    0.48    0.26
  16  -4   5    2.01    0.36
 -16   4  -5    1.57    0.34
  15  -3   6    3.98    0.48
  15  -3   6    3.52    0.45
  14  -2   7    7.44    0.55
  14  -2   7    7.12    0.56
  13  -1   8   41.61    1.45
  13  -1   8   42.69    1.50
  12   0   9   -0.15    0.16
  12   0   9   -0.10    0.16
  11   1  10    0.04    0.19
  11   1  10    0.24    0.18
  10   2  11    5.69    0.53
  10   2  11    5.40    0.51
 -20   6  -2    1.64    0.39
  18  -4   4    0.39    0.26
  17  -3   5    5.25    0.55
 -17   3  -5    4.54    0.54
  16  -2   6    2.08    0.36
 -16   2  -6    2.05    0.37
  15  -1   7   11.93    0.72
  15  -1   7   11.84    0.71
  14   0   8   69.07    2.19
  14   0   8   72.19    2.14
  13   1   9    1.42    0.32
  13   1   9    1.60    0.33
  12   2  10   -0.14    0.17
  12   2  10    0.34    0.21
 -20   4  -3    0.93    0.31
  19  -3   4    4.01    0.50
  18  -2   5    0.00    0.21
  17  -1   6    2.62    0.42
 -17   1  -6    2.19    0.40
  16   0   7   -0.08    0.20
 -16   0  -7    0.10    0.21
  15   1   8    9.50    0.63
  14   2   9    7.26    0.63
 -20   2  -4    4.50    0.55
  19  -1   5    0.27    0.25
  18   0   6    6.17    0.61
  17   1   7   -0.05    0.21
  16   2   8    9.70    0.66
  -8 -10  15    6.05    0.57
  -9  -9  16    0.47    0.27
 -10  -8  17    1.29    0.34
 -11  -7  18   25.70    1.15
  -6 -10  14    0.05    0.21
  -7  -9  15    0.78    0.28
  -7  -9  15    0.58    0.25
  -8  -8  16    0.66    0.26
  -9  -7  17    0.59    0.26
 -10  -6  18   10.70    0.70
 -11  -5  19    3.38    0.48
  -4 -10  13    4.27    0.48
  -4 -10  13    4.17    0.48
  -5  -9  14    5.24    0.51
  -5  -9  14    5.41    0.54
   5   9 -14    4.25    0.58
  -6  -8  15    0.24    0.20
  -6  -8  15    0.31    0.23
   6   8 -15    0.48    0.29
  -7  -7  16   -0.26    0.16
  -7  -7  16   -0.07    0.18
   7   7 -16   -0.12    0.21
  -8  -6  17    0.46    0.25
  -9  -5  18   16.24    0.86
 -10  -4  19    0.71    0.28
  -2 -10  12    2.40    0.37
  -2 -10  12    2.62    0.37
   2  10 -12    3.22    0.51
  -3  -9  13    0.19    0.20
  -3  -9  13    0.13    0.20
   3   9 -13    0.22    0.28
  -4  -8  14   -0.04    0.16
  -4  -8  14   -0.16    0.15
   4   8 -14    0.03    0.23
  -5  -7  15    5.92    0.55
  -5  -7  15    4.05    0.48
   5   7 -15    5.56    0.64
  -6  -6  16    1.17    0.30
  -6  -6  16    1.44    0.30
   6   6 -16    0.96    0.32
  -7  -5  17    2.58    0.39
  -7  -5  17    1.82    0.35
   7   5 -17    2.22    0.43
  -8  -4  18    8.21    0.61
  -9  -3  19   -0.01    0.21
 -10  -2  20    1.84    0.36
   0 -10  11    0.39    0.21
   0 -10  11    0.24    0.22
   0  10 -11    0.32    0.27
  -1  -9  12    6.85    0.51
  -1  -9  12    6.19    0.49
   1   9 -12    6.33    0.67
  -2  -8  13    0.96    0.27
  -2  -8  13    0.91    0.26
   2   8 -13    1.24    0.37
  -3  -7  14    7.52    0.53
  -3  -7  14    8.55    0.58
   3   7 -14    8.00    0.65
  -4  -6  15    1.35    0.30
  -4  -6  15    1.94    0.34
   4   6 -15    1.68    0.38
  -5  -5  16    0.23    0.18
  -5  -5  16   -0.07    0.17
   5   5 -16    0.24    0.24
  -6  -4  17    0.14    0.17
  -6  -4  17    0.05    0.17
   6   4 -17    0.31    0.24
  -7  -3  18    4.42    0.49
   7   3 -18    4.44    0.58
  -8  -2  19    2.93    0.43
  -9  -1  20   20.70    1.00
   2 -10  10    4.68    0.45
   2 -10  10    4.22    0.45
  -2  10 -10    4.85    0.61
   1  -9  11    1.52    0.30
   1  -9  11    1.10    0.28
  -1   9 -11    0.64    0.31
   0  -8  12    2.32    0.35
   0  -8  12    1.72    0.32
   0   8 -12    1.75    0.38
  -1  -7  13    0.16    0.18
  -1  -7  13    0.02    0.17
   1   7 -13    0.14    0.21
  -2  -6  14   19.04    0.89
  -2  -6  14   17.29    0.84
   2   6 -14   19.81    1.03
  -3  -5  15    2.63    0.38
  -3  -5  15    1.96    0.33
   3   5 -15    2.37    0.42
  -4  -4  16   -0.23    0.15
  -4  -4  16    0.05    0.17
   4   4 -16    0.04    0.20
  -5  -3  17    0.21    0.20
  -5  -3  17    0.28    0.18
   5   3 -17    0.14    0.20
  -6  -2  18    0.91    0.31
  -6  -2  18    2.00    0.35
  -6  -2  18    1.43    0.31
  -7  -1  19    0.98    0.28
  -8   0  20   10.46    0.68
  -5  11  -8    7.66    0.68
   4 -10   9    2.17    0.34
  -4  10  -9    2.44    0.46
   3  -9  10   11.91    0.64
   3  -9  10   11.51    0.65
  -3   9 -10   12.80    0.82
   2  -8  11    4.30    0.44
   2  -8  11    3.50    0.42
  -2   8 -11    3.79    0.52
   1  -7  12    0.69    0.24
   1  -7  12    0.66    0.23
  -1   7 -12    0.35    0.26
   0  -6  13    5.30    0.50
   0  -6  13    4.56    0.48
   0   6 -13    5.34    0.59
  -1  -5  14   32.84    1.27
  -1  -5  14   34.74    1.25
   1   5 -14   35.34    1.46
  -2  -4  15   14.48    0.73
  -2  -4  15   14.20    0.75
   2   4 -15   13.73    0.85
  -3  -3  16    4.71    0.47
  -3  -3  16    4.09    0.47
   3   3 -16    5.08    0.58
  -4  -2  17    0.00    0.16
  -4  -2  17    0.06    0.19
  -4  -2  17   -0.10    0.16
  -5  -1  18   -0.01    0.16
  -5  -1  18   -0.20    0.15
  -5  -1  18    0.11    0.21
  -6   0  19    0.12    0.19
  -7   1  20   11.78    0.72
   6 -10   8    9.18    0.59
  -6  10  -8   10.39    0.77
   5  -9   9    1.74    0.31
   5  -9   9    1.64    0.31
  -5   9  -9    1.61    0.39
   4  -8  10   18.92    0.83
   4  -8  10   18.15    0.85
  -4   8 -10   18.61    0.99
   3  -7  11   -0.17    0.12
   3  -7  11   -0.09    0.14
  -3   7 -11    0.17    0.23
   2  -6  12    0.07    0.15
   2  -6  12    0.38    0.19
  -2   6 -12    0.17    0.21
   1  -5  13    4.74    0.47
   1  -5  13    4.23    0.46
  -1   5 -13    4.71    0.55
   0  -4  14   12.62    0.68
   0  -4  14   12.56    0.71
   0   4 -14   14.85    0.84
  -1  -3  15    9.28    0.59
  -1  -3  15    8.85    0.57
   1   3 -15    9.48    0.67
  -2  -2  16    9.33    0.60
  -2  -2  16    9.12    0.60
  -2  -2  16    8.67    0.66
  -3  -1  17    0.04    0.19
  -3  -1  17    0.09    0.19
  -3  -1  17    0.17    0.18
  -4   0  18    0.66    0.25
  -4   0  18    0.41    0.22
  -5   1  19    1.34    0.30
   8 -10   7    0.50    0.23
  -8  10  -7    0.69    0.33
   7  -9   8   11.44    0.66
   7  -9   8   11.60    0.65
  -7   9  -8   12.04    0.80
   6  -8   9   10.82    0.63
   6  -8   9   10.55    0.60
  -6   8  -9   11.32    0.75
   5  -7  10   19.41    0.87
   5  -7  10   18.19    0.82
  -5   7 -10   17.74    0.96
   4  -6  11    0.87    0.25
   4  -6  11    0.63    0.23
  -4   6 -11    0.33    0.24
   3  -5  12    2.11    0.33
   3  -5  12    2.24    0.33
  -3   5 -12    2.27    0.40
   2  -4  13   38.56    1.40
   2  -4  13   38.64    1.35
  -2   4 -13   43.41    1.60
   1  -3  14    2.27    0.34
   1  -3  14    1.65    0.30
  -1   3 -14    2.79    0.43
   0  -2  15   14.87    0.76
   0  -2  15   13.96    0.72
  -1  -1  16   33.81    1.31
  -1  -1  16   36.48    1.46
  -1  -1  16   36.33    1.30
  -2   0  17    0.09    0.19
  -2   0  17    0.02    0.17
  -2   0  17    0.02    0.18
  -3   1  18    0.10    0.19
  -3   1  18    0.26    0.21
  -4   2  19    0.17    0.21
  10 -10   6    1.33    0.31
 -10  10  -6    1.15    0.38
   9  -9   7    6.92    0.51
   9  -9   7    6.40    0.50
  -9   9  -7    5.07    0.60
   8  -8   8    0.14    0.20
   8  -8   8   -0.06    0.16
  -8   8  -8    0.12    0.24
   7  -7   9    3.28    0.41
   7  -7   9    3.32    0.41
  -7   7  -9    4.37    0.52
   6  -6  10   26.35    1.06
   6  -6  10   27.58    1.05
  -6   6 -10   26.00    1.17
   5  -5  11    0.39    0.20
   5  -5  11    0.46    0.21
  -5   5 -11    0.53    0.25
   4  -4  12    2.77    0.37
   4  -4  12    2.84    0.37
  -4   4 -12    3.30    0.44
   3  -3  13   35.34    1.29
   3  -3  13   38.96    1.37
  -3   3 -13   39.91    1.51
   2  -2  14   -0.04    0.14
   2  -2  14    0.03    0.15
  -2   2 -14   -0.17    0.14
   1  -1  15    1.86    0.36
   1  -1  15    1.60    0.30
   1  -1  15    1.84    0.33
   0   0  16   54.47    1.74
   0   0  16   55.81    1.81
   0   0  16   55.73    1.96
  -1   1  17    4.89    0.50
  -1   1  17    4.63    0.55
  -1   1  17    4.91    0.51
  -2   2  18    0.40    0.23
  -2   2  18    0.09    0.19
 -12  10  -5    3.47    0.52
  11  -9   6    0.99    0.29
  11  -9   6    0.78    0.27
 -11   9  -6    0.83    0.32
  10  -8   7    7.82    0.56
  10  -8   7    9.19    0.59
 -10   8  -7    8.17    0.65
   9  -7   8    1.24    0.29
   9  -7   8    1.90    0.32
  -9   7  -8    1.64    0.37
   8  -6   9    3.72    0.43
   8  -6   9    3.83    0.43
  -8   6  -9    3.67    0.47
   7  -5  10   23.51    0.97
   7  -5  10   24.12    1.00
  -7   5 -10   23.98    1.08
   6  -4  11    2.13    0.34
   6  -4  11    2.62    0.36
  -6   4 -11    3.16    0.42
   5  -3  12    7.92    0.52
   5  -3  12    7.83    0.53
  -5   3 -12    6.68    0.55
   4  -2  13   10.97    0.61
   4  -2  13   10.27    0.61
  -4   2 -13   10.29    0.67
   3  -1  14    0.09    0.16
   3  -1  14    0.16    0.16
   3  -1  14    0.08    0.18
   2   0  15   -0.05    0.19
   2   0  15    0.12    0.16
   2   0  15    0.10    0.16
   1   1  16   26.88    1.10
   1   1  16   25.96    1.19
   1   1  16   27.77    1.08
   0   2  17   11.73    0.67
   0   2  17   12.29    0.71
  13  -9   5    6.48    0.60
  13  -9   5    6.10    0.59
  12  -8   6   14.81    0.78
  12  -8   6   13.49    0.76
  11  -7   7    3.86    0.45
  11  -7   7    4.04    0.46
 -11   7  -7    4.84    0.54
  10  -6   8    0.10    0.18
  10  -6   8   -0.13    0.17
 -10   6  -8    0.00    0.19
   9  -5   9    0.88    0.26
   9  -5   9    0.92    0.27
  -9   5  -9    0.98    0.28
   8  -4  10   14.61    0.75
   8  -4  10   13.88    0.72
  -8   4 -10   13.99    0.77
   7  -3  11    7.61    0.53
   7  -3  11    7.98    0.55
  -7   3 -11    7.75    0.57
   6  -2  12   11.46    0.66
   6  -2  12   11.18    0.64
  -6   2 -12   11.21    0.69
   5  -1  13    0.58    0.22
   5  -1  13    0.57    0.21
  -5   1 -13    1.12    0.28
   4   0  14    0.14    0.18
   4   0  14    0.00    0.17
   4   0  14    0.12    0.20
   3   1  15    0.91    0.26
   3   1  15    1.20    0.28
   3   1  15    1.15    0.30
   2   2  16   17.94    0.96
   2   2  16   17.99    0.83
   2   2  16   18.49    0.88
  15  -9   4    2.69    0.42
  14  -8   5    4.06    0.50
  13  -7   6   32.46    1.30
  13  -7   6   35.76    1.30
  12  -6   7    0.17    0.20
  12  -6   7    0.03    0.19
  11  -5   8    0.49    0.23
  11  -5   8    0.51    0.23
  10  -4   9    0.08    0.18
  10  -4   9    0.04    0.17
   9  -3  10    9.78    0.62
   9  -3  10    9.27    0.59
   8  -2  11    3.58    0.42
   8  -2  11    4.17    0.44
  -8   2 -11    3.30    0.43
   7  -1  12   10.88    0.63
   7  -1  12    9.92    0.62
  -7   1 -12   10.92    0.67
   6   0  13   -0.09    0.14
   6   0  13    0.01    0.16
   5   1  14    0.90    0.28
   5   1  14    0.90    0.25
   5   1  14    0.57    0.23
   4   2  15    7.77    0.55
   4   2  15    6.50    0.57
   4   2  15    7.88    0.54
   3   3  16    0.58    0.27
  16  -8   4    1.47    0.37
  15  -7   5    0.66    0.28
  14  -6   6   26.40    1.13
  14  -6   6   24.68    1.06
  13  -5   7    5.19    0.53
  13  -5   7    5.20    0.53
  12  -4   8    3.37    0.43
  12  -4   8    2.50    0.39
  11  -3   9    6.47    0.50
  11  -3   9    5.14    0.52
  10  -2  10    0.26    0.19
  10  -2  10    0.05    0.18
   9  -1  11    0.37    0.21
   9  -1  11    0.46    0.22
   8   0  12   14.42    0.76
   8   0  12   14.65    0.75
   7   1  13    0.02    0.17
   7   1  13    0.06    0.17
   6   2  14    5.30    0.52
   6   2  14    4.25    0.46
  17  -7   4    0.02    0.22
  16  -6   5    0.45    0.25
  15  -5   6    7.28    0.59
  15  -5   6    6.60    0.62
  14  -4   7    3.00    0.41
  14  -4   7    3.02    0.42
  13  -3   8    7.76    0.57
  13  -3   8    7.23    0.54
  12  -2   9    3.04    0.42
  12  -2   9    3.29    0.44
  11  -1  10    0.06    0.17
  11  -1  10    0.11    0.19
  10   0  11    0.26    0.19
  10   0  11    0.06    0.17
   9   1  12   15.15    0.77
   9   1  12   15.12    0.79
   8   2  13    1.29    0.29
   8   2  13    1.51    0.32
  18  -6   4   -0.04    0.25
  17  -5   5    0.94    0.32
  16  -4   6    5.29    0.55
  15  -3   7    7.21    0.57
  15  -3   7    8.58    0.61
  14  -2   8   16.69    0.86
  14  -2   8   14.84    0.79
  13  -1   9    1.68    0.33
  13  -1   9    1.57    0.34
  12   0  10    1.16    0.30
  12   0  10    1.18    0.29
  11   1  11    3.46    0.44
  11   1  11    3.04    0.43
  10   2  12   11.28    0.68
  10   2  12   11.54    0.68
  19  -5   4    1.65    0.40
  18  -4   5    1.70    0.36
  17  -3   6    0.18    0.22
  16  -2   7    1.52    0.32
  15  -1   8    8.11    0.62
  15  -1   8    9.24    0.65
  14   0   9    0.12    0.22
  14   0   9   -0.01    0.19
  13   1  10    0.17    0.22
  13   1  10   -0.08    0.20
  12   2  11    0.44    0.24
  12   2  11    0.67    0.26
  19  -3   5    2.54    0.45
  18  -2   6    1.51    0.36
  17  -1   7    0.29    0.26
  16   0   8   10.91    0.71
  15   1   9    0.77    0.29
  14   2  10    1.24    0.31
  18   0   7    0.05    0.21
  17   1   8    5.34    0.57
  -6 -10  15    1.00    0.31
  -7  -9  16    2.88    0.43
  -8  -8  17    2.22    0.39
  -9  -7  18    9.36    0.68
  -4 -10  14    0.05    0.21
  -4 -10  14    0.25    0.24
  -5  -9  15    1.62    0.34
  -6  -8  16    0.39    0.25
  -7  -7  17    1.71    0.35
  -8  -6  18   13.06    0.77
  -9  -5  19    2.31    0.41
  -2 -10  13    5.98    0.57
  -2 -10  13    5.72    0.54
  -3  -9  14    4.45    0.50
  -3  -9  14    3.84    0.46
  -4  -8  15    2.43    0.38
  -4  -8  15    2.45    0.40
  -5  -7  16    2.28    0.38
  -5  -7  16    3.32    0.44
  -6  -6  17    0.41    0.24
  -7  -5  18   22.88    1.04
  -8  -4  19    3.29    0.46
   0 -10  12    2.91    0.40
   0 -10  12    2.41    0.37
  -1  -9  13    1.26    0.29
  -1  -9  13    1.15    0.29
   1   9 -13    0.75    0.32
  -2  -8  14   11.57    0.68
  -2  -8  14   13.96    0.75
   2   8 -14   10.44    0.79
  -3  -7  15    0.13    0.18
  -3  -7  15    0.19    0.20
   3   7 -15    0.00    0.24
  -4  -6  16    0.02    0.19
  -4  -6  16    0.21    0.21
   4   6 -16    0.00    0.21
  -5  -5  17    0.91    0.27
  -6  -4  18    0.83    0.27
  -7  -3  19    1.72    0.35
  -8  -2  20    9.00    0.65
   2 -10  11    1.87    0.34
   2 -10  11    3.08    0.39
   1  -9  12    1.85    0.33
   1  -9  12    2.24    0.36
  -1   9 -12    1.98    0.43
   0  -8  13    0.30    0.20
   0  -8  13    0.25    0.21
   0   8 -13    0.18    0.25
  -1  -7  14    6.79    0.51
  -1  -7  14    6.93    0.54
   1   7 -14    5.79    0.66
  -2  -6  15    3.03    0.41
  -2  -6  15    2.44    0.37
   2   6 -15    2.39    0.45
  -3  -5  16    0.18    0.21
  -3  -5  16    0.63    0.24
   3   5 -16    0.85    0.30
  -4  -4  17    0.07    0.20
  -4  -4  17   -0.07    0.18
   4   4 -17    0.10    0.22
  -5  -3  18    6.96    0.56
  -6  -2  19    0.71    0.27
  -7  -1  20   11.97    0.74
   4 -10  10    0.97    0.27
   4 -10  10    1.21    0.29
  -4  10 -10    0.85    0.35
   3  -9  11    1.39    0.30
   3  -9  11    1.71    0.32
  -3   9 -11    0.63    0.30
   2  -8  12    0.54    0.23
   2  -8  12    0.65    0.25
  -2   8 -12    0.60    0.29
   1  -7  13    3.88    0.46
   1  -7  13    5.14    0.51
  -1   7 -13    3.27    0.50
   0  -6  14    8.69    0.57
   0  -6  14    7.87    0.57
   0   6 -14    7.94    0.65
  -1  -5  15    1.47    0.31
  -1  -5  15    1.65    0.32
   1   5 -15    2.06    0.40
  -2  -4  16    1.55    0.32
  -2  -4  16    0.69    0.25
   2   4 -16    1.62    0.36
  -3  -3  17    2.53    0.38
  -3  -3  17    1.82    0.35
   3   3 -17    2.15    0.43
  -4  -2  18    1.50    0.32
  -5  -1  19    0.95    0.28
   6 -10   9    0.70    0.26
   6 -10   9    0.43    0.24
  -6  10  -9    0.51    0.31
   5  -9  10    4.37    0.48
   5  -9  10    5.25    0.51
  -5   9 -10    6.44    0.68
   4  -8  11    0.38    0.22
   4  -8  11    0.14    0.21
  -4   8 -11    0.36    0.29
   3  -7  12    0.53    0.21
   3  -7  12    0.52    0.21
  -3   7 -12    0.50    0.28
   2  -6  13    0.33    0.21
   2  -6  13    0.17    0.17
  -2   6 -13    0.36    0.24
   1  -5  14   20.12    0.90
   1  -5  14   18.04    0.89
  -1   5 -14   19.15    1.03
   0  -4  15    3.45    0.43
   0  -4  15    3.45    0.44
   0   4 -15    3.65    0.51
  -1  -3  16    0.82    0.25
  -1  -3  16    0.84    0.26
   1   3 -16    0.72    0.27
  -2  -2  17    1.52    0.32
  -2  -2  17    1.05    0.28
  -3  -1  18   -0.07    0.19
  -4   0  19    0.06    0.21
   8 -10   8    6.67    0.52
  -8  10  -8    5.59    0.64
   7  -9   9    2.73    0.39
   7  -9   9    2.52    0.38
  -7   9  -9    2.79    0.48
   6  -8  10   14.94    0.76
   6  -8  10   14.87    0.77
  -6   8 -10   14.02    0.86
   5  -7  11    0.10    0.18
   5  -7  11   -0.04    0.16
  -5   7 -11    0.05    0.24
   4  -6  12   -0.08    0.16
   4  -6  12    0.07    0.18
  -4   6 -12   -0.25    0.19
   3  -5  13    6.93    0.53
   3  -5  13    7.77    0.53
  -3   5 -13    7.53    0.62
   2  -4  14   15.19    0.80
   2  -4  14   15.51    0.79
  -2   4 -14   17.96    0.95
   1  -3  15    9.46    0.62
   1  -3  15    9.41    0.61
  -1   3 -15    9.17    0.68
   0  -2  16    8.51    0.60
   0  -2  16    9.95    0.62
   0   2 -16    9.56    0.70
  -1  -1  17    5.08    0.54
  -1  -1  17    4.77    0.57
  -1  -1  17    5.65    0.55
  -2   0  18    0.66    0.26
  -3   1  19    1.08    0.29
  10 -10   7    0.08    0.22
 -10  10  -7    0.17    0.29
   9  -9   8    8.56    0.58
   9  -9   8    7.04    0.55
  -9   9  -8    5.84    0.65
   8  -8   9    2.37    0.37
   8  -8   9    2.77    0.40
  -8   8  -9    2.08    0.42
   7  -7  10    5.68    0.54
   7  -7  10    5.64    0.53
  -7   7 -10    6.36    0.64
   6  -6  11    4.19    0.46
   6  -6  11    4.56    0.48
  -6   6 -11    3.87    0.51
   5  -5  12    0.58    0.24
   5  -5  12    0.37    0.22
  -5   5 -12    0.38    0.24
   4  -4  13    8.17    0.56
   4  -4  13    7.05    0.53
  -4   4 -13    7.85    0.61
   3  -3  14   11.06    0.65
   3  -3  14   11.22    0.67
  -3   3 -14   11.51    0.75
   2  -2  15    3.01    0.41
   2  -2  15    2.79    0.39
  -2   2 -15    2.48    0.42
   1  -1  16   25.65    1.22
   1  -1  16   26.67    1.13
   1  -1  16   28.97    1.13
   0   0  17    0.04    0.19
   0   0  17    0.09    0.22
   0   0  17    0.09    0.20
  -1   1  18   19.61    0.92
  12 -10   6    4.27    0.50
  11  -9   7   14.53    0.79
  11  -9   7   15.43    0.82
 -11   9  -7   13.90    0.86
  10  -8   8    1.57    0.34
  10  -8   8    1.19    0.30
 -10   8  -8    1.16    0.33
   9  -7   9    0.44    0.25
   9  -7   9    0.70    0.26
  -9   7  -9    0.44    0.27
   8  -6  10   24.51    1.01
   8  -6  10   25.17    1.05
  -8   6 -10   23.44    1.12
   7  -5  11    2.55    0.38
   7  -5  11    2.38    0.38
  -7   5 -11    2.60    0.42
   6  -4  12    5.53    0.53
   6  -4  12    5.93    0.55
  -6   4 -12    5.23    0.57
   5  -3  13    6.59    0.51
   5  -3  13    5.75    0.54
  -5   3 -13    5.84    0.60
   4  -2  14    3.43    0.42
   4  -2  14    3.82    0.45
  -4   2 -14    4.29    0.52
   3  -1  15    0.80    0.25
   3  -1  15    0.92    0.27
   2   0  16    8.27    0.65
   2   0  16    6.06    0.57
   2   0  16    6.40    0.51
   1   1  17    0.82    0.26
   1   1  17    0.84    0.26
   0   2  18    1.38    0.32
  13  -9   6    0.65    0.29
  12  -8   7    8.82    0.63
  12  -8   7    9.86    0.66
  11  -7   8    2.17    0.37
  11  -7   8    2.30    0.38
  10  -6   9    0.52    0.24
  10  -6   9    1.28    0.29
 -10   6  -9    1.34    0.33
   9  -5  10   23.16    1.02
   9  -5  10   22.45    0.97
  -9   5 -10   23.11    1.07
   8  -4  11   13.69    0.74
   8  -4  11   14.98    0.79
  -8   4 -11   15.69    0.84
   7  -3  12    5.65    0.53
   7  -3  12    5.38    0.52
  -7   3 -12    6.08    0.53
   6  -2  13    6.67    0.52
   6  -2  13    6.56    0.52
  -6   2 -13    7.01    0.56
   5  -1  14    0.60    0.23
   5  -1  14    0.78    0.25
  -5   1 -14    1.30    0.32
   4   0  15   -0.12    0.15
   4   0  15    0.20    0.20
   4   0  15    0.25    0.22
   3   1  16    1.79    0.33
   3   1  16    1.93    0.33
   3   1  16    1.85    0.37
   2   2  17    3.34    0.43
  15  -9   5    1.96    0.41
  14  -8   6    9.50    0.67
  13  -7   7    6.14    0.60
  13  -7   7    5.76    0.58
  12  -6   8    3.74    0.48
  12  -6   8    3.60    0.47
  11  -5   9    0.18    0.21
  11  -5   9    0.22    0.21
  10  -4  10    6.03    0.57
  10  -4  10    6.20    0.57
   9  -3  11   12.01    0.72
   9  -3  11   12.92    0.71
   8  -2  12   17.66    0.87
   8  -2  12   18.17    0.86
   7  -1  13    0.20    0.20
   7  -1  13    0.17    0.19
   6   0  14    0.29    0.21
   6   0  14    0.12    0.19
   5   1  15    4.91    0.50
   5   1  15    4.22    0.53
   5   1  15    4.32    0.49
   4   2  16    9.85    0.71
   4   2  16    9.44    0.62
  16  -8   5    2.77    0.45
  15  -7   6   30.55    1.26
  14  -6   7    0.75    0.29
  13  -5   8    0.57    0.26
  13  -5   8    0.12    0.21
  12  -4   9    7.33    0.56
  12  -4   9    6.47    0.54
  11  -3  10    0.90    0.27
  11  -3  10    0.24    0.23
  10  -2  11    4.69    0.50
  10  -2  11    5.63    0.56
   9  -1  12   16.23    0.85
   9  -1  12   17.33    0.84
   8   0  13    0.08    0.20
   8   0  13    0.00    0.17
   7   1  14    0.23    0.20
   7   1  14    0.15    0.20
   6   2  15    4.84    0.50
  17  -7   5    2.36    0.43
  16  -6   6   10.28    0.71
  15  -5   7    2.65    0.42
  14  -4   8    1.72    0.35
  13  -3   9   15.00    0.79
  13  -3   9   13.08    0.78
  12  -2  10    0.17    0.21
  12  -2  10    0.60    0.25
  11  -1  11    3.19    0.43
  11  -1  11    3.85    0.47
  10   0  12   36.90    1.41
  10   0  12   38.92    1.39
   9   1  13    2.87    0.40
   9   1  13    2.36    0.39
   8   2  14    0.97    0.28
  16  -4   7    2.20    0.40
  15  -3   8    0.87    0.29
  14  -2   9    6.62    0.62
  13  -1  10    0.43    0.26
  12   0  11    0.10    0.20
  11   1  12   14.11    0.78
  10   2  13    4.68    0.51
  18  -4   6    3.91    0.52
  17  -3   7    0.11    0.24
  16  -2   8    9.26    0.67
  15  -1   9    0.33    0.25
  14   0  10    0.70    0.29
  13   1  11    2.77    0.42
  12   2  12    4.80    0.53
  17  -1   8    6.92    0.67
  16   0   9    0.10    0.23
  -5  -9  16    0.01    0.23
  -6  -8  17    0.32    0.26
  -2 -10  14    0.06    0.21
  -3  -9  15    2.73    0.41
  -4  -8  16    0.38    0.26
  -5  -7  17    0.17    0.21
  -6  -6  18    5.48    0.59
  -7  -5  19    2.84    0.43
   0 -10  13    0.62    0.26
   0 -10  13   -0.01    0.21
  -1  -9  14    2.30    0.38
  -2  -8  15    1.54    0.34
  -3  -7  16    3.01    0.43
  -4  -6  17    0.14    0.21
  -5  -5  18    4.34    0.51
  -6  -4  19   -0.25    0.19
   2 -10  12   10.08    0.65
   2 -10  12   11.00    0.68
   1  -9  13    8.33    0.60
   1  -9  13    9.45    0.61
   0  -8  14    5.02    0.51
   0  -8  14    4.34    0.50
  -1  -7  15    0.40    0.24
  -1  -7  15    0.28    0.23
  -2  -6  16    1.80    0.34
  -3  -5  17    1.38    0.33
  -4  -4  18    6.42    0.60
  -5  -3  19    1.60    0.34
   4 -10  11    7.16    0.55
   4 -10  11    7.11    0.55
   3  -9  12    0.89    0.29
   3  -9  12    0.62    0.26
   2  -8  13    0.73    0.26
   2  -8  13    1.01    0.30
  -2   8 -13    1.07    0.36
   1  -7  14   16.80    0.86
   1  -7  14   15.36    0.81
  -1   7 -14   16.06    0.98
   0  -6  15    2.16    0.37
   0  -6  15    1.08    0.30
   0   6 -15    1.12    0.34
  -1  -5  16    0.65    0.25
   1   5 -16    0.46    0.29
  -2  -4  17    3.66    0.47
  -3  -3  18   -0.20    0.16
  -4  -2  19    0.67    0.26
   6 -10  10    0.37    0.23
   6 -10  10    0.02    0.21
   5  -9  11    0.40    0.24
   5  -9  11    0.15    0.22
   4  -8  12    0.38    0.24
   4  -8  12    0.49    0.23
  -4   8 -12    0.53    0.29
   3  -7  13    3.26    0.44
   3  -7  13    2.63    0.39
  -3   7 -13    2.98    0.49
   2  -6  14   18.95    0.89
   2  -6  14   18.90    0.92
  -2   6 -14   17.62    1.01
   1  -5  15    1.76    0.35
   1  -5  15    2.14    0.37
  -1   5 -15    2.83    0.47
   0  -4  16   -0.14    0.18
   0  -4  16    0.19    0.20
   0   4 -16    0.06    0.22
  -1  -3  17    6.22    0.59
  -2  -2  18   -0.06    0.19
  -3  -1  19    0.66    0.28
   8 -10   9    0.48    0.24
   8 -10   9   -0.12    0.21
   7  -9  10    1.52    0.33
   7  -9  10    1.47    0.32
  -7   9 -10    1.42    0.38
   6  -8  11    0.71    0.26
   6  -8  11    0.73    0.27
  -6   8 -11    0.62    0.29
   5  -7  12    0.88    0.28
   5  -7  12    0.59    0.25
  -5   7 -12    0.96    0.32
   4  -6  13    0.76    0.25
   4  -6  13    1.03    0.28
  -4   6 -13    0.29    0.25
   3  -5  14   19.78    0.91
   3  -5  14   17.82    0.90
  -3   5 -14   19.44    1.04
   2  -4  15    7.16    0.55
   2  -4  15    7.68    0.58
  -2   4 -15    7.49    0.63
   1  -3  16    0.92    0.28
   1  -3  16    1.29    0.31
  -1   3 -16    0.63    0.28
   0  -2  17   12.62    0.74
  -1  -1  18   17.58    0.89
  -2   0  19    0.04    0.21
  10 -10   8    4.24    0.49
   9  -9   9    0.12    0.21
   9  -9   9    0.30    0.24
  -9   9  -9    0.41    0.31
   8  -8  10    3.39    0.45
   8  -8  10    3.26    0.44
  -8   8 -10    3.34    0.52
   7  -7  11    4.23    0.49
   7  -7  11    4.64    0.49
  -7   7 -11    4.36    0.57
   6  -6  12    0.14    0.18
   6  -6  12   -0.13    0.15
  -6   6 -12   -0.07    0.21
   5  -5  13    0.65    0.24
   5  -5  13    0.42    0.23
  -5   5 -13    0.47    0.26
   4  -4  14   16.24    0.85
   4  -4  14   16.09    0.82
  -4   4 -14   16.43    0.94
   3  -3  15    0.35    0.20
   3  -3  15    0.10    0.18
  -3   3 -15    0.56    0.26
   2  -2  16   18.53    0.90
   2  -2  16   17.28    0.89
  -2   2 -16   18.50    1.01
   1  -1  17    0.66    0.26
   0   0  18    0.03    0.19
  11  -9   8    1.18    0.32
 -11   9  -8    1.23    0.37
  10  -8   9    0.08    0.22
 -10   8  -9    0.02    0.24
   9  -7  10    9.42    0.64
   9  -7  10    9.74    0.63
  -9   7 -10   10.56    0.73
   8  -6  11    2.79    0.41
   8  -6  11    3.85    0.46
  -8   6 -11    3.39    0.49
   7  -5  12    1.35    0.32
   7  -5  12    2.15    0.37
  -7   5 -12    1.64    0.36
   6  -4  13    1.64    0.32
  -6   4 -13    0.99    0.32
   5  -3  14   17.18    0.89
   5  -3  14   17.56    0.86
  -5   3 -14   18.21    0.97
   4  -2  15    7.82    0.59
   4  -2  15    7.46    0.55
  -4   2 -15    8.43    0.67
   3  -1  16    1.29    0.30
  -3   1 -16    1.91    0.40
   2   0  17    0.10    0.20
  13  -9   7    4.19    0.52
  12  -8   8    1.16    0.32
  11  -7   9    0.89    0.28
  10  -6  10   11.19    0.69
  10  -6  10   11.48    0.72
   9  -5  11    1.57    0.32
   9  -5  11    1.79    0.34
   8  -4  12    0.49    0.23
   8  -4  12    0.51    0.24
  -8   4 -12    0.53    0.26
   7  -3  13    9.58    0.63
   7  -3  13    9.62    0.63
  -7   3 -13    7.71    0.63
   6  -2  14    3.37    0.44
   6  -2  14    4.05    0.48
  -6   2 -14    5.43    0.59
   5  -1  15    4.86    0.52
  -5   1 -15    5.36    0.60
   4   0  16   23.73    1.04
   3   1  17    0.10    0.20
  14  -8   7    4.72    0.55
  13  -7   8    1.92    0.39
  12  -6   9    3.15    0.46
  11  -5  10    2.20    0.37
  10  -4  11    5.72    0.58
  10  -4  11    6.34    0.58
   9  -3  12    0.39    0.24
   9  -3  12    0.05    0.20
   8  -2  13    1.33    0.31
   8  -2  13    1.50    0.33
   7  -1  14   -0.19    0.17
   6   0  15    0.11    0.20
   5   1  16   24.07    1.05
  15  -7   7    3.17    0.48
  14  -6   8    0.48    0.28
  13  -5   9    0.92    0.30
  12  -4  10   14.44    0.80
  11  -3  11   13.89    0.78
  10  -2  12   10.10    0.64
   9  -1  13    1.58    0.33
   8   0  14   -0.09    0.18
   7   1  15    0.49    0.24
  16  -6   7    0.31    0.28
  15  -5   8    0.11    0.24
  14  -4   9    1.60    0.36
  13  -3  10    0.59    0.26
  12  -2  11    0.97    0.30
  11  -1  12   16.38    0.86
  10   0  13   -0.24    0.18
   9   1  14    2.21    0.38
  16  -4   8    5.82    0.61
  15  -3   9   -0.04    0.23
  14  -2  10    1.28    0.32
  13  -1  11    2.81    0.43
  12   0  12   30.97    1.25
  -1  -9  15    0.80    0.29
  -2  -8  16    1.92    0.37
  -3  -7  17    6.28    0.62
  -4  -6  18   15.79    0.88
   2 -10  13    4.97    0.54
   1  -9  14    7.18    0.57
   0  -8  15    0.16    0.23
  -1  -7  16    0.74    0.29
  -2  -6  17    1.58    0.35
  -3  -5  18    5.12    0.56
   4 -10  12    3.35    0.45
   3  -9  13    2.13    0.38
   2  -8  14    1.85    0.36
   1  -7  15    0.11    0.22
   0  -6  16    0.02    0.20
  -1  -5  17    0.78    0.28
  -2  -4  18    7.84    0.60
   6 -10  11    2.53    0.40
   5  -9  12    3.30    0.45
   4  -8  13    0.61    0.27
   3  -7  14    4.54    0.50
   2  -6  15    0.71    0.26
   1  -5  16    0.84    0.27
   0  -4  17    2.51    0.41
  -1  -3  18    3.20    0.46
   7  -9  11    6.29    0.59
   6  -8  12    0.17    0.23
   5  -7  13    0.17    0.22
   4  -6  14    9.22    0.64
   3  -5  15    2.87    0.41
   2  -4  16   11.72    0.72
   1  -3  17    3.05    0.44
   0  -2  18    0.64    0.26
   9  -9  10    2.42    0.41
   8  -8  11    6.44    0.61
   7  -7  12    0.77    0.28
  -7   7 -12   -0.06    0.25
   6  -6  13    0.89    0.28
  -6   6 -13    1.14    0.35
   5  -5  14    6.58    0.61
  -5   5 -14    6.60    0.69
   4  -4  15   -0.13    0.19
  -4   4 -15    0.21    0.26
   3  -3  16    1.10    0.31
   2  -2  17    3.55    0.47
  10  -8  10   10.82    0.71
   9  -7  11    2.18    0.40
  -9   7 -11    2.97    0.48
   8  -6  12    0.16    0.21
  -8   6 -12    0.00    0.24
   7  -5  13    3.96    0.48
  -7   5 -13    2.99    0.49
   6  -4  14   34.72    1.35
  -6   4 -14   35.85    1.51
   5  -3  15    8.29    0.61
  -5   3 -15    8.39    0.69
   4  -2  16    9.25    0.65
   3  -1  17    0.15    0.22
  12  -8   9    1.85    0.38
  11  -7  10   19.33    0.96
  10  -6  11    4.08    0.50
   9  -5  12    0.86    0.29
   8  -4  13    9.68    0.64
   7  -3  14    0.15    0.21
   6  -2  15    5.71    0.58
  -6   2 -15    4.22    0.56
   5  -1  16   22.12    1.02
  13  -7   9    4.71    0.56
  12  -6  10   37.13    1.43
  11  -5  11    3.39    0.47
  10  -4  12    0.01    0.20
   9  -3  13    2.77    0.42
   8  -2  14    0.85    0.29
   7  -1  15    0.34    0.23
  13  -5  10    9.04    0.64
  12  -4  11    2.28    0.40
  11  -3  12    0.99    0.30
  10  -2  13    2.75    0.43
   9  -1  14    1.86    0.38
  13  -3  11    2.68    0.44
  12  -2  12    5.41    0.58
   3  -7  15    0.16    0.24
   2  -6  16   -0.01    0.20
   5  -7  14    0.10    0.23
   4  -6  15    0.22    0.22
   3  -5  16   -0.07    0.18
   7  -7  13    1.92    0.38
   6  -6  14   17.76    0.92
   5  -5  15   -0.13    0.17
   4  -4  16    0.12    0.22
   8  -6  13    6.35    0.62
   7  -5  14    7.83    0.61
   6  -4  15   11.88    0.75
   9  -5  13    1.23    0.32
   8  -4  14    5.77    0.59
   0   0   0    0.00    0.00
;
_shelx_hkl_checksum              19326
loop_
_space_group_symop_operation_xyz
'x, y, z'
'-x, y, -z+1/2'
'x+1/2, y+1/2, z'
'-x+1/2, y+1/2, -z+1/2'
'-x, -y, -z'
'x, -y, z-1/2'
'-x+1/2, -y+1/2, -z'
'x+1/2, -y+1/2, z-1/2'
loop_
_atom_site_label
_atom_site_type_symbol
_atom_site_fract_x
_atom_site_fract_y
_atom_site_fract_z
_atom_site_U_iso_or_equiv
_atom_site_adp_type
_atom_site_occupancy
_atom_site_site_symmetry_order
_atom_site_calc_flag
_atom_site_refinement_flags_posn
_atom_site_refinement_flags_adp
_atom_site_refinement_flags_occupancy
Mn1 Mn 0.5000 0.58410(3) 0.7500 0.02206(12) Uani 1 2 d S T P
Mn2 Mn 0.5000 0.5000 0.5000 0.02729(12) Uani 1 2 d S . P
O1 O 0.43141(8) 0.65632(14) 0.48794(10) 0.0356(3) Uani 1 1 d . . .
O2 O 0.48522(7) 0.71584(12) 0.64214(9) 0.0291(3) Uani 1 1 d . . .
O3 O 0.19181(10) 0.83633(18) 0.25660(10) 0.0542(5) Uani 1 1 d . . .
O4 O 0.12223(7) 0.93733(14) 0.31306(10) 0.0348(3) Uani 1 1 d . . .
N1 N 0.35457(12) 1.0065(2) 0.76461(14) 0.0537(6) Uani 1 1 d . . .
N2 N 0.49147(9) 0.44328(16) 0.63777(11) 0.0306(4) Uani 1 1 d . . .
N3 N 0.45116(10) 0.36155(17) 0.63117(12) 0.0356(4) Uani 1 1 d . . .
N4 N 0.41142(16) 0.2825(2) 0.6236(2) 0.0643(7) Uani 1 1 d . . .
C1 C 0.43370(10) 0.71986(16) 0.55664(12) 0.0244(4) Uani 1 1 d . . .
C2 C 0.24776(10) 0.88472(17) 0.42282(12) 0.0241(4) Uani 1 1 d . . .
C3 C 0.24460(11) 0.95008(19) 0.49708(13) 0.0307(4) Uani 1 1 d . . .
H3A H 0.2027 0.9980 0.4848 0.037 Uiso 1 1 calc R U .
C4 C 0.30377(12) 0.9448(2) 0.59043(14) 0.0368(5) Uani 1 1 d . . .
C5 C 0.36622(10) 0.87286(19) 0.60903(13) 0.0307(4) Uani 1 1 d . . .
H5A H 0.4059 0.8694 0.6711 0.037 Uiso 1 1 calc R U .
C6 C 0.36935(10) 0.80574(16) 0.53462(12) 0.0229(3) Uani 1 1 d . . .
C7 C 0.31041(10) 0.81300(17) 0.44177(12) 0.0244(4) Uani 1 1 d . . .
H7A H 0.3129 0.7694 0.3918 0.029 Uiso 1 1 calc R U .
C8 C 0.29110(17) 1.0139(4) 0.66616(17) 0.0803(13) Uani 1 1 d . . .
H8A H 0.2831 1.0959 0.6466 0.096 Uiso 1 1 calc R U .
H8B H 0.2449 0.9857 0.6686 0.096 Uiso 1 1 calc R U .
C9 C 0.35407(18) 0.9247(3) 0.8258(2) 0.0691(9) Uani 1 1 d . . .
H9A H 0.3150 0.8694 0.8055 0.083 Uiso 1 1 calc R U .
C10 C 0.41043(17) 0.9205(2) 0.9186(2) 0.0593(8) Uani 1 1 d . . .
H10A H 0.4089 0.8633 0.9611 0.071 Uiso 1 1 calc R U .
C11 C 0.46962(12) 1.00067(18) 0.94948(14) 0.0334(4) Uani 1 1 d . . .
C12 C 0.46931(18) 1.0823(3) 0.88355(18) 0.0605(8) Uani 1 1 d . . .
H12A H 0.5088 1.1367 0.9009 0.073 Uiso 1 1 calc R U .
C13 C 0.4104(2) 1.0839(3) 0.79118(19) 0.0683(9) Uani 1 1 d . . .
H13A H 0.4101 1.1405 0.7471 0.082 Uiso 1 1 calc R U .
C15 C 0.18211(10) 0.88562(18) 0.32264(13) 0.0274(4) Uani 1 1 d . . .
O5 O 0.60274(11) 0.60515(19) 0.57858(12) 0.0553(5) Uani 1 1 d D . .
H5B H 0.6261(19) 0.623(3) 0.6382(14) 0.083 Uiso 1 1 d D U .
H5C H 0.6285(19) 0.631(3) 0.549(2) 0.083 Uiso 1 1 d D U .
O6 O 0.33770(12) 0.6460(2) 0.27230(16) 0.0663(6) Uani 1 1 d D . .
H6A H 0.360(2) 0.608(3) 0.242(3) 0.099 Uiso 1 1 d D U .
H6B H 0.364(2) 0.645(4) 0.3344(13) 0.099 Uiso 1 1 d D U .
O7 O 0.2294(3) 0.7304(5) 0.0805(4) 0.0733(12) Uani 0.5 1 d D . P
H7B H 0.237(5) 0.747(9) 0.031(4) 0.110 Uiso 0.5 1 d D U P
H7C H 0.265(3) 0.700(8) 0.126(4) 0.110 Uiso 0.5 1 d D U P
loop_
_atom_site_aniso_label
_atom_site_aniso_U_11
_atom_site_aniso_U_22
_atom_site_aniso_U_33
_atom_site_aniso_U_23
_atom_site_aniso_U_13
_atom_site_aniso_U_12
Mn1 0.01677(18) 0.0318(2) 0.01354(18) 0.000 0.00277(14) 0.000
Mn2 0.0251(2) 0.0357(2) 0.0189(2) 0.00096(15) 0.00741(16) 0.00807(16)
O1 0.0370(7) 0.0429(8) 0.0217(6) 0.0001(6) 0.0077(6) 0.0170(6)
O2 0.0243(6) 0.0356(7) 0.0210(6) 0.0041(5) 0.0037(5) 0.0056(5)
O3 0.0477(9) 0.0837(13) 0.0174(7) -0.0038(8) 0.0013(6) 0.0291(9)
O4 0.0181(6) 0.0496(9) 0.0281(7) -0.0013(6) 0.0019(5) 0.0023(6)
N1 0.0430(11) 0.0751(16) 0.0248(9) -0.0198(10) -0.0024(8) 0.0280(11)
N2 0.0323(8) 0.0373(9) 0.0215(7) -0.0028(7) 0.0109(7) 0.0005(7)
N3 0.0404(9) 0.0393(10) 0.0274(8) -0.0026(7) 0.0149(7) 0.0029(8)
N4 0.0798(17) 0.0493(13) 0.0735(16) -0.0103(12) 0.0424(14) -0.0220(13)
C1 0.0237(8) 0.0294(9) 0.0195(8) 0.0039(7) 0.0086(7) 0.0031(7)
C2 0.0205(8) 0.0313(9) 0.0170(8) 0.0027(7) 0.0049(6) 0.0001(7)
C3 0.0222(8) 0.0423(11) 0.0214(8) -0.0014(8) 0.0037(7) 0.0087(8)
C4 0.0299(10) 0.0507(13) 0.0217(9) -0.0084(9) 0.0036(8) 0.0125(9)
C5 0.0232(8) 0.0427(11) 0.0172(8) -0.0033(7) 0.0002(7) 0.0068(8)
C6 0.0201(8) 0.0275(9) 0.0190(8) 0.0025(6) 0.0063(6) 0.0021(7)
C7 0.0229(8) 0.0311(10) 0.0174(8) 0.0009(7) 0.0073(6) 0.0019(7)
C8 0.0563(16) 0.132(3) 0.0240(11) -0.0273(15) -0.0097(11) 0.0588(19)
C9 0.0577(17) 0.069(2) 0.0466(16) -0.0209(14) -0.0091(13) -0.0062(15)
C10 0.0619(17) 0.0491(15) 0.0397(13) -0.0050(11) -0.0034(12) -0.0114(13)
C11 0.0323(10) 0.0391(11) 0.0229(9) -0.0067(8) 0.0065(8) 0.0071(8)
C12 0.0616(17) 0.076(2) 0.0319(12) 0.0066(12) 0.0092(12) -0.0164(15)
C13 0.081(2) 0.086(2) 0.0280(12) 0.0139(13) 0.0149(14) 0.0165(18)
C15 0.0224(8) 0.0347(10) 0.0194(8) 0.0031(7) 0.0037(7) 0.0020(7)
O5 0.0502(10) 0.0782(13) 0.0236(8) -0.0041(8) 0.0029(7) -0.0210(9)
O6 0.0546(11) 0.0846(15) 0.0537(11) -0.0146(11) 0.0178(9) 0.0206(11)
O7 0.062(3) 0.068(3) 0.094(4) -0.011(3) 0.037(3) 0.007(2)
loop_
_atom_type_symbol
_atom_type_description
_atom_type_scat_dispersion_real
_atom_type_scat_dispersion_imag
_atom_type_scat_source
C C 0.0033 0.0016 'International Tables Vol C Tables 4.2.6.8 and 6.1.1.4'
H H 0.0000 0.0000 'International Tables Vol C Tables 4.2.6.8 and 6.1.1.4'
N N 0.0061 0.0033 'International Tables Vol C Tables 4.2.6.8 and 6.1.1.4'
O O 0.0106 0.0060 'International Tables Vol C Tables 4.2.6.8 and 6.1.1.4'
Mn Mn 0.3368 0.7283 'International Tables Vol C Tables 4.2.6.8 and 6.1.1.4'
loop_
_geom_angle_atom_site_label_1
_geom_angle_atom_site_label_2
_geom_angle_atom_site_label_3
_geom_angle
_geom_angle_site_symmetry_1
_geom_angle_site_symmetry_3
O2 Mn1 O2 91.91(7) . 2_656
O2 Mn1 O4 88.85(5) . 7_566
O2 Mn1 O4 100.20(5) 2_656 7_566
O2 Mn1 O4 100.20(5) . 8_566
O2 Mn1 O4 88.85(5) 2_656 8_566
O4 Mn1 O4 167.04(9) 7_566 8_566
O2 Mn1 N2 88.22(6) . .
O2 Mn1 N2 176.80(5) 2_656 .
O4 Mn1 N2 83.00(6) 7_566 .
O4 Mn1 N2 87.99(6) 8_566 .
O2 Mn1 N2 176.80(5) . 2_656
O2 Mn1 N2 88.22(6) 2_656 2_656
O4 Mn1 N2 87.99(6) 7_566 2_656
O4 Mn1 N2 83.00(6) 8_566 2_656
N2 Mn1 N2 91.83(9) . 2_656
O1 Mn2 O1 180.0 5_666 .
O1 Mn2 O5 91.04(7) 5_666 .
O1 Mn2 O5 88.96(7) . .
O1 Mn2 O5 88.96(7) 5_666 5_666
O1 Mn2 O5 91.04(7) . 5_666
O5 Mn2 O5 180.0 . 5_666
O1 Mn2 N2 91.26(6) 5_666 5_666
O1 Mn2 N2 88.75(6) . 5_666
O5 Mn2 N2 86.50(6) . 5_666
O5 Mn2 N2 93.50(6) 5_666 5_666
O1 Mn2 N2 88.74(6) 5_666 .
O1 Mn2 N2 91.25(6) . .
O5 Mn2 N2 93.50(6) . .
O5 Mn2 N2 86.50(6) 5_666 .
N2 Mn2 N2 180.0 5_666 .
C1 O1 Mn2 126.63(12) . .
C1 O2 Mn1 127.17(13) . .
C15 O4 Mn1 141.86(14) . 7_566
C13 N1 C9 120.5(2) . .
C13 N1 C8 119.3(3) . .
C9 N1 C8 120.1(3) . .
N3 N2 Mn2 116.81(13) . .
N3 N2 Mn1 115.96(13) . .
Mn2 N2 Mn1 118.90(8) . .
N4 N3 N2 179.1(3) . .
O2 C1 O1 124.83(17) . .
O2 C1 C6 117.85(16) . .
O1 C1 C6 117.31(15) . .
C3 C2 C7 119.43(16) . .
C3 C2 C15 120.77(16) . .
C7 C2 C15 119.72(16) . .
C2 C3 C4 120.57(17) . .
C2 C3 H3A 119.7 . .
C4 C3 H3A 119.7 . .
C5 C4 C3 119.77(18) . .
C5 C4 C8 124.73(18) . .
C3 C4 C8 115.35(18) . .
C4 C5 C6 119.92(16) . .
C4 C5 H5A 120.0 . .
C6 C5 H5A 120.0 . .
C7 C6 C5 119.62(16) . .
C7 C6 C1 120.38(16) . .
C5 C6 C1 119.86(15) . .
C2 C7 C6 120.67(16) . .
C2 C7 H7A 119.7 . .
C6 C7 H7A 119.7 . .
N1 C8 C4 114.27(19) . .
N1 C8 H8A 108.7 . .
C4 C8 H8A 108.7 . .
N1 C8 H8B 108.7 . .
C4 C8 H8B 108.7 . .
H8A C8 H8B 107.6 . .
N1 C9 C10 120.7(3) . .
N1 C9 H9A 119.6 . .
C10 C9 H9A 119.6 . .
C9 C10 C11 120.5(3) . .
C9 C10 H10A 119.8 . .
C11 C10 H10A 119.8 . .
C12 C11 C10 117.2(2) . .
C12 C11 C11 121.5(3) . 5_677
C10 C11 C11 121.3(3) . 5_677
C11 C12 C13 120.0(3) . .
C11 C12 H12A 120.0 . .
C13 C12 H12A 120.0 . .
N1 C13 C12 121.0(3) . .
N1 C13 H13A 119.5 . .
C12 C13 H13A 119.5 . .
O3 C15 O4 125.27(17) . .
O3 C15 C2 117.61(16) . .
O4 C15 C2 117.11(16) . .
Mn2 O5 H5B 131(2) . .
Mn2 O5 H5C 120(2) . .
H5B O5 H5C 109(3) . .
H6A O6 H6B 112(3) . .
H7B O7 H7C 116(5) . .
loop_
_geom_bond_atom_site_label_1
_geom_bond_atom_site_label_2
_geom_bond_distance
_geom_bond_site_symmetry_2
Mn1 O2 2.1527(13) .
Mn1 O2 2.1528(13) 2_656
Mn1 O4 2.1584(13) 7_566
Mn1 O4 2.1584(13) 8_566
Mn1 N2 2.2996(16) .
Mn1 N2 2.2996(16) 2_656
Mn2 O1 2.1807(14) 5_666
Mn2 O1 2.1807(14) .
Mn2 O5 2.1880(17) .
Mn2 O5 2.1880(17) 5_666
Mn2 N2 2.2773(16) 5_666
Mn2 N2 2.2773(16) .
O1 C1 1.260(2) .
O2 C1 1.258(2) .
O3 C15 1.239(2) .
O4 C15 1.255(2) .
O4 Mn1 2.1584(13) 7_566
N1 C13 1.317(4) .
N1 C9 1.322(5) .
N1 C8 1.480(3) .
N2 N3 1.191(3) .
N3 N4 1.157(3) .
C1 C6 1.506(2) .
C2 C3 1.380(3) .
C2 C7 1.388(2) .
C2 C15 1.512(2) .
C3 C4 1.395(3) .
C3 H3A 0.9300 .
C4 C5 1.388(3) .
C4 C8 1.505(3) .
C5 C6 1.393(3) .
C5 H5A 0.9300 .
C6 C7 1.389(2) .
C7 H7A 0.9300 .
C8 H8A 0.9700 .
C8 H8B 0.9700 .
C9 C10 1.368(4) .
C9 H9A 0.9300 .
C10 C11 1.381(4) .
C10 H10A 0.9300 .
C11 C12 1.368(4) .
C11 C11 1.485(4) 5_677
C12 C13 1.382(4) .
C12 H12A 0.9300 .
C13 H13A 0.9300 .
O5 H5B 0.848(18) .
O5 H5C 0.859(18) .
O6 H6A 0.877(18) .
O6 H6B 0.863(18) .
O7 H7B 0.85(2) .
O7 H7C 0.81(2) .
loop_
_geom_hbond_atom_site_label_D
_geom_hbond_atom_site_label_H
_geom_hbond_atom_site_label_A
_geom_hbond_distance_DH
_geom_hbond_distance_HA
_geom_hbond_distance_DA
_geom_hbond_angle_DHA
_geom_hbond_site_symmetry_A
C8 H8A O7 0.97 2.26 3.199(6) 163.5 6_576
C8 H8B O6 0.97 2.63 3.537(5) 156.5 7_566
C9 H9A O3 0.93 2.51 3.195(4) 131.1 7_566
C9 H9A O7 0.93 2.52 3.133(7) 123.2 7_566
C12 H12A N4 0.93 2.41 3.285(4) 157.0 2_666
C13 H13A N4 0.93 2.49 3.422(4) 176.5 1_565
O5 H5B O3 0.848(18) 1.77(2) 2.603(2) 168(3) 8_566
O5 H5C O7 0.859(18) 2.40(3) 3.082(5) 137(3) 8_566
O6 H6A O4 0.877(18) 2.20(3) 2.969(3) 146(4) 4_545
O6 H6B O1 0.863(18) 2.141(19) 3.002(2) 176(4) .
O7 H7B O7 0.85(2) 2.09(3) 2.934(11) 171(8) 7_565
O7 H7C O6 0.81(2) 2.16(3) 2.936(6) 160(8) .
