#------------------------------------------------------------------------------
#$Date: 2019-10-28 05:08:21 +0200 (Mon, 28 Oct 2019) $
#$Revision: 219661 $
#$URL: file:///home/coder/svn-repositories/cod/cif/4/51/44/4514472.cif $
#------------------------------------------------------------------------------
#
# This file is available in the Crystallography Open Database (COD),
# http://www.crystallography.net/
#
# All data on this site have been placed in the public domain by the
# contributors.
#
data_4514472
loop_
_publ_author_name
'Mi, Xiuna'
'Sheng, Dafei'
'Yu, Yu'e'
'Wang, Yuhao'
'Zhao, Limin'
'Lu, Jing'
'Li, Yunwu'
'Li, Dacheng'
'Dou, Jianmin'
'Duan, Jingui'
'Wang, Suna'
_publ_section_title
;
 Tunable Light Emission and Multiresponsive Luminescent Sensitivities in
 Aqueous Solutions of Two Series of Lanthanide Metal-Organic Frameworks
 Based on Structurally Related Ligands.
;
_journal_issue                   8
_journal_name_full               'ACS applied materials &amp; interfaces'
_journal_page_first              7914
_journal_page_last               7926
_journal_paper_doi               10.1021/acsami.8b18320
_journal_volume                  11
_journal_year                    2019
_chemical_formula_sum            'C19 H18 Gd N O9'
_chemical_formula_weight         561.59
_space_group_crystal_system      monoclinic
_space_group_IT_number           15
_space_group_name_Hall           '-C 2yc'
_space_group_name_H-M_alt        'C 1 2/c 1'
_symmetry_space_group_name_Hall  '-C 2yc'
_symmetry_space_group_name_H-M   'C 1 2/c 1'
_atom_sites_solution_hydrogens   mixed
_audit_creation_method           SHELXL-2014/7
_cell_angle_alpha                90
_cell_angle_beta                 124.998(2)
_cell_angle_gamma                90
_cell_formula_units_Z            8
_cell_length_a                   24.491(5)
_cell_length_b                   13.580(3)
_cell_length_c                   14.922(3)
_cell_measurement_reflns_used    4563
_cell_measurement_temperature    298(2)
_cell_measurement_theta_max      28.1995
_cell_measurement_theta_min      2.8335
_cell_volume                     4065.4(15)
_computing_cell_refinement       'Bruker SMART'
_computing_data_collection       'Bruker SMART'
_computing_data_reduction        'Bruker SAINT'
_computing_molecular_graphics    'Bruker SHELXTL'
_computing_publication_material  'Bruker SHELXTL'
_computing_structure_refinement  'SHELXL-2014/7 (Sheldrick, 2014)'
_computing_structure_solution    'SHELXL-2014/7 (Sheldrick, 2014)'
_diffrn_ambient_temperature      298(2)
_diffrn_measured_fraction_theta_full 0.994
_diffrn_measured_fraction_theta_max 0.994
_diffrn_measurement_device_type  'CCD area detector'
_diffrn_measurement_method       'phi and omega scans'
_diffrn_radiation_type           MoK\a
_diffrn_radiation_wavelength     0.71073
_diffrn_reflns_av_R_equivalents  0.0343
_diffrn_reflns_av_unetI/netI     0.0405
_diffrn_reflns_Laue_measured_fraction_full 0.994
_diffrn_reflns_Laue_measured_fraction_max 0.994
_diffrn_reflns_limit_h_max       29
_diffrn_reflns_limit_h_min       -29
_diffrn_reflns_limit_k_max       11
_diffrn_reflns_limit_k_min       -16
_diffrn_reflns_limit_l_max       17
_diffrn_reflns_limit_l_min       -16
_diffrn_reflns_number            10022
_diffrn_reflns_point_group_measured_fraction_full 0.994
_diffrn_reflns_point_group_measured_fraction_max 0.994
_diffrn_reflns_theta_full        25.017
_diffrn_reflns_theta_max         25.017
_diffrn_reflns_theta_min         2.733
_exptl_absorpt_coefficient_mu    3.314
_exptl_absorpt_correction_T_max  0.6363
_exptl_absorpt_correction_T_min  0.4913
_exptl_absorpt_correction_type   multi-scan
_exptl_absorpt_process_details   sadabs
_exptl_crystal_colour            colorless
_exptl_crystal_density_diffrn    1.835
_exptl_crystal_description       'needle crystal'
_exptl_crystal_F_000             2200
_exptl_crystal_size_max          0.250
_exptl_crystal_size_mid          0.200
_exptl_crystal_size_min          0.150
_refine_diff_density_max         1.729
_refine_diff_density_min         -1.421
_refine_diff_density_rms         0.174
_refine_ls_extinction_method     none
_refine_ls_goodness_of_fit_ref   1.076
_refine_ls_hydrogen_treatment    constr
_refine_ls_matrix_type           full
_refine_ls_number_parameters     295
_refine_ls_number_reflns         3566
_refine_ls_number_restraints     112
_refine_ls_restrained_S_all      1.141
_refine_ls_R_factor_all          0.0567
_refine_ls_R_factor_gt           0.0401
_refine_ls_shift/su_max          0.005
_refine_ls_shift/su_mean         0.000
_refine_ls_structure_factor_coef Fsqd
_refine_ls_weighting_details
'w=1/[\s^2^(Fo^2^)+(0.0513P)^2^+62.9282P] where P=(Fo^2^+2Fc^2^)/3'
_refine_ls_weighting_scheme      calc
_refine_ls_wR_factor_gt          0.1043
_refine_ls_wR_factor_ref         0.1149
_reflns_Friedel_coverage         0.000
_reflns_number_gt                2803
_reflns_number_total             3566
_reflns_threshold_expression     'I > 2\s(I)'
_cod_data_source_file            am8b18320_si_007.cif
_cod_data_source_block           170318c
_cod_original_cell_volume        4065.7(14)
_cod_database_code               4514472
_shelx_shelxl_version_number     2014/7
_shelx_space_group_comment
;
The symmetry employed for this shelxl refinement is uniquely defined
by the following loop, which should always be used as a source of
symmetry information in preference to the above space-group names.
They are only intended as comments.
;
_shelx_estimated_absorpt_t_min   0.491
_shelx_estimated_absorpt_t_max   0.636
_shelx_res_file
;

    170318c.res created by SHELXL-2014/7

TITL 170318c in C2/c
CELL 0.71073  24.4909  13.5805  14.9225  90.000 124.998  90.000
ZERR    8.00   0.0047   0.0026   0.0029   0.000   0.002   0.000
LATT 7
SYMM -X, Y, 0.5-Z
SFAC C  H  N  O  Gd
UNIT 152 144 8 72 8
OMIT  -1.00  50.04
L.S. 16
ACTA
BOND
FMAP 2
PLAN 20
dfix 2.13 0.02 o9' n1'
dfix 2.49 0.02 c18' c19'
dfix 2.45 0.02 c17' c18' c17' c19'
dfix 1.47 0.01 n1' c18' n1' c19'
dfix 1.33 0.01 n1' c17'
dfix 1.24 0.01 o9' c17'
dfix 2.13 0.02 o9 n1
dfix 2.49 0.02 c18 c19
dfix 2.45 0.02 c17 c18 c171 c19
dfix 1.47 0.01 n1 c18 n1 c19
dfix 1.33 0.01 n1 c17
dfix 1.24 0.01 o9 c17
EADP C19 C19'
EADP C18 C18'
EADP C17 C17'
EADP N1 N1'
EADP O9 O9'
SIMU 0.005 0.01 3.8 GD1 O8 O9 N1 C17 C18 C19
ISOR 0.005 O8 O2
eadp o2 o2'
DFIX 2.90 0.01 GD1 H8B
SIZE 0.25 0.20 0.15
FREE Gd1  C8
TEMP 25
WGHT    0.051300   62.928200
FVAR       0.18891   0.46421   0.59091
GD1   5    0.161528    0.307214    0.401595    11.00000    0.02181    0.02110 =
         0.01521    0.00085    0.00883   -0.00065
PART 1
N1    3    0.106311    0.609956    0.255599    21.00000    0.06419    0.04958 =
         0.04996    0.00954   -0.00300   -0.00029
PART 2
N1'   3    0.093958    0.591403    0.212334   -21.00000    0.06419    0.04958 =
         0.04996    0.00954   -0.00300   -0.00029
PART 0
O1    4    0.103083    0.263964    0.222370    11.00000    0.03603    0.06842 =
         0.01408   -0.01350    0.00160    0.00267
PART 1
O2    4    0.009030    0.272621    0.054754    31.00000    0.03776    0.06502 =
         0.03296   -0.01570    0.01176    0.01141
PART 2
O2'   4    0.008388    0.226586    0.077860   -31.00000    0.03776    0.06502 =
         0.03296   -0.01570    0.01176    0.01141
PART 0
O3    4    0.017578    0.103372   -0.041920    11.00000    0.02354    0.05951 =
         0.03338   -0.02380    0.01783   -0.01611
O4    4    0.276546    0.333244    0.583737    11.00000    0.02436    0.02190 =
         0.01767   -0.00808    0.00985   -0.00261
O5    4    0.193095    0.421693    0.551323    11.00000    0.01946    0.04329 =
         0.03230   -0.02200    0.00375    0.00219
O6    4    0.162208    0.198594    0.524719    11.00000    0.02425    0.03561 =
         0.03054    0.02047    0.01595    0.00578
O7    4    0.262758    0.129269    0.633097    11.00000    0.01906    0.03714 =
         0.02373    0.00977    0.01048   -0.00176
O8    4    0.052566    0.328807    0.365303    11.00000    0.04319    0.09732 =
         0.05411    0.03236    0.01877    0.00058
AFIX   3
H8B   2    0.051916    0.302757    0.416482    11.00000   -1.50000
H8C   2    0.044156    0.389957    0.361782    11.00000   -1.50000
PART 1
AFIX   0
O9    4    0.126892    0.468517    0.335959    21.00000    0.04752    0.04137 =
         0.03605    0.01029    0.00895    0.00455
PART 2
O9'   4    0.109521    0.457818    0.304294   -21.00000    0.04752    0.04137 =
         0.03605    0.01029    0.00895    0.00455
PART 0
C1    1    0.070141    0.245359    0.125131    11.00000    0.03036    0.03725 =
         0.02460   -0.00556    0.01044    0.00316
C2    1    0.106048    0.208990    0.075918    11.00000    0.02880    0.03229 =
         0.02267   -0.00413    0.01089   -0.00577
C3    1    0.078825    0.138544   -0.007236    11.00000    0.02061    0.04399 =
         0.02048   -0.00289    0.00842   -0.00445
C4    1    0.114687    0.104664   -0.046311    11.00000    0.02974    0.06005 =
         0.03839   -0.01861    0.02114   -0.01206
AFIX  43
H4    2    0.096755    0.056825   -0.100706    11.00000   -1.20000
AFIX   0
C5    1    0.177345    0.142466   -0.003878    11.00000    0.04065    0.10097 =
         0.05728   -0.02646    0.03560   -0.02144
AFIX  43
H5    2    0.201716    0.118567   -0.029284    11.00000   -1.20000
AFIX   0
C6    1    0.204557    0.214454    0.074882    11.00000    0.03878    0.11442 =
         0.05521   -0.02692    0.03090   -0.04015
AFIX  43
H6    2    0.245829    0.241890    0.100245    11.00000   -1.20000
AFIX   0
C7    1    0.168961    0.244896    0.115281    11.00000    0.04482    0.05992 =
         0.03894   -0.01501    0.02043   -0.02152
AFIX  43
H7    2    0.187903    0.291361    0.171156    11.00000   -1.20000
AFIX   0
C8    1    0.253555    0.403699    0.608209    11.00000    0.02804    0.01908 =
         0.01845   -0.00696    0.01504   -0.00487
C9    1    0.203332    0.141690    0.599828    11.00000    0.03204    0.02252 =
         0.02178    0.00565    0.01556   -0.00008
C10   1    0.301099    0.467393    0.704275    11.00000    0.02142    0.01817 =
         0.01378   -0.00558    0.00658   -0.00125
C11   1    0.277384    0.523455    0.754034    11.00000    0.01390    0.02389 =
         0.01460   -0.00677    0.00276    0.00033
AFIX  43
H11   2    0.232641    0.520649    0.728011    11.00000   -1.20000
AFIX   0
C12   1    0.321206    0.583261    0.842532    11.00000    0.02272    0.01913 =
         0.01956   -0.00360    0.01319    0.00541
C13   1    0.387284    0.590149    0.878397    11.00000    0.02512    0.02088 =
         0.01546   -0.00399    0.00961   -0.00425
AFIX  43
H13   2    0.416009    0.631630    0.936541    11.00000   -1.20000
AFIX   0
C14   1    0.411216    0.536239    0.829021    11.00000    0.01677    0.02203 =
         0.01691   -0.00288    0.00739   -0.00232
C15   1    0.367142    0.473252    0.742457    11.00000    0.02356    0.01908 =
         0.01814   -0.00635    0.01325    0.00003
AFIX  43
H15   2    0.382874    0.434730    0.710281    11.00000   -1.20000
AFIX   0
C16   1   -0.017542    0.042173   -0.134930    11.00000    0.02122    0.04116 =
         0.02877   -0.01534    0.01460   -0.00847
AFIX  23
H16A  2    0.002191   -0.023026   -0.117286    11.00000   -1.20000
H16B  2   -0.015579    0.069220   -0.193187    11.00000   -1.20000
PART 1
AFIX   0
C17   1    0.120104    0.515314    0.259946    21.00000    0.05410    0.04506 =
         0.04174    0.00543    0.00158    0.00328
AFIX  43
H17   2    0.124432    0.485778    0.208094    21.00000   -1.20000
AFIX   0
C18   1    0.068241    0.648408    0.295543    21.00000    0.08014    0.06828 =
         0.07314    0.01318   -0.00637    0.00171
AFIX 137
H18A  2    0.021644    0.648458    0.237053    21.00000   -1.50000
H18B  2    0.082424    0.714431    0.321732    21.00000   -1.50000
H18C  2    0.075643    0.607599    0.354089    21.00000   -1.50000
AFIX   0
C19   1    0.121763    0.674580    0.194236    21.00000    0.07410    0.06869 =
         0.06670    0.01577   -0.00203    0.00489
AFIX 137
H19A  2    0.164817    0.657946    0.211121    21.00000   -1.50000
H19B  2    0.121946    0.741856    0.214157    21.00000   -1.50000
H19C  2    0.088644    0.666254    0.117249    21.00000   -1.50000
PART 2
AFIX   0
C17'  1    0.124765    0.545403    0.308845   -21.00000    0.05410    0.04506 =
         0.04174    0.00543    0.00158    0.00328
AFIX  43
H17'  2    0.155417    0.576953    0.374596   -21.00000   -1.20000
AFIX   0
C18'  1    0.086988    0.699180    0.204292   -21.00000    0.08014    0.06828 =
         0.07314    0.01318   -0.00637    0.00171
AFIX 137
H18D  2    0.112964    0.725716    0.180412   -21.00000   -1.50000
H18E  2    0.102480    0.725965    0.274648   -21.00000   -1.50000
H18F  2    0.040972    0.716219    0.152566   -21.00000   -1.50000
AFIX   0
C19'  1    0.068338    0.535796    0.111681   -21.00000    0.07410    0.06869 =
         0.06670    0.01577   -0.00203    0.00489
AFIX 137
H19D  2    0.072108    0.574967    0.061919   -21.00000   -1.50000
H19E  2    0.022379    0.519556    0.078539   -21.00000   -1.50000
H19F  2    0.093710    0.476363    0.128516   -21.00000   -1.50000
PART 0
AFIX   0
HKLF 4

REM  170318c in C2/c
REM R1 =  0.0401 for    2803 Fo > 4sig(Fo)  and  0.0567 for all    3566 data
REM    295 parameters refined using    112 restraints

END

WGHT      0.0502     63.3965

REM Highest difference peak  1.729,  deepest hole -1.421,  1-sigma level  0.174
Q1    1  -0.0719  0.5379  0.0204  11.00000  0.05    1.73
Q2    1   0.0629  0.1817  0.3321  11.00000  0.05    1.64
Q3    1   0.0170  0.1924  0.2976  11.00000  0.05    1.34
Q4    1   0.0520  0.2624  0.3373  11.00000  0.05    1.31
Q5    1   0.3397  0.4225  0.6011  11.00000  0.05    1.12
Q6    1   0.2469  0.3255  0.5416  11.00000  0.05    0.86
Q7    1   0.1299  0.3029  0.3194  11.00000  0.05    0.74
Q8    1   0.1134  0.3034  0.3590  11.00000  0.05    0.70
Q9    1   0.0134  0.5578  0.1167  11.00000  0.05    0.63
Q10   1   0.0120  0.0005 -0.1487  11.00000  0.05    0.59
Q11   1   0.1215  0.5832  0.2162  11.00000  0.05    0.59
Q12   1   0.0294  0.3176  0.0570  11.00000  0.05    0.58
Q13   1   0.0980  0.6243  0.1408  11.00000  0.05    0.57
Q14   1   0.0007  0.1375 -0.0890  11.00000  0.05    0.56
Q15   1   0.3012  0.3379  0.5857  11.00000  0.05    0.56
Q16   1   0.2057  0.2968  0.4677  11.00000  0.05    0.56
Q17   1   0.3065  0.5452  0.8082  11.00000  0.05    0.55
Q18   1   0.2859  0.4257  0.6817  11.00000  0.05    0.55
Q19   1   0.0624  0.6068  0.2410  11.00000  0.05    0.54
Q20   1   0.0943  0.4434  0.3238  11.00000  0.05    0.53
;
_shelx_res_checksum              66028
_shelx_hkl_file
;
  -4   0   0 5022.97   83.70
   4   0   0 5023.97   82.72
   6   0   0 3546.63   68.88
  -6   0   0 3397.50   66.36
   8   0   0   97.73   13.46
  10   0   0  207.85   18.85
  12   0   0 3733.39   91.55
  14   0   0  123.92   21.64
  16   0   0 1220.50   56.06
  18   0   0 1554.49   67.88
  20   0   0   20.84   19.19
  22   0   0  990.08   61.34
  24   0   0  304.43   45.46
  26   0   0   24.58   28.64
  25  -1   0   57.35   30.96
  23  -1   0   24.36   24.33
  21  -1   0   -6.16   16.92
  19  -1   0  189.60   31.25
  17  -1   0   14.49   17.11
  15  -1   0  211.49   27.72
  13  -1   0  120.33   21.28
  11  -1   0   25.80   11.30
   9  -1   0 1422.46   45.47
   7  -1   0  215.04   15.88
   5  -1   0  518.67   19.76
   3  -1   0  304.78   11.88
  -3  -1   0  327.59   11.91
  -3  -1   0  320.02   11.52
   5   1   0  585.60   21.27
  -5  -1   0  500.06   18.20
   7   1   0  223.32   15.78
  -7  -1   0  217.31   13.74
  -9  -1   0 1342.81   40.94
   9   1   0 1449.32   45.24
  11   1   0    3.41    8.43
 -11  -1   0   14.48    8.13
  13   1   0  100.72   18.77
  15   1   0  196.82   26.72
  17   1   0   34.83   17.79
  19   1   0  168.92   29.57
  21   1   0   -8.04   15.61
  23   1   0  -34.08   20.55
  25   1   0   78.20   32.90
  26  -2   0    6.47   27.05
  24  -2   0  210.20   41.54
  22  -2   0  592.77   50.00
  20  -2   0   66.37   24.93
  18  -2   0 1366.96   64.62
  16  -2   0 1170.74   55.72
  14  -2   0    1.48   12.24
  12  -2   0 2874.20   78.06
  10  -2   0 2101.98   59.61
   8  -2   0  877.07   32.87
   6  -2   0 4052.25   77.18
   4  -2   0 1265.96   31.23
   2  -2   0  542.84   15.90
   0  -2   0 4597.72   70.45
   0  -2   0 4653.00   75.81
  -2  -2   0  524.47   15.56
  -2  -2   0  531.19   15.10
  -4  -2   0 1230.09   30.37
  -4  -2   0 1243.28   30.06
  -6  -2   0 3995.88   75.74
  -6  -2   0 3904.63   74.21
  -8  -2   0  858.57   29.99
   8   2   0  768.90   30.95
  10   2   0 2147.12   60.46
 -10  -2   0 2115.46   56.61
  12   2   0 2935.85   77.62
 -12  -2   0 2849.65   73.50
 -14  -2   0   -4.86    7.87
  14   2   0   -4.98   10.04
  16   2   0 1294.38   56.57
  18   2   0 1366.67   61.93
  20   2   0   40.82   21.29
  22   2   0  567.99   46.56
  24   2   0  168.35   35.82
  26   2   0    7.22   26.22
  25  -3   0  321.26   50.95
  23  -3   0   17.72   24.25
  21  -3   0  176.57   35.44
  19  -3   0  681.44   48.42
  17  -3   0    0.57   17.12
  15  -3   0 1248.67   56.66
  13  -3   0 1439.53   55.97
  11  -3   0    2.80   10.02
   9  -3   0 3209.61   75.28
   7  -3   0 2000.50   50.83
   5  -3   0  381.13   18.72
   3  -3   0 2250.27   45.48
   3  -3   0 2290.81   45.80
   1  -3   0 1463.71   30.99
   1  -3   0 1515.10   33.64
  -1  -3   0 1436.86   30.24
  -1  -3   0 1461.43   32.78
  -3  -3   0 2192.43   45.89
  -3  -3   0 2204.87   43.62
  -5  -3   0  406.87   18.05
  -5  -3   0  418.68   18.29
  -7  -3   0 1970.69   49.09
  -7  -3   0 1987.68   49.25
  -9  -3   0 3066.29   71.51
  -9  -3   0 3113.95   71.33
  11   3   0   -4.56    7.08
 -11  -3   0    5.07    7.54
 -13  -3   0 1413.82   50.38
  13   3   0 1368.16   52.33
 -15  -3   0 1294.10   51.60
  15   3   0 1251.69   53.70
  17   3   0   -7.27   11.95
 -17  -3   0   -0.56   12.53
  19   3   0  576.55   42.27
  21   3   0  210.32   36.25
  23   3   0   21.17   21.70
  25   3   0  325.09   47.11
  24  -4   0   19.34   25.51
  22  -4   0   -6.16   21.20
  20  -4   0    0.51   19.90
  18  -4   0   41.81   22.43
  16  -4   0   79.14   22.56
  14  -4   0   48.80   18.37
  12  -4   0   22.15   13.48
  10  -4   0    3.32    9.42
   8  -4   0  -10.19    7.43
   6  -4   0  375.11   20.16
   4  -4   0  890.57   27.99
   4  -4   0  864.87   26.55
   2  -4   0  183.65   11.41
   2  -4   0  181.34   11.87
   0  -4   0  141.91   10.23
   0  -4   0  136.56    9.67
  -2  -4   0  184.42   11.22
  -2  -4   0  171.20   11.22
  -4  -4   0  830.94   25.86
  -4  -4   0  818.44   27.00
  -6  -4   0  375.53   19.38
  -6  -4   0  405.70   19.88
  -8  -4   0   -8.09    5.55
  -8  -4   0    7.33    6.68
 -10  -4   0    4.86    7.38
 -10  -4   0   -7.85    7.35
 -12  -4   0   19.47   10.16
  12   4   0   19.28   11.77
 -14  -4   0   51.63   14.68
  14   4   0   21.02   14.15
 -16  -4   0   65.00   17.75
  16   4   0   46.72   17.91
 -18  -4   0   37.69   16.70
  18   4   0   77.27   21.84
  20   4   0  -15.80   13.74
  22   4   0  -10.33   18.92
  24   4   0    8.55   21.94
  26   4   0  -22.73   20.42
  25  -5   0  419.72   56.11
  23  -5   0   41.00   30.19
  21  -5   0  662.59   51.37
  19  -5   0  765.07   51.30
  17  -5   0   -1.38   15.86
  15  -5   0 1353.08   58.63
  13  -5   0  937.55   44.97
  11  -5   0  139.24   21.83
   9  -5   0 3165.29   76.10
   7  -5   0 3442.95   75.36
   5  -5   0   67.26   12.30
   5  -5   0   61.49   10.24
   3  -5   0 2910.40   62.91
   3  -5   0 2966.64   59.82
   1  -5   0 2462.77   54.89
   1  -5   0 2416.24   50.29
  -1  -5   0 2382.49   53.49
  -1  -5   0 2323.99   48.96
  -3  -5   0 2740.22   60.70
  -3  -5   0 2783.42   56.64
  -5  -5   0   71.83   11.12
  -5  -5   0   66.74   10.77
  -7  -5   0 3279.08   70.85
  -7  -5   0 3256.82   73.91
  -9  -5   0 3124.54   75.28
  -9  -5   0 3126.11   73.26
 -11  -5   0  111.47   17.12
 -11  -5   0  161.13   20.83
 -13  -5   0  857.19   40.12
 -15  -5   0 1432.82   56.60
  15   5   0 1327.51   56.00
 -17  -5   0   13.81   14.78
  17   5   0    6.25   13.38
 -19  -5   0  780.31   46.62
  19   5   0  745.34   47.42
  21   5   0  585.32   44.76
 -21  -5   0  690.57   47.08
  23   5   0   38.87   23.49
  25   5   0  376.88   49.92
  24  -6   0  146.28   40.67
  22  -6   0  108.39   33.90
  20  -6   0  -20.29   16.60
  18  -6   0  377.96   42.05
  16  -6   0  754.95   45.89
  14  -6   0  130.96   24.54
  12  -6   0  269.05   25.27
  10  -6   0 1231.56   46.55
   8  -6   0  139.33   18.32
   8  -6   0  125.60   16.21
   6  -6   0  768.34   30.08
   6  -6   0  807.17   31.83
   4  -6   0  269.89   17.46
   4  -6   0  267.16   17.48
   2  -6   0  853.05   31.03
   2  -6   0  880.13   28.99
   0  -6   0  657.44   24.33
   0  -6   0  656.74   26.35
  -2  -6   0  802.20   30.07
  -2  -6   0  878.24   28.75
  -4  -6   0  243.51   17.12
  -4  -6   0  220.09   15.62
  -6  -6   0  855.30   31.34
  -6  -6   0  713.16   30.49
  -8  -6   0  161.43   18.73
  -8  -6   0   88.90   14.63
 -10  -6   0 1222.46   44.15
 -10  -6   0 1233.61   45.45
 -12  -6   0  245.78   22.27
 -12  -6   0  253.96   22.87
 -14  -6   0  143.21   22.41
 -16  -6   0  640.19   39.45
  16   6   0  640.57   40.89
  18   6   0  269.20   33.67
 -18  -6   0  321.87   31.20
  20   6   0  -15.04   17.28
 -20  -6   0   -3.99   15.43
  22   6   0   70.02   26.99
 -22  -6   0   59.03   23.39
  24   6   0   51.84   31.09
  23  -7   0   -2.03   22.92
  21  -7   0  114.22   33.26
  19  -7   0  256.65   40.21
  17  -7   0    7.30   18.42
  15  -7   0  230.93   31.96
  13  -7   0  418.74   33.16
  11  -7   0   68.95   17.70
   9  -7   0  677.70   32.03
   9  -7   0  699.95   34.93
   7  -7   0  151.14   17.95
   7  -7   0  165.68   19.20
   5  -7   0  297.85   19.61
   5  -7   0  288.34   20.58
   3  -7   0 1686.09   45.64
   3  -7   0 1623.19   48.50
   1  -7   0  406.49   20.56
   1  -7   0  431.80   22.94
  -1  -7   0  364.92   19.97
  -1  -7   0  438.31   23.15
  -3  -7   0 1546.17   43.57
  -3  -7   0 1620.82   47.55
  -5  -7   0  281.74   19.78
  -5  -7   0  292.87   18.74
  -7  -7   0  150.68   18.15
  -7  -7   0  146.05   17.88
  -9  -7   0  650.70   32.98
  -9  -7   0  695.86   32.66
 -11  -7   0   51.49   14.25
 -11  -7   0   85.14   17.04
 -13  -7   0  424.42   30.36
 -13  -7   0  417.37   29.74
 -15  -7   0  127.75   22.47
 -17  -7   0   32.21   17.62
  17   7   0   20.58   17.68
 -19  -7   0  177.81   29.60
  19   7   0  209.36   32.35
  21   7   0   96.95   28.36
 -21  -7   0  106.58   26.35
  23   7   0  -26.35   19.06
 -23  -7   0   -8.29   18.68
  22  -8   0  538.34   59.17
  20  -8   0    9.41   21.45
  18  -8   0  723.71   49.44
  16  -8   0 1092.22   56.43
  14  -8   0   40.06   18.95
  12  -8   0 1070.47   49.38
  12  -8   0 1204.60   48.76
  10  -8   0 1228.93   48.84
  10  -8   0 1290.74   48.27
   8  -8   0  280.01   22.07
   8  -8   0  258.79   22.76
   6  -8   0 3899.85   85.81
   6  -8   0 3842.35   89.82
   4  -8   0 1635.51   51.91
   4  -8   0 1699.94   48.89
   2  -8   0  807.10   34.10
   2  -8   0  819.67   32.02
   0  -8   0 2923.46   72.75
   0  -8   0 3022.44   67.70
  -2  -8   0  717.53   32.03
  -2  -8   0  699.77   29.35
  -4  -8   0 1666.54   51.69
  -4  -8   0 1634.36   47.70
  -6  -8   0 3712.17   81.68
  -6  -8   0 3656.99   87.25
  -8  -8   0  243.33   21.31
  -8  -8   0  285.44   21.31
 -10  -8   0 1220.19   48.55
 -10  -8   0 1159.55   45.05
 -12  -8   0 1052.03   47.13
 -12  -8   0 1106.24   47.01
 -14  -8   0   30.77   16.18
 -14  -8   0   -0.07   12.42
 -16  -8   0  998.85   51.57
 -18  -8   0  622.62   43.50
  18   8   0  709.51   46.90
  20   8   0   10.63   18.57
 -20  -8   0    6.29   17.28
 -22  -8   0  478.85   43.20
  22   8   0  480.22   43.13
  23  -9   0   15.91   29.44
  21  -9   0  -26.56   20.31
  19  -9   0   15.13   20.13
  17  -9   0  -19.84   16.21
  17  -9   0   -8.35   13.88
  15  -9   0   -6.54   17.18
  15  -9   0  -17.57   11.21
  13  -9   0   -0.32   14.49
  13  -9   0   -2.07   13.49
  11  -9   0   11.29   12.22
  11  -9   0   14.74   14.38
   9  -9   0   29.92   14.45
   9  -9   0   58.48   16.31
   7  -9   0  108.11   18.29
   7  -9   0   47.46   14.07
   5  -9   0   -2.03    9.09
   5  -9   0   -8.37    8.06
   3  -9   0   45.55   12.02
   3  -9   0   29.26   11.02
   1  -9   0   26.77   10.21
   1  -9   0   39.42   12.79
  -1  -9   0   43.57   12.61
  -1  -9   0   54.64   12.51
  -3  -9   0   29.96   11.44
  -3  -9   0   20.25   10.97
  -5  -9   0  -15.69    7.11
  -5  -9   0   -7.36    7.83
  -7  -9   0   49.43   14.19
  -7  -9   0   79.98   16.41
  -9  -9   0   33.66   14.19
  -9  -9   0   13.83   11.66
 -11  -9   0    8.50   11.71
 -11  -9   0   -3.94   10.05
 -13  -9   0    7.36   12.99
 -13  -9   0   10.30   13.53
 -15  -9   0   -2.55   12.60
 -15  -9   0   -6.89   11.07
 -17  -9   0   -2.84   13.98
  17   9   0    8.38   18.28
 -19  -9   0   -0.45   16.70
  19   9   0   33.24   21.23
 -21  -9   0   19.39   20.92
  21   9   0   -1.75   18.81
  23   9   0  -12.95   24.69
 -23  -9   0    5.46   22.54
  22 -10   0  513.58   58.13
  20 -10   0    2.24   19.31
  20 -10   0    9.96   21.50
  18 -10   0  626.54   43.22
  18 -10   0  572.80   45.12
  16 -10   0  536.64   39.25
  16 -10   0  539.98   41.56
  14 -10   0  106.20   25.07
  14 -10   0   93.29   22.36
  12 -10   0 1114.22   50.47
  12 -10   0 1032.74   49.08
  10 -10   0  940.10   44.88
  10 -10   0 1004.37   47.36
   8 -10   0   -1.47   10.82
   8 -10   0   11.31   12.74
   6 -10   0 2022.47   61.59
   6 -10   0 2100.59   66.55
   4 -10   0  815.72   39.11
   4 -10   0  788.67   35.52
   2 -10   0  407.49   27.92
   2 -10   0  456.55   27.00
   0 -10   0 1855.05   59.98
   0 -10   0 1911.53   55.77
  -2 -10   0  447.35   28.95
  -2 -10   0  449.01   26.50
  -4 -10   0  826.68   35.71
  -4 -10   0  771.77   37.84
  -6 -10   0 2008.55   64.83
  -6 -10   0 2071.21   60.65
  -8 -10   0    7.13   11.57
  -8 -10   0   13.65   11.41
 -10 -10   0  890.91   44.55
 -10 -10   0  869.85   40.90
 -12 -10   0  938.46   47.67
 -12 -10   0 1008.59   46.25
 -14 -10   0   48.71   18.46
 -14 -10   0   58.74   19.23
 -16 -10   0  591.45   40.41
 -16 -10   0  571.02   41.17
  18  10   0  465.36   41.17
 -18 -10   0  544.62   42.62
 -20 -10   0  -10.05   18.66
  20  10   0    5.01   20.10
  22  10   0  457.70   43.22
 -22 -10   0  413.81   42.14
  21 -11   0  132.23   35.87
  19 -11   0  267.00   40.65
  17 -11   0   27.40   22.45
  17 -11   0   39.77   21.80
  15 -11   0  144.91   25.93
  15 -11   0  190.20   30.83
  13 -11   0  354.10   33.22
  13 -11   0  371.56   32.20
  11 -11   0  138.14   23.21
  11 -11   0  106.77   22.56
   9 -11   0  970.60   48.03
   9 -11   0 1029.54   46.42
   7 -11   0  228.05   26.04
   7 -11   0  209.53   27.53
   5 -11   0  206.82   25.55
   5 -11   0  222.79   22.19
   3 -11   0  943.32   44.09
   3 -11   0  975.13   41.27
   1 -11   0  334.94   24.93
   1 -11   0  309.92   25.69
  -1 -11   0  290.41   23.41
  -1 -11   0  303.83   26.35
  -3 -11   0  948.78   40.73
  -3 -11   0  978.02   44.64
  -5 -11   0  184.12   22.26
  -5 -11   0  185.35   23.82
  -7 -11   0  252.42   25.96
  -7 -11   0  176.93   24.42
  -9 -11   0 1002.58   48.57
  -9 -11   0 1002.46   44.52
 -11 -11   0  156.81   24.07
 -11 -11   0   99.86   22.02
 -13 -11   0  369.20   30.08
 -13 -11   0  351.16   32.05
 -15 -11   0   94.60   24.61
 -15 -11   0  171.50   27.38
 -17 -11   0   82.33   25.34
 -17 -11   0   72.37   24.55
  19  11   0  204.44   35.50
 -19 -11   0  223.99   36.16
  21  11   0  129.56   34.81
 -21 -11   0   93.53   29.07
  18 -12   0   14.07   21.40
  16 -12   0  131.34   28.78
  14 -12   0    5.29   19.24
  14 -12   0  -24.38   13.01
  12 -12   0   67.11   23.76
  12 -12   0  125.08   26.07
  10 -12   0   47.61   17.48
  10 -12   0   66.11   21.01
   8 -12   0   -9.21   12.10
   8 -12   0  -26.38   11.14
   6 -12   0  226.14   25.95
   6 -12   0  170.07   26.19
   4 -12   0  161.91   24.54
   4 -12   0  149.46   22.93
   2 -12   0   15.91   13.16
   2 -12   0   21.10   14.07
   0 -12   0  337.53   26.06
   0 -12   0  404.78   31.32
  -2 -12   0    4.47   10.94
  -2 -12   0    0.54   12.27
  -4 -12   0  150.64   21.66
  -4 -12   0  114.71   20.82
  -6 -12   0  261.55   27.57
  -6 -12   0  186.17   26.12
  -8 -12   0   -5.20   12.45
  -8 -12   0  -11.06   11.00
 -10 -12   0   19.44   17.10
 -10 -12   0   45.93   16.77
 -12 -12   0  157.20   24.58
 -12 -12   0  148.73   27.46
 -14 -12   0   -0.94   14.98
 -14 -12   0  -11.23   15.00
 -16 -12   0   97.79   25.48
 -16 -12   0   62.47   23.19
 -18 -12   0    6.69   19.34
  17 -13   0   -6.76   20.80
  15 -13   0  636.35   45.87
  13 -13   0  497.47   38.53
  11 -13   0   15.23   15.92
  11 -13   0    7.15   18.11
   9 -13   0 1023.25   52.99
   9 -13   0 1070.16   50.12
   7 -13   0  492.86   36.65
   7 -13   0  507.33   35.15
   5 -13   0  110.49   23.01
   5 -13   0   75.43   20.12
   3 -13   0 1521.93   61.98
   3 -13   0 1543.98   57.70
   1 -13   0  286.54   27.83
   1 -13   0  302.10   25.86
  -1 -13   0  268.38   25.57
  -1 -13   0  286.75   27.88
  -3 -13   0 1577.34   56.92
  -3 -13   0 1335.36   58.69
  -5 -13   0  126.11   24.72
  -5 -13   0  128.69   22.78
  -7 -13   0  519.31   34.45
  -7 -13   0  444.83   34.86
  -9 -13   0 1008.98   52.44
  -9 -13   0  969.40   47.32
 -11 -13   0   13.14   16.00
 -11 -13   0  -17.64   13.33
 -13 -13   0  444.63   38.50
 -15 -13   0  646.75   46.61
 -17 -13   0   11.65   19.45
   6 -14   0   31.11   17.97
   4 -14   0   64.20   20.60
   2 -14   0   -2.73   13.91
   0 -14   0  224.14   31.00
  -2 -14   0   -4.80   14.79
  -4 -14   0   35.92   17.67
  -6 -14   0   22.88   18.93
  -8 -14   0    5.11   15.93
 -10 -14   0   53.00   21.95
 -12 -14   0   48.97   22.67
 -14 -14   0   -9.93   15.54
 -16 -14   0   26.94   22.12
   1 -15   0  183.81   31.13
  -1 -15   0  160.68   28.44
  -3 -15   0  540.04   40.89
  -5 -15   0   84.57   25.14
  -7 -15   0   91.69   26.23
  -9 -15   0  252.00   34.27
 -11 -15   0  -18.12   18.05
 -13 -15   0  191.00   35.18
  -4 -16   0  150.00   28.82
  -6 -16   0  531.01   43.67
  -8 -16   0   29.43   20.81
 -10 -16   0  358.23   38.60
 -12 -16   0  347.14   45.39
  -9 -17   1   25.74   23.49
  -7 -17   1  700.26   51.55
 -12 -16   1   -0.44   19.16
 -10 -16   1  103.99   29.19
  -8 -16   1   18.22   20.40
  -6 -16   1    5.53   20.29
  -4 -16   1   67.78   23.86
  -2 -16   1   -0.60   17.82
   0 -16   1   71.82   25.88
 -15 -15   1    3.46   20.27
 -13 -15   1  231.91   36.62
 -11 -15   1  113.18   28.04
  -9 -15   1   46.82   20.64
  -7 -15   1  209.44   33.45
  -5 -15   1   51.07   21.68
  -3 -15   1   75.23   22.70
  -1 -15   1  282.09   35.97
   1 -15   1   -4.70   15.16
   3 -15   1  249.14   34.11
   5 -15   1  380.42   37.06
 -16 -14   1  449.38   41.57
 -14 -14   1  410.89   39.91
 -12 -14   1   29.96   19.99
 -10 -14   1  667.43   46.12
  -8 -14   1  211.24   32.90
  -6 -14   1   78.98   22.87
  -4 -14   1  865.94   50.27
  -2 -14   1  187.69   29.29
   0 -14   1  436.67   36.85
   2 -14   1 1108.64   55.57
   4 -14   1  107.45   24.89
   6 -14   1  430.00   36.72
   8 -14   1  433.93   37.73
  10 -14   1   -9.88   19.04
 -19 -13   1  -26.50   18.71
 -17 -13   1    1.51   19.47
 -15 -13   1    1.02   17.30
 -13 -13   1    5.10   17.07
 -11 -13   1  -10.45   15.99
  -9 -13   1    9.94   15.21
  -7 -13   1   25.59   18.03
  -5 -13   1   -1.46   14.69
  -3 -13   1    2.92   12.93
  -1 -13   1  -13.68   13.15
   1 -13   1    4.47   14.93
   3 -13   1    2.44   12.93
   5 -13   1   -4.07   13.55
   7 -13   1   14.44   16.97
   9 -13   1  -11.78   16.62
  11 -13   1  -10.69   15.26
  13 -13   1   -8.93   18.84
 -20 -12   1  298.16   42.31
 -18 -12   1    5.13   19.07
 -16 -12   1  510.03   41.99
 -14 -12   1  503.70   39.17
 -12 -12   1   64.19   20.75
 -12 -12   1  129.86   21.80
 -10 -12   1  720.50   43.58
 -10 -12   1  711.34   37.75
  -8 -12   1  464.31   34.95
  -8 -12   1  471.72   30.62
  -6 -12   1  232.03   25.49
  -6 -12   1  186.86   26.43
  -4 -12   1 1332.55   56.25
  -4 -12   1 1249.36   47.15
  -2 -12   1  241.78   25.71
  -2 -12   1  245.31   22.03
   0 -12   1  355.35   26.02
   0 -12   1  388.80   31.72
   2 -12   1 1236.35   47.46
   2 -12   1 1158.25   52.32
   4 -12   1   59.08   18.34
   4 -12   1  124.95   20.26
   6 -12   1  746.44   38.66
   6 -12   1  762.97   44.49
   8 -12   1 1180.24   50.02
   8 -12   1 1070.31   53.76
  10 -12   1   -9.47   14.04
  10 -12   1   -1.01   16.53
  12 -12   1  522.11   41.04
  12 -12   1  579.39   40.11
  14 -12   1  456.51   39.51
  14 -12   1  396.85   36.60
  16 -12   1   11.43   21.25
  16 -12   1   -2.82   18.48
  18 -12   1  499.98   44.30
  21  11  -1   -6.85   18.24
 -21 -11   1   14.42   21.24
  19  11  -1  169.87   30.27
 -19 -11   1  123.10   28.69
 -17 -11   1  231.89   34.49
 -17 -11   1  270.65   33.74
 -15 -11   1  -15.41   13.63
 -15 -11   1  -19.76   13.91
 -13 -11   1  326.38   27.96
 -13 -11   1  278.06   29.07
 -11 -11   1  786.55   44.82
 -11 -11   1  781.45   39.42
  -9 -11   1   50.31   15.78
  -9 -11   1   66.28   18.34
  -7 -11   1 1146.54   51.13
  -7 -11   1 1169.85   44.81
  -5 -11   1  220.91   23.83
  -5 -11   1  239.32   21.38
  -3 -11   1  283.38   26.37
  -3 -11   1  297.50   22.51
  -1 -11   1  712.58   33.27
  -1 -11   1  675.62   38.02
   1 -11   1  149.08   22.71
   1 -11   1  195.38   19.22
   3 -11   1  663.33   37.73
   3 -11   1  590.27   32.13
   5 -11   1 1147.65   51.55
   5 -11   1 1174.97   45.72
   7 -11   1   12.00   13.45
   7 -11   1   -6.81   11.79
   9 -11   1  562.02   38.69
   9 -11   1  553.97   35.48
  11 -11   1  874.13   45.64
  11 -11   1  874.04   48.88
  13 -11   1   29.42   17.72
  13 -11   1   30.57   18.70
  15 -11   1  226.21   34.51
  15 -11   1  226.67   32.25
  17 -11   1  255.65   39.34
  17 -11   1  182.64   33.70
  19 -11   1  -36.25   19.32
  19 -11   1  -35.08   17.11
  22  10  -1   39.26   24.78
 -22 -10   1   76.40   27.39
  20  10  -1  115.90   27.37
 -20 -10   1  116.04   29.35
 -18 -10   1    6.78   18.54
  18  10  -1   15.15   16.97
 -16 -10   1   30.92   17.27
 -16 -10   1    2.20   15.67
 -14 -10   1   59.83   20.64
 -14 -10   1   77.12   18.49
 -12 -10   1    7.68   14.38
 -12 -10   1   10.47   12.29
 -10 -10   1  491.11   33.16
 -10 -10   1  413.14   27.69
  -8 -10   1  121.63   20.76
  -8 -10   1  103.19   17.20
  -6 -10   1  311.00   25.55
  -6 -10   1  297.32   22.33
  -4 -10   1  807.16   39.21
  -4 -10   1  733.71   32.40
  -2 -10   1   94.19   17.47
  -2 -10   1  137.55   17.20
   0 -10   1   49.29   15.64
   0 -10   1   64.28   13.61
   2 -10   1  197.31   24.63
   2 -10   1  193.38   18.38
   4 -10   1  -12.14    9.33
   4 -10   1   -5.54    8.91
   6 -10   1  431.38   31.24
   6 -10   1  410.60   27.51
   8 -10   1  728.28   37.12
   8 -10   1  679.82   39.17
  10 -10   1   -5.16   12.71
  10 -10   1   11.30   15.23
  12 -10   1  105.89   23.48
  12 -10   1   68.90   21.33
  14 -10   1   77.49   22.11
  14 -10   1   98.03   25.84
  16 -10   1  -17.73   16.28
  16 -10   1  -24.29   16.89
  18 -10   1  112.71   30.21
  18 -10   1  104.13   26.12
  20 -10   1   57.30   29.97
  20 -10   1    6.58   20.67
  23   9  -1  396.21   39.49
 -23  -9   1  359.42   45.70
  21   9  -1   -5.12   18.57
 -21  -9   1  -16.76   16.17
  19   9  -1  795.48   48.40
 -19  -9   1  825.24   51.22
  17   9  -1  942.91   49.53
 -17  -9   1  932.02   51.08
 -15  -9   1   76.73   19.94
 -15  -9   1  110.67   22.88
 -13  -9   1 2203.67   68.93
 -13  -9   1 2216.17   74.36
 -11  -9   1 1783.74   63.08
 -11  -9   1 1726.11   56.32
  -9  -9   1  352.51   27.06
  -9  -9   1  348.53   23.41
  -7  -9   1 2699.14   75.41
  -7  -9   1 2617.36   66.24
  -5  -9   1 1129.14   39.28
  -5  -9   1 1105.50   44.91
  -3  -9   1  175.09   16.27
  -3  -9   1  183.13   19.38
  -1  -9   1 3002.08   68.16
  -1  -9   1 2956.21   78.45
   1  -9   1 1333.09   48.77
   1  -9   1 1394.72   43.27
   3  -9   1  763.74   36.98
   3  -9   1  765.33   32.21
   5  -9   1 3415.66   88.00
   5  -9   1 3446.79   79.98
   7  -9   1  366.65   27.59
   7  -9   1  361.58   26.05
   9  -9   1  854.74   41.10
   9  -9   1  835.15   41.57
  11  -9   1 2022.69   68.82
  11  -9   1 2113.07   69.57
  13  -9   1   -7.95   13.15
  13  -9   1  -16.36   12.45
  15  -9   1  824.63   49.54
  15  -9   1  816.61   45.87
  17  -9   1  358.36   33.44
  17  -9   1  401.51   43.67
  19  -9   1   14.61   23.50
  21  -9   1  511.80   48.51
  24   8  -1   -5.85   21.65
 -24  -8   1   -7.92   20.00
 -22  -8   1    9.02   18.92
  22   8  -1   -6.39   18.30
  20   8  -1   31.33   17.79
 -20  -8   1   31.64   20.65
 -18  -8   1   20.15   16.26
  18   8  -1    4.75   16.63
  16   8  -1    2.07   13.07
 -16  -8   1    0.93   11.58
 -14  -8   1   44.54   16.83
 -14  -8   1   50.38   16.07
 -12  -8   1   -0.48    9.28
 -12  -8   1    8.49   10.45
 -10  -8   1   18.26   11.33
 -10  -8   1   13.74   10.53
  -8  -8   1    6.25    8.77
  -8  -8   1   -5.88    7.88
  -6  -8   1  661.35   32.68
  -6  -8   1  690.12   29.12
  -4  -8   1  546.98   29.60
  -4  -8   1  570.27   25.32
  -2  -8   1   59.05   11.21
  -2  -8   1   72.94   14.38
   0  -8   1   42.37   10.03
   0  -8   1   23.10   10.36
   2  -8   1  383.98   25.03
   2  -8   1  407.98   21.85
   4  -8   1  -10.11    7.19
   4  -8   1    9.63    8.67
   6  -8   1  108.12   17.43
   6  -8   1   96.59   16.90
   8  -8   1   19.47   12.12
   8  -8   1   30.43   14.49
  10  -8   1   38.73   17.11
  10  -8   1   22.24   12.56
  12  -8   1    3.72   12.33
  12  -8   1  -10.27   12.61
  14  -8   1   81.38   24.21
  16  -8   1    1.21   17.64
  18  -8   1   55.85   23.66
  20  -8   1   14.94   23.40
  22  -8   1   17.42   26.37
  25   7  -1  130.67   31.57
 -25  -7   1  201.41   36.54
  23   7  -1  258.12   39.31
 -23  -7   1  305.98   40.17
 -21  -7   1    6.04   16.71
  21   7  -1   -9.93   17.49
  19   7  -1  904.82   50.14
 -19  -7   1  868.81   50.19
 -17  -7   1  556.37   37.69
  17   7  -1  545.77   37.23
  15   7  -1   71.17   18.38
 -15  -7   1   75.00   18.77
 -13  -7   1  672.65   36.82
 -13  -7   1  692.70   36.16
 -11  -7   1  812.72   38.58
 -11  -7   1  836.80   36.35
  -9  -7   1  127.62   16.58
  -9  -7   1  100.11   16.23
  -7  -7   1 3499.84   74.54
  -7  -7   1 3494.17   82.83
  -5  -7   1  728.61   32.14
  -5  -7   1  691.04   26.80
  -3  -7   1  511.22   26.85
  -3  -7   1  526.58   22.42
  -1  -7   1 4082.72   77.97
  -1  -7   1 4160.60   89.93
   1  -7   1  788.95   33.07
   1  -7   1  855.62   29.08
   3  -7   1 2782.60   69.48
   3  -7   1 2779.17   62.12
   5  -7   1 2258.87   57.46
   5  -7   1 2230.82   61.75
   7  -7   1  195.11   21.59
   7  -7   1  204.99   22.05
   9  -7   1 1128.75   44.53
   9  -7   1 1122.28   44.94
  11  -7   1  766.37   39.85
  13  -7   1   86.16   21.57
  15  -7   1  972.01   52.00
  17  -7   1  427.99   38.94
  19  -7   1  -19.76   18.75
  21  -7   1  502.06   47.16
  23  -7   1   29.45   31.17
  26   6  -1  175.13   36.75
 -24  -6   1   24.43   20.21
  24   6  -1   29.82   22.35
 -22  -6   1  245.94   34.82
  22   6  -1  314.27   40.78
 -20  -6   1  459.44   37.46
  20   6  -1  478.79   39.43
 -18  -6   1    0.38   12.50
  18   6  -1   -1.37   12.37
 -16  -6   1 1432.88   57.85
  16   6  -1 1466.08   58.81
 -14  -6   1  213.25   24.90
  14   6  -1  167.78   23.56
 -12  -6   1  250.93   22.00
 -12  -6   1  282.55   22.61
 -10  -6   1 1758.24   51.54
 -10  -6   1 1743.06   54.98
  -8  -6   1  629.95   27.36
  -8  -6   1  613.38   29.39
  -8  -6   1  653.76   16.63
  -6  -6   1  198.15   14.35
  -6  -6   1  184.60   15.85
  -4  -6   1 4163.76   87.26
  -4  -6   1 4204.49   77.19
  -2  -6   1  881.51   32.61
  -2  -6   1  890.00   27.20
   0  -6   1  983.28   34.40
   0  -6   1  946.11   28.71
   2  -6   1 1462.85   38.49
   2  -6   1 1474.19   44.10
   4  -6   1  213.16   16.35
   4  -6   1  262.89   18.08
   6  -6   1 1353.92   43.07
   6  -6   1 1364.14   43.74
   8  -6   1 1278.26   45.18
  10  -6   1   30.54   13.72
  12  -6   1 1498.92   57.82
  14  -6   1  449.15   35.22
  16  -6   1   74.23   23.41
  18  -6   1 1074.40   60.17
  20  -6   1  478.15   53.27
  22  -6   1   13.42   25.74
  24  -6   1  357.35   52.69
  25   5  -1  -25.55   19.29
 -23  -5   1   -4.96   15.11
  23   5  -1    2.57   20.01
  21   5  -1  -13.43   14.66
 -21  -5   1    7.66   15.61
 -19  -5   1   42.29   17.27
  19   5  -1   -2.12   15.38
 -17  -5   1  102.84   20.98
  17   5  -1   86.07   20.05
 -15  -5   1   40.48   16.13
  15   5  -1   50.23   16.76
 -13  -5   1  171.25   20.74
  13   5  -1  133.59   19.80
 -11  -5   1  382.47   24.47
 -11  -5   1  390.71   24.62
  -9  -5   1    1.56    6.15
  -9  -5   1   -4.13    6.25
  -7  -5   1    9.67    6.43
  -7  -5   1   -2.49    5.76
  -5  -5   1  233.72   16.13
  -5  -5   1  219.48   13.66
  -3  -5   1   17.40    5.60
  -3  -5   1   10.81    6.82
  -1  -5   1  283.22   13.48
  -1  -5   1  267.65   16.21
   1  -5   1  506.67   19.27
   1  -5   1  556.61   23.51
   3  -5   1  104.14   12.21
   3  -5   1  101.19   12.73
   5  -5   1  212.57   16.65
   5  -5   1  190.22   15.01
   7  -5   1   38.71   11.67
   9  -5   1  293.91   22.91
  11  -5   1   68.04   17.38
  13  -5   1  166.03   25.72
  15  -5   1  243.22   32.79
  17  -5   1  183.26   31.58
  19  -5   1    3.00   19.53
  21  -5   1   40.63   26.04
  23  -5   1    5.23   26.29
  26   4  -1  472.65   53.86
  24   4  -1   -4.83   19.66
  22   4  -1  690.56   49.69
  20   4  -1 1281.48   61.34
 -20  -4   1 1266.41   59.11
 -18  -4   1   -8.60   10.08
  18   4  -1   -1.17   12.98
  16   4  -1 1342.14   55.45
 -16  -4   1 1294.39   52.73
 -14  -4   1 1251.47   48.47
  14   4  -1 1371.13   52.05
  12   4  -1  170.41   20.46
 -12  -4   1  161.16   19.00
 -10  -4   1 5279.99  107.86
 -10  -4   1 5468.11  105.80
  -8  -4   1 1001.45   33.21
  -8  -4   1  990.74   34.34
  -6  -4   1  824.85   26.53
  -6  -4   1  815.43   28.79
  -4  -4   1 3270.19   58.88
  -4  -4   1 3216.91   66.38
  -2  -4   1 1213.37   27.86
  -2  -4   1 1272.87   34.60
   0  -4   1 1283.00   34.78
   0  -4   1 1240.63   28.47
   2  -4   1 6757.47  117.31
   2  -4   1 6867.84  108.01
   4  -4   1   10.01    5.68
   4  -4   1   19.21    7.43
   6  -4   1 3483.43   73.30
   8  -4   1 3936.19   85.69
  10  -4   1    5.25   10.48
  12  -4   1 1723.53   61.18
  14  -4   1 1272.97   56.65
  16  -4   1    4.02   15.23
  18  -4   1  781.01   51.46
  20  -4   1  315.57   42.55
  22  -4   1   85.53   32.38
  24  -4   1  623.85   56.15
  27   3  -1   22.21   29.67
  25   3  -1    9.25   21.58
  23   3  -1  171.16   33.69
  21   3  -1   15.53   18.09
  19   3  -1  474.78   37.85
 -19  -3   1  473.22   34.81
 -17  -3   1  468.71   32.30
  17   3  -1  436.84   33.98
  15   3  -1   -7.30    9.72
 -15  -3   1   -1.90    7.61
  13   3  -1  246.30   22.01
 -13  -3   1  265.14   21.29
 -11  -3   1   54.63   11.25
  11   3  -1   28.48   12.37
  -9  -3   1   39.04    8.92
  -7  -3   1 1113.91   22.78
  -7  -3   1 1091.57   32.38
  -7  -3   1 1088.19   33.38
  -5  -3   1 1118.59   31.52
  -5  -3   1 1184.10   29.31
  -3  -3   1  140.74    9.76
  -3  -3   1  150.48    8.15
  -1  -3   1 2642.28   52.56
  -1  -3   1 2596.86   44.15
   1  -3   1 4365.21   78.03
   1  -3   1 4373.70   70.40
   3  -3   1 1739.27   38.91
   5  -3   1 1437.37   38.83
   7  -3   1  302.29   19.94
   9  -3   1  753.71   34.27
  11  -3   1 2089.67   64.84
  13  -3   1    3.63   13.25
  15  -3   1  731.36   44.91
  17  -3   1  412.63   37.41
  19  -3   1   -3.25   18.89
  21  -3   1  148.58   34.96
  23  -3   1   70.95   33.23
  25  -3   1  -13.18   29.15
  26   2  -1  195.07   39.75
  24   2  -1   40.28   25.22
  22   2  -1  159.14   31.83
  20   2  -1  281.61   37.46
 -18  -2   1  109.43   21.25
  18   2  -1   79.87   22.76
  16   2  -1  732.62   42.12
 -16  -2   1  736.73   37.92
  14   2  -1  320.58   25.92
 -14  -2   1  367.04   24.92
  12   2  -1  439.40   27.18
 -12  -2   1  457.71   25.43
  10   2  -1 2177.17   58.01
 -10  -2   1 2181.16   55.50
  -8  -2   1  965.68   30.81
   8   2  -1  956.17   32.46
  -8  -2   1  935.63   22.41
  -6  -2   1 1170.89   23.58
  -6  -2   1 1099.21   29.98
  -6  -2   1 1141.16   31.15
  -4  -2   1 1072.25   24.34
  -4  -2   1 1035.78   26.56
   0  -2   1 1739.69   35.79
   2  -2   1 5142.90   81.29
   4  -2   1   77.05    9.58
   6  -2   1 1234.26   37.07
   8  -2   1 1836.15   52.16
  10  -2   1   16.88   10.55
  12  -2   1  611.77   35.57
  14  -2   1  793.26   44.04
  16  -2   1   18.29   19.04
  18  -2   1  381.89   37.23
  20  -2   1  196.81   35.28
  22  -2   1   71.11   29.51
  24  -2   1  248.71   44.71
  27   1  -1   18.28   27.48
  25   1  -1  250.63   42.67
  23   1  -1  669.95   51.38
  21   1  -1  -12.36   15.84
  19   1  -1  873.15   50.59
  17   1  -1 1311.57   58.16
  15   1  -1  218.89   27.02
 -15  -1   1  234.53   21.13
 -13  -1   1 2212.42   61.96
  13   1  -1 2289.78   67.62
  11   1  -1 3916.20   88.13
 -11  -1   1 3906.56   84.07
  -9  -1   1  121.97   11.64
   9   1  -1  125.89   15.08
  -7  -1   1 3746.59   64.38
   7   1  -1 3738.43   72.24
  -7  -1   1 3649.73   70.55
   5   1  -1 1220.68   29.81
  -5  -1   1 1249.24   29.28
  -5  -1   1 1203.50   24.84
   3  -1   1  585.97   18.92
   5  -1   1 4989.39   89.03
   7  -1   1  561.09   25.85
   9  -1   1 2803.22   70.73
  11  -1   1 2882.39   77.82
  13  -1   1  163.81   24.22
  15  -1   1 1271.68   57.03
  17  -1   1 1703.53   71.09
  19  -1   1  156.54   31.45
  21  -1   1  612.16   50.70
  23  -1   1  272.26   44.43
  25  -1   1   43.46   29.03
  26   0  -1  -46.56   23.34
  24   0  -1  -13.66   20.53
  22   0  -1  -19.90   17.42
  20   0  -1   -2.71   15.72
  18   0  -1    1.08   15.16
  16   0  -1   -5.88    9.82
  14   0  -1    1.37   10.93
  12   0  -1   -5.63    8.13
 -10   0   1    7.21    6.31
  10   0  -1   -5.47    6.68
   8   0  -1    0.28    5.78
  -8   0   1    5.72    4.94
  -6   0   1   -8.09    3.15
   6   0  -1    9.37    6.43
  -6   0   1    5.56    5.10
  -4   0   1    7.68    3.48
   4   0  -1    4.29    3.97
  -4   0   1   -2.48    2.76
  -2   0  -1    1.77    2.14
   4   0   1    1.52    4.68
   6   0   1    1.17    5.60
   8   0   1    1.27    7.27
  10   0   1   -4.39    7.53
  12   0   1    2.24   10.07
  14   0   1   -1.31   11.63
  16   0   1    4.82   13.88
  18   0   1   -6.89   14.10
  20   0   1   13.67   18.04
  22   0   1  -23.77   18.36
  24   0   1  -26.19   23.05
  27  -1  -1   13.33   30.45
  25  -1  -1  331.67   48.57
  23  -1  -1  789.20   56.51
  21  -1  -1    3.53   20.36
  19  -1  -1  990.66   55.08
  17  -1  -1 1337.19   59.71
  15  -1  -1  151.10   24.08
  13  -1  -1 2197.69   66.93
  11  -1  -1 4200.64   92.47
   9  -1  -1  144.91   14.41
   7  -1  -1 3751.63   72.67
   5  -1  -1 1272.62   31.15
  -1  -1  -1 1338.61   25.91
  -1  -1  -1 1317.95   26.52
  -3  -1  -1  548.17   18.25
  -3  -1  -1  588.10   18.04
  -5  -1  -1 4782.17   85.80
  -5  -1  -1 4862.85   87.32
  -7  -1  -1  551.64   23.57
   7   1   1  582.57   26.60
  -9  -1  -1 2687.54   65.45
   9   1   1 2702.18   69.02
  11   1   1 2864.31   77.02
  13   1   1  104.86   19.52
  15   1   1 1327.75   57.45
  17   1   1 1759.76   71.62
  19   1   1  120.48   27.55
  21   1   1  664.52   49.88
  23   1   1  248.11   43.12
  25   1   1   38.39   33.14
  26  -2  -1  201.26   44.75
  24  -2  -1   30.28   26.65
  22  -2  -1  169.22   34.67
  20  -2  -1  346.40   43.28
  18  -2  -1  141.51   29.32
  16  -2  -1  738.58   43.07
  14  -2  -1  355.59   28.68
  12  -2  -1  445.83   28.44
  10  -2  -1 2235.44   60.05
   8  -2  -1  986.38   33.59
   6  -2  -1 1149.25   32.37
   4  -2  -1 1096.64   27.78
   2  -2  -1 2284.55   41.34
   0  -2  -1 1676.26   30.97
   0  -2  -1 1617.55   32.12
  -2  -2  -1 4977.64   80.66
  -2  -2  -1 4958.62   82.49
  -4  -2  -1   85.06    8.00
  -4  -2  -1   92.70    8.98
  -6  -2  -1 1154.97   35.30
  -6  -2  -1 1151.79   34.09
  -8  -2  -1 1797.78   49.41
  -8  -2  -1 1870.59   51.89
 -10  -2  -1   18.61    8.95
  10   2   1    6.97    9.04
  12   2   1  574.97   33.81
 -12  -2  -1  623.28   32.23
  14   2   1  757.85   41.71
  16   2   1   -1.94   13.44
  18   2   1  424.75   37.69
  20   2   1  141.46   31.22
  22   2   1   39.69   24.38
  24   2   1  208.28   41.14
  27  -3  -1   34.51   32.09
  25  -3  -1   13.88   25.03
  23  -3  -1  239.90   39.93
  21  -3  -1   15.19   20.45
  19  -3  -1  495.78   40.69
  17  -3  -1  446.40   36.60
  15  -3  -1    4.51   13.14
  13  -3  -1  269.89   25.31
  11  -3  -1   64.94   14.77
   9  -3  -1   54.58   11.84
   7  -3  -1 1093.86   34.54
   5  -3  -1 1193.63   32.82
   3  -3  -1  148.58    8.18
   3  -3  -1  159.55   10.38
   1  -3  -1 2660.35   48.45
   1  -3  -1 2638.05   49.37
  -1  -3  -1 4290.27   73.33
  -1  -3  -1 4417.88   74.68
  -3  -3  -1 1694.43   39.37
  -3  -3  -1 1653.25   38.53
  -5  -3  -1 1434.95   38.85
  -5  -3  -1 1426.74   38.04
  -7  -3  -1  242.48   16.41
  -7  -3  -1  264.69   17.87
  -9  -3  -1  706.80   30.82
 -11  -3  -1 1945.80   58.97
  11   3   1 1987.42   62.15
 -13  -3  -1    0.74    9.59
  13   3   1   -9.03   10.65
 -15  -3  -1  781.18   41.06
  15   3   1  733.59   42.67
  17   3   1  390.17   33.99
  19   3   1    0.81   16.91
  21   3   1  141.70   33.53
  23   3   1   88.89   29.16
  25   3   1  -17.41   24.34
  26  -4  -1  538.73   61.96
  24  -4  -1  -14.81   22.35
  22  -4  -1  740.74   54.86
  20  -4  -1 1253.39   65.01
  18  -4  -1  -21.46   15.48
  16  -4  -1 1333.62   58.46
  14  -4  -1 1365.33   54.48
  12  -4  -1  138.16   20.45
  10  -4  -1 5938.47  116.49
   8  -4  -1  993.50   35.72
   6  -4  -1  841.17   29.59
   4  -4  -1 3328.69   64.81
   4  -4  -1 3384.65   63.00
   2  -4  -1 1266.00   31.95
   2  -4  -1 1238.94   30.82
   0  -4  -1 1236.22   30.63
   0  -4  -1 1256.35   31.88
  -2  -4  -1 6490.52  106.90
  -2  -4  -1 6515.70  110.20
  -4  -4  -1    4.34    4.89
  -4  -4  -1    4.75    5.79
  -6  -4  -1 3428.38   72.78
  -6  -4  -1 3374.68   71.97
  -8  -4  -1 3642.31   81.29
  -8  -4  -1 3699.31   81.16
 -10  -4  -1   -3.83    9.27
 -10  -4  -1    1.91    7.93
 -12  -4  -1 1517.79   53.45
  12   4   1 1531.67   56.27
  14   4   1 1196.22   53.37
 -14  -4  -1 1237.91   51.50
  16   4   1    5.27   13.02
 -16  -4  -1    2.52   13.21
  18   4   1  763.12   48.26
  20   4   1  297.85   39.25
  22   4   1   64.67   25.75
  24   4   1  626.39   53.58
  25  -5  -1  -23.59   21.44
  23  -5  -1   30.32   24.45
  21  -5  -1   21.20   22.39
  19  -5  -1   30.22   21.35
  17  -5  -1  146.02   28.38
  15  -5  -1   50.71   20.47
  13  -5  -1  183.04   24.48
  11  -5  -1  447.07   28.83
   9  -5  -1    3.06    9.77
   7  -5  -1   -1.30    7.48
   5  -5  -1  230.10   15.77
   5  -5  -1  232.40   13.73
   3  -5  -1   23.72    6.30
   3  -5  -1   25.30    7.70
   1  -5  -1  268.17   14.36
   1  -5  -1  276.24   15.55
  -1  -5  -1  527.37   21.62
  -1  -5  -1  499.45   20.07
  -3  -5  -1   99.55   12.12
  -3  -5  -1  102.28   10.40
  -5  -5  -1  171.48   14.26
  -5  -5  -1  157.80   14.14
  -7  -5  -1   13.55    8.41
  -7  -5  -1   20.39    9.05
  -9  -5  -1  278.81   21.83
  -9  -5  -1  289.61   20.90
 -11  -5  -1   68.85   15.54
 -11  -5  -1   84.94   17.60
 -13  -5  -1  128.10   21.50
 -15  -5  -1  239.16   24.97
  15   5   1  178.79   26.83
 -17  -5  -1  148.07   25.12
  17   5   1  105.74   24.43
 -19  -5  -1    7.90   16.90
  19   5   1   -5.23   15.34
  21   5   1   46.87   21.54
  23   5   1    3.14   22.61
  26  -6  -1  253.30   49.42
  24  -6  -1   18.89   28.04
  22  -6  -1  329.90   46.22
  20  -6  -1  417.18   39.77
  18  -6  -1  -12.46   14.96
  16  -6  -1 1548.85   63.74
  14  -6  -1  257.68   30.05
  12  -6  -1  277.70   24.97
  10  -6  -1 1768.00   55.76
   8  -6  -1  644.94   27.05
   8  -6  -1  590.37   29.72
   6  -6  -1  214.26   15.49
   6  -6  -1  164.80   15.38
   4  -6  -1 4269.09   85.10
   4  -6  -1 4389.06   84.50
   2  -6  -1  858.76   29.33
   2  -6  -1  874.47   30.27
   0  -6  -1  983.31   31.72
   0  -6  -1  911.12   30.69
  -2  -6  -1 1358.74   39.71
  -2  -6  -1 1362.52   39.13
  -4  -6  -1  250.31   18.00
  -4  -6  -1  237.93   16.60
  -6  -6  -1 1278.16   42.04
  -6  -6  -1 1289.22   41.91
  -8  -6  -1 1190.41   42.98
  -8  -6  -1 1272.34   44.22
 -10  -6  -1   21.75   11.70
 -10  -6  -1   19.64   10.52
 -12  -6  -1 1344.92   53.18
 -12  -6  -1 1310.10   51.40
 -14  -6  -1  481.40   33.38
 -16  -6  -1   38.94   16.12
  16   6   1   47.45   18.47
  18   6   1  976.36   56.67
 -18  -6  -1 1044.21   55.29
 -20  -6  -1  389.70   37.67
  20   6   1  390.65   44.29
  22   6   1    8.95   19.56
  24   6   1  283.41   45.87
  25  -7  -1  250.58   45.96
  23  -7  -1  257.85   45.01
  21  -7  -1  -30.14   18.02
  19  -7  -1  891.49   54.21
  17  -7  -1  491.99   38.72
  15  -7  -1  114.30   24.22
  13  -7  -1  724.70   40.32
  11  -7  -1  883.48   41.30
  11  -7  -1  862.96   36.14
   9  -7  -1  110.88   15.18
   9  -7  -1  131.18   18.77
   7  -7  -1 3785.96   81.91
   7  -7  -1 3614.24   81.74
   5  -7  -1  750.16   30.98
   5  -7  -1  743.66   30.00
   3  -7  -1  573.03   25.58
   3  -7  -1  548.43   25.27
   1  -7  -1 4225.00   86.61
   1  -7  -1 4230.17   84.56
  -1  -7  -1  838.79   31.47
  -1  -7  -1  801.49   30.56
  -3  -7  -1 2740.63   65.21
  -3  -7  -1 2708.15   64.04
  -5  -7  -1 2193.00   58.87
  -5  -7  -1 2179.06   57.80
  -7  -7  -1  184.22   20.93
  -7  -7  -1  169.71   17.39
  -9  -7  -1 1018.38   41.81
  -9  -7  -1 1047.65   42.84
 -11  -7  -1  736.11   37.80
 -11  -7  -1  757.85   38.56
 -13  -7  -1  119.97   22.77
 -13  -7  -1  116.55   21.90
 -15  -7  -1  798.31   44.70
 -17  -7  -1  430.84   36.27
  17   7   1  522.28   40.88
  19   7   1  -23.51   15.88
 -19  -7  -1   -0.50   14.90
  21   7   1  466.25   43.76
 -21  -7  -1  369.79   37.96
  23   7   1   66.75   27.74
  24  -8  -1   -7.01   24.54
  22  -8  -1   26.72   23.39
  20  -8  -1   37.22   23.11
  18  -8  -1  -13.88   15.44
  16  -8  -1   -3.43   16.27
  14  -8  -1   36.43   18.72
  14  -8  -1   22.72   13.00
  12  -8  -1   11.38   15.15
  12  -8  -1   12.10   11.76
  10  -8  -1   12.58   13.46
  10  -8  -1   15.46   10.75
   8  -8  -1   -2.41    8.50
   8  -8  -1   -3.82    7.28
   6  -8  -1  775.18   33.07
   6  -8  -1  750.07   33.25
   4  -8  -1  581.72   28.45
   4  -8  -1  576.04   27.77
   2  -8  -1   86.53   14.49
   2  -8  -1   79.34   13.71
   0  -8  -1   17.77    9.19
   0  -8  -1   36.19   10.07
  -2  -8  -1  392.16   23.27
  -2  -8  -1  360.76   22.72
  -4  -8  -1   -9.31    7.05
  -4  -8  -1    6.85    7.61
  -6  -8  -1  115.43   17.63
  -6  -8  -1  113.88   16.50
  -8  -8  -1   15.52   11.54
  -8  -8  -1   32.36   12.77
 -10  -8  -1   22.14   13.90
 -10  -8  -1   50.71   14.51
 -12  -8  -1  -16.80   10.52
 -12  -8  -1   -7.39    9.29
 -14  -8  -1   83.76   20.41
 -14  -8  -1   65.18   18.58
 -16  -8  -1    8.63   16.27
  18   8   1  101.86   28.64
 -18  -8  -1   52.11   20.56
 -20  -8  -1   41.61   21.73
  20   8   1   35.18   22.34
  22   8   1   -6.89   24.45
 -22  -8  -1   17.31   21.77
  23  -9  -1  448.71   54.21
  21  -9  -1   -4.20   22.23
  19  -9  -1  832.08   54.45
  17  -9  -1  997.77   49.43
  17  -9  -1  976.93   54.23
  15  -9  -1   75.05   19.19
  15  -9  -1   95.10   24.38
  13  -9  -1 2340.87   71.23
  13  -9  -1 2260.10   74.97
  11  -9  -1 1883.42   60.90
  11  -9  -1 1840.00   63.02
   9  -9  -1  349.22   25.96
   9  -9  -1  389.58   28.30
   7  -9  -1 2738.92   73.04
   7  -9  -1 2714.89   72.38
   5  -9  -1 1112.01   42.56
   5  -9  -1 1121.32   41.64
   3  -9  -1  184.04   18.14
   3  -9  -1  186.53   17.56
   1  -9  -1 3034.47   75.37
   1  -9  -1 3118.94   74.53
  -1  -9  -1 1278.27   44.16
  -1  -9  -1 1246.43   43.81
  -3  -9  -1  750.69   33.99
  -3  -9  -1  707.79   33.16
  -5  -9  -1 3264.74   81.99
  -5  -9  -1 3299.74   80.28
  -7  -9  -1  399.20   26.99
  -7  -9  -1  304.97   24.16
  -9  -9  -1  839.31   39.58
  -9  -9  -1  851.80   41.17
 -11  -9  -1 1876.95   65.51
 -11  -9  -1 1771.74   62.97
 -13  -9  -1   -5.32   11.98
 -13  -9  -1  -20.74   10.00
 -15  -9  -1  765.12   45.80
 -15  -9  -1  780.52   45.83
 -17  -9  -1  362.37   34.72
  17   9   1  306.73   40.04
 -19  -9  -1   13.66   19.47
  19   9   1    5.45   19.27
  21   9   1  417.98   49.28
 -21  -9  -1  407.66   42.34
  22 -10  -1   51.24   27.29
  20 -10  -1  163.74   33.21
  18 -10  -1   21.68   22.61
  18 -10  -1   -7.76   16.62
  16 -10  -1  -13.35   13.71
  16 -10  -1  -23.62   15.69
  14 -10  -1   53.18   17.32
  14 -10  -1   83.73   23.24
  12 -10  -1   18.34   15.68
  12 -10  -1   -3.37   13.98
  10 -10  -1  492.29   32.51
  10 -10  -1  425.63   31.34
   8 -10  -1   80.38   18.70
   8 -10  -1  116.16   20.10
   6 -10  -1  317.45   24.02
   6 -10  -1  277.77   24.01
   4 -10  -1  859.05   38.55
   4 -10  -1  854.02   38.43
   2 -10  -1  132.31   18.18
   2 -10  -1   89.37   16.84
   0 -10  -1   67.59   14.76
   0 -10  -1   40.79   13.30
  -2 -10  -1  198.25   20.29
  -2 -10  -1  217.02   20.75
  -4 -10  -1   -6.95    8.76
  -4 -10  -1   -5.30    9.32
  -6 -10  -1  377.93   27.33
  -6 -10  -1  411.24   28.10
  -8 -10  -1  640.52   35.18
  -8 -10  -1  604.98   35.86
 -10 -10  -1    4.80   13.99
 -10 -10  -1    4.65   12.57
 -12 -10  -1   88.58   20.39
 -12 -10  -1   74.84   19.84
 -14 -10  -1   90.73   23.62
 -14 -10  -1   97.68   22.81
 -16 -10  -1    1.32   16.15
 -16 -10  -1  -16.00   13.32
 -18 -10  -1   99.57   26.73
  18  10   1  128.20   31.39
 -20 -10  -1   72.35   26.48
  20  10   1   18.80   23.50
  21 -11  -1  -32.50   19.16
  19 -11  -1  226.20   35.96
  17 -11  -1  366.02   40.79
  15 -11  -1   15.68   17.48
  15 -11  -1  -17.91   16.65
  13 -11  -1  346.30   30.85
  13 -11  -1  350.90   31.45
  11 -11  -1  807.66   43.22
  11 -11  -1  819.40   43.94
   9 -11  -1   43.34   16.60
   9 -11  -1   75.86   19.58
   7 -11  -1 1206.06   48.46
   7 -11  -1 1204.73   50.24
   5 -11  -1  257.36   24.24
   5 -11  -1  253.24   24.03
   3 -11  -1  289.17   24.97
   3 -11  -1  297.41   23.94
   1 -11  -1  730.95   37.70
   1 -11  -1  748.03   36.88
  -1 -11  -1  211.65   24.08
  -1 -11  -1  165.19   22.23
  -3 -11  -1  649.93   34.38
  -3 -11  -1  569.87   33.24
  -5 -11  -1 1084.22   46.98
  -5 -11  -1 1130.04   46.74
  -7 -11  -1   -1.34   12.18
  -7 -11  -1   -6.59   10.27
  -9 -11  -1  442.07   31.68
  -9 -11  -1  437.69   32.68
 -11 -11  -1  766.31   43.82
 -11 -11  -1  776.54   42.44
 -13 -11  -1   35.37   17.84
 -13 -11  -1   51.41   18.71
 -15 -11  -1  184.92   31.48
 -15 -11  -1  216.27   30.80
 -17 -11  -1  200.46   33.21
 -17 -11  -1  284.23   39.28
 -19 -11  -1    0.07   20.10
  19  11   1  -37.46   20.08
  20 -12  -1  341.35   45.80
  18 -12  -1   -4.48   19.50
  16 -12  -1  615.28   44.73
  14 -12  -1  474.30   38.41
  12 -12  -1  102.85   24.10
  10 -12  -1  751.72   43.32
  10 -12  -1  813.53   43.45
   8 -12  -1  504.70   35.01
   8 -12  -1  511.94   33.57
   6 -12  -1  228.16   27.98
   6 -12  -1  241.55   28.55
   4 -12  -1 1301.97   53.39
   4 -12  -1 1331.15   51.89
   2 -12  -1  270.55   25.85
   2 -12  -1  275.83   25.06
   0 -12  -1  344.57   26.87
   0 -12  -1  326.20   26.61
  -2 -12  -1 1196.21   50.13
  -2 -12  -1 1162.44   49.02
  -4 -12  -1   98.66   20.41
  -4 -12  -1  136.71   22.09
  -6 -12  -1  715.93   40.88
  -6 -12  -1  689.03   39.09
  -8 -12  -1 1095.51   49.53
  -8 -12  -1 1070.41   50.64
 -10 -12  -1   -8.73   11.18
 -10 -12  -1    8.34   12.44
 -12 -12  -1  547.23   39.33
 -12 -12  -1  557.54   38.76
 -14 -12  -1  403.67   36.06
 -14 -12  -1  400.91   36.06
 -16 -12  -1   31.63   19.74
 -16 -12  -1    9.52   17.43
 -18 -12  -1  555.94   47.44
  19 -13  -1  -24.71   18.04
  17 -13  -1   27.10   21.13
  15 -13  -1  -20.62   15.10
  13 -13  -1  -16.49   15.66
  11 -13  -1   -3.08   12.92
   9 -13  -1    5.54   13.27
   7 -13  -1   21.24   15.12
   7 -13  -1   12.26   14.50
   5 -13  -1   -2.61   12.93
   5 -13  -1   -1.67   13.00
   3 -13  -1  -14.05   12.18
   3 -13  -1    0.17   11.69
   1 -13  -1    2.78   12.20
   1 -13  -1   -5.73   12.66
  -1 -13  -1   -3.83   12.67
  -1 -13  -1   -7.09   11.20
  -3 -13  -1   -7.00   12.48
  -3 -13  -1   -4.41   12.33
  -5 -13  -1   -8.62   12.83
  -5 -13  -1    5.45   14.05
  -7 -13  -1   17.82   16.34
  -7 -13  -1   19.19   14.96
  -9 -13  -1   -9.57   14.06
  -9 -13  -1   -5.53   14.40
 -11 -13  -1    7.89   15.87
 -11 -13  -1   -8.87   15.28
 -13 -13  -1   19.23   18.52
 -13 -13  -1   -3.11   16.53
 -15 -13  -1   46.15   23.30
 -15 -13  -1   19.02   19.09
 -17 -13  -1   -5.22   18.37
 -17 -13  -1  -11.63   19.38
  16 -14  -1  479.97   42.54
  14 -14  -1  435.02   37.87
  12 -14  -1   42.85   21.95
  10 -14  -1  722.94   44.82
   8 -14  -1  180.10   29.39
   6 -14  -1  180.46   28.11
   4 -14  -1  899.13   47.16
   2 -14  -1  250.13   31.07
   0 -14  -1  429.21   34.58
   0 -14  -1  380.35   31.88
  -2 -14  -1 1189.34   53.47
  -2 -14  -1 1087.53   52.76
  -4 -14  -1  176.33   28.60
  -4 -14  -1   70.84   20.12
  -6 -14  -1  441.69   34.63
  -6 -14  -1  403.87   33.66
  -8 -14  -1  414.08   35.33
  -8 -14  -1  432.67   34.05
 -10 -14  -1    3.62   15.61
 -10 -14  -1   -2.15   16.09
 -12 -14  -1  485.19   40.63
 -14 -14  -1  381.43   38.61
  -5 -15  -1  321.42   31.90
  -7 -15  -1    1.55   18.40
  -9 -15  -1  283.27   36.91
 -11 -15  -1  195.91   34.49
 -13 -15  -1   -9.37   21.34
  -9 -17   2   -2.01   20.36
  -7 -17   2  -45.84   18.59
  -5 -17   2   23.54   22.47
  -3 -17   2   21.33   20.35
  -1 -17   2    5.38   21.28
 -12 -16   2   78.46   28.82
 -10 -16   2   45.06   24.96
  -8 -16   2  602.44   47.19
  -6 -16   2  125.01   28.69
  -4 -16   2   91.50   28.03
  -2 -16   2  675.44   48.17
   0 -16   2   99.14   30.21
   2 -16   2  179.78   32.92
   4 -16   2  501.39   43.23
 -15 -15   2  140.21   31.52
 -13 -15   2    0.77   18.89
 -11 -15   2  350.98   42.56
  -9 -15   2   94.38   28.69
  -7 -15   2   40.08   21.32
  -5 -15   2  384.51   38.58
  -3 -15   2  -20.91   14.62
  -1 -15   2  478.74   41.41
   1 -15   2  704.86   47.65
   3 -15   2   53.44   23.01
   5 -15   2  210.17   33.14
   7 -15   2  402.32   39.14
   9 -15   2   -2.35   19.58
 -18 -14   2   64.05   28.21
 -16 -14   2    5.75   20.78
 -14 -14   2   32.52   20.67
 -12 -14   2   24.93   20.79
 -10 -14   2   -9.86   15.88
  -8 -14   2    4.03   16.74
  -6 -14   2   -2.62   13.66
  -4 -14   2  161.27   27.44
  -2 -14   2  121.69   27.03
   0 -14   2    6.45   16.24
   2 -14   2   98.84   24.33
   4 -14   2  140.06   27.60
   6 -14   2    7.34   16.97
   8 -14   2   18.28   20.27
  10 -14   2   24.19   23.32
  12 -14   2  -12.52   20.90
 -19 -13   2   -0.08   19.93
 -17 -13   2  530.67   44.85
 -15 -13   2  424.37   38.80
 -13 -13   2   48.82   21.78
 -11 -13   2  918.98   52.35
  -9 -13   2  400.61   34.95
  -7 -13   2  267.97   33.40
  -5 -13   2 1302.06   60.30
  -3 -13   2  238.27   32.34
  -1 -13   2  575.78   39.86
   1 -13   2 1367.32   61.11
   3 -13   2   28.53   17.67
   5 -13   2  685.12   44.05
   7 -13   2  475.20   39.32
   9 -13   2   -9.91   16.53
  11 -13   2  678.70   47.87
  13 -13   2  629.11   49.18
  15 -13   2   25.79   22.67
 -20 -12   2   48.49   23.36
 -18 -12   2   32.28   21.79
 -16 -12   2   23.32   18.75
 -14 -12   2   86.40   23.74
 -12 -12   2  108.25   24.23
 -10 -12   2   34.48   16.86
  -8 -12   2  279.93   28.22
  -6 -12   2   99.36   21.77
  -4 -12   2   63.57   19.73
  -2 -12   2  181.35   26.92
   0 -12   2   -1.12   13.21
   2 -12   2  289.88   29.20
   4 -12   2  310.71   29.80
   6 -12   2   -9.69   13.05
   8 -12   2   79.21   21.53
  10 -12   2  228.24   34.76
  12 -12   2   19.15   18.91
  14 -12   2   15.60   20.59
  16 -12   2  112.82   32.07
 -21 -11   2  111.80   30.89
 -19 -11   2   21.13   21.33
 -17 -11   2  584.31   42.79
 -15 -11   2  189.57   30.93
 -13 -11   2   46.91   20.61
 -11 -11   2  950.81   49.01
  -9 -11   2  266.53   26.91
  -9 -11   2  264.23   21.86
  -7 -11   2  394.76   25.15
  -7 -11   2  406.84   32.39
  -5 -11   2 1461.59   58.23
  -5 -11   2 1489.56   47.51
  -3 -11   2  438.45   25.14
  -3 -11   2  369.26   29.93
  -1 -11   2  107.14   20.87
  -1 -11   2  147.03   18.22
   1 -11   2  512.28   28.09
   1 -11   2  503.61   33.98
   3 -11   2   51.25   14.39
   3 -11   2   58.53   18.61
   5 -11   2 1033.24   50.12
   5 -11   2 1036.13   43.03
   7 -11   2  714.11   42.96
   7 -11   2  758.35   38.43
   9 -11   2    7.54   15.58
   9 -11   2   -0.42   12.85
  11 -11   2  417.76   35.74
  11 -11   2  406.22   33.63
  13 -11   2  188.51   33.03
  13 -11   2  274.92   35.45
  15 -11   2  -34.71   17.93
  15 -11   2   23.34   19.22
  17 -11   2  328.53   41.22
  17 -11   2  459.23   49.88
  19 -11   2  111.65   30.51
  19 -11   2  219.62   42.09
 -22 -10   2    0.73   17.95
 -20 -10   2  366.17   36.26
  20  10  -2  377.23   35.28
 -18 -10   2  352.69   34.15
  18  10  -2  417.54   33.41
 -16 -10   2  -11.66   12.57
 -16 -10   2   -1.99   13.49
 -14 -10   2 1554.10   56.46
 -14 -10   2 1335.69   59.70
 -12 -10   2  482.17   34.19
 -12 -10   2  451.17   29.05
 -10 -10   2  308.33   27.62
 -10 -10   2  301.37   22.53
  -8 -10   2 1500.68   57.87
  -8 -10   2 1566.91   48.71
  -6 -10   2  400.28   29.49
  -6 -10   2  372.61   22.83
  -4 -10   2  307.64   26.92
  -4 -10   2  282.98   19.95
  -2 -10   2 1585.73   46.43
  -2 -10   2 1537.10   57.46
   0 -10   2  425.51   24.01
   0 -10   2  436.63   30.15
   2 -10   2  842.07   42.42
   2 -10   2  794.53   33.58
   4 -10   2 1590.04   60.07
   4 -10   2 1722.82   52.58
   6 -10   2  176.28   23.06
   6 -10   2  104.82   22.20
   8 -10   2 1628.52   56.85
   8 -10   2 1531.54   61.89
  10 -10   2  919.31   48.53
  10 -10   2  990.56   46.85
  12 -10   2    1.28   14.46
  12 -10   2   -7.52   15.36
  14 -10   2  715.37   46.32
  14 -10   2  687.33   45.72
  16 -10   2  256.56   36.56
  16 -10   2  290.44   40.49
  18 -10   2   -0.96   18.59
  18 -10   2   26.00   25.50
  20 -10   2  482.61   43.32
  20 -10   2  480.02   53.92
  23   9  -2   -9.99   17.14
 -23  -9   2  -16.52   17.29
 -21  -9   2    6.34   17.58
  21   9  -2   21.10   19.12
  19   9  -2   -2.96   14.28
 -19  -9   2   -9.78   14.27
 -17  -9   2    4.76   15.26
  17   9  -2    7.29   14.03
 -15  -9   2   -0.67   11.33
 -15  -9   2   11.34   13.93
 -13  -9   2   46.98   16.13
 -13  -9   2   96.27   18.44
 -11  -9   2   93.30   16.70
 -11  -9   2   59.82   16.15
  -9  -9   2    2.72    8.76
  -9  -9   2    0.32   10.58
  -7  -9   2    3.45    8.12
  -7  -9   2    4.16   10.33
  -5  -9   2    2.73    9.55
  -5  -9   2   -4.50    6.42
  -3  -9   2  106.19   13.78
  -3  -9   2   87.92   17.37
  -1  -9   2   94.65   13.35
  -1  -9   2  104.56   18.43
   1  -9   2   51.72   11.59
   1  -9   2   48.96   14.50
   3  -9   2   30.03   10.80
   3  -9   2   22.26   13.31
   5  -9   2   15.82   12.26
   5  -9   2   10.98   11.94
   7  -9   2    2.61   13.02
   7  -9   2   17.60   13.81
   9  -9   2   20.74   14.96
   9  -9   2   -1.73   11.54
  11  -9   2    9.24   14.93
  11  -9   2   -8.57   11.91
  13  -9   2    1.61   15.00
  13  -9   2   -4.36   15.68
  15  -9   2   -5.64   13.47
  15  -9   2   -2.82   18.52
  17  -9   2    1.42   15.30
  17  -9   2  -18.17   18.43
  19  -9   2   -7.56   21.28
  19  -9   2    4.76   17.74
  21  -9   2    4.13   24.58
 -24  -8   2  374.42   39.53
  24   8  -2  275.53   40.91
  22   8  -2  -21.73   16.53
 -22  -8   2   -5.19   16.77
 -20  -8   2  740.66   47.30
  20   8  -2  794.50   47.48
 -18  -8   2  917.26   49.81
  18   8  -2  864.34   46.73
  16   8  -2   -1.80   13.00
 -16  -8   2  -10.43   10.21
 -14  -8   2 1288.25   54.14
 -14  -8   2 1324.88   50.99
 -12  -8   2 1020.71   40.88
 -12  -8   2 1032.77   45.91
 -10  -8   2  443.47   29.51
 -10  -8   2  411.55   24.39
  -8  -8   2 2479.22   60.28
  -8  -8   2 2617.63   72.68
  -6  -8   2  640.84   32.87
  -6  -8   2  647.35   26.25
  -4  -8   2  700.75   26.71
  -4  -8   2  672.77   33.65
  -2  -8   2 4526.05   84.53
  -2  -8   2 4576.08  102.38
   0  -8   2  444.14   21.72
   0  -8   2  488.93   28.92
   2  -8   2  989.17   41.77
   2  -8   2 1050.32   34.70
   4  -8   2 2656.41   73.75
   4  -8   2 2629.67   63.79
   6  -8   2   65.75   16.26
   6  -8   2   58.54   15.06
   8  -8   2 1500.28   55.37
   8  -8   2 1418.95   51.00
  10  -8   2 1980.37   66.82
  10  -8   2 1866.33   63.29
  12  -8   2   58.81   19.35
  12  -8   2   46.99   18.27
  14  -8   2  803.73   46.89
  16  -8   2  648.54   46.15
  18  -8   2    2.01   23.66
  20  -8   2  741.59   56.60
 -25  -7   2   -8.66   18.05
  25   7  -2  -16.09   19.34
 -23  -7   2  137.61   29.88
  23   7  -2  178.83   33.19
  21   7  -2   82.92   24.06
 -21  -7   2  120.18   26.20
  19   7  -2  111.57   23.07
 -19  -7   2  148.55   26.63
 -17  -7   2  620.82   39.16
  17   7  -2  599.46   37.65
 -15  -7   2  194.96   25.31
  15   7  -2  199.50   25.98
 -13  -7   2  108.77   18.60
 -13  -7   2   98.56   18.29
 -11  -7   2  985.11   37.99
 -11  -7   2  959.01   41.45
  -9  -7   2  401.89   22.25
  -9  -7   2  393.37   25.68
  -7  -7   2  659.24   31.93
  -7  -7   2  697.85   26.70
  -5  -7   2 3146.78   76.52
  -5  -7   2 2979.27   61.93
  -3  -7   2  554.64   28.39
  -3  -7   2  532.06   21.12
  -1  -7   2  642.62   30.37
  -1  -7   2  630.57   23.41
   1  -7   2 1201.57   43.13
   1  -7   2 1195.76   34.63
   3  -7   2    2.73    8.35
   3  -7   2    1.73    7.05
   5  -7   2  668.18   32.67
   5  -7   2  688.36   30.04
   7  -7   2  650.04   33.84
   7  -7   2  624.55   31.26
   9  -7   2   43.12   14.23
   9  -7   2   21.37   14.69
  11  -7   2  277.43   30.08
  13  -7   2  499.82   37.15
  15  -7   2   57.77   22.60
  17  -7   2  453.19   40.64
  19  -7   2  143.58   33.30
  21  -7   2   -5.33   24.62
 -26  -6   2   40.47   23.65
  26   6  -2   36.00   25.29
 -24  -6   2  174.38   31.83
  24   6  -2  161.92   33.62
 -22  -6   2   -3.90   13.15
  22   6  -2   -7.58   17.27
 -20  -6   2  327.24   32.53
  20   6  -2  325.79   31.24
 -18  -6   2  253.05   27.24
  18   6  -2  249.40   29.66
  16   6  -2    0.39   11.26
 -16  -6   2    7.89   12.45
 -14  -6   2  607.35   34.16
  14   6  -2  587.32   32.72
 -12  -6   2  697.52   32.68
 -12  -6   2  734.24   36.09
 -10  -6   2  189.14   16.75
 -10  -6   2  182.10   17.74
 -10  -6   2  181.46   10.13
  -8  -6   2 1325.46   44.71
  -8  -6   2 1406.38   39.35
  -6  -6   2   -7.74    5.39
  -6  -6   2   -3.43    4.67
  -4  -6   2  231.24   12.91
  -4  -6   2  235.13   18.33
  -2  -6   2 3866.44   67.85
  -2  -6   2 3679.83   82.09
   0  -6   2   38.89   10.49
   0  -6   2   38.10    7.54
   2  -6   2 2217.33   49.86
   2  -6   2 2228.82   59.14
   4  -6   2 2374.04   61.80
   4  -6   2 2243.94   54.98
   6  -6   2   25.35   11.45
   6  -6   2   28.21   10.61
   8  -6   2  335.25   24.81
  10  -6   2  919.66   42.52
  12  -6   2   10.55   15.11
  14  -6   2  307.25   35.09
  16  -6   2  493.01   40.45
  18  -6   2   -2.26   21.34
  20  -6   2  262.90   42.24
  22  -6   2   41.44   30.69
  27   5  -2  384.11   50.52
 -25  -5   2    8.66   19.30
  25   5  -2  -14.34   18.61
 -23  -5   2  627.51   44.89
  23   5  -2  658.31   47.52
 -21  -5   2 1071.59   55.55
  21   5  -2 1057.31   56.33
  19   5  -2   20.19   14.58
 -19  -5   2   20.91   15.38
 -17  -5   2 1045.43   48.10
  17   5  -2 1087.82   49.50
 -15  -5   2  883.49   41.38
  15   5  -2  950.29   43.31
  13   5  -2  191.48   22.05
 -13  -5   2  238.04   20.87
 -11  -5   2 2660.36   66.01
 -11  -5   2 2720.73   49.51
 -11  -5   2 2603.26   69.13
  -9  -5   2  772.48   29.23
  -9  -5   2  753.11   31.78
  -9  -5   2  813.17   21.31
  -7  -5   2 1155.33   38.19
  -7  -5   2 1116.47   31.96
  -5  -5   2 4536.83   90.90
  -5  -5   2 4458.76   76.41
  -3  -5   2  485.21   23.12
  -3  -5   2  479.25   16.31
  -1  -5   2 1941.35   50.47
  -1  -5   2 1889.51   38.65
   1  -5   2 6113.01   99.39
   1  -5   2 6191.51  115.25
   3  -5   2  105.88   12.66
   3  -5   2   47.70   10.27
   5  -5   2 2403.64   57.65
   5  -5   2 2461.98   62.24
   7  -5   2 2974.15   71.57
   9  -5   2   66.87   17.13
  11  -5   2 1854.15   63.69
  13  -5   2 1721.58   65.73
  15  -5   2   83.53   24.40
  17  -5   2 1046.56   59.48
  19  -5   2  241.66   39.07
  21  -5   2  145.80   38.83
  23  -5   2  584.86   62.81
  26   4  -2   -2.27   21.80
  24   4  -2   -0.07   18.71
 -22  -4   2   18.47   16.72
  22   4  -2  -20.71   14.89
 -20  -4   2  -13.01    9.72
  20   4  -2  -10.75   14.72
  18   4  -2  148.89   24.95
 -18  -4   2  201.81   26.32
  16   4  -2    1.94   12.32
 -16  -4   2    1.84    8.90
 -14  -4   2  127.56   18.90
  14   4  -2   93.42   17.58
 -12  -4   2   22.06    9.40
  12   4  -2   23.65   10.80
 -12  -4   2   15.05    5.50
 -10  -4   2   16.89    5.15
  10   4  -2    0.54    6.68
 -10  -4   2    8.60    7.17
  -8  -4   2  223.10   16.06
  -8  -4   2  226.88   10.57
  -8  -4   2  219.39   14.23
  -6  -4   2  825.17   29.15
  -6  -4   2  834.56   24.31
  -4  -4   2  785.40   27.80
  -4  -4   2  851.15   21.08
  -2  -4   2  106.24   10.70
  -2  -4   2   94.43    6.86
   0  -4   2 1465.62   30.98
   0  -4   2 1467.59   39.93
   2  -4   2   21.67    6.86
   2  -4   2   26.38    6.97
   4  -4   2  190.09   14.51
   6  -4   2    3.73    8.47
   8  -4   2   18.05   10.87
  10  -4   2  261.73   25.14
  12  -4   2  125.99   23.64
  14  -4   2   96.53   24.70
  16  -4   2   -9.78   15.38
  18  -4   2   -0.09   20.78
  20  -4   2   55.15   26.92
  22  -4   2  -15.48   24.38
  24  -4   2  -25.20   22.53
  27   3  -2  305.09   46.83
  25   3  -2   -8.90   19.99
  23   3  -2  529.34   43.88
  21   3  -2  860.35   52.12
 -21  -3   2  911.23   49.00
  19   3  -2    1.43   15.39
 -19  -3   2    3.48   11.41
  17   3  -2 1632.43   62.16
 -17  -3   2 1655.09   59.26
 -15  -3   2  499.73   29.52
  15   3  -2  480.18   31.13
 -13  -3   2  177.11   17.22
  13   3  -2  218.44   20.62
 -11  -3   2 3275.11   74.94
 -11  -3   2 3319.42   61.35
  11   3  -2 3284.82   75.56
  -9  -3   2 1359.74   30.45
  -9  -3   2 1308.25   39.56
   9   3  -2 1348.63   39.63
  -7  -3   2  733.60   19.42
  -7  -3   2  702.39   23.08
  -7  -3   2  700.04   25.48
  -5  -3   2 3064.30   62.08
  -5  -3   2 3040.70   52.75
  -3  -3   2  116.55    9.85
  -1  -3   2 8392.88  138.26
   1  -3   2 1907.70   37.27
   1  -3   2 1801.91   42.53
   3  -3   2   13.71    6.41
   5  -3   2 3011.08   64.64
   7  -3   2 5664.76  108.95
   9  -3   2  152.05   20.49
  11  -3   2 2272.61   70.06
  13  -3   2  646.37   40.69
  15  -3   2   13.35   15.71
  17  -3   2  921.92   54.51
  19  -3   2  329.18   42.82
  21  -3   2  233.74   41.14
  23  -3   2  620.14   55.49
  28   2  -2    4.82   26.81
  26   2  -2   92.76   32.14
  24   2  -2  330.64   45.62
  22   2  -2  -18.62   15.58
 -20  -2   2  562.07   37.38
  20   2  -2  610.56   43.17
  18   2  -2  881.16   47.81
 -18  -2   2  922.60   43.93
 -16  -2   2   28.07   11.68
  16   2  -2   21.60   14.20
 -14  -2   2 1175.39   43.30
  14   2  -2 1165.50   46.86
 -12  -2   2 1428.06   44.28
  12   2  -2 1275.18   45.21
 -10  -2   2  546.50   18.74
  10   2  -2  533.30   25.41
 -10  -2   2  509.99   23.33
  -8  -2   2 2406.61   54.11
  -8  -2   2 2458.82   47.06
   8   2  -2 2425.65   53.87
   6   2  -2  890.49   24.91
  -6  -2   2  889.56   26.15
  -6  -2   2  894.13   21.88
  -4  -2   2  517.06   17.79
  -2  -2   2 4202.38   74.25
   0  -2   2 3990.18   70.66
   2  -2   2   59.65    7.79
   4  -2   2 2643.30   56.11
   6  -2   2  848.71   32.23
   8  -2   2 2341.64   63.05
  10  -2   2 1349.90   50.69
  12  -2   2   29.87   14.43
  14  -2   2 1674.83   66.04
  16  -2   2  711.27   46.59
  18  -2   2  -15.25   17.15
  20  -2   2  291.11   42.23
  22  -2   2   83.57   30.22
  24  -2   2  -22.50   28.21
  27   1  -2   55.92   31.38
  25   1  -2   -4.08   18.88
  23   1  -2  133.18   31.78
  21   1  -2    4.26   16.79
  19   1  -2   30.23   18.42
  17   1  -2  187.77   27.12
 -17  -1   2  215.67   25.12
 -15  -1   2    8.65    8.95
  15   1  -2   -0.34   10.22
  13   1  -2   86.37   15.89
 -13  -1   2  113.90   15.56
  11   1  -2  353.38   22.40
 -11  -1   2  342.85   19.67
  -9  -1   2  678.50   21.68
  -9  -1   2  719.71   25.35
   9   1  -2  710.86   27.46
   7   1  -2  468.29   18.81
  -7  -1   2  483.00   16.11
  -7  -1   2  473.56   17.91
  -5  -1   2 3754.58   63.34
  -5  -1   2 3589.21   64.33
   5   1  -2 3653.36   60.80
  -3  -1   2 1549.44   31.57
  -1  -1   2 2851.63   50.33
   1  -1   2  536.23   16.38
   3  -1   2   49.27    8.47
   5  -1   2   23.26    7.73
   7  -1   2   91.27   14.47
   9  -1   2   19.69   10.88
  11  -1   2  392.74   28.47
  13  -1   2  260.36   31.59
  15  -1   2   60.88   20.80
  17  -1   2  397.34   43.23
  19  -1   2   39.62   23.58
  21  -1   2   29.24   29.46
  23  -1   2    5.78   24.94
  28   0  -2    0.70   27.24
  26   0  -2  375.08   50.80
  24   0  -2  816.13   57.10
  22   0  -2   39.90   22.13
  20   0  -2  964.07   54.33
  18   0  -2  938.83   50.22
  16   0  -2  483.05   33.78
  14   0  -2 2453.20   71.34
 -14   0   2 2391.68   64.16
  12   0  -2 8792.66  159.36
 -12   0   2 9263.01  158.32
 -10   0   2    6.04    5.38
 -10   0   2    0.98    4.18
  10   0  -2   12.23    7.40
  -8   0   2 9996.36  157.87
   8   0  -2 9892.01  155.14
  -8   0   2 9733.92  157.66
   6   0  -2 6416.53  101.32
  -6   0   2 6365.81  104.34
  -6   0   2 6340.05  102.85
  -4   0   2 5959.38   94.96
   4   0  -2 5907.08   88.71
  -4   0   2 5782.71   92.25
  -2   0   2 3801.67   63.89
   0   0  -2 1165.87   23.80
  -2   0  -2  740.97   21.24
   6   0   2 1913.48   51.39
   8   0   2 1768.09   53.37
  10   0   2 1169.53   46.47
  12   0   2  226.25   26.92
  14   0   2 1929.27   70.14
  16   0   2 1454.18   64.91
  18   0   2   14.85   19.16
  20   0   2  689.44   51.07
  22   0   2  473.59   56.09
  24   0   2   42.14   32.92
  27  -1  -2   80.60   32.53
  25  -1  -2   -9.67   21.53
  23  -1  -2  121.16   31.39
  21  -1  -2  -12.18   17.45
  19  -1  -2   46.36   20.78
  17  -1  -2  219.82   29.66
  15  -1  -2   -0.95   10.77
  13  -1  -2   61.72   15.46
  11  -1  -2  313.91   21.71
   9  -1  -2  720.67   28.43
  -9   1   2  735.83   24.44
   7  -1  -2  494.50   20.27
  -7   1   2  463.16   18.01
  -7   1   2  474.20   16.42
  -5   1   2 3558.32   59.26
   5  -1  -2 3613.89   62.51
  -5   1   2 3563.09   64.35
   3  -1  -2 1561.12   30.88
  -3   1   2 1669.49   33.21
  -1   1   2 2974.64   50.62
   1  -1  -2 2863.79   48.66
  -1  -1  -2  535.61   17.22
  -3  -1  -2   46.42    8.26
  -5  -1  -2    7.85    6.27
   7   1   2   72.61   13.34
   9   1   2   11.55    9.87
  11   1   2  339.53   26.42
  13   1   2  228.82   28.26
  15   1   2   43.10   18.70
  17   1   2  329.85   39.96
  19   1   2   54.44   23.53
  21   1   2   28.89   24.65
  23   1   2    2.89   24.09
  28  -2  -2   -4.51   28.46
  26  -2  -2  185.26   40.31
  24  -2  -2  399.97   50.13
  22  -2  -2    0.59   18.04
  20  -2  -2  610.54   45.06
  18  -2  -2  913.57   50.43
  16  -2  -2   57.07   18.15
  14  -2  -2 1183.51   48.52
  12  -2  -2 1317.88   46.81
  10  -2  -2  496.25   25.35
   8  -2  -2 2486.10   56.50
  -6   2   2  882.86   26.39
   6  -2  -2  907.61   27.47
  -4   2   2  531.31   17.76
   4  -2  -2  544.50   18.16
   2  -2  -2 4254.67   70.43
  -2   2   2 4307.38   72.13
   0  -2  -2 4196.01   68.36
   0   2   2 4193.21   68.28
   0  -2  -2 4109.65   69.87
  -2  -2  -2   57.24    7.94
  -2  -2  -2   53.66    6.92
  -4  -2  -2 2472.69   53.92
  -4  -2  -2 2573.94   55.45
  -6  -2  -2  857.51   30.12
  -6  -2  -2  816.05   31.11
  -8  -2  -2 2323.99   61.92
  -8  -2  -2 2238.95   59.23
  10   2   2 1290.13   49.38
  12   2   2   18.71   13.62
  14   2   2 1478.36   60.86
  16   2   2  672.11   43.76
  18   2   2   19.30   18.29
  20   2   2  251.58   39.15
  22   2   2   73.16   30.79
  24   2   2  -27.74   22.05
  27  -3  -2  375.21   52.77
  25  -3  -2   -4.51   24.52
  23  -3  -2  537.33   47.12
  21  -3  -2  913.23   56.46
  19  -3  -2    3.01   17.59
  17  -3  -2 1665.70   65.58
  15  -3  -2  527.33   34.37
  13  -3  -2  229.81   24.58
  11  -3  -2 3482.65   80.88
   9  -3  -2 1337.97   41.48
   7  -3  -2  747.38   27.54
   5  -3  -2 3075.90   60.29
   3  -3  -2  109.97    9.14
  -3   3   2  108.70    8.28
   3  -3  -2  126.88    6.71
   1  -3  -2 8088.38  128.88
   1  -3  -2 8627.18  130.51
  -1   3   2 8607.89  132.71
   1   3   2 1745.34   32.65
  -1  -3  -2 1744.46   36.92
  -1  -3  -2 1720.91   39.92
  -3  -3  -2    8.67    4.44
  -3  -3  -2    1.95    4.84
  -5  -3  -2 2875.91   63.75
  -5  -3  -2 2800.40   62.18
  -7  -3  -2 5509.76  106.16
  -7  -3  -2 5353.71  106.11
  -9  -3  -2  171.83   20.53
  -9  -3  -2  112.28   16.46
  11   3   2 2148.15   68.54
 -11  -3  -2 2289.85   66.75
  13   3   2  641.21   39.52
  15   3   2   -1.40   12.37
  17   3   2  867.07   52.31
  19   3   2  279.68   38.87
  21   3   2  139.15   32.66
  23   3   2  573.32   53.35
  26  -4  -2  -31.93   24.87
  24  -4  -2    5.45   19.56
  22  -4  -2   -1.61   19.54
  20  -4  -2  -15.86   14.29
  18  -4  -2  214.78   32.82
  16  -4  -2   28.41   15.60
  14  -4  -2   79.78   18.74
  12  -4  -2    7.63   11.34
  10  -4  -2    9.58    9.27
   8  -4  -2  233.48   17.50
   6  -4  -2  801.22   28.46
   6  -4  -2  840.57   23.27
   4  -4  -2  880.58   23.15
   4  -4  -2  829.06   27.17
   2  -4  -2   99.73   10.93
   2  -4  -2   93.62    7.42
   0  -4  -2 1398.03   36.81
   0  -4  -2 1451.59   33.02
   2   4   2   42.43    4.97
  -2  -4  -2   19.91    6.91
  -2  -4  -2   24.90    6.25
  -4  -4  -2  178.43   13.08
  -4  -4  -2  158.99   13.77
  -6  -4  -2   -2.78    5.07
  -6  -4  -2    0.91    6.63
  -8  -4  -2   23.70    9.88
  -8  -4  -2   28.84   11.31
 -10  -4  -2  253.63   21.12
 -10  -4  -2  248.56   22.39
 -12  -4  -2   72.32   16.95
  14   4   2   63.62   18.82
 -14  -4  -2   44.39   15.56
  16   4   2    5.34   14.37
  18   4   2    1.20   17.73
  20   4   2   48.37   25.65
  22   4   2    7.87   22.22
  27  -5  -2  503.09   59.73
  25  -5  -2  -36.37   19.93
  23  -5  -2  701.20   53.71
  21  -5  -2 1193.68   64.60
  19  -5  -2   33.68   19.29
  17  -5  -2 1148.39   54.77
  15  -5  -2  942.49   46.10
  13  -5  -2  240.72   23.29
  11  -5  -2 2657.19   70.53
   9  -5  -2  736.85   32.28
   7  -5  -2 1139.13   31.59
   7  -5  -2 1127.78   37.38
   5  -5  -2 4691.58   83.30
   5  -5  -2 4470.68   86.26
   3  -5  -2  485.65   18.20
   3  -5  -2  484.48   21.47
   1  -5  -2 1871.15   46.37
   1  -5  -2 1921.34   42.10
  -1  -5  -2 5859.45  105.24
  -1  -5  -2 6056.24  104.27
  -3  -5  -2   72.97   10.27
  -3  -5  -2   67.07   11.63
  -5  -5  -2 2338.43   57.39
  -5  -5  -2 2348.71   59.38
  -7  -5  -2 2975.10   71.37
  -7  -5  -2 2863.56   71.41
  -9  -5  -2   35.86   11.60
  -9  -5  -2   50.63   13.82
 -11  -5  -2 1776.16   59.76
 -11  -5  -2 1863.19   62.83
 -13  -5  -2 1582.39   59.52
 -15  -5  -2   57.71   17.76
  15   5   2   46.24   18.04
  17   5   2  978.69   56.26
  19   5   2  245.64   38.03
  21   5   2   80.48   27.33
  23   5   2  533.06   58.52
  26  -6  -2    9.67   26.77
  24  -6  -2  195.89   39.87
  22  -6  -2  -18.17   19.22
  20  -6  -2  390.83   38.15
  18  -6  -2  302.79   35.97
  16  -6  -2  -11.80   11.77
  14  -6  -2  650.73   38.02
  12  -6  -2  735.95   37.08
  10  -6  -2  193.45   19.38
   8  -6  -2 1488.49   40.66
   8  -6  -2 1446.57   46.21
   6  -6  -2   -1.39    6.62
   6  -6  -2    4.03    5.80
   4  -6  -2  249.44   15.01
   4  -6  -2  239.53   16.59
   2  -6  -2 3693.20   71.84
   2  -6  -2 3609.35   75.01
   0  -6  -2   43.14    8.80
   0  -6  -2   50.74   10.22
  -2  -6  -2 2047.98   50.60
  -2  -6  -2 2112.92   54.05
  -4  -6  -2 2248.19   56.14
  -4  -6  -2 2137.62   56.95
  -6  -6  -2   19.18   10.08
  -6  -6  -2   22.74    9.02
  -8  -6  -2  322.04   24.14
  -8  -6  -2  316.03   22.36
 -10  -6  -2  810.32   38.60
 -10  -6  -2  874.26   40.69
 -12  -6  -2    5.19   12.70
 -12  -6  -2    1.73   11.04
 -14  -6  -2  259.40   26.06
  16   6   2  518.23   41.90
 -16  -6  -2  516.28   37.77
 -18  -6  -2   -2.99   16.87
  18   6   2   -3.83   15.77
  20   6   2  252.54   40.96
  22   6   2   64.03   29.01
  25  -7  -2  -30.78   25.43
  23  -7  -2  239.28   40.34
  21  -7  -2  115.48   30.37
  19  -7  -2  209.21   35.13
  17  -7  -2  735.43   45.23
  15  -7  -2  214.36   29.60
  13  -7  -2  123.23   21.98
  11  -7  -2 1078.48   45.05
  11  -7  -2 1012.42   37.63
   9  -7  -2  399.45   25.96
   9  -7  -2  412.85   22.35
   7  -7  -2  702.55   31.67
   7  -7  -2  704.64   28.69
   5  -7  -2 3230.01   70.45
   5  -7  -2 3253.14   73.54
   3  -7  -2  555.66   23.97
   3  -7  -2  559.69   26.45
   1  -7  -2  616.38   27.72
   1  -7  -2  620.75   25.16
  -1  -7  -2 1141.30   39.34
  -1  -7  -2 1108.07   35.78
  -3  -7  -2   -1.56    6.02
  -3  -7  -2   10.14    7.87
  -5  -7  -2  652.58   31.80
  -5  -7  -2  671.48   30.33
  -7  -7  -2  565.46   29.73
  -7  -7  -2  573.69   30.97
  -9  -7  -2   36.96   13.97
  -9  -7  -2    8.74   10.08
 -11  -7  -2  237.59   23.37
 -11  -7  -2  257.10   25.08
 -13  -7  -2  418.09   31.99
 -13  -7  -2  469.99   34.61
 -15  -7  -2   45.98   18.87
  17   7   2  401.56   39.27
 -17  -7  -2  417.16   36.48
  19   7   2  122.62   33.18
 -19  -7  -2  133.46   29.82
  21   7   2  -21.64   23.41
  24  -8  -2  347.71   48.73
  22  -8  -2  -18.96   19.11
  20  -8  -2  852.76   54.20
  18  -8  -2  881.66   52.12
  16  -8  -2   -7.62   13.32
  14  -8  -2 1387.87   57.09
  14  -8  -2 1377.11   50.18
  12  -8  -2 1018.83   40.53
  12  -8  -2 1088.80   47.07
  10  -8  -2  432.30   28.21
  10  -8  -2  405.80   24.67
   8  -8  -2 2466.16   67.60
   8  -8  -2 2601.99   65.27
   6  -8  -2  689.68   32.26
   6  -8  -2  693.63   30.03
   4  -8  -2  693.82   31.75
   4  -8  -2  742.12   30.17
   2  -8  -2 4705.69   95.32
   2  -8  -2 4740.62   97.69
   0  -8  -2  462.04   23.59
   0  -8  -2  464.37   25.97
  -2  -8  -2  991.00   38.71
  -2  -8  -2  973.09   36.01
  -4  -8  -2 2523.06   65.68
  -4  -8  -2 2583.28   68.61
  -6  -8  -2   38.79   12.36
  -6  -8  -2   53.48   15.11
  -8  -8  -2 1384.00   51.05
  -8  -8  -2 1344.15   49.66
 -10  -8  -2 1783.56   61.87
 -10  -8  -2 1857.68   63.62
 -12  -8  -2   38.25   17.22
 -12  -8  -2   26.69   14.60
 -14  -8  -2  752.07   45.27
 -14  -8  -2  785.52   45.10
 -16  -8  -2  579.64   42.39
  18   8   2   66.28   26.02
 -18  -8  -2   13.51   19.47
 -20  -8  -2  722.63   52.61
  20   8   2  749.87   56.71
  23  -9  -2   -3.60   23.34
  21  -9  -2   -8.29   18.66
  19  -9  -2  -17.88   15.53
  17  -9  -2   -8.68   12.93
  17  -9  -2   11.68   18.36
  15  -9  -2   37.85   17.67
  15  -9  -2   -5.98   11.99
  13  -9  -2   64.65   20.84
  13  -9  -2   79.17   18.15
  11  -9  -2   88.59   18.95
  11  -9  -2   58.43   15.67
   9  -9  -2   27.91   12.71
   9  -9  -2   20.52   11.48
   7  -9  -2   10.83   10.24
   7  -9  -2   21.65   11.97
   5  -9  -2   -1.54    7.70
   5  -9  -2    9.92    9.67
   3  -9  -2   99.33   15.95
   3  -9  -2   97.29   16.03
   1  -9  -2   91.23   14.48
   1  -9  -2  118.23   18.09
  -1  -9  -2   58.12   13.27
  -1  -9  -2   36.68   11.25
  -3  -9  -2   30.17   11.81
  -3  -9  -2   36.44   10.88
  -5  -9  -2   37.43   13.42
  -5  -9  -2    5.37   10.14
  -7  -9  -2    7.60   11.13
  -7  -9  -2   14.09   11.71
  -9  -9  -2    8.51   11.84
  -9  -9  -2   16.43   13.55
 -11  -9  -2   29.65   15.74
 -11  -9  -2   -4.54   12.45
 -13  -9  -2   -5.84   13.58
 -13  -9  -2   -2.94   13.05
 -15  -9  -2   -2.61   14.08
 -15  -9  -2   -5.83   14.15
  17   9   2    7.83   20.10
 -17  -9  -2  -21.43   12.37
 -19  -9  -2  -15.61   16.62
  19   9   2   22.65   25.54
  21   9   2   16.28   24.98
 -21  -9  -2   22.52   22.02
  22 -10  -2    5.09   23.09
  20 -10  -2  424.57   41.76
  18 -10  -2  415.43   37.75
  16 -10  -2  -16.59   15.26
  14 -10  -2 1536.92   62.04
  14 -10  -2 1543.89   57.95
  12 -10  -2  473.34   33.64
  12 -10  -2  515.24   32.72
  10 -10  -2  326.66   28.10
  10 -10  -2  338.05   25.86
   8 -10  -2 1656.26   54.78
   8 -10  -2 1534.22   55.48
   6 -10  -2  420.98   28.75
   6 -10  -2  405.39   26.68
   4 -10  -2  335.97   23.76
   4 -10  -2  319.14   24.53
   2 -10  -2 1646.73   54.89
   2 -10  -2 1642.72   52.44
   0 -10  -2  412.88   26.22
   0 -10  -2  453.55   28.46
  -2 -10  -2  785.65   35.83
  -2 -10  -2  770.01   38.04
  -4 -10  -2 1507.83   54.57
  -4 -10  -2 1526.14   52.36
  -6 -10  -2  138.60   21.17
  -6 -10  -2  112.64   20.92
  -8 -10  -2 1449.30   55.51
  -8 -10  -2 1521.93   57.56
 -10 -10  -2  914.54   46.13
 -10 -10  -2  933.72   45.97
 -12 -10  -2   14.64   15.44
 -12 -10  -2    3.49   14.02
 -14 -10  -2  671.78   44.57
 -14 -10  -2  549.70   40.30
 -16 -10  -2  179.60   30.63
 -16 -10  -2  164.85   30.73
  18  10   2   28.31   26.93
 -18 -10  -2    1.38   17.66
  20  10   2  436.53   55.61
 -20 -10  -2  395.20   42.15
  21 -11  -2  189.40   36.36
  19 -11  -2   22.36   20.90
  17 -11  -2  594.75   44.04
  15 -11  -2  283.09   35.21
  13 -11  -2   25.91   17.08
  11 -11  -2 1010.80   47.98
  11 -11  -2  862.63   43.00
   9 -11  -2  281.86   26.93
   9 -11  -2  300.24   26.28
   7 -11  -2  448.09   29.39
   7 -11  -2  409.45   29.54
   5 -11  -2 1506.97   53.46
   5 -11  -2 1541.74   55.54
   3 -11  -2  353.19   26.01
   3 -11  -2  422.48   28.96
   1 -11  -2  109.75   18.37
   1 -11  -2  132.97   20.30
  -1 -11  -2  518.68   30.71
  -1 -11  -2  487.37   31.18
  -3 -11  -2   26.03   14.12
  -3 -11  -2   32.06   13.83
  -5 -11  -2  973.42   44.09
  -5 -11  -2 1009.98   45.91
  -7 -11  -2  712.42   40.25
  -7 -11  -2  632.93   36.99
  -9 -11  -2    2.20   13.03
  -9 -11  -2    8.13   13.35
 -11 -11  -2  381.10   32.99
 -11 -11  -2  332.83   31.18
 -13 -11  -2  245.52   31.85
 -13 -11  -2  213.04   31.65
 -15 -11  -2   -3.30   17.93
 -15 -11  -2   -1.83   17.47
 -17 -11  -2  366.04   37.23
 -17 -11  -2  373.42   43.81
  19  11   2  123.29   36.25
 -19 -11  -2  146.84   31.79
  20 -12  -2   51.09   25.75
  18 -12  -2   -0.78   19.87
  16 -12  -2    6.30   17.11
  14 -12  -2   94.84   24.68
  12 -12  -2  141.23   25.90
  10 -12  -2   47.11   19.03
   8 -12  -2  318.77   28.81
   6 -12  -2  144.52   22.39
   6 -12  -2  123.50   21.72
   4 -12  -2   92.84   20.46
   4 -12  -2   97.84   19.58
   2 -12  -2  272.51   26.07
   2 -12  -2  242.41   23.90
   0 -12  -2   -9.69   10.57
   0 -12  -2    2.55   11.22
  -2 -12  -2  255.26   23.68
  -2 -12  -2  248.16   24.43
  -4 -12  -2  304.10   26.89
  -4 -12  -2  321.55   28.20
  -6 -12  -2   -7.97   11.88
  -6 -12  -2  -11.42   10.70
  -8 -12  -2   88.56   22.11
  -8 -12  -2  106.25   22.27
 -10 -12  -2  167.87   26.39
 -10 -12  -2  214.43   29.45
 -12 -12  -2   17.54   16.02
 -12 -12  -2    7.04   14.63
 -14 -12  -2   16.79   19.13
 -14 -12  -2   12.75   18.87
 -16 -12  -2  122.30   29.95
 -16 -12  -2  127.61   30.73
  19 -13  -2    2.71   20.93
  17 -13  -2  500.70   42.92
  15 -13  -2  524.40   41.80
  13 -13  -2   58.54   23.19
  11 -13  -2  958.01   49.47
   9 -13  -2  447.49   34.17
   7 -13  -2  279.69   27.07
   5 -13  -2 1327.71   55.56
   3 -13  -2  275.88   26.65
   1 -13  -2  696.24   40.68
   1 -13  -2  642.90   38.05
  -1 -13  -2 1363.56   57.11
  -1 -13  -2 1343.06   54.56
  -3 -13  -2   38.67   17.43
  -3 -13  -2   17.94   15.18
  -5 -13  -2  595.14   39.74
  -5 -13  -2  633.56   38.21
  -7 -13  -2  550.86   39.26
  -7 -13  -2  524.53   36.75
  -9 -13  -2  -11.19   14.95
  -9 -13  -2   -2.88   15.34
 -11 -13  -2  672.89   44.62
 -11 -13  -2  685.90   44.28
 -13 -13  -2  506.18   41.02
 -13 -13  -2  569.39   43.16
 -15 -13  -2    6.25   19.19
 -15 -13  -2   18.42   20.06
  18 -14  -2   83.72   29.02
  16 -14  -2  -16.30   15.62
  14 -14  -2    1.33   17.81
  12 -14  -2   33.36   20.54
  10 -14  -2   19.38   16.25
   8 -14  -2   16.79   18.51
   6 -14  -2   25.35   18.01
   4 -14  -2  242.21   30.03
   2 -14  -2  140.42   24.96
   0 -14  -2    0.70   16.41
  -2 -14  -2  166.21   28.28
  -4 -14  -2  117.73   26.49
  -4 -14  -2  127.49   23.56
  -6 -14  -2   21.97   18.30
  -6 -14  -2   23.39   17.42
  -8 -14  -2   48.19   20.58
  -8 -14  -2   42.85   18.82
 -10 -14  -2  106.48   26.61
 -10 -14  -2   34.23   18.27
 -12 -14  -2   26.21   21.33
 -12 -14  -2    4.74   17.99
 -14 -14  -2    3.20   18.82
 -14 -14  -2   -1.52   18.73
  15 -15  -2  206.92   34.27
  13 -15  -2   36.89   22.07
  11 -15  -2  426.39   38.64
   9 -15  -2  148.20   29.39
   7 -15  -2   80.00   23.82
   5 -15  -2  465.61   37.51
   3 -15  -2  -21.33   14.22
   1 -15  -2  474.83   38.04
  -1 -15  -2  663.03   43.70
  -3 -15  -2   77.13   24.30
  -5 -15  -2  220.60   31.17
  -7 -15  -2  426.94   38.30
  -9 -15  -2  -17.84   16.60
  -9 -17   3  555.08   49.11
  -7 -17   3  116.63   32.43
  -5 -17   3  155.26   34.56
  -3 -17   3  320.31   42.59
  -1 -17   3   10.68   21.85
   1 -17   3  231.39   37.72
   3 -17   3  506.52   46.73
   5 -17   3  -12.85   21.90
 -14 -16   3   10.98   21.50
 -12 -16   3   98.56   29.97
 -10 -16   3   52.16   25.26
  -8 -16   3   42.25   25.95
  -6 -16   3  108.72   28.69
  -4 -16   3   28.92   22.65
  -2 -16   3   74.07   25.07
   0 -16   3  237.71   38.22
   2 -16   3   -0.70   20.52
   4 -16   3   61.03   26.14
   6 -16   3   72.56   28.41
   8 -16   3   18.87   24.40
 -17 -15   3   -5.50   20.71
 -15 -15   3  119.12   31.23
 -13 -15   3   83.52   26.37
 -11 -15   3   26.92   22.39
  -9 -15   3  438.88   39.97
  -7 -15   3   61.44   23.16
  -5 -15   3   53.97   21.89
  -3 -15   3  442.74   40.43
  -1 -15   3   30.14   20.99
   1 -15   3   93.19   26.26
   3 -15   3  363.94   36.74
   5 -15   3    0.31   17.66
   7 -15   3  124.10   30.57
   9 -15   3  237.68   38.79
  11 -15   3   -4.31   25.32
 -18 -14   3  355.77   46.39
 -16 -14   3  214.70   36.86
 -14 -14   3   64.74   26.23
 -12 -14   3  811.68   52.58
 -10 -14   3  232.31   34.61
  -8 -14   3  179.54   30.96
  -6 -14   3  829.08   51.53
  -4 -14   3  -12.92   15.43
  -2 -14   3  976.60   54.69
   0 -14   3 1075.57   57.61
   2 -14   3   30.16   21.03
   4 -14   3  406.34   37.09
   6 -14   3  616.60   46.84
   8 -14   3  -13.48   16.22
  10 -14   3  512.33   45.96
  12 -14   3  452.35   44.29
 -19 -13   3    2.52   19.57
 -17 -13   3  -25.42   15.54
 -15 -13   3    0.75   16.23
 -13 -13   3   33.39   20.31
 -11 -13   3   13.94   17.21
  -9 -13   3   -1.08   13.80
  -7 -13   3    3.24   17.00
  -5 -13   3   36.24   17.84
  -3 -13   3   -6.59   13.94
  -1 -13   3   12.32   16.93
   1 -13   3   -3.19   14.84
   3 -13   3   -0.21   14.69
   5 -13   3  -19.61   15.33
   7 -13   3   -3.89   16.83
   9 -13   3  -13.92   17.63
  11 -13   3  -22.20   18.62
  13 -13   3   13.22   23.67
  15 -13   3  -24.34   22.59
 -22 -12   3  234.49   38.37
 -20 -12   3   10.91   19.99
 -18 -12   3  573.08   45.76
 -16 -12   3  340.12   34.83
 -14 -12   3  128.05   26.34
 -12 -12   3 1038.98   54.65
 -10 -12   3  136.27   27.30
  -8 -12   3  221.11   31.32
  -6 -12   3 1531.60   64.11
  -4 -12   3  424.09   34.98
  -2 -12   3  457.18   35.10
   0 -12   3 1589.54   64.44
   2 -12   3  -14.41   12.18
   4 -12   3 1478.34   64.27
   6 -12   3  979.19   53.93
   8 -12   3    4.35   16.84
  10 -12   3  699.56   48.04
  12 -12   3  413.92   39.77
  14 -12   3  -10.17   18.46
  16 -12   3  373.41   45.78
 -23 -11   3  -23.96   18.73
 -21 -11   3  191.11   34.90
 -19 -11   3  267.19   36.77
 -17 -11   3   -7.08   14.03
 -15 -11   3  657.34   43.80
 -13 -11   3  174.97   28.20
 -11 -11   3   67.27   19.70
  -9 -11   3  462.59   34.39
  -7 -11   3  113.10   22.44
  -5 -11   3  137.06   25.62
  -3 -11   3 1008.39   48.95
  -1 -11   3   -8.83   11.60
   1 -11   3  637.86   39.22
   3 -11   3  725.72   42.71
   5 -11   3   -1.66   14.25
   7 -11   3  188.49   28.87
   9 -11   3  327.71   39.62
  11 -11   3   -7.08   16.20
  13 -11   3  270.77   36.89
  15 -11   3  220.80   35.55
  17 -11   3  -11.11   19.17
 -24 -10   3   53.90   25.36
 -22 -10   3   84.10   25.29
 -20 -10   3   -7.93   17.52
 -18 -10   3  443.27   37.83
 -16 -10   3  329.81   32.59
 -14 -10   3   88.78   21.35
 -12 -10   3  279.55   27.98
 -10 -10   3   52.22   16.72
  -8 -10   3   85.82   19.38
  -6 -10   3  325.96   27.68
  -4 -10   3  310.06   26.97
  -2 -10   3   85.01   19.19
  -2 -10   3   88.33   13.33
   0 -10   3  168.12   16.12
   0 -10   3  132.17   21.88
   2 -10   3   -0.48    9.39
   2 -10   3   19.08   14.84
   4 -10   3  234.10   21.08
   4 -10   3  228.22   28.42
   6 -10   3  230.64   25.12
   6 -10   3  186.81   27.46
   8 -10   3    4.55   14.37
   8 -10   3    4.52   13.59
  10 -10   3  230.53   31.43
  10 -10   3  245.22   30.91
  12 -10   3  159.78   29.02
  12 -10   3  228.65   32.25
  14 -10   3   -5.35   18.18
  14 -10   3   -5.03   17.59
  16 -10   3   59.42   25.75
  16 -10   3  110.18   29.20
  18 -10   3   23.38   24.90
  18 -10   3   -8.96   22.60
 -25  -9   3  421.05   49.78
 -23  -9   3  -27.37   13.94
 -21  -9   3  506.12   41.22
  21   9  -3  521.92   38.43
  19   9  -3  385.24   32.38
 -19  -9   3  420.67   36.58
 -17  -9   3   15.96   16.05
  17   9  -3   10.53   13.21
 -15  -9   3  778.63   44.63
 -13  -9   3  439.20   32.07
 -13  -9   3  386.63   25.81
 -11  -9   3  274.91   20.59
 -11  -9   3  322.59   27.29
  -9  -9   3 2140.81   69.24
  -9  -9   3 2218.60   55.51
  -7  -9   3  594.27   34.28
  -7  -9   3  573.63   25.27
  -5  -9   3  630.96   35.44
  -5  -9   3  674.52   26.20
  -3  -9   3 3026.11   83.59
  -3  -9   3 3095.35   64.58
  -1  -9   3  459.67   30.27
  -1  -9   3  502.14   23.15
   1  -9   3 1013.67   45.05
   1  -9   3 1028.19   34.53
   3  -9   3 1887.84   52.21
   3  -9   3 1871.68   64.10
   5  -9   3  -12.15    9.64
   5  -9   3   -7.53   10.30
   7  -9   3 1466.96   58.68
   7  -9   3 1374.54   50.81
   9  -9   3  777.37   41.05
   9  -9   3  825.39   44.77
  11  -9   3   -0.92   14.58
  11  -9   3   31.72   17.33
  13  -9   3  870.78   48.85
  13  -9   3  821.27   48.60
  15  -9   3  507.95   39.73
  15  -9   3  468.33   41.65
  17  -9   3  239.48   39.67
  17  -9   3  178.69   31.99
  19  -9   3  836.89   59.94
  19  -9   3  723.20   50.91
 -26  -8   3   -5.39   18.98
  26   8  -3  -22.95   20.93
  24   8  -3   -4.57   17.56
 -24  -8   3  -19.80   16.06
  22   8  -3  -24.03   13.57
 -22  -8   3  -15.31   14.65
  20   8  -3   31.69   17.80
 -20  -8   3   60.70   19.23
  18   8  -3  439.76   32.43
 -18  -8   3  396.68   33.23
 -16  -8   3  471.54   34.27
  16   8  -3  468.54   31.48
 -14  -8   3   49.08   15.75
 -14  -8   3   65.76   16.28
 -12  -8   3  294.36   25.27
 -12  -8   3  302.93   21.70
 -10  -8   3  -10.54    8.49
 -10  -8   3   -7.20    6.79
  -8  -8   3   -7.98    8.04
  -8  -8   3   12.48    7.01
  -6  -8   3   42.68   13.40
  -6  -8   3   52.15    9.99
  -4  -8   3   16.05    6.81
  -4  -8   3    0.27    7.83
  -2  -8   3   40.86    8.65
  -2  -8   3   25.33   11.43
   0  -8   3   77.49   16.50
   0  -8   3   93.77   12.45
   2  -8   3   -7.60    6.91
   2  -8   3   -6.25    8.01
   4  -8   3   56.43   15.61
   4  -8   3  103.18   16.39
   6  -8   3  201.07   24.71
   6  -8   3  207.81   23.39
   8  -8   3    3.01   11.94
   8  -8   3    4.97   11.42
  10  -8   3  320.12   33.22
  10  -8   3  256.90   26.40
  12  -8   3   50.57   18.34
  12  -8   3   45.23   18.44
  14  -8   3   10.51   18.22
  16  -8   3   76.05   26.80
  18  -8   3  124.53   32.39
  20  -8   3   37.43   29.50
  27   7  -3   57.37   25.95
 -27  -7   3   74.05   26.96
  25   7  -3  138.51   32.65
 -25  -7   3   77.95   24.98
  23   7  -3    1.65   16.01
 -23  -7   3  -26.56   14.10
  21   7  -3  614.79   41.22
 -21  -7   3  596.19   41.70
  19   7  -3  726.41   41.84
 -19  -7   3  673.99   42.19
 -17  -7   3   62.36   17.91
  17   7  -3   10.80   13.01
  15   7  -3 1657.80   56.59
 -15  -7   3 1760.70   62.80
 -13  -7   3  704.70   33.18
 -13  -7   3  699.27   36.81
 -11  -7   3  141.22   19.71
 -11  -7   3  133.33   16.23
  -9  -7   3  529.65   29.82
  -9  -7   3  531.49   23.54
  -7  -7   3  226.57   14.23
  -7  -7   3  229.52   19.76
  -5  -7   3  733.86   34.05
  -5  -7   3  737.12   23.92
  -3  -7   3 4102.17   92.89
  -3  -7   3 3967.43   71.22
  -1  -7   3  172.95   12.44
  -1  -7   3  200.19   18.54
   1  -7   3 1348.37   47.87
   1  -7   3 1464.99   38.37
   3  -7   3 1275.02   39.27
   3  -7   3 1255.79   47.45
   5  -7   3   47.66   12.99
   5  -7   3   37.40   12.90
   7  -7   3  986.66   40.62
   7  -7   3  939.51   42.66
   9  -7   3  902.72   42.77
   9  -7   3  923.71   43.99
  11  -7   3   32.92   16.37
  13  -7   3  623.33   41.30
  15  -7   3  493.30   41.78
  17  -7   3   22.23   25.80
  19  -7   3  561.55   49.21
  21  -7   3  175.68   41.87
 -26  -6   3  -14.34   16.31
  26   6  -3  -30.86   16.66
  24   6  -3  505.07   41.66
 -24  -6   3  494.28   41.59
  22   6  -3  253.63   35.71
 -22  -6   3  227.54   32.04
 -20  -6   3  114.28   23.90
  20   6  -3  131.62   24.45
  18   6  -3  568.71   36.31
 -18  -6   3  563.44   36.21
 -16  -6   3  370.08   28.24
  16   6  -3  380.39   28.41
  14   6  -3  100.13   17.40
 -14  -6   3  118.86   19.44
 -12  -6   3 2126.62   63.50
 -10  -6   3 1161.31   31.41
 -10  -6   3 1100.21   35.80
 -10  -6   3 1121.86   42.53
  -8  -6   3 1543.61   49.45
  -8  -6   3 1502.12   38.64
  -6  -6   3 5726.06   94.92
  -6  -6   3 5945.66  117.58
  -4  -6   3  660.41   30.32
  -4  -6   3  638.54   19.78
  -2  -6   3 1983.89   40.27
  -2  -6   3 1954.09   55.62
   0  -6   3 1365.48   33.61
   0  -6   3 1359.24   45.16
   2  -6   3   -8.40    6.74
   2  -6   3   -7.59    5.65
   4  -6   3 1949.30   51.13
   4  -6   3 2053.34   59.18
   6  -6   3 2428.18   63.20
   6  -6   3 2430.13   68.74
   8  -6   3   47.25   14.65
  10  -6   3 2485.59   74.60
  12  -6   3  853.90   46.28
  14  -6   3   50.79   21.03
  16  -6   3  666.26   48.27
  18  -6   3  171.07   34.97
  20  -6   3  125.75   35.22
  22  -6   3  566.31   61.31
  27   5  -3  -16.58   21.93
 -25  -5   3   20.25   20.11
  25   5  -3  -10.93   16.47
 -23  -5   3   -7.98   13.30
  23   5  -3  -17.65   16.51
 -21  -5   3  -13.37   11.47
  21   5  -3   -6.45   15.08
 -19  -5   3   -3.10   11.27
  19   5  -3   12.58   14.00
 -17  -5   3    6.38   10.80
  17   5  -3    5.30   12.97
  15   5  -3  121.00   19.26
 -15  -5   3  118.18   18.46
 -13  -5   3   16.87    6.67
 -13  -5   3   20.18   10.56
  13   5  -3   23.64   10.48
  11   5  -3   62.02   12.24
 -11  -5   3   70.16    9.30
 -11  -5   3   69.83   13.59
  -9  -5   3    3.84    5.31
  -9  -5   3    7.79    7.64
  -9  -5   3   14.33    6.86
  -7  -5   3   -4.09    4.03
  -7  -5   3   -6.40    4.90
  -5  -5   3   12.54    6.80
  -5  -5   3   17.09    4.70
  -3  -5   3  296.84   18.86
  -3  -5   3  309.23   11.50
  -1  -5   3    0.42    6.19
  -1  -5   3    0.79    4.09
   1  -5   3  525.65   19.93
   1  -5   3  508.51   25.29
   3  -5   3  672.97   29.75
   3  -5   3  652.31   25.43
   5  -5   3    4.04    8.89
   7  -5   3   56.26   15.17
   9  -5   3   70.87   17.84
  11  -5   3  238.52   29.25
  13  -5   3   16.45   17.75
  15  -5   3  172.96   30.67
  17  -5   3  -22.30   17.09
  19  -5   3   23.92   24.60
  21  -5   3   -6.79   25.10
  28   4  -3  399.02   52.99
  26   4  -3    1.36   21.36
  24   4  -3  766.04   51.26
 -24  -4   3  645.29   45.07
  22   4  -3  831.32   50.43
 -22  -4   3  849.71   48.32
 -20  -4   3   -5.61   11.48
  20   4  -3    1.59   14.12
 -18  -4   3 1192.70   50.86
  18   4  -3 1168.19   51.86
 -16  -4   3  882.24   40.48
  16   4  -3  902.66   42.65
 -14  -4   3  493.22   28.14
  14   4  -3  420.96   26.97
 -14  -4   3  466.09   19.41
 -12  -4   3 3669.12   69.08
 -12  -4   3 3612.92   84.01
  12   4  -3 3630.94   80.75
  10   4  -3 2569.95   58.98
 -10  -4   3 2392.78   61.67
 -10  -4   3 2573.62   51.55
  -8  -4   3 4577.92   82.12
  -6  -4   3 4398.06   70.77
  -6  -4   3 4290.50   86.81
  -4  -4   3   42.44    9.25
  -4  -4   3   55.04    4.90
  -2  -4   3 5705.57   83.88
  -2  -4   3 5552.88  105.01
   0  -4   3 4129.58   68.69
   0  -4   3 4195.35   84.35
   2  -4   3   11.62    6.36
   2  -4   3    5.37    6.50
   4  -4   3 3142.27   66.92
   6  -4   3 4902.82   98.37
   8  -4   3    3.46   11.29
  10  -4   3 2821.86   79.60
  12  -4   3 2223.87   75.24
  14  -4   3  112.86   26.79
  16  -4   3 1094.22   59.55
  18  -4   3  432.25   42.82
  20  -4   3  239.31   42.50
  22  -4   3  559.36   63.52
  27   3  -3   39.45   27.86
  25   3  -3  119.27   31.45
  23   3  -3   11.27   19.09
 -23  -3   3    2.66   14.91
 -21  -3   3  330.72   30.02
  21   3  -3  344.40   33.72
 -19  -3   3  421.72   31.00
  19   3  -3  384.27   32.71
 -17  -3   3   49.82   14.40
  17   3  -3   57.85   18.28
 -15  -3   3  108.68   11.00
  15   3  -3  124.12   19.44
 -15  -3   3  126.85   17.86
  13   3  -3  613.87   30.59
 -13  -3   3  597.14   28.88
 -13  -3   3  606.59   22.23
 -11  -3   3  864.33   32.79
 -11  -3   3  858.36   25.80
  11   3  -3  823.21   31.91
  -9  -3   3  737.04   27.96
  -9  -3   3  729.94   22.42
   9   3  -3  711.71   26.03
   7   3  -3  169.02   10.76
  -7  -3   3  160.21   12.47
  -7  -3   3  182.86   10.92
  -5  -3   3 2032.85   47.81
  -3  -3   3  524.06   21.28
  -1  -3   3 7328.92  126.75
  -1  -3   3 7487.75  108.41
   1  -3   3  425.65   19.62
   1  -3   3  433.41   16.43
   3  -3   3 2886.33   59.20
   5  -3   3  294.33   18.92
   7  -3   3 1187.24   42.87
   9  -3   3  346.78   26.16
  11  -3   3   36.62   16.36
  13  -3   3   -8.03   15.65
  15  -3   3   24.58   19.56
  17  -3   3   20.08   20.54
  19  -3   3  109.14   33.66
  21  -3   3  145.08   36.71
  23  -3   3   41.05   31.42
  28   2  -3  147.16   36.53
  26   2  -3    7.06   21.20
  24   2  -3  348.04   45.48
 -22  -2   3  636.09   40.90
  22   2  -3  632.34   45.73
 -20  -2   3   11.05   12.42
  20   2  -3   13.19   15.73
  18   2  -3 1232.55   54.36
 -18  -2   3 1134.23   47.80
 -16  -2   3  128.28   18.55
  16   2  -3   91.96   19.17
 -14  -2   3  327.92   17.72
  14   2  -3  312.39   23.69
 -14  -2   3  330.63   22.03
 -12  -2   3 4373.45   89.37
  12   2  -3 4148.29   89.52
 -12  -2   3 4259.25   80.39
 -10  -2   3  889.87   30.54
  10   2  -3  867.73   30.90
 -10  -2   3  900.17   26.50
  -8  -2   3  526.19   18.41
  -8  -2   3  521.78   20.79
   8   2  -3  506.20   19.58
  -6  -2   3 4867.76   83.79
  -6  -2   3 4788.71   85.90
   6   2  -3 4722.80   75.63
  -4  -2   3 2250.63   47.66
  -2  -2   3   60.88    7.87
   0  -2   3 5850.69   87.88
   0  -2   3 5534.29   98.20
   2  -2   3   12.79    5.76
   4  -2   3 1878.63   47.38
   6  -2   3 1593.43   47.76
   8  -2   3   56.08   13.96
  10  -2   3  907.95   42.59
  12  -2   3  135.88   23.80
  14  -2   3   28.38   18.23
  16  -2   3  791.56   50.91
  18  -2   3  196.76   34.92
  20  -2   3   88.13   30.30
  22  -2   3  332.22   51.70
  29   1  -3  -29.02   21.40
  27   1  -3  445.06   55.67
  25   1  -3  430.01   50.84
  23   1  -3  -14.34   19.02
  21   1  -3 1043.89   56.92
 -19  -1   3  816.68   41.23
  19   1  -3  852.98   47.78
 -17  -1   3  149.66   19.79
  17   1  -3  139.40   23.94
  15   1  -3 2226.58   67.70
 -15  -1   3 2318.96   63.35
 -13  -1   3 2393.38   61.19
  13   1  -3 2422.53   65.47
 -13  -1   3 2581.89   57.32
  11   1  -3   21.62    8.63
 -11  -1   3   37.56    8.60
 -11  -1   3   25.92    7.14
  -9  -1   3 4977.53   90.78
  -9  -1   3 5053.30   89.23
   9   1  -3 4946.50   89.35
   7   1  -3  581.80   19.28
  -7  -1   3  590.02   19.59
  -7  -1   3  577.59   19.26
  -5  -1   3 1242.38   28.85
   5   1  -3 1189.43   24.50
  -5  -1   3 1252.70   29.86
  -3  -1   3 6874.79  111.11
   1   1  -3  231.31    8.66
  -1  -1   3  197.07   10.30
  -1   1  -3 6833.18  105.33
   3  -1   3 2985.30   61.82
   5  -1   3 1145.19   37.63
   7  -1   3 1851.93   54.90
   9  -1   3 1480.92   52.55
  11  -1   3   51.84   16.36
  13  -1   3 2846.67   87.82
  15  -1   3 1196.44   58.95
  17  -1   3    7.36   19.24
  19  -1   3  913.14   58.63
  21  -1   3  160.48   37.55
  23  -1   3   69.78   34.58
  28   0  -3  -46.19   22.80
  26   0  -3    7.76   25.86
  24   0  -3  -26.58   16.35
  22   0  -3  -20.37   15.89
  20   0  -3  -29.85   11.34
  18   0  -3    0.25   13.04
  16   0  -3    5.59   11.79
 -16   0   3   -2.29    7.57
  14   0  -3    2.82    9.47
 -14   0   3   -7.06    6.15
  12   0  -3   -1.66    7.27
 -12   0   3    3.04    6.30
 -12   0   3   -0.34    5.08
  10   0  -3   -0.26    6.31
 -10   0   3    0.37    4.59
 -10   0   3    1.83    4.47
   8   0  -3    2.11    5.21
  -8   0   3    1.74    3.64
  -8   0   3    1.49    3.77
  -6   0   3   -3.68    3.22
  -6   0   3   -0.84    2.71
   6   0  -3    0.14    4.45
  -4   0   3   -1.98    2.00
   4   0  -3    6.84    3.07
  -4   0   3    1.51    2.22
   2   0  -3   -0.54    2.04
  -2   0   3    2.90    2.37
   0   0  -3   -5.74    2.91
  -2   0  -3    2.17    4.44
  -4   0  -3   -2.74    4.58
   6   0   3    2.05    7.11
   8   0   3   -7.65    7.02
  10   0   3  -18.88    7.61
  12   0   3  -12.72   10.01
  14   0   3    7.87   15.06
  16   0   3  -18.90   13.96
  18   0   3  -25.44   16.60
  20   0   3  -34.46   17.71
  22   0   3  -20.12   22.35
  29  -1  -3   -7.65   26.23
  27  -1  -3  307.71   48.00
  25  -1  -3  448.95   44.78
  23  -1  -3  -30.86   14.66
  21  -1  -3  963.67   55.40
  19  -1  -3  750.62   46.67
  17  -1  -3   82.19   20.90
  15  -1  -3 2215.28   68.61
 -13   1   3 2595.10   61.65
  13  -1  -3 2540.81   68.56
 -11   1   3   49.66    9.25
 -11   1   3   43.59    9.34
  11  -1  -3   38.99   10.63
  -9   1   3 4796.53   90.98
  -9   1   3 4928.61   86.11
   9  -1  -3 5013.07   90.90
  -7   1   3  609.18   21.09
   7  -1  -3  554.29   21.01
  -7   1   3  547.19   16.18
   5  -1  -3 1193.16   28.34
  -5   1   3 1236.36   30.55
  -3   1   3 6945.97  111.46
   3  -1  -3 6765.78  103.45
   1  -1  -3  225.89   10.95
  -1  -1  -3 7065.14  111.75
  -3  -1  -3 2801.73   58.71
  -5  -1  -3 1084.49   36.05
   9   1   3 1592.58   55.62
  11   1   3   55.89   16.90
  13   1   3 2607.53   83.59
  15   1   3  948.73   51.97
  17   1   3   -6.50   16.22
  19   1   3  907.10   58.41
  21   1   3  201.49   41.66
  23   1   3   21.37   27.29
  28  -2  -3  200.00   42.99
  26  -2  -3    2.25   24.97
  24  -2  -3  358.56   47.67
  22  -2  -3  609.29   47.54
  20  -2  -3  -12.37   14.96
  18  -2  -3 1226.30   56.50
  16  -2  -3  146.98   23.29
  14  -2  -3  329.05   25.58
  12  -2  -3 4168.74   90.54
 -10   2   3  824.71   30.11
  10  -2  -3  890.15   32.80
  -8   2   3  480.26   20.81
   8  -2  -3  524.40   22.47
   6  -2  -3 4946.80   84.00
  -6   2   3 4705.24   86.72
   4  -2  -3 2188.56   44.39
  -4   2   3 2215.91   45.86
   2  -2  -3   74.24    7.39
  -2   2   3   70.63    6.52
   0  -2  -3 5649.74   93.09
   0   2   3 5759.03   93.57
   0  -2  -3 5715.49   94.31
  -2  -2  -3   10.25    5.39
  -2  -2  -3   10.84    4.83
  -4  -2  -3 1780.58   46.73
  -4  -2  -3 1817.04   45.79
  -6  -2  -3 1478.91   45.71
  -8  -2  -3   29.54   10.99
  10   2   3  827.96   41.08
  12   2   3  119.23   23.21
  14   2   3    7.88   14.46
  16   2   3  755.35   49.22
  18   2   3  126.98   30.01
  20   2   3    9.75   22.46
  22   2   3  345.60   49.18
  27  -3  -3   78.39   35.10
  25  -3  -3  114.04   33.78
  23  -3  -3   14.72   24.53
  21  -3  -3  323.11   39.33
  19  -3  -3  378.31   34.51
  17  -3  -3   53.12   18.74
  15  -3  -3  122.75   22.29
  13  -3  -3  515.14   30.03
  11  -3  -3  810.20   33.83
  -9   3   3  706.27   27.67
   9  -3  -3  705.78   28.75
  -7   3   3  170.89   12.89
   7  -3  -3  184.39   13.86
   5  -3  -3 2137.68   47.04
  -5   3   3 2115.16   47.55
   3  -3  -3  489.70   19.35
  -3   3   3  530.30   18.49
   1  -3  -3 7538.61  120.64
   1  -3  -3 7416.23  116.91
  -1   3   3 7525.19  120.28
   1   3   3  433.32   14.06
  -1  -3  -3  438.37   16.46
  -1  -3  -3  435.35   19.85
   3   3   3 2955.11   51.30
  -3  -3  -3 2833.90   62.74
  -3  -3  -3 2800.23   60.11
  -5  -3  -3  226.81   16.38
  -5  -3  -3  249.66   18.03
  -7  -3  -3 1202.50   41.39
  -7  -3  -3 1233.77   43.57
  -9  -3  -3  355.04   25.77
  -9  -3  -3  294.44   22.49
  11   3   3   13.88   13.59
  13   3   3   21.75   15.74
  15   3   3   18.75   16.89
  17   3   3   26.25   19.86
  19   3   3   95.70   28.07
  21   3   3  114.43   32.13
  23   3   3   -3.08   28.94
  28  -4  -3  501.39   61.74
  26  -4  -3  -16.59   22.01
  24  -4  -3  717.38   55.62
  22  -4  -3  776.70   52.86
  20  -4  -3   17.76   17.99
  18  -4  -3 1285.36   58.52
  16  -4  -3  843.61   43.65
  14  -4  -3  443.82   29.79
  12  -4  -3 3801.71   87.93
  10  -4  -3 2651.46   65.75
   8  -4  -3 4565.23   89.60
   6  -4  -3 4448.47   73.91
   6  -4  -3 4354.59   82.93
  -6   4   3 4333.38   85.40
   4  -4  -3   54.66    9.75
   4  -4  -3   62.52    5.46
  -4   4   3   90.97    9.13
   2  -4  -3 5491.35   98.76
  -2   4   3 5744.62   98.06
   2  -4  -3 5878.19   92.62
   0   4   3 4016.35   70.24
   0  -4  -3 4015.00   77.89
   0  -4  -3 4016.56   71.59
  -2  -4  -3   11.23    7.16
   2   4   3   17.27    4.54
  -2  -4  -3    5.54    5.12
   4   4   3 3040.02   52.02
  -4  -4  -3 2997.38   69.15
  -4  -4  -3 3102.03   67.07
   6   4   3 4632.64   75.58
  -6  -4  -3 4764.41   97.08
  -6  -4  -3 4675.12   97.55
  -8  -4  -3    4.14    7.83
  -8  -4  -3   -5.97    7.65
 -10  -4  -3 3025.46   79.82
 -10  -4  -3 2764.25   79.65
 -12  -4  -3 2064.38   68.26
  14   4   3   96.54   24.55
  16   4   3 1060.48   58.86
  18   4   3  426.84   41.16
  20   4   3  209.01   39.81
  22   4   3  425.47   54.78
  27  -5  -3    4.90   25.91
  25  -5  -3    2.90   21.68
  23  -5  -3   -5.08   18.95
  21  -5  -3  -14.33   15.85
  19  -5  -3  -19.45   13.22
  17  -5  -3    7.05   16.33
  15  -5  -3  152.68   23.50
  13  -5  -3   31.21   13.00
  11  -5  -3   61.18   14.44
   9  -5  -3   24.57   10.57
   7  -5  -3    0.43    4.08
   7  -5  -3   21.39    8.55
   5  -5  -3    9.59    6.44
   5  -5  -3    8.15    4.68
   3  -5  -3  287.74   17.47
   3  -5  -3  303.63   12.92
  -3   5   3  335.21   16.61
  -1   5   3    3.19    4.40
   1  -5  -3   -0.47    5.23
   1  -5  -3    3.79    3.98
  -1  -5  -3  494.06   20.02
  -1  -5  -3  466.04   23.50
   1   5   3  483.85   16.75
  -3  -5  -3  665.86   29.22
   3   5   3  651.53   17.57
  -3  -5  -3  687.59   26.10
  -5  -5  -3   -1.35    7.66
  -5  -5  -3   -2.47    6.72
  -7  -5  -3   48.27   13.44
  -7  -5  -3   44.92   11.92
  -9  -5  -3   64.70   15.49
  -9  -5  -3   51.02   13.92
 -11  -5  -3  218.73   22.37
 -11  -5  -3  174.74   25.21
 -13  -5  -3   -9.08   10.51
  15   5   3  187.64   31.61
  17   5   3  -16.33   18.56
  19   5   3   18.19   22.72
  21   5   3  -22.64   21.28
  26  -6  -3  -10.48   22.63
  24  -6  -3  580.62   49.59
  22  -6  -3  268.01   39.01
  20  -6  -3  200.87   32.64
  18  -6  -3  589.73   41.21
  16  -6  -3  392.98   31.98
  14  -6  -3  113.00   22.21
  12  -6  -3 2198.11   65.57
  10  -6  -3 1090.67   41.87
  10  -6  -3 1144.59   34.61
   8  -6  -3 1611.24   40.92
   8  -6  -3 1623.28   49.09
   6  -6  -3 5861.04  111.14
   6  -6  -3 6095.58  104.84
   4  -6  -3  685.82   29.08
   4  -6  -3  677.54   22.72
   2  -6  -3 2066.66   54.04
   2  -6  -3 2101.30   46.35
   0  -6  -3 1296.67   35.02
   0  -6  -3 1171.37   39.90
  -2  -6  -3   -0.37    4.99
  -4  -6  -3 1901.64   55.51
  -4  -6  -3 1912.37   51.66
  -6  -6  -3 2247.88   60.71
  -6  -6  -3 2190.84   63.32
  -8  -6  -3   48.78   13.35
  -8  -6  -3   54.04   14.70
 -10  -6  -3 2214.95   70.31
 -10  -6  -3 2265.59   69.55
 -12  -6  -3  873.22   46.07
 -12  -6  -3  723.89   40.38
 -14  -6  -3   54.37   17.70
  16   6   3  650.41   48.89
  18   6   3  217.16   39.14
  20   6   3   73.02   30.75
  22   6   3  603.29   65.28
  27  -7  -3  102.90   37.45
  25  -7  -3  156.31   38.08
  23  -7  -3  -20.34   18.64
  21  -7  -3  639.55   47.57
  19  -7  -3  856.59   51.46
  17  -7  -3   69.55   22.57
  15  -7  -3 1988.33   69.53
  13  -7  -3  641.16   36.92
  11  -7  -3  143.37   16.18
  11  -7  -3  118.11   19.71
   9  -7  -3  563.05   24.97
   9  -7  -3  550.25   29.72
   7  -7  -3  244.60   19.30
   7  -7  -3  242.50   16.59
   5  -7  -3  711.46   26.04
   5  -7  -3  762.08   32.38
   3  -7  -3 4077.20   87.18
   3  -7  -3 4122.30   79.56
   1  -7  -3  148.55   17.74
   1  -7  -3  155.63   12.73
  -1  -7  -3 1345.39   45.41
  -1  -7  -3 1406.90   40.44
  -3  -7  -3 1246.50   44.69
  -3  -7  -3 1139.42   38.67
  -5  -7  -3   15.41    9.65
  -5  -7  -3   44.15   13.63
  -7  -7  -3  938.88   39.17
  -7  -7  -3  917.60   40.99
  -9  -7  -3  872.76   42.56
  -9  -7  -3  908.14   41.96
 -11  -7  -3   21.01   13.70
 -11  -7  -3   13.76   14.77
 -13  -7  -3  538.32   38.87
 -13  -7  -3  514.05   36.29
 -15  -7  -3  442.37   36.44
  17   7   3   40.14   24.56
 -17  -7  -3   28.01   19.83
  19   7   3  601.11   52.97
  21   7   3  163.20   40.86
  26  -8  -3  -14.97   25.50
  24  -8  -3   -9.73   21.45
  22  -8  -3  -19.56   15.91
  20  -8  -3   82.16   26.20
  18  -8  -3  459.38   37.61
  16  -8  -3  470.84   36.92
  14  -8  -3   59.38   18.43
  14  -8  -3   37.01   12.86
  12  -8  -3  288.04   25.27
  12  -8  -3  283.37   20.93
  10  -8  -3    1.63    8.93
  10  -8  -3  -10.92    9.63
   8  -8  -3    3.83    8.85
   8  -8  -3    4.98    7.65
   6  -8  -3   45.64   12.02
   6  -8  -3   29.76    8.96
   4  -8  -3    7.31    8.34
   4  -8  -3    1.73    6.70
   2  -8  -3   21.06    8.13
   2  -8  -3   36.70   12.07
   0  -8  -3   97.37   13.39
   0  -8  -3  112.86   16.63
  -2  -8  -3    4.29    8.51
  -2  -8  -3    6.59    7.40
  -4  -8  -3   58.17   12.99
  -4  -8  -3   72.42   16.46
  -6  -8  -3  143.79   18.90
  -6  -8  -3  156.63   21.68
  -8  -8  -3   -9.98   10.08
  -8  -8  -3    6.06   10.46
 -10  -8  -3  272.39   24.88
 -10  -8  -3  186.35   26.21
 -12  -8  -3   37.41   16.28
 -12  -8  -3   41.10   18.80
 -14  -8  -3   61.74   22.08
 -14  -8  -3   30.59   15.84
 -16  -8  -3   28.03   19.75
  18   8   3   96.59   36.20
 -18  -8  -3   59.01   23.47
  20   8   3   -3.09   24.89
  25  -9  -3  564.27   61.44
  23  -9  -3  -14.37   20.19
  21  -9  -3  671.29   49.44
  19  -9  -3  428.82   38.70
  17  -9  -3   47.38   19.89
  15  -9  -3  821.96   45.94
  13  -9  -3  394.99   26.54
  13  -9  -3  448.31   33.07
  11  -9  -3  348.31   24.40
  11  -9  -3  318.29   26.65
   9  -9  -3 2313.85   68.46
   9  -9  -3 2325.35   62.56
   7  -9  -3  621.22   32.78
   7  -9  -3  591.20   28.23
   5  -9  -3  686.48   29.57
   5  -9  -3  693.52   34.59
   3  -9  -3 3137.91   79.33
   3  -9  -3 3128.25   71.66
   1  -9  -3  470.10   24.88
   1  -9  -3  510.10   29.71
  -1  -9  -3 1025.54   37.75
  -1  -9  -3 1025.84   42.81
  -3  -9  -3 1904.50   55.63
  -3  -9  -3 1783.73   59.65
  -5  -9  -3   -6.39    8.54
  -5  -9  -3  -14.33    9.32
  -7  -9  -3 1285.80   52.25
  -7  -9  -3 1271.18   49.15
  -9  -9  -3  751.67   41.65
  -9  -9  -3  749.54   40.03
 -11  -9  -3    3.50   13.88
 -11  -9  -3    2.20   13.33
 -13  -9  -3  801.94   46.44
 -13  -9  -3  867.16   49.48
 -15  -9  -3  547.99   43.27
 -15  -9  -3  491.66   39.93
 -17  -9  -3  195.12   33.69
  17   9   3  179.24   43.25
 -19  -9  -3  738.35   53.38
  19   9   3  850.91   68.68
  24 -10  -3   25.68   29.15
  22 -10  -3  142.06   34.30
  20 -10  -3    2.77   19.58
  18 -10  -3  476.57   39.50
  16 -10  -3  380.90   33.69
  14 -10  -3   91.20   22.92
  12 -10  -3  294.06   27.60
  10 -10  -3   41.08   13.89
  10 -10  -3   63.83   17.63
   8 -10  -3   76.37   15.62
   8 -10  -3   92.16   19.23
   6 -10  -3  353.91   23.47
   6 -10  -3  388.75   27.74
   4 -10  -3  336.36   23.03
   4 -10  -3  328.86   25.90
   2 -10  -3   88.81   18.61
   2 -10  -3   53.25   12.67
   0 -10  -3  146.22   18.35
   0 -10  -3  183.98   23.04
  -2 -10  -3    8.18   10.14
  -2 -10  -3    2.29   10.34
  -4 -10  -3  259.50   24.56
  -4 -10  -3  245.10   22.30
  -6 -10  -3  157.96   21.69
  -6 -10  -3  171.70   25.03
  -8 -10  -3   10.43   12.78
  -8 -10  -3   10.42   15.15
 -10 -10  -3  226.88   30.73
 -10 -10  -3  220.03   27.19
 -12 -10  -3  116.64   23.30
 -12 -10  -3  188.25   30.10
 -14 -10  -3    2.23   16.17
 -14 -10  -3   -7.42   15.66
 -16 -10  -3   63.83   24.24
 -16 -10  -3  108.33   28.02
  18  10   3   -2.00   28.50
 -18 -10  -3   36.72   22.35
  23 -11  -3   -3.11   24.35
  21 -11  -3  245.77   38.82
  19 -11  -3  342.90   40.94
  17 -11  -3    0.31   17.31
  15 -11  -3  678.98   43.30
  13 -11  -3  166.57   26.96
  11 -11  -3  157.48   24.84
   9 -11  -3  565.46   35.65
   7 -11  -3  153.05   24.35
   5 -11  -3  202.81   25.24
   5 -11  -3  140.40   19.35
   3 -11  -3 1039.58   41.27
   3 -11  -3 1105.51   47.30
   1 -11  -3    1.03   10.19
   1 -11  -3   -1.73   11.96
  -1 -11  -3  565.02   35.01
  -1 -11  -3  617.65   32.09
  -3 -11  -3  708.71   39.76
  -3 -11  -3  717.43   36.31
  -5 -11  -3  -10.54   10.50
  -5 -11  -3   -2.46   12.59
  -7 -11  -3  182.49   25.51
  -7 -11  -3  234.85   31.04
  -9 -11  -3  287.08   28.13
  -9 -11  -3  280.72   27.83
 -11 -11  -3  -10.29   14.06
 -11 -11  -3  -11.93   15.46
 -13 -11  -3  308.23   38.57
 -13 -11  -3  197.34   30.64
 -15 -11  -3  217.17   34.74
 -15 -11  -3  232.46   35.53
 -17 -11  -3  -13.69   19.43
  22 -12  -3  270.18   40.70
  20 -12  -3   10.72   19.80
  18 -12  -3  626.65   45.81
  16 -12  -3  359.15   34.30
  14 -12  -3  129.69   27.75
  12 -12  -3  999.73   50.59
  10 -12  -3  136.47   23.54
   8 -12  -3  285.61   27.60
   6 -12  -3 1670.81   62.04
   4 -12  -3  394.25   30.52
   2 -12  -3  436.16   32.27
   0 -12  -3 1574.02   54.92
   0 -12  -3 1612.99   61.35
  -2 -12  -3   -8.56   10.70
  -2 -12  -3  -25.32   10.28
  -4 -12  -3 1332.79   53.03
  -4 -12  -3 1372.37   58.32
  -6 -12  -3  977.43   46.30
  -6 -12  -3  975.61   50.44
  -8 -12  -3   -7.25   13.30
  -8 -12  -3   -1.11   15.31
 -10 -12  -3  644.41   42.99
 -10 -12  -3  607.43   40.10
 -12 -12  -3  336.79   33.35
 -12 -12  -3  385.96   41.08
 -14 -12  -3   11.18   19.77
 -14 -12  -3    4.14   17.58
 -16 -12  -3  372.14   45.16
 -16 -12  -3  386.19   45.95
  19 -13  -3   29.31   23.35
  17 -13  -3   -1.88   16.86
  15 -13  -3   12.70   18.71
  13 -13  -3   35.36   19.62
  11 -13  -3   -3.10   13.55
   9 -13  -3    4.88   15.22
   7 -13  -3   33.16   18.47
   5 -13  -3   42.99   17.87
   3 -13  -3  -19.54   10.20
   1 -13  -3  -12.25   12.11
  -1 -13  -3  -12.53   11.90
  -3 -13  -3   22.80   15.88
  -5 -13  -3  -11.03   16.16
  -5 -13  -3   -0.77   14.41
  -7 -13  -3    9.39   16.46
  -7 -13  -3   17.03   16.69
  -9 -13  -3    1.60   15.72
  -9 -13  -3  -23.59   14.43
 -11 -13  -3   -1.87   18.70
 -11 -13  -3   -7.86   15.18
 -13 -13  -3   13.40   18.82
 -13 -13  -3  -23.42   17.03
 -15 -13  -3  -10.00   20.37
 -15 -13  -3  -12.62   19.40
  18 -14  -3  428.39   41.96
  16 -14  -3  298.80   39.49
  14 -14  -3   74.40   23.78
  12 -14  -3  908.77   51.96
  10 -14  -3  328.03   32.33
   8 -14  -3  302.68   35.79
   6 -14  -3  872.42   48.72
   4 -14  -3   -5.84   14.65
   2 -14  -3  972.87   50.75
   0 -14  -3 1178.23   56.98
  -2 -14  -3   52.94   21.36
  -4 -14  -3  408.47   36.41
  -6 -14  -3  496.36   39.36
  -8 -14  -3  -23.00   15.42
 -10 -14  -3  557.10   44.16
 -12 -14  -3  504.11   43.18
  17 -15  -3   10.35   21.91
  15 -15  -3  170.74   32.40
  13 -15  -3   76.63   24.96
  11 -15  -3   48.35   21.02
   9 -15  -3  461.68   37.68
   7 -15  -3   91.75   26.19
   5 -15  -3  123.31   26.74
   3 -15  -3  526.49   40.02
   1 -15  -3   76.76   22.33
  -1 -15  -3  153.65   29.82
  -3 -15  -3  410.03   38.13
  -5 -15  -3  -23.07   17.83
  -7 -15  -3  205.72   33.08
  -9 -15  -3  243.33   34.61
 -11 -15  -3  -12.65   20.51
  14 -16  -3   21.43   25.84
  12 -16  -3  112.63   29.10
  10 -16  -3   81.87   26.81
   8 -16  -3   53.63   25.98
   6 -16  -3  178.26   30.91
   4 -16  -3   24.53   19.97
   2 -16  -3  142.54   29.58
   0 -16  -3  300.43   37.28
  -2 -16  -3   36.21   22.77
  -4 -16  -3   82.73   27.51
  -6 -16  -3  102.83   29.91
  -9 -17   4   -9.84   20.17
  -7 -17   4   -1.85   20.00
  -5 -17   4  -18.41   19.13
  -3 -17   4   -0.36   20.97
  -1 -17   4   16.97   23.51
   1 -17   4  -11.13   19.71
   3 -17   4  -22.34   21.04
 -14 -16   4   97.21   30.50
 -12 -16   4   55.24   27.42
 -10 -16   4  457.75   43.94
  -8 -16   4   24.67   22.59
  -6 -16   4  136.04   31.29
  -4 -16   4  462.21   43.45
  -2 -16   4   23.56   23.30
   0 -16   4  354.02   45.31
   2 -16   4  459.46   43.43
   4 -16   4  -13.29   20.83
   6 -16   4  398.96   48.40
 -17 -15   4   60.97   27.53
 -15 -15   4  152.58   32.31
 -13 -15   4  569.18   47.04
 -11 -15   4   22.41   20.73
  -9 -15   4  129.39   29.13
  -7 -15   4  327.82   40.55
  -5 -15   4   46.75   23.97
  -3 -15   4  196.86   34.51
  -1 -15   4  625.95   46.78
   1 -15   4   16.10   20.08
   3 -15   4  363.10   37.67
   5 -15   4  174.09   34.10
   7 -15   4   11.92   21.19
   9 -15   4  401.76   49.99
 -18 -14   4    6.29   21.61
 -16 -14   4   40.33   23.33
 -14 -14   4   32.28   23.13
 -12 -14   4  108.84   28.01
 -10 -14   4   91.86   25.86
  -8 -14   4   -6.86   14.82
  -6 -14   4    5.19   17.15
  -4 -14   4   46.29   22.02
  -2 -14   4   18.08   18.88
   0 -14   4   44.84   21.32
   2 -14   4   86.14   26.36
   4 -14   4  -12.19   16.67
   6 -14   4  -12.24   18.25
   8 -14   4   20.21   21.98
  10 -14   4   11.08   21.56
  12 -14   4   33.43   26.42
 -21 -13   4   22.98   21.79
 -19 -13   4  590.07   47.97
 -17 -13   4  186.08   34.39
 -15 -13   4  167.77   30.92
 -13 -13   4  767.46   50.25
 -11 -13   4  277.08   36.86
  -9 -13   4  413.04   37.88
  -7 -13   4 1555.95   68.27
  -5 -13   4   25.62   20.66
  -3 -13   4 1524.74   67.21
  -1 -13   4 1412.83   64.46
   1 -13   4   17.95   17.37
   3 -13   4  836.56   51.33
   5 -13   4  946.42   56.32
   7 -13   4   -3.94   17.00
   9 -13   4  642.97   50.37
  11 -13   4  425.21   43.70
  13 -13   4   44.40   26.66
 -22 -12   4   19.60   21.74
 -20 -12   4   22.24   21.98
 -18 -12   4   -3.02   16.24
 -16 -12   4   77.96   23.90
 -14 -12   4   41.57   20.70
 -12 -12   4   21.01   17.45
 -10 -12   4  183.83   29.00
  -8 -12   4  106.14   23.82
  -6 -12   4   58.58   20.10
  -4 -12   4   34.56   17.55
  -2 -12   4    2.90   14.34
   0 -12   4   35.32   18.34
   2 -12   4   22.38   16.47
   4 -12   4   -1.01   15.53
   6 -12   4  150.30   30.63
   8 -12   4   80.10   25.88
  10 -12   4  -12.41   18.91
  12 -12   4   79.66   27.78
  14 -12   4   28.47   25.28
 -23 -11   4  204.38   36.68
 -21 -11   4   64.73   24.56
 -19 -11   4  557.33   44.07
 -17 -11   4  398.73   36.02
 -15 -11   4   11.05   16.11
 -13 -11   4  738.34   45.53
 -11 -11   4  201.70   29.03
  -9 -11   4  226.67   29.88
  -7 -11   4  807.82   45.19
  -5 -11   4   57.99   17.67
  -3 -11   4   85.12   21.50
  -1 -11   4  698.98   41.69
   1 -11   4  -15.42   11.16
   3 -11   4  696.26   43.66
   5 -11   4  723.86   45.50
   7 -11   4   60.91   21.39
   9 -11   4  731.11   49.77
  11 -11   4  426.30   39.50
  13 -11   4   11.77   19.10
  15 -11   4  271.14   39.74
 -24 -10   4    5.92   19.03
 -22 -10   4  345.77   36.25
 -20 -10   4  423.50   38.31
 -18 -10   4   88.91   23.43
 -16 -10   4  646.55   42.85
 -14 -10   4  106.83   22.56
 -12 -10   4  484.32   35.02
 -10 -10   4 1218.98   54.31
  -8 -10   4  349.78   29.32
  -6 -10   4  484.23   33.88
  -4 -10   4 2097.19   71.45
  -2 -10   4   39.29   15.71
   0 -10   4  764.65   42.01
   2 -10   4 1808.16   67.79
   4 -10   4   -3.32   14.26
   6 -10   4  903.02   49.26
   8 -10   4  666.57   44.45
  10 -10   4   25.49   20.86
  12 -10   4  531.48   42.56
  14 -10   4  318.69   41.86
  16 -10   4   29.84   23.21
 -25  -9   4   -5.35   18.11
 -23  -9   4  -20.24   15.23
 -21  -9   4   -3.41   15.28
 -19  -9   4   24.20   16.33
 -17  -9   4    0.20   13.19
 -15  -9   4  -10.78   12.82
 -13  -9   4   -2.91   10.92
 -11  -9   4   -8.15    9.86
  -9  -9   4   -0.34    9.94
  -7  -9   4   81.48   17.63
  -5  -9   4   40.85   15.39
  -3  -9   4   -3.79    8.85
  -1  -9   4   -7.78    8.72
   1  -9   4   79.56   13.15
   1  -9   4   58.46   16.67
   3  -9   4   14.99   10.18
   3  -9   4    2.20   11.49
   5  -9   4   13.71   15.01
   5  -9   4   16.45   12.62
   7  -9   4  -11.72   14.02
   7  -9   4   11.88   13.91
   9  -9   4   77.82   20.01
   9  -9   4   92.34   23.59
  11  -9   4   40.99   20.01
  11  -9   4   10.22   17.30
  13  -9   4   -9.15   16.22
  13  -9   4  -21.63   15.76
  15  -9   4    0.45   19.72
  15  -9   4  -13.43   18.44
  17  -9   4  -39.31   21.05
  17  -9   4  -30.31   18.70
 -26  -8   4  294.76   41.01
 -24  -8   4    9.42   17.37
 -22  -8   4  534.33   41.42
  22   8  -4  541.33   39.25
  20   8  -4  282.49   32.22
 -20  -8   4  282.98   30.09
  18   8  -4  151.66   22.84
 -18  -8   4  161.78   26.36
 -16  -8   4 1588.02   62.25
  16   8  -4 1397.07   52.36
 -14  -8   4  646.57   37.92
  14   8  -4  682.62   32.69
 -12  -8   4  221.90   26.87
 -12  -8   4  194.85   19.94
 -10  -8   4 1783.03   60.66
 -10  -8   4 1604.17   43.88
  -8  -8   4  515.42   31.51
  -8  -8   4  468.50   20.42
  -6  -8   4 1231.31   32.39
  -6  -8   4 1268.71   49.45
  -4  -8   4 3362.80   62.65
  -4  -8   4 3373.55   87.34
  -2  -8   4  206.68   21.24
  -2  -8   4  198.57   13.21
   0  -8   4 1817.38   44.47
   0  -8   4 1820.26   61.13
   2  -8   4 1168.21   49.08
   2  -8   4 1285.50   38.60
   4  -8   4    4.25   10.27
   4  -8   4   -6.67    9.40
   6  -8   4 1243.62   45.90
   6  -8   4 1279.72   53.61
   8  -8   4 1040.79   45.56
   8  -8   4 1036.04   49.82
  10  -8   4    7.88   14.89
  10  -8   4  -10.46   12.01
  12  -8   4 1083.60   54.88
  12  -8   4 1133.74   54.54
  14  -8   4  445.44   37.64
  14  -8   4  473.90   39.52
  16  -8   4  190.41   35.70
  18  -8   4  579.33   49.48
  27   7  -4  -15.40   21.17
 -27  -7   4    4.31   19.37
  25   7  -4  195.96   33.93
 -25  -7   4  256.25   36.49
  23   7  -4  121.78   26.46
 -23  -7   4  182.76   30.30
  21   7  -4   27.76   18.96
 -21  -7   4   30.80   16.74
 -19  -7   4  794.40   45.36
  19   7  -4  890.61   44.88
  17   7  -4  823.50   40.62
 -17  -7   4  795.33   42.83
 -15  -7   4   44.68   15.69
  15   7  -4   31.02   12.36
 -13  -7   4  810.36   39.96
  13   7  -4  823.26   34.15
 -11  -7   4  400.46   21.39
 -11  -7   4  353.47   25.85
  -9  -7   4  463.26   20.34
  -9  -7   4  468.05   28.84
  -7  -7   4  842.10   24.97
  -7  -7   4  841.57   38.27
  -5  -7   4   14.27   10.28
  -5  -7   4   23.68    6.33
  -3  -7   4  247.00   21.19
  -3  -7   4  239.24   12.55
  -1  -7   4  618.99   21.38
  -1  -7   4  616.22   32.61
   1  -7   4  247.87   21.87
   1  -7   4  245.88   16.26
   3  -7   4  805.25   38.69
   3  -7   4  721.52   29.64
   5  -7   4  906.26   42.30
   5  -7   4  869.94   36.17
   7  -7   4  227.86   25.32
   7  -7   4  241.19   24.73
   9  -7   4  769.72   40.76
   9  -7   4  787.30   42.70
  11  -7   4  304.47   33.94
  13  -7   4   14.67   18.83
  15  -7   4  396.21   44.58
  17  -7   4  144.87   32.37
  19  -7   4   41.56   29.64
 -28  -6   4   83.92   28.93
  28   6  -4  108.77   31.79
 -26  -6   4   99.94   26.60
  26   6  -4   64.37   24.36
  24   6  -4  -18.79   17.36
 -24  -6   4  -14.69   13.89
  22   6  -4  170.64   30.39
 -22  -6   4  193.40   29.34
  20   6  -4  331.48   30.76
 -20  -6   4  309.91   29.25
  18   6  -4   25.92   13.78
 -18  -6   4   29.90   14.70
  16   6  -4  721.02   36.63
 -16  -6   4  702.88   38.02
 -14  -6   4  333.09   25.22
  14   6  -4  345.65   23.88
 -12  -6   4   -1.98    7.49
  12   6  -4   -9.11    6.68
 -12  -6   4   -2.01    6.15
 -10  -6   4  572.89   23.30
 -10  -6   4  563.42   30.02
  -8  -6   4   93.55   10.49
  -8  -6   4   83.73   15.09
  -6  -6   4  675.13   19.16
  -6  -6   4  621.41   31.07
  -4  -6   4 1417.01   47.27
  -4  -6   4 1468.92   29.75
  -2  -6   4  159.55   18.82
  -2  -6   4  150.19    9.60
   0  -6   4  486.39   27.50
   0  -6   4  474.76   18.94
   2  -6   4  436.71   26.84
   2  -6   4  433.44   20.95
   4  -6   4  155.04   20.19
   4  -6   4  155.08   17.78
   6  -6   4  334.36   24.13
   6  -6   4  361.27   26.67
   8  -6   4  257.38   25.00
  10  -6   4   -4.69   13.10
  12  -6   4  349.40   37.48
  14  -6   4  106.95   28.92
  16  -6   4   72.43   26.56
  18  -6   4  210.20   39.23
  20  -6   4    7.43   24.89
 -27  -5   4   -4.31   16.13
  27   5  -4  -39.72   20.48
  25   5  -4  517.50   43.90
 -25  -5   4  555.28   42.93
  23   5  -4  504.62   39.98
 -23  -5   4  492.14   38.34
  21   5  -4  -16.82   12.25
 -21  -5   4   -4.64   11.81
 -19  -5   4 1613.92   61.67
  19   5  -4 1711.74   63.36
  17   5  -4  499.75   31.77
 -17  -5   4  490.49   31.35
  15   5  -4  609.14   32.26
 -15  -5   4  594.20   32.77
 -13  -5   4 3560.75   70.04
 -13  -5   4 3408.75   84.05
  13   5  -4 3351.58   77.43
  11   5  -4  530.66   24.45
 -11  -5   4  524.62   27.96
 -11  -5   4  518.30   21.61
  -9  -5   4 2461.30   64.61
   9   5  -4 2499.65   52.46
  -7  -5   4 6147.10   94.77
  -7  -5   4 6089.96  119.87
  -5  -5   4  892.15   34.62
  -5  -5   4  877.72   19.43
  -3  -5   4 4546.74   69.60
  -3  -5   4 4571.97   95.78
  -1  -5   4 6787.57  103.22
  -1  -5   4 6704.75  128.41
   1  -5   4  529.37   27.09
   1  -5   4  569.91   21.37
   3  -5   4 4411.13   97.24
   3  -5   4 4430.54   84.67
   5  -5   4 2993.34   70.55
   7  -5   4   -1.73   10.65
   9  -5   4 2362.09   72.25
  11  -5   4  594.06   39.30
  13  -5   4   14.51   17.13
  15  -5   4  997.29   56.69
  17  -5   4  371.16   45.79
  19  -5   4  170.14   39.66
  21  -5   4  706.93   59.06
  28   4  -4  -11.93   19.99
  26   4  -4  -29.53   20.66
 -26  -4   4    7.83   17.77
  24   4  -4   -6.13   17.46
 -24  -4   4   -1.32   14.47
 -22  -4   4   32.19   16.48
  22   4  -4   14.20   19.82
 -20  -4   4   59.54   17.76
  20   4  -4   56.92   18.37
 -18  -4   4   43.92   14.59
  18   4  -4   24.96   14.56
 -16  -4   4   61.98   15.28
 -16  -4   4   55.10   11.12
  16   4  -4   37.29   14.18
  14   4  -4   13.97    9.56
 -14  -4   4   24.40    8.21
 -14  -4   4   21.75   10.33
  12   4  -4  111.01   14.68
 -12  -4   4   86.67   14.30
 -12  -4   4  117.30   10.70
 -10  -4   4  245.81   14.46
 -10  -4   4  222.32   17.24
  10   4  -4  213.70   14.89
   8   4  -4  526.74   18.55
  -8  -4   4  529.39   24.99
  -6  -4   4  500.66   23.91
  -4  -4   4  159.71   14.09
  -2  -4   4  273.12   17.82
  -2  -4   4  243.04    9.45
   0  -4   4   23.30    6.25
   0  -4   4   15.65    7.02
   2  -4   4  817.96   27.42
   2  -4   4  833.44   33.01
   4  -4   4   94.42   14.17
   6  -4   4  278.63   22.18
   8  -4   4  173.40   23.46
  10  -4   4   63.57   18.71
  12  -4   4  280.68   32.94
  14  -4   4    4.89   17.41
  16  -4   4   -1.46   21.12
  18  -4   4   38.15   27.81
  20  -4   4    3.87   22.57
  29   3  -4  347.69   52.72
  27   3  -4  -27.47   18.18
  25   3  -4  800.98   54.05
 -25  -3   4  737.30   47.31
  23   3  -4  719.04   49.37
 -23  -3   4  767.16   45.62
  21   3  -4   27.05   18.10
 -21  -3   4   11.94   13.64
  19   3  -4  992.44   48.69
 -19  -3   4  870.16   42.87
  17   3  -4  571.37   35.01
 -17  -3   4  573.70   31.96
 -17  -3   4  617.30   26.18
  15   3  -4  771.12   36.80
 -15  -3   4  781.05   35.01
 -15  -3   4  868.68   30.00
 -13  -3   4 4257.01   92.41
  13   3  -4 4367.34   91.00
 -13  -3   4 4257.91   83.15
 -11  -3   4  225.40   13.90
 -11  -3   4  201.39   15.82
  11   3  -4  206.92   15.47
  -9  -3   4 4533.97   83.31
  -9  -3   4 4269.15   87.18
   9   3  -4 4471.62   78.14
   7   3  -4 3900.40   62.14
  -7  -3   4 3654.50   76.36
  -5  -3   4 1506.47   40.82
  -3  -3   4  304.85   17.59
  -1  -3   4 6425.58  115.91
  -1  -3   4 6541.90   97.60
   1  -3   4    0.10    5.45
   1  -3   4   -4.66    4.89
   3  -3   4 3569.66   72.16
   5  -3   4 3259.55   74.11
   7  -3   4  149.49   20.42
   9  -3   4 2596.97   75.31
  11  -3   4 1128.66   51.49
  13  -3   4  158.74   27.82
  15  -3   4 1145.37   59.81
  17  -3   4  505.08   44.44
  19  -3   4  113.38   34.74
  21  -3   4  559.33   63.44
  28   2  -4  201.74   39.82
  26   2  -4  314.59   43.83
  24   2  -4  -19.12   16.82
 -24  -2   4   -4.61   13.76
 -22  -2   4  586.86   38.05
  22   2  -4  612.44   43.68
 -20  -2   4  197.86   26.64
  20   2  -4  153.10   27.19
  18   2  -4  120.50   23.37
 -18  -2   4  178.04   22.50
 -16  -2   4 1289.43   45.94
 -16  -2   4 1308.10   40.56
  16   2  -4 1320.89   50.59
 -14  -2   4  459.28   21.88
 -14  -2   4  465.65   24.94
  14   2  -4  467.12   26.90
 -12  -2   4   54.54    9.58
  12   2  -4   37.76   10.00
 -12  -2   4   41.48    9.76
 -10  -2   4 2815.51   58.33
  10   2  -4 2764.00   57.83
 -10  -2   4 2620.08   59.97
  -8  -2   4    2.60    4.16
  -8  -2   4   -0.89    3.89
   8   2  -4    7.13    4.45
  -6  -2   4  385.33   17.46
   6   2  -4  365.28   11.16
  -4  -2   4 3932.44   75.05
  -2  -2   4   10.73    5.24
   0  -2   4 3700.50   64.78
   2  -2   4 4161.42   77.76
   4  -2   4  259.18   18.37
   6  -2   4 2068.01   58.23
   8  -2   4 1122.69   45.16
  10  -2   4  193.53   25.52
  12  -2   4  659.95   41.51
  14  -2   4   17.55   17.52
  16  -2   4   62.60   23.44
  18  -2   4  668.01   52.12
  20  -2   4  125.50   34.43
  22  -2   4   17.78   29.71
  29   1  -4   48.78   33.62
  27   1  -4   18.15   25.16
  25   1  -4   80.53   28.53
  23   1  -4   60.06   24.02
 -21  -1   4    2.74   10.89
  21   1  -4  -11.26   12.84
 -19  -1   4   39.55   14.12
  19   1  -4   37.31   18.42
 -17  -1   4  192.45   18.74
  17   1  -4  174.50   23.95
 -15  -1   4   17.24    8.95
  15   1  -4   15.70   10.67
 -15  -1   4   18.34    8.53
 -13  -1   4  385.96   20.02
 -13  -1   4  337.07   19.84
  13   1  -4  308.79   21.98
 -11  -1   4 1558.96   41.20
 -11  -1   4 1573.39   41.71
  11   1  -4 1559.74   43.32
  -9  -1   4  909.73   27.26
   9   1  -4  906.26   27.40
  -9  -1   4  888.31   27.89
   7   1  -4  990.34   24.37
  -7  -1   4  979.02   26.90
  -7  -1   4  965.53   28.33
  -5  -1   4   73.81    7.57
   5   1  -4   61.95    4.96
   3   1  -4 1365.35   25.65
  -3  -1   4 1349.74   32.65
   1   1  -4   53.23    6.37
  -1   1  -4  197.34   12.13
   3  -1   4  372.00   19.96
   5  -1   4  664.47   30.61
   7  -1   4   -7.09    8.20
   9  -1   4  377.74   28.51
  11  -1   4   53.08   17.27
  13  -1   4  273.05   33.43
  15  -1   4  166.77   30.10
  17  -1   4   52.35   24.35
  19  -1   4   38.68   26.20
  21  -1   4  119.60   38.43
  28   0  -4  320.16   47.83
  26   0  -4  224.44   41.40
  24   0  -4   46.43   26.51
  22   0  -4 1852.75   76.88
  20   0  -4 1090.11   54.88
 -18   0   4  455.03   28.45
  18   0  -4  455.53   33.76
 -16   0   4 2449.07   62.93
  16   0  -4 2350.06   71.09
 -16   0   4 2465.61   64.94
 -14   0   4 2878.01   67.40
  14   0  -4 2855.87   73.05
 -14   0   4 2815.84   66.68
  12   0  -4 1101.14   37.95
 -12   0   4 1133.64   34.42
 -12   0   4 1136.80   35.73
 -10   0   4 6998.74  123.47
  10   0  -4 7095.89  119.04
 -10   0   4 7064.58  118.71
   8   0  -4  552.78   20.04
  -8   0   4  552.81   21.40
  -8   0   4  591.86   18.58
  -6   0   4  757.75   24.16
   6   0  -4  771.44   20.79
  -6   0   4  750.64   19.66
   4   0  -4  326.29   11.87
  -4   0   4  303.91   14.77
  -4   0   4  331.15   12.39
   2   0  -4    1.49    3.95
   0   0  -4 6002.92   96.60
  -2   0  -4 3823.75   72.59
  -4   0  -4   79.28   12.19
   6   0   4 2940.60   73.42
   8   0   4 2028.65   63.26
  10   0   4  418.70   31.18
  12   0   4 2422.25   80.03
  14   0   4 1786.61   71.97
  16   0   4   11.50   20.67
  18   0   4  962.64   60.08
  20   0   4  124.80   33.11
  22   0   4  186.64   42.69
  29  -1  -4   37.08   28.38
  27  -1  -4   -7.57   23.66
  25  -1  -4  127.88   32.55
  23  -1  -4   74.90   24.95
  21  -1  -4   -5.29   17.59
  19  -1  -4   48.23   18.42
  17  -1  -4  207.70   26.92
 -15   1   4   15.01    8.28
 -15   1   4   15.24    9.01
  15  -1  -4   16.86   12.01
 -13   1   4  331.71   20.53
 -13   1   4  375.73   19.61
  13  -1  -4  354.63   23.30
 -11   1   4 1527.80   38.51
  11  -1  -4 1555.83   44.73
 -11   1   4 1598.57   43.82
  -9   1   4  874.92   29.13
  -9   1   4  918.10   24.21
   9  -1  -4  900.97   29.49
   7  -1  -4  971.94   27.82
  -7   1   4 1011.66   22.08
  -7   1   4  981.95   29.71
   5  -1  -4   76.92    7.55
  -5   1   4   53.85    8.11
  -3   1   4 1356.59   33.39
   3  -1  -4 1294.10   30.40
   1  -1  -4   41.62    6.89
  -1  -1  -4  247.54   14.37
  -3  -1  -4  339.79   18.87
  -5  -1  -4  667.38   29.54
   9   1   4  367.24   28.04
  11   1   4   46.74   17.39
  13   1   4  234.84   32.02
  15   1   4  148.31   28.50
  17   1   4  118.85   31.18
  19   1   4   14.99   23.59
  21   1   4  115.68   36.42
  28  -2  -4  225.51   43.84
  26  -2  -4  244.97   42.45
  24  -2  -4  -18.79   16.61
  22  -2  -4  524.53   43.43
  20  -2  -4  246.30   34.45
  18  -2  -4  130.31   24.02
  16  -2  -4 1333.29   52.56
 -14   2   4  482.13   25.70
  14  -2  -4  473.06   28.90
  12  -2  -4   59.51   13.89
 -12   2   4   59.45   11.77
  10  -2  -4 2791.40   63.33
 -10   2   4 2734.90   63.33
  -8   2   4   10.28    5.49
   8  -2  -4    0.84    5.68
  -6   2   4  380.16   17.38
   6  -2  -4  381.21   16.97
   4  -2  -4 3955.41   70.26
  -4   2   4 3865.77   72.87
   2  -2  -4    0.69    4.02
  -2   2   4    0.56    3.44
   0   2   4 3538.88   65.89
   0  -2  -4 3500.61   68.15
  -2  -2  -4 3778.94   75.24
  -4  -2  -4  244.45   17.89
  -6  -2  -4 1941.46   56.40
  -8  -2  -4 1072.81   43.99
  10   2   4  185.58   26.37
  12   2   4  667.00   42.61
  14   2   4   37.97   19.29
  16   2   4   87.60   25.48
  18   2   4  587.63   49.03
  20   2   4  123.70   35.20
  22   2   4  102.52   37.76
  29  -3  -4  366.79   56.77
  27  -3  -4   -2.23   25.80
  25  -3  -4  808.43   57.75
  23  -3  -4  719.51   50.81
  21  -3  -4   -0.44   15.73
  19  -3  -4  962.36   50.75
  17  -3  -4  519.10   35.64
  15  -3  -4  794.35   39.00
  13  -3  -4 4149.52   92.69
  11  -3  -4  239.12   18.92
 -11   3   4  204.76   16.39
   9  -3  -4 4431.77   86.85
  -9   3   4 4352.82   88.68
  -7   3   4 3784.98   76.28
   7  -3  -4 3737.67   73.47
   5  -3  -4 1414.55   37.27
  -5   3   4 1476.26   37.75
   3  -3  -4  288.61   15.75
  -3   3   4  263.77   13.81
   1  -3  -4 6151.76  108.38
  -1   3   4 6489.25  107.24
   1  -3  -4 6504.62  104.02
  -1  -3  -4   -5.74    4.89
   1   3   4    3.48    4.26
  -1  -3  -4    6.24    4.89
  -3  -3  -4 3510.46   73.48
   3   3   4 3596.54   65.07
  -3  -3  -4 3474.08   75.38
  -5  -3  -4 3157.72   74.45
  -7  -3  -4  117.40   17.89
  -9  -3  -4 2664.05   76.89
  11   3   4 1122.77   54.19
  13   3   4   71.70   22.48
  15   3   4 1228.87   63.44
  17   3   4  445.18   42.90
  19   3   4   59.85   26.90
  21   3   4  568.36   53.67
  28  -4  -4  -25.10   22.48
  26  -4  -4  -19.73   20.38
  24  -4  -4   -1.95   20.36
  22  -4  -4   10.74   19.80
  20  -4  -4   80.29   24.14
  18  -4  -4   28.81   17.34
  16  -4  -4   82.97   19.05
  14  -4  -4   34.81   13.79
  12  -4  -4  112.54   17.56
 -10   4   4  210.54   16.85
  10  -4  -4  213.87   18.00
   8  -4  -4  485.60   23.63
  -8   4   4  511.92   24.04
   6  -4  -4  489.53   22.44
  -6   4   4  480.64   21.61
   4  -4  -4  172.52   13.72
  -4   4   4  176.93   12.30
   2  -4  -4  224.68   15.50
   2  -4  -4  229.87   10.44
  -2   4   4  247.51   13.37
   0   4   4   21.75    5.62
   0  -4  -4    6.88    6.50
   0  -4  -4   10.30    4.87
   2   4   4  782.95   21.92
  -2  -4  -4  794.67   31.46
  -2  -4  -4  797.81   27.58
  -4  -4  -4   80.92   14.31
  -4  -4  -4   78.84   12.84
   4   4   4   77.71    7.25
  -6  -4  -4  277.16   20.05
  -6  -4  -4  282.28   22.03
  -8  -4  -4  113.68   17.79
  -8  -4  -4  113.99   18.61
 -10  -4  -4   66.09   17.78
  14   4   4   -5.59   17.72
  16   4   4   -7.51   17.37
  18   4   4   32.18   26.49
  20   4   4  -14.18   24.54
  27  -5  -4   -7.27   23.30
  25  -5  -4  637.13   53.05
  23  -5  -4  519.72   44.39
  21  -5  -4  -19.52   12.61
  19  -5  -4 1676.86   67.99
  17  -5  -4  531.07   36.40
  15  -5  -4  629.00   36.39
  13  -5  -4 3512.77   86.83
  11  -5  -4  419.13   25.63
   9  -5  -4 2403.04   61.67
   9  -5  -4 2493.54   49.11
   7  -5  -4 6223.08  113.93
   7  -5  -4 6402.18  102.21
  -7   5   4 6083.90  117.32
   5  -5  -4  880.55   21.43
   5  -5  -4  904.42   32.78
  -5   5   4  905.91   31.00
   3  -5  -4 4691.70   77.55
  -3   5   4 4520.15   86.39
   3  -5  -4 4537.53   90.03
  -1   5   4 6655.25  112.33
   1  -5  -4 6594.39  109.78
   1  -5  -4 6514.99  119.05
  -1  -5  -4  504.05   25.77
  -1  -5  -4  524.08   21.33
   1   5   4  526.19   18.17
  -3  -5  -4 4164.24   90.20
  -3  -5  -4 4184.78   85.22
   3   5   4 4185.81   71.91
  -5  -5  -4 2715.00   67.53
  -5  -5  -4 2745.44   71.50
  -7  -5  -4   -2.58    8.60
  -7  -5  -4   -4.76    7.52
  -9  -5  -4 2191.47   69.83
  -9  -5  -4 2293.46   68.85
 -11  -5  -4  530.25   36.75
  15   5   4  909.55   58.47
  17   5   4  323.64   44.97
  19   5   4  150.34   37.39
  21   5   4  660.65   59.62
  28  -6  -4  159.41   43.71
  26  -6  -4   97.18   33.05
  24  -6  -4  -17.15   18.56
  22  -6  -4  171.59   32.11
  20  -6  -4  370.15   40.00
  18  -6  -4   32.07   18.55
  16  -6  -4  751.47   42.14
  14  -6  -4  287.54   25.43
  12  -6  -4   -5.08    9.57
  10  -6  -4  540.85   21.18
  10  -6  -4  554.90   29.36
   8  -6  -4  100.11   10.04
   8  -6  -4  136.55   17.08
   6  -6  -4  682.27   21.27
   6  -6  -4  710.69   30.59
   4  -6  -4 1457.18   44.91
   4  -6  -4 1436.95   33.33
  -4   6   4 1408.76   41.02
   2  -6  -4  169.96   18.11
   2  -6  -4  145.42   10.67
  -2   6   4  154.31   12.61
   0  -6  -4  434.68   19.42
   0  -6  -4  459.61   25.79
   0   6   4  443.25   18.59
   2   6   4  392.90   15.97
  -2  -6  -4  395.19   20.49
  -2  -6  -4  391.44   24.76
  -4  -6  -4  169.36   20.77
  -4  -6  -4  142.13   14.53
  -6  -6  -4  324.04   24.71
  -6  -6  -4  325.86   22.67
  -8  -6  -4  252.78   24.20
  -8  -6  -4  240.12   22.33
 -10  -6  -4   -3.05    9.64
 -10  -6  -4   -6.40   10.29
 -12  -6  -4  293.85   29.20
 -12  -6  -4  361.09   29.97
  16   6   4   61.32   26.58
  18   6   4  207.44   41.47
  20   6   4  -36.63   24.18
  27  -7  -4   16.82   27.74
  25  -7  -4  224.93   40.65
  23  -7  -4  135.86   32.36
  21  -7  -4   40.77   21.43
  19  -7  -4  914.34   51.55
  17  -7  -4  971.72   50.57
  15  -7  -4   21.78   14.80
  13  -7  -4  906.53   42.29
  13  -7  -4  856.13   32.20
  11  -7  -4  382.73   26.98
  11  -7  -4  407.80   20.70
   9  -7  -4  474.25   27.96
   9  -7  -4  531.03   22.48
   7  -7  -4  863.39   27.24
   7  -7  -4  804.25   34.76
   5  -7  -4   20.01    6.29
   5  -7  -4    4.88    7.89
   3  -7  -4  234.39   19.07
   3  -7  -4  243.00   14.12
   1  -7  -4  568.74   22.97
   1  -7  -4  581.38   29.67
  -1  -7  -4  236.29   20.23
  -1  -7  -4  242.81   16.47
  -3  -7  -4  677.34   34.09
  -3  -7  -4  711.76   30.15
  -5  -7  -4  816.23   39.20
  -5  -7  -4  861.30   35.88
  -7  -7  -4  183.30   23.51
  -7  -7  -4  173.96   22.28
  -9  -7  -4  773.10   39.41
  -9  -7  -4  717.75   40.72
 -11  -7  -4  317.00   30.48
 -11  -7  -4  259.49   25.98
 -13  -7  -4   15.41   16.21
 -13  -7  -4   17.24   14.67
  17   7   4  149.35   39.45
  19   7   4   43.06   32.90
  26  -8  -4  376.00   51.38
  24  -8  -4  -34.37   18.93
  22  -8  -4  538.45   46.10
  20  -8  -4  346.72   40.19
  18  -8  -4  181.17   29.90
  16  -8  -4 1504.87   61.13
  14  -8  -4  712.51   39.66
  12  -8  -4  197.75   25.43
  12  -8  -4  194.65   17.51
  10  -8  -4 1783.48   58.74
  10  -8  -4 1859.28   49.72
   8  -8  -4  470.65   28.26
   8  -8  -4  496.86   23.15
   6  -8  -4 1290.07   47.25
   6  -8  -4 1289.32   36.88
   4  -8  -4 3388.33   69.12
   4  -8  -4 3250.32   80.60
   2  -8  -4  210.50   23.00
   2  -8  -4  200.79   15.03
   0  -8  -4 1764.72   56.98
   0  -8  -4 1644.74   46.06
  -2  -8  -4 1164.71   39.74
  -2  -8  -4 1240.87   47.68
  -4  -8  -4  -13.45    7.55
  -4  -8  -4    0.62    8.45
  -6  -8  -4 1227.11   50.36
  -6  -8  -4 1156.80   44.81
  -8  -8  -4 1039.21   45.20
  -8  -8  -4  944.83   46.48
 -10  -8  -4  -16.83   10.46
 -10  -8  -4   -4.24   12.30
 -12  -8  -4 1043.37   52.22
 -12  -8  -4 1120.39   56.34
 -14  -8  -4  425.59   38.05
 -14  -8  -4  470.32   38.31
  16   8   4  227.43   45.28
  25  -9  -4    3.00   23.43
  23  -9  -4   16.61   25.43
  21  -9  -4  -12.90   17.47
  19  -9  -4   57.28   22.71
  17  -9  -4    1.00   15.34
  15  -9  -4  -13.70   10.96
  13  -9  -4  -12.81   10.92
  11  -9  -4   -8.15   10.94
   9  -9  -4   -4.54    9.28
   7  -9  -4  101.96   18.41
   7  -9  -4  121.92   14.98
   5  -9  -4  102.06   18.31
   5  -9  -4   91.40   13.15
   3  -9  -4   22.80   11.17
   3  -9  -4    9.61    7.43
   1  -9  -4   -1.15    9.12
   1  -9  -4   -1.34    7.47
  -1  -9  -4   38.71   11.33
  -1  -9  -4   55.89   14.68
  -3  -9  -4   -3.17    9.20
  -3  -9  -4    4.01   10.88
  -5  -9  -4    1.35   11.38
  -5  -9  -4    2.99   10.51
  -7  -9  -4    5.54   12.83
  -7  -9  -4   -0.58    9.57
  -9  -9  -4   70.42   21.76
  -9  -9  -4   56.47   17.10
 -11  -9  -4    6.22   15.80
 -11  -9  -4   27.55   15.45
 -13  -9  -4   -4.45   15.25
 -13  -9  -4   -9.44   13.59
 -15  -9  -4  -16.20   16.31
 -15  -9  -4   -4.12   17.36
  17   9   4  -17.00   26.38
  24 -10  -4   -5.47   23.24
  22 -10  -4  465.78   49.07
  20 -10  -4  415.57   38.73
  18 -10  -4   90.00   23.70
  16 -10  -4  721.67   44.73
  14 -10  -4  163.97   27.37
  12 -10  -4  477.48   33.69
  10 -10  -4 1130.96   48.83
   8 -10  -4  393.19   29.07
   6 -10  -4  471.20   31.04
   4 -10  -4 2033.63   64.80
   4 -10  -4 1787.94   51.73
   2 -10  -4   46.73   16.17
   2 -10  -4   15.74    9.73
   0 -10  -4  777.89   33.07
   0 -10  -4  782.59   40.38
  -2 -10  -4 1648.98   60.54
  -2 -10  -4 1624.68   52.27
  -4 -10  -4   -4.40   10.54
  -4 -10  -4   -8.09    9.79
  -6 -10  -4  812.08   44.39
  -6 -10  -4  827.10   40.27
  -8 -10  -4  613.93   36.92
  -8 -10  -4  639.01   40.19
 -10 -10  -4   39.03   18.05
 -10 -10  -4   16.44   18.47
 -12 -10  -4  571.28   42.57
 -12 -10  -4  586.56   40.84
 -14 -10  -4  263.27   35.09
 -14 -10  -4  316.79   40.18
 -16 -10  -4   16.98   19.68
 -16 -10  -4   41.89   24.84
  23 -11  -4  211.67   38.87
  21 -11  -4   55.48   26.13
  19 -11  -4  638.20   46.10
  17 -11  -4  424.48   37.45
  15 -11  -4   11.67   16.05
  13 -11  -4  739.64   43.85
  11 -11  -4  225.46   28.27
   9 -11  -4  246.08   29.06
   7 -11  -4  825.91   43.20
   5 -11  -4  103.50   20.71
   3 -11  -4  118.67   21.94
   1 -11  -4  616.87   37.37
  -1 -11  -4  -15.27    7.98
  -1 -11  -4  -18.99    9.31
  -3 -11  -4  740.05   42.37
  -3 -11  -4  723.12   35.95
  -5 -11  -4  680.44   41.43
  -5 -11  -4  696.27   36.60
  -7 -11  -4   70.11   18.95
  -7 -11  -4   65.62   20.50
  -9 -11  -4  662.88   43.83
  -9 -11  -4  562.02   37.90
 -11 -11  -4  350.81   39.37
 -11 -11  -4  399.73   34.29
 -13 -11  -4    9.91   20.57
 -13 -11  -4   -3.04   16.12
 -15 -11  -4  302.75   40.94
 -15 -11  -4  324.93   42.39
  22 -12  -4   24.50   23.26
  20 -12  -4   26.67   22.49
  18 -12  -4    6.75   16.25
  16 -12  -4   86.65   24.26
  14 -12  -4   12.16   16.99
  12 -12  -4   61.76   20.47
  10 -12  -4  291.81   28.22
   8 -12  -4  162.43   25.52
   6 -12  -4  140.05   24.03
   4 -12  -4   48.51   17.87
   2 -12  -4   -7.27   11.24
   0 -12  -4   33.71   16.62
  -2 -12  -4   20.78   15.03
  -4 -12  -4  -13.68   13.00
  -6 -12  -4  158.28   29.68
  -6 -12  -4   97.78   21.00
  -8 -12  -4   56.17   18.26
  -8 -12  -4   76.01   22.65
 -10 -12  -4  -28.78   13.55
 -10 -12  -4   -3.21   15.89
 -12 -12  -4   62.28   21.39
 -12 -12  -4   68.22   24.23
 -14 -12  -4   29.98   21.11
 -14 -12  -4   43.32   25.67
  21 -13  -4    0.00   20.38
  19 -13  -4  598.55   46.54
  17 -13  -4  188.86   32.11
  15 -13  -4  162.55   30.53
  13 -13  -4  815.33   48.70
  11 -13  -4  346.83   33.39
   9 -13  -4  436.04   35.19
   7 -13  -4 1693.32   66.61
   5 -13  -4   93.55   23.99
   3 -13  -4 1687.98   67.10
   1 -13  -4 1510.95   63.90
  -1 -13  -4    7.54   16.87
  -3 -13  -4  823.94   48.85
  -5 -13  -4  888.71   50.44
  -7 -13  -4    6.26   16.05
  -9 -13  -4  660.27   45.39
 -11 -13  -4  406.79   38.82
 -13 -13  -4   47.45   25.62
  18 -14  -4   -1.62   17.62
  16 -14  -4   62.20   22.70
  14 -14  -4  133.64   28.22
  12 -14  -4   85.36   25.13
  10 -14  -4  123.39   26.39
   8 -14  -4   -6.04   13.57
   6 -14  -4   47.14   21.62
   4 -14  -4   54.11   20.83
   2 -14  -4   60.92   21.79
   0 -14  -4   57.92   21.46
  -2 -14  -4   68.25   23.17
  -4 -14  -4   -7.68   17.60
  -6 -14  -4   30.75   21.22
  -8 -14  -4   24.36   20.72
 -10 -14  -4    7.37   20.27
 -12 -14  -4   71.48   29.17
  17 -15  -4  103.96   28.39
  15 -15  -4  124.64   32.27
  13 -15  -4  673.22   48.85
  11 -15  -4   39.09   22.54
   9 -15  -4  165.35   29.92
   7 -15  -4  341.19   39.16
   5 -15  -4   44.28   20.03
   3 -15  -4  238.93   34.05
   1 -15  -4  729.14   48.27
  -1 -15  -4    9.16   19.10
  -3 -15  -4  345.99   40.47
  -5 -15  -4  307.94   41.29
  -7 -15  -4   -2.56   18.79
  -9 -15  -4  361.62   42.99
  14 -16  -4  125.73   31.71
  12 -16  -4  120.43   29.03
  10 -16  -4  501.54   43.17
   8 -16  -4   86.12   27.38
   6 -16  -4  231.72   35.89
   4 -16  -4  586.26   45.13
   2 -16  -4    6.70   20.37
   0 -16  -4  371.65   42.96
  -2 -16  -4  460.20   42.53
  -4 -16  -4   -0.32   19.88
  -6 -16  -4  374.42   44.72
  11 -17  -4    5.83   22.11
   9 -17  -4  -12.15   20.64
   7 -17  -4   55.53   24.43
   5 -17  -4  -28.38   16.88
   3 -17  -4   54.53   28.60
   1 -17  -4   48.93   24.22
  -1 -17  -4  -17.13   19.46
  -3 -17  -4  -13.48   21.97
  -9 -17   5    6.08   22.91
  -7 -17   5  199.99   38.57
  -5 -17   5  419.00   44.89
  -3 -17   5   11.67   24.34
  -1 -17   5  271.08   42.56
   1 -17   5  353.40   48.81
 -14 -16   5   89.57   30.08
 -12 -16   5   -0.31   21.90
 -10 -16   5   12.97   23.07
  -8 -16   5  170.98   34.69
  -6 -16   5    2.81   19.72
  -4 -16   5  161.05   36.89
  -2 -16   5  116.31   31.05
   0 -16   5  -16.05   16.51
   2 -16   5   79.03   30.14
   4 -16   5   98.19   28.84
 -17 -15   5  155.80   34.16
 -15 -15   5   86.29   28.50
 -13 -15   5   30.02   23.69
 -11 -15   5  175.56   34.79
  -9 -15   5   10.29   20.64
  -7 -15   5  155.34   31.35
  -5 -15   5  368.68   39.18
  -3 -15   5   -8.84   19.10
  -1 -15   5  175.60   34.35
   1 -15   5  135.47   33.16
   3 -15   5   -8.19   18.61
   5 -15   5  159.87   33.57
   7 -15   5  121.00   35.18
 -20 -14   5  506.17   47.91
 -18 -14   5  176.13   36.47
 -16 -14   5  230.33   37.47
 -14 -14   5  859.94   57.47
 -12 -14   5  138.99   30.27
 -10 -14   5  201.93   34.83
  -8 -14   5  849.59   53.12
  -6 -14   5  100.82   27.54
  -4 -14   5  396.66   38.06
  -2 -14   5  848.42   52.99
   0 -14   5    5.61   17.18
   2 -14   5  655.50   47.82
   4 -14   5  732.94   53.05
   6 -14   5  -13.70   21.71
   8 -14   5  492.92   46.16
  10 -14   5  151.22   35.55
 -21 -13   5  -14.76   19.90
 -19 -13   5   -2.73   17.80
 -17 -13   5   -7.19   17.06
 -15 -13   5   -3.69   16.42
 -13 -13   5   -0.95   16.77
 -11 -13   5    9.57   16.59
  -9 -13   5   36.80   17.93
  -7 -13   5   39.68   19.73
  -5 -13   5   -3.45   15.17
  -3 -13   5  -12.26   14.14
  -1 -13   5   -3.92   13.66
   1 -13   5   -6.10   15.56
   3 -13   5   -4.32   15.49
   5 -13   5   -9.95   17.99
   7 -13   5  -13.87   18.09
   9 -13   5  -33.21   18.87
  11 -13   5   -7.67   21.96
 -22 -12   5   23.39   24.16
 -20 -12   5  509.11   44.05
 -18 -12   5  343.20   36.46
 -16 -12   5   29.41   19.23
 -14 -12   5  960.05   55.63
 -12 -12   5  214.61   32.13
 -10 -12   5  582.98   42.63
  -8 -12   5 1154.37   57.87
  -6 -12   5    5.85   15.89
  -4 -12   5 1585.91   67.41
  -2 -12   5 1536.53   66.26
   0 -12   5    6.62   15.97
   2 -12   5  835.25   50.06
   4 -12   5  545.68   42.73
   6 -12   5  -27.65   16.01
   8 -12   5  774.13   52.99
  10 -12   5  389.88   40.92
  12 -12   5   74.59   29.68
  14 -12   5  415.34   51.28
 -23 -11   5  185.94   34.16
 -21 -11   5   62.23   25.77
 -19 -11   5  106.09   27.09
 -17 -11   5  218.71   32.14
 -15 -11   5   16.63   16.92
 -13 -11   5  371.94   33.51
 -11 -11   5 1055.17   54.04
  -9 -11   5  260.72   32.13
  -7 -11   5  498.09   37.22
  -5 -11   5  514.04   37.89
  -3 -11   5    9.18   13.64
  -1 -11   5  420.87   34.10
   1 -11   5  332.02   32.39
   3 -11   5   12.92   17.11
   5 -11   5  613.03   43.72
   7 -11   5  333.92   35.77
   9 -11   5   -1.80   17.42
  11 -11   5  430.58   41.59
  13 -11   5   66.14   28.05
  15 -11   5   66.10   28.61
 -24 -10   5  120.99   30.02
 -22 -10   5  -16.36   15.20
 -20 -10   5  106.15   27.51
 -18 -10   5   12.24   14.66
 -16 -10   5   -6.39   12.19
 -14 -10   5  175.21   28.05
 -12 -10   5   24.38   16.66
 -10 -10   5  134.59   24.18
  -8 -10   5  363.08   31.04
  -6 -10   5   -2.90   10.36
  -4 -10   5   93.53   20.27
  -2 -10   5   97.35   21.26
   0 -10   5   -5.78   11.59
   2 -10   5  185.39   28.10
   4 -10   5  346.85   32.17
   6 -10   5   40.10   19.17
   8 -10   5  745.57   48.97
  10 -10   5  264.57   37.14
  12 -10   5   34.81   21.95
  14 -10   5  155.79   32.69
  16 -10   5   -7.09   20.53
 -25  -9   5   -8.53   17.95
 -23  -9   5  657.13   47.25
 -21  -9   5  502.05   39.89
 -19  -9   5  134.86   25.90
 -17  -9   5 1550.52   65.34
 -15  -9   5  415.37   33.25
 -13  -9   5  415.98   32.02
 -11  -9   5 1531.23   60.52
  -9  -9   5  294.51   26.74
  -7  -9   5 1495.32   58.30
  -5  -9   5 2165.79   71.23
  -3  -9   5   26.60   14.73
  -1  -9   5 1758.37   64.01
   1  -9   5 1346.27   56.70
   3  -9   5   -1.50   12.29
   5  -9   5 1776.45   69.57
   7  -9   5  655.96   43.05
   9  -9   5  113.15   25.89
  11  -9   5 1194.53   60.75
  13  -9   5  387.33   37.51
  15  -9   5   42.01   22.52
  17  -9   5  267.49   41.44
 -26  -8   5   48.72   23.20
 -24  -8   5   -2.31   16.07
 -22  -8   5   13.87   16.97
 -20  -8   5  194.68   29.32
 -18  -8   5   -9.91   11.18
 -16  -8   5   19.92   13.62
 -14  -8   5  130.84   22.38
 -12  -8   5   15.81   12.54
 -10  -8   5   -3.45    8.81
  -8  -8   5    6.83   10.07
  -6  -8   5   -5.49    8.50
  -4  -8   5  348.71   26.80
  -2  -8   5   50.52   15.41
   0  -8   5   41.90   14.69
   2  -8   5  417.06   30.94
   4  -8   5  226.96   22.72
   4  -8   5  150.58   24.65
   6  -8   5   -8.83   12.35
   6  -8   5   -6.67   10.11
   8  -8   5  289.23   34.07
   8  -8   5  277.56   26.32
  10  -8   5   96.13   23.30
  10  -8   5   75.22   23.32
  12  -8   5  -21.15   13.56
  12  -8   5  -10.26   15.63
  14  -8   5  153.21   33.03
  14  -8   5   87.14   24.42
  16  -8   5    0.60   18.60
  16  -8   5   11.32   25.64
 -27  -7   5  334.09   43.44
 -25  -7   5    6.84   16.97
  23   7  -5  339.55   38.95
 -23  -7   5  338.63   33.96
 -21  -7   5  193.96   29.14
  21   7  -5  282.80   33.01
  19   7  -5  553.47   35.54
 -19  -7   5  563.77   38.07
 -17  -7   5  906.34   45.72
  17   7  -5  956.23   42.02
 -15  -7   5  528.83   33.62
  15   7  -5  565.75   29.80
  13   7  -5  172.29   16.73
 -13  -7   5  217.63   21.94
 -13  -7   5  220.44   16.99
  11   7  -5 2409.39   54.64
 -11  -7   5 2372.21   71.24
  -9  -7   5   89.53   10.44
  -9  -7   5   74.46   16.15
  -7  -7   5 1791.38   36.26
  -7  -7   5 1869.03   60.31
  -5  -7   5 1782.96   58.15
  -3  -7   5    0.34    8.36
  -3  -7   5    8.00    5.56
  -1  -7   5  538.96   19.95
  -1  -7   5  476.73   30.06
   1  -7   5 1409.69   53.41
   1  -7   5 1414.99   38.96
   3  -7   5    3.99    9.52
   3  -7   5    9.42   10.69
   5  -7   5 1225.77   51.94
   5  -7   5 1211.58   43.74
   7  -7   5 1234.78   54.20
   7  -7   5 1187.78   47.56
   9  -7   5  129.91   23.58
   9  -7   5  133.41   24.07
  11  -7   5 1068.04   53.06
  13  -7   5  225.60   34.73
  15  -7   5  151.15   34.77
  17  -7   5  606.31   51.23
  19  -7   5   34.39   32.02
 -28  -6   5    9.04   20.61
  28   6  -5   11.93   22.67
 -26  -6   5  317.47   39.30
  26   6  -5  356.52   42.49
  24   6  -5  269.81   36.88
 -24  -6   5  322.03   32.92
 -22  -6   5  112.41   23.20
  22   6  -5  134.84   27.24
  20   6  -5 1111.82   51.29
 -20  -6   5 1017.50   50.05
  18   6  -5  961.93   44.16
 -18  -6   5  924.64   45.60
  16   6  -5   39.71   13.06
 -16  -6   5   57.64   15.74
 -14  -6   5 1915.64   62.19
  14   6  -5 1870.76   53.65
 -14  -6   5 1922.20   49.82
 -12  -6   5  355.93   20.19
  12   6  -5  383.05   20.80
 -12  -6   5  362.46   25.53
 -10  -6   5  772.84   35.93
  10   6  -5  698.01   24.67
  -8  -6   5 1985.01   60.34
  -6  -6   5    6.88    9.83
  -6  -6   5   26.95    4.53
  -4  -6   5 2925.39   75.24
  -4  -6   5 2829.21   46.55
  -2  -6   5 6519.65   99.92
  -2  -6   5 6548.78  132.33
   0  -6   5   22.45   11.09
   2  -6   5 2321.82   67.78
   2  -6   5 2194.83   52.86
   4  -6   5 1301.13   50.54
   4  -6   5 1222.02   41.86
   6  -6   5   17.56   12.63
   6  -6   5   10.30   12.37
   8  -6   5  874.78   42.62
  10  -6   5 1177.42   53.48
  12  -6   5  -18.44   16.52
  14  -6   5  675.30   48.54
  16  -6   5  174.29   34.63
  18  -6   5  124.50   36.02
  29   5  -5  -32.22   22.13
 -29  -5   5   17.13   21.59
 -27  -5   5  -20.28   14.59
  27   5  -5   -1.73   23.62
  25   5  -5    3.15   20.09
 -25  -5   5   -5.16   14.93
 -23  -5   5   64.23   20.23
  23   5  -5   53.13   22.02
 -21  -5   5   65.14   18.77
  21   5  -5   49.48   20.12
  19   5  -5   -5.86   13.03
 -19  -5   5    0.18   11.56
  17   5  -5   40.96   15.78
 -17  -5   5   50.17   14.66
  15   5  -5   20.47   11.42
 -15  -5   5   12.91    8.40
 -15  -5   5   17.09   10.88
  13   5  -5   -0.64    7.91
 -13  -5   5    7.25    9.08
 -13  -5   5    3.10    7.01
 -11  -5   5   35.54    9.77
 -11  -5   5   30.94   10.44
  11   5  -5   58.04   10.29
   9   5  -5    9.53    5.06
  -7  -5   5  529.05   27.57
  -5  -5   5  144.72   17.17
  -3  -5   5   32.93   10.65
  -1  -5   5 2555.93   48.70
  -1  -5   5 2632.06   68.53
   1  -5   5  450.44   20.10
   1  -5   5  386.52   24.99
   3  -5   5   65.11   14.83
   3  -5   5   80.95   13.89
   5  -5   5    5.95   10.38
   7  -5   5   34.97   15.90
   9  -5   5  108.67   22.51
  11  -5   5  276.79   34.20
  13  -5   5    2.20   19.51
  15  -5   5   23.24   23.03
  17  -5   5    4.90   23.46
  19  -5   5   -4.32   22.80
  28   4  -5  -16.29   20.75
 -28  -4   5    1.57   18.08
  26   4  -5  661.34   48.93
 -26  -4   5  586.09   44.37
 -24  -4   5  628.63   42.07
  24   4  -5  632.66   46.60
  22   4  -5   -3.44   16.39
 -22  -4   5   33.10   16.48
 -20  -4   5 2223.16   73.05
  20   4  -5 2375.56   77.22
  18   4  -5  404.99   30.14
 -18  -4   5  424.37   28.95
  16   4  -5 1198.66   45.63
 -16  -4   5 1183.98   37.85
 -16  -4   5 1143.24   45.20
  14   4  -5 3865.63   83.40
 -14  -4   5 3641.68   87.46
 -14  -4   5 3881.57   79.73
  12   4  -5  679.08   26.98
 -12  -4   5  702.95   26.96
 -12  -4   5  705.11   31.60
 -10  -4   5 1900.66   54.00
 -10  -4   5 1918.50   49.41
  10   4  -5 1954.89   42.47
   8   4  -5 7119.67  105.19
  -8  -4   5 7044.25  132.19
  -6  -4   5 2176.12   56.92
  -4  -4   5  699.97   29.54
  -2  -4   5 5269.66  106.30
  -2  -4   5 5426.38   82.11
   0  -4   5  364.68   16.43
   0  -4   5  324.85   21.06
   2  -4   5 3942.65   77.06
   2  -4   5 3995.49   90.30
   4  -4   5 2858.58   67.67
   6  -4   5   20.63   12.98
   8  -4   5 2300.64   69.93
  10  -4   5  668.28   40.15
  12  -4   5   44.10   20.96
  14  -4   5 1246.17   62.18
  16  -4   5  390.08   46.36
  18  -4   5  355.37   48.31
  20  -4   5  802.60   62.02
  29   3  -5   72.89   31.29
  27   3  -5   88.56   31.62
 -27  -3   5  102.72   27.38
  25   3  -5   -3.86   19.57
 -25  -3   5   -8.53   13.49
 -23  -3   5    1.01   13.28
  23   3  -5    7.99   19.85
  21   3  -5   20.53   16.44
 -21  -3   5   13.23   14.41
  19   3  -5   -6.67   12.95
 -19  -3   5    4.78   10.31
 -17  -3   5  816.27   37.61
  17   3  -5  810.88   39.55
 -17  -3   5  823.66   32.34
 -15  -3   5  132.44   13.77
 -15  -3   5  137.96   17.42
  15   3  -5  125.83   17.77
  13   3  -5  222.70   17.56
 -13  -3   5  261.02   18.86
 -13  -3   5  236.34   16.29
 -11  -3   5  435.04   20.67
  11   3  -5  458.09   20.26
 -11  -3   5  448.91   23.05
   9   3  -5  858.56   23.05
  -9  -3   5  793.23   30.26
  -9  -3   5  794.46   28.80
  -7  -3   5  463.85   22.26
  -5  -3   5 2770.30   63.33
  -3  -3   5   28.47    8.43
  -1  -3   5    8.81    5.16
  -1  -3   5   13.49    6.72
   1  -3   5  499.33   20.90
   1  -3   5  515.67   25.51
   3  -3   5  102.94   13.98
   5  -3   5  670.11   32.16
   7  -3   5  213.35   21.07
   9  -3   5  261.64   25.60
  11  -3   5  223.03   29.95
  13  -3   5   27.90   19.21
  15  -3   5   53.26   25.69
  17  -3   5  339.80   47.21
  19  -3   5   -6.23   23.01
  30   2  -5   94.65   34.29
  28   2  -5   12.80   23.00
  26   2  -5  386.78   47.52
  24   2  -5  279.85   40.30
 -24  -2   5  264.64   27.81
  22   2  -5   -5.47   15.47
 -22  -2   5    2.59   12.35
 -20  -2   5  892.54   42.34
  20   2  -5  773.28   44.01
 -18  -2   5  537.46   30.99
 -18  -2   5  549.49   27.64
  18   2  -5  528.72   34.33
  16   2  -5  163.47   21.79
 -16  -2   5  162.10   18.64
 -16  -2   5  141.46   14.77
 -14  -2   5  978.88   34.17
 -14  -2   5  991.87   36.21
  14   2  -5  999.18   37.78
 -12  -2   5  858.10   30.41
  12   2  -5  811.79   29.81
 -12  -2   5  897.12   31.78
 -10  -2   5 1090.13   34.15
 -10  -2   5 1156.15   34.82
  10   2  -5 1139.74   30.81
  -8  -2   5 2483.64   57.00
  -8  -2   5 2531.34   56.05
   8   2  -5 2487.51   45.12
  -6  -2   5  650.64   24.10
  -4  -2   5 1126.00   33.39
  -2  -2   5  504.64   21.38
   2   2  -5  525.69   15.62
   0  -2   5  250.75   14.41
   2  -2   5 2697.60   60.31
   4  -2   5 1161.70   40.04
   6  -2   5   -5.58    8.08
   8  -2   5 2039.75   65.04
  10  -2   5  677.19   39.94
  12  -2   5   50.22   20.13
  14  -2   5  690.35   47.42
  16  -2   5  282.79   39.58
  18  -2   5  107.58   32.74
  20  -2   5  299.92   49.93
  29   1  -5  498.51   58.35
  27   1  -5  301.88   43.96
  25   1  -5   19.84   24.36
  23   1  -5 1051.39   57.61
 -23  -1   5 1075.61   50.85
 -21  -1   5  404.20   29.96
  21   1  -5  383.26   34.70
 -19  -1   5  132.37   18.06
  19   1  -5  106.95   22.18
 -19  -1   5  136.89   20.00
  17   1  -5 1768.84   59.75
 -17  -1   5 1714.87   53.56
 -17  -1   5 1653.59   50.75
  15   1  -5  513.31   29.07
 -15  -1   5  502.66   25.60
 -15  -1   5  535.75   25.51
 -13  -1   5 1246.13   38.28
  13   1  -5 1252.20   40.55
 -13  -1   5 1292.49   39.58
 -11  -1   5 4701.21   88.64
 -11  -1   5 4666.63   91.81
  11   1  -5 4733.72   86.40
  -9  -1   5   28.20    6.70
   9   1  -5   26.90    6.56
  -9  -1   5   12.42    6.24
   7   1  -5  826.84   20.90
  -7  -1   5  826.58   25.28
  -7  -1   5  825.98   28.05
   5   1  -5 2269.59   39.84
  -5  -1   5 2315.92   49.31
   3   1  -5    6.48    3.67
  -3  -1   5    8.93    4.79
   1   1  -5 5437.97   88.49
  -1   1  -5 3752.83   71.52
   3  -1   5    3.93    7.34
   5  -1   5 2071.59   59.47
   7  -1   5 1337.88   49.87
   9  -1   5  573.47   36.10
  11  -1   5 1292.87   57.17
  13  -1   5  399.64   36.41
  15  -1   5  227.26   36.20
  17  -1   5  929.91   59.64
  19  -1   5  143.59   35.75
  21  -1   5  201.74   46.88
  30   0  -5  -40.88   23.03
  28   0  -5  -25.67   21.99
  26   0  -5   -1.99   20.91
  24   0  -5  -18.77   18.23
  22   0  -5  -20.60   14.26
  20   0  -5  -12.62   12.39
 -20   0   5  -13.86    9.28
 -18   0   5  -11.93    7.56
 -18   0   5   -0.22    7.97
  18   0  -5   -4.52   11.04
 -16   0   5  -10.00    5.73
  16   0  -5   -4.23   10.02
 -16   0   5   -1.36    7.18
 -14   0   5   -3.50    5.98
 -14   0   5    1.70    6.35
  14   0  -5    2.64    8.34
 -12   0   5   -3.66    5.18
 -12   0   5    2.97    5.52
  12   0  -5   -2.48    6.67
 -10   0   5   -2.57    4.94
  10   0  -5    2.07    6.08
 -10   0   5    0.66    4.07
   8   0  -5   16.42    6.02
  -8   0   5    3.27    3.80
  -8   0   5   -0.87    4.83
  -6   0   5   -0.84    4.00
  -6   0   5    6.56    3.88
   6   0  -5   -1.43    3.79
  -4   0   5    0.86    3.47
   4   0  -5   -4.42    3.42
   2   0  -5    7.35    4.69
   0   0  -5   -8.29    4.32
  -2   0  -5   -5.89    5.13
  -4   0  -5   -3.71    6.37
   6   0   5   12.54   11.10
   8   0   5    8.41   11.40
  10   0   5  -14.43   10.78
  12   0   5   -0.96   13.78
  14   0   5    0.91   16.00
  16   0   5  -12.52   18.07
  18   0   5  -14.57   19.14
  20   0   5  -28.25   22.33
  29  -1  -5  378.85   52.94
  27  -1  -5  229.44   42.10
  25  -1  -5   39.74   23.32
  23  -1  -5  979.30   56.41
  21  -1  -5  333.44   32.86
  19  -1  -5  106.25   22.08
 -17   1   5 1717.70   51.60
  17  -1  -5 1733.88   59.86
 -17   1   5 1700.50   54.33
 -15   1   5  518.18   24.52
 -15   1   5  519.09   27.18
  15  -1  -5  506.08   29.43
  13  -1  -5 1308.43   42.94
 -13   1   5 1301.23   36.59
 -13   1   5 1272.85   41.52
 -11   1   5 4724.32   82.87
  11  -1  -5 4621.59   89.04
 -11   1   5 4563.61   92.40
  -9   1   5   20.37    7.24
   9  -1  -5   34.14    8.53
  -9   1   5   34.04    5.62
   7  -1  -5  849.02   25.20
  -7   1   5  811.38   27.68
  -7   1   5  824.00   19.21
  -5   1   5 2338.44   52.38
   5  -1  -5 2270.30   46.55
  -5   1   5 2300.21   42.29
  -3   1   5    6.76    5.27
   3  -1  -5   17.62    5.52
   1  -1  -5 5654.87   96.35
  -1  -1  -5 3879.79   75.82
  -3  -1  -5    9.58    7.72
  -5  -1  -5 1957.72   56.44
   9   1   5  612.48   37.72
  11   1   5 1243.52   57.25
  13   1   5  434.12   37.79
  15   1   5  166.09   32.26
  17   1   5  872.48   59.45
  19   1   5  165.04   38.39
  21   1   5  178.67   44.87
  30  -2  -5  146.59   40.57
  28  -2  -5    0.18   24.32
  26  -2  -5  442.15   44.18
  24  -2  -5  293.75   40.29
  22  -2  -5   11.75   17.86
  20  -2  -5  791.44   46.66
  18  -2  -5  541.47   35.65
  16  -2  -5  160.23   22.36
 -16   2   5  152.09   19.63
  14  -2  -5  987.03   39.48
 -14   2   5  957.85   37.68
 -12   2   5  873.70   33.38
 -12   2   5  858.99   26.07
  12  -2  -5  834.36   33.32
 -10   2   5 1135.87   36.70
  10  -2  -5 1120.76   35.85
 -10   2   5 1073.36   26.05
   8  -2  -5 2520.66   54.68
  -8   2   5 2481.39   57.97
  -6   2   5  637.67   24.28
   6  -2  -5  647.94   23.07
  -4   2   5 1139.84   32.60
   4  -2  -5 1098.39   31.41
   2  -2  -5  566.26   22.40
  -2   2   5  557.94   21.47
   0  -2  -5  224.34   15.28
  -2  -2  -5 2510.85   59.92
  -4  -2  -5 1050.69   38.56
  -6  -2  -5   -9.31    7.97
  -8  -2  -5 1982.81   64.20
  10   2   5  719.60   43.78
  12   2   5   71.26   22.94
  14   2   5  749.73   49.81
  16   2   5  229.77   39.87
  18   2   5  101.48   32.03
  20   2   5  330.18   50.14
  29  -3  -5  112.28   39.34
  27  -3  -5   37.16   27.97
  25  -3  -5   -3.57   21.59
  23  -3  -5   -0.06   18.17
  21  -3  -5    1.91   15.46
  19  -3  -5    4.24   13.42
  17  -3  -5  845.03   42.71
  15  -3  -5  106.82   19.19
 -15   3   5  104.33   17.07
  13  -3  -5  244.17   20.42
 -13   3   5  286.96   20.75
  11  -3  -5  455.23   24.99
 -11   3   5  426.12   23.61
  -9   3   5  752.80   29.40
   9  -3  -5  722.32   28.36
   7  -3  -5  480.88   21.72
  -7   3   5  469.02   21.80
   5  -3  -5 2766.47   59.45
  -5   3   5 2755.27   60.47
  -3   3   5   26.67    7.04
   3  -3  -5   26.03    8.56
  -1   3   5    7.47    5.27
   1  -3  -5    5.01    6.20
  -1  -3  -5  514.72   24.90
   1   3   5  523.76   20.16
  -3  -3  -5   95.35   14.52
  -5  -3  -5  682.38   32.80
  -7  -3  -5  192.14   22.89
  -9  -3  -5  260.81   25.13
  11   3   5  243.98   33.79
  13   3   5   56.41   22.87
  15   3   5   60.32   25.07
  17   3   5  296.02   46.92
  19   3   5   15.29   30.12
  28  -4  -5  -18.50   22.66
  26  -4  -5  687.21   54.23
  24  -4  -5  620.27   48.37
  22  -4  -5   20.79   20.60
  20  -4  -5 2305.17   80.50
  18  -4  -5  367.13   31.16
  16  -4  -5 1223.24   50.17
 -14   4   5 3725.47   90.06
  14  -4  -5 3829.82   90.78
  12  -4  -5  696.48   32.59
 -12   4   5  683.63   31.74
 -10   4   5 2046.44   55.84
  10  -4  -5 1926.54   53.45
   8  -4  -5 6755.30  119.76
  -8   4   5 6694.95  124.41
  -6   4   5 2034.09   51.04
   6  -4  -5 2080.12   52.36
   4  -4  -5  762.33   29.27
  -4   4   5  715.94   26.21
  -2   4   5 5271.28   95.82
   2  -4  -5 5340.96  100.41
   2  -4  -5 5243.05   89.12
   0   4   5  334.54   15.86
   0  -4  -5  293.45   15.65
   0  -4  -5  302.31   19.94
  -2  -4  -5 3812.62   78.81
   2   4   5 3827.33   71.14
  -2  -4  -5 3748.24   83.45
  -4  -4  -5 2958.32   73.58
   4   4   5 2854.46   57.39
  -6  -4  -5   23.08   11.54
  -8  -4  -5 2087.58   67.42
 -10  -4  -5  635.13   39.45
  12   4   5   12.85   19.63
  14   4   5 1338.62   71.05
  16   4   5  382.33   50.35
  18   4   5  380.28   52.89
  20   4   5  784.61   65.15
  29  -5  -5   13.86   31.28
  27  -5  -5    0.09   24.16
  25  -5  -5   11.93   22.37
  23  -5  -5   70.16   25.64
  21  -5  -5   57.81   22.37
  19  -5  -5   -2.61   14.33
  17  -5  -5   56.11   19.21
  15  -5  -5   29.60   14.29
  13  -5  -5   11.61   11.05
  11  -5  -5   42.48   11.92
 -11   5   5   40.74   11.68
   9  -5  -5  -10.01    6.67
   9  -5  -5    9.98    4.72
  -9   5   5   14.12    7.58
   7  -5  -5  477.52   24.54
  -7   5   5  469.98   23.70
   5  -5  -5  114.35    6.44
  -5   5   5  130.51   12.35
   5  -5  -5  124.34   16.01
   3  -5  -5   25.17    5.65
   3  -5  -5   31.21    9.82
  -3   5   5   38.63    8.41
   1  -5  -5 2486.43   62.83
  -1   5   5 2358.64   52.56
   1  -5  -5 2440.71   51.31
   1   5   5  438.81   17.75
  -1  -5  -5  399.04   24.73
  -1  -5  -5  403.47   19.95
  -3  -5  -5   72.11   14.73
  -3  -5  -5   55.03   11.73
   3   5   5   83.61    9.85
  -5  -5  -5    5.12    8.42
  -5  -5  -5    2.81    9.24
  -7  -5  -5   48.42   15.41
  -7  -5  -5   39.49   12.87
  -9  -5  -5   51.61   17.06
 -11  -5  -5  214.09   28.90
  13   5   5   -9.13   18.35
  15   5   5   18.14   25.35
  17   5   5   21.41   24.69
  19   5   5  -32.29   28.57
  28  -6  -5   44.00   30.30
  26  -6  -5  347.07   49.30
  24  -6  -5  381.20   45.95
  22  -6  -5  109.53   27.36
  20  -6  -5 1035.92   54.41
  18  -6  -5  982.46   50.07
  16  -6  -5   92.31   22.00
  14  -6  -5 1927.71   62.90
  12  -6  -5  361.07   17.43
  12  -6  -5  360.46   25.53
  10  -6  -5  717.80   33.68
  10  -6  -5  814.38   24.28
  -8   6   5 2034.12   56.87
   8  -6  -5 1881.93   55.04
   8  -6  -5 2038.49   40.11
   6  -6  -5   26.14    5.14
   6  -6  -5   19.14    9.04
  -6   6   5   25.93    8.62
  -4   6   5 2894.94   65.90
   4  -6  -5 2963.16   54.24
   4  -6  -5 2841.77   70.62
   2  -6  -5 6287.20  121.61
   2  -6  -5 6277.20  106.87
  -2   6   5 6385.65  113.72
   0   6   5   22.18    7.40
   0  -6  -5   15.08    7.25
   0  -6  -5   13.41    9.17
  -2  -6  -5 2124.07   62.05
  -2  -6  -5 2042.21   53.42
   2   6   5 2113.57   45.37
  -4  -6  -5 1209.17   42.23
  -4  -6  -5 1225.22   47.59
  -6  -6  -5   43.09   13.95
  -6  -6  -5   25.74   11.01
  -8  -6  -5  781.11   38.83
  -8  -6  -5  778.12   41.72
 -10  -6  -5 1046.70   51.23
 -12  -6  -5    7.68   15.87
  14   6   5  897.06   65.20
  16   6   5  181.37   41.55
  18   6   5   89.08   40.26
  27  -7  -5  326.94   49.26
  25  -7  -5   21.19   22.21
  23  -7  -5  282.52   39.58
  21  -7  -5  236.62   35.97
  19  -7  -5  662.15   43.55
  17  -7  -5  982.81   49.46
  15  -7  -5  566.90   35.86
  13  -7  -5  173.43   22.83
  11  -7  -5 2115.76   50.63
  11  -7  -5 2361.83   67.28
   9  -7  -5   54.78   13.86
   9  -7  -5   81.39   10.10
   7  -7  -5 1874.00   40.15
   7  -7  -5 1811.10   56.19
  -5   7   5 1746.32   50.13
   5  -7  -5 1743.07   54.18
   5  -7  -5 1733.03   38.64
   3  -7  -5    2.78    7.88
   3  -7  -5    4.34    5.70
  -3   7   5    4.72    7.02
   1  -7  -5  464.97   28.24
   1  -7  -5  493.15   21.08
  -1   7   5  501.07   22.21
  -1  -7  -5 1264.68   39.35
  -1  -7  -5 1362.08   49.54
   1   7   5 1330.62   35.76
  -3  -7  -5    5.10    7.37
  -3  -7  -5   -7.30    8.63
  -5  -7  -5 1077.38   46.78
  -5  -7  -5 1065.60   41.84
  -7  -7  -5 1112.15   45.75
  -7  -7  -5 1034.26   48.18
  -9  -7  -5  157.14   23.74
  -9  -7  -5  129.25   25.11
 -11  -7  -5 1011.92   50.08
 -11  -7  -5 1077.12   54.87
 -13  -7  -5  166.24   29.89
  15   7   5  222.15   47.00
  26  -8  -5   65.05   29.79
  24  -8  -5   27.35   23.80
  22  -8  -5   12.96   21.08
  20  -8  -5  192.74   32.31
  18  -8  -5    8.14   16.03
  16  -8  -5   60.51   19.08
  14  -8  -5   96.92   20.64
  12  -8  -5   21.93   13.06
  10  -8  -5    5.27   10.11
   8  -8  -5    8.79    8.99
   6  -8  -5   -3.07    7.21
   6  -8  -5   -1.63    5.42
   4  -8  -5  327.20   16.80
   4  -8  -5  390.97   26.51
   2  -8  -5   48.03   13.09
   2  -8  -5   45.54    9.53
   0  -8  -5   39.22   10.04
   0  -8  -5   76.23   17.04
  -2  -8  -5  378.39   22.59
  -2  -8  -5  353.55   28.14
  -4  -8  -5  163.58   23.94
  -4  -8  -5  196.83   18.83
  -6  -8  -5   -1.59   10.11
  -6  -8  -5   -8.14   10.58
  -8  -8  -5  218.84   23.59
  -8  -8  -5  237.66   30.35
 -10  -8  -5   91.75   21.18
 -10  -8  -5   68.17   21.68
 -12  -8  -5  -11.49   12.30
 -12  -8  -5    8.63   16.96
 -14  -8  -5   70.66   23.75
  16   8   5   16.85   34.73
  18   8   5    0.35   32.61
  25  -9  -5   -0.30   21.27
  23  -9  -5  705.10   51.54
  21  -9  -5  492.56   41.76
  19  -9  -5  135.80   28.33
  17  -9  -5 1680.27   67.78
  15  -9  -5  459.12   34.94
  13  -9  -5  398.84   31.77
  11  -9  -5 1431.68   55.07
   9  -9  -5  332.85   26.52
   7  -9  -5 1472.13   54.06
   5  -9  -5 2257.66   68.92
   3  -9  -5   22.35   12.59
   3  -9  -5   34.63    9.39
   1  -9  -5 1778.22   61.06
   1  -9  -5 1647.13   46.90
  -1  -9  -5 1268.02   52.01
  -1  -9  -5 1335.87   43.14
  -3  -9  -5    7.29   12.26
  -3  -9  -5   -2.79    8.23
  -5  -9  -5 1556.85   53.96
  -5  -9  -5 1537.63   61.36
  -7  -9  -5  543.28   38.07
  -7  -9  -5  570.51   34.07
  -9  -9  -5  113.68   22.05
  -9  -9  -5  112.33   24.06
 -11  -9  -5 1077.96   53.23
 -11  -9  -5 1103.26   56.83
 -13  -9  -5  369.54   35.42
 -13  -9  -5  391.22   37.24
 -15  -9  -5  -29.85   16.91
  17   9   5  583.78   79.84
  24 -10  -5  100.18   30.84
  22 -10  -5   34.56   21.69
  20 -10  -5  157.92   29.74
  18 -10  -5   -9.03   15.52
  16 -10  -5    8.45   14.78
  14 -10  -5  277.24   32.87
  12 -10  -5   76.05   20.08
  10 -10  -5  117.50   21.42
   8 -10  -5  391.27   29.35
   6 -10  -5   27.61   13.71
   4 -10  -5   73.63   17.95
   2 -10  -5  102.48   20.89
   0 -10  -5  -18.74    9.72
  -2 -10  -5  171.77   18.10
  -2 -10  -5  231.97   29.74
  -4 -10  -5  279.86   23.42
  -4 -10  -5  318.10   29.47
  -6 -10  -5    1.50   11.44
  -6 -10  -5   38.40   17.74
  -8 -10  -5  647.22   42.20
  -8 -10  -5  615.71   37.64
 -10 -10  -5  217.41   30.45
 -10 -10  -5  297.66   36.28
 -12 -10  -5    1.66   15.24
 -12 -10  -5   22.10   21.44
 -14 -10  -5   97.52   25.51
 -14 -10  -5  136.40   30.66
  23 -11  -5  264.30   39.96
  21 -11  -5   90.16   26.59
  19 -11  -5   81.10   25.13
  17 -11  -5  217.39   32.09
  15 -11  -5    9.36   15.17
  13 -11  -5  440.48   34.92
  11 -11  -5 1132.70   52.55
   9 -11  -5  286.77   31.34
   7 -11  -5  513.92   34.94
   5 -11  -5  503.51   34.60
   3 -11  -5    8.58   14.19
   1 -11  -5  370.02   30.64
  -1 -11  -5  337.84   30.40
  -3 -11  -5   -2.09   14.85
  -5 -11  -5  584.97   40.34
  -7 -11  -5  294.27   27.53
  -7 -11  -5  306.03   35.70
  -9 -11  -5   -5.91   16.89
  -9 -11  -5   13.55   16.03
 -11 -11  -5  398.26   38.04
 -11 -11  -5  475.24   38.23
 -13 -11  -5  134.03   32.15
 -13 -11  -5   93.62   25.97
 -15 -11  -5  136.12   32.19
 -15 -11  -5   49.92   24.04
  22 -12  -5   43.60   23.76
  20 -12  -5  586.89   46.09
  18 -12  -5  377.91   36.71
  16 -12  -5   23.84   19.27
  14 -12  -5  865.85   49.56
  12 -12  -5  241.43   31.73
  10 -12  -5  560.21   38.51
   8 -12  -5 1272.13   56.58
   6 -12  -5   22.57   17.72
   4 -12  -5 1612.81   64.54
   2 -12  -5 1616.21   65.07
   0 -12  -5   -9.18   11.95
  -2 -12  -5  851.03   48.78
  -4 -12  -5  510.10   38.99
  -6 -12  -5  -13.77   16.49
  -8 -12  -5  604.43   43.46
 -10 -12  -5  459.17   47.74
 -12 -12  -5   35.88   22.93
 -14 -12  -5  467.60   51.46
  21 -13  -5  -26.58   19.03
  19 -13  -5    6.92   18.22
  17 -13  -5   23.17   19.87
  15 -13  -5   -1.80   16.19
  13 -13  -5   -5.12   14.81
  11 -13  -5    8.84   16.49
   9 -13  -5   32.69   18.93
   7 -13  -5   46.67   20.65
   5 -13  -5   -7.48   13.85
   3 -13  -5   -8.93   14.32
   1 -13  -5  -24.28   13.92
  -1 -13  -5  -12.64   14.88
  -3 -13  -5    6.96   16.33
  -5 -13  -5  -15.10   14.66
  -7 -13  -5    8.12   20.63
  -9 -13  -5  -21.87   16.92
 -11 -13  -5  -10.90   19.86
  20 -14  -5  512.66   45.93
  18 -14  -5  227.09   36.06
  16 -14  -5  342.13   40.65
  14 -14  -5  813.87   50.99
  12 -14  -5  114.33   28.67
  10 -14  -5  249.51   35.39
   8 -14  -5  926.92   52.35
   6 -14  -5  155.01   28.47
   4 -14  -5  367.09   34.39
   2 -14  -5  905.98   52.78
   0 -14  -5   -7.75   15.93
  -2 -14  -5  597.73   44.54
  -4 -14  -5  716.18   49.15
  -6 -14  -5   14.37   21.52
  -8 -14  -5  503.33   44.11
 -10 -14  -5  174.94   33.88
  17 -15  -5  179.11   35.01
  15 -15  -5   48.49   23.41
  13 -15  -5   70.09   24.96
  11 -15  -5  263.97   36.96
   9 -15  -5   40.37   20.54
   7 -15  -5  166.61   30.33
   5 -15  -5  405.14   42.88
   3 -15  -5  -23.33   15.54
   1 -15  -5  180.07   31.59
  -1 -15  -5  196.63   33.63
  -3 -15  -5  -32.15   15.76
  -5 -15  -5  223.82   36.35
  -7 -15  -5  101.48   29.96
  14 -16  -5  117.99   31.63
  12 -16  -5   34.47   25.39
  10 -16  -5    3.23   20.58
   8 -16  -5  148.76   31.24
   6 -16  -5   19.94   22.27
   4 -16  -5  212.98   35.56
   2 -16  -5  130.82   31.21
   0 -16  -5    8.32   23.09
  -2 -16  -5  128.32   32.48
  -4 -16  -5   50.20   26.27
   9 -17  -5   48.02   25.52
   7 -17  -5  213.31   36.11
   5 -17  -5  495.79   44.42
   3 -17  -5   15.48   22.73
   1 -17  -5  333.82   43.79
  -1 -17  -5  403.43   48.01
  -9 -17   6  -31.56   17.61
  -7 -17   6  -21.39   20.36
  -5 -17   6   31.91   25.27
  -3 -17   6   -4.00   22.81
 -14 -16   6  109.92   32.38
 -12 -16   6  366.46   49.73
 -10 -16   6   33.86   25.10
  -8 -16   6  279.50   41.82
  -6 -16   6  415.89   43.22
  -4 -16   6   -2.08   21.43
  -2 -16   6  366.14   47.03
   0 -16   6  251.98   43.18
   2 -16   6   17.09   23.43
 -17 -15   6   35.34   25.27
 -15 -15   6  305.43   45.95
 -13 -15   6   82.43   27.71
 -11 -15   6  146.01   32.93
  -9 -15   6  361.65   38.83
  -7 -15   6   -5.35   18.72
  -5 -15   6  195.13   35.78
  -3 -15   6  325.24   41.98
  -1 -15   6  -13.32   17.83
   1 -15   6  368.69   45.82
   3 -15   6  391.46   42.21
   5 -15   6    8.01   23.88
 -20 -14   6    4.15   21.39
 -18 -14   6   87.09   29.53
 -16 -14   6    1.44   19.55
 -14 -14   6    5.19   18.20
 -12 -14   6  116.50   28.90
 -10 -14   6   25.47   20.88
  -8 -14   6   14.67   17.47
  -6 -14   6  112.04   30.11
  -4 -14   6   -8.08   17.19
  -2 -14   6   12.57   19.06
   0 -14   6   74.88   26.37
   2 -14   6   15.06   21.10
   4 -14   6   24.43   22.80
   6 -14   6   44.93   27.37
   8 -14   6   -5.35   24.30
 -21 -13   6  496.52   46.41
 -19 -13   6  301.24   43.05
 -17 -13   6   72.20   25.53
 -15 -13   6 1030.61   60.38
 -13 -13   6  150.42   31.73
 -11 -13   6  447.12   39.94
  -9 -13   6 1234.06   62.85
  -7 -13   6  -10.49   16.38
  -5 -13   6  610.91   45.44
  -3 -13   6  736.89   49.13
  -1 -13   6  -13.69   15.30
   1 -13   6  616.76   46.45
   3 -13   6  647.29   49.31
   5 -13   6   -5.96   22.37
   7 -13   6  707.49   53.92
   9 -13   6  243.16   41.64
  11 -13   6   25.79   28.33
 -22 -12   6    6.38   19.94
 -20 -12   6   26.16   22.58
 -18 -12   6   91.09   26.10
 -16 -12   6   -1.56   15.10
 -14 -12   6  199.20   33.08
 -12 -12   6  158.11   29.43
 -10 -12   6  -12.47   13.34
  -8 -12   6  169.54   30.58
  -6 -12   6  370.97   34.54
  -4 -12   6  -10.81   13.41
  -2 -12   6   95.57   23.97
   0 -12   6   83.60   23.60
   2 -12   6    7.21   15.89
   4 -12   6  143.07   31.83
   6 -12   6  102.91   29.30
   8 -12   6    3.97   21.97
  10 -12   6  106.04   31.41
  12 -12   6   -4.58   23.25
 -25 -11   6  148.24   35.24
 -23 -11   6  -20.03   16.48
 -21 -11   6  325.92   41.48
 -19 -11   6   88.91   25.81
 -17 -11   6  204.67   31.64
 -15 -11   6  396.49   36.78
 -13 -11   6   50.87   19.65
 -11 -11   6  197.81   30.20
  -9 -11   6  751.56   45.97
  -7 -11   6   83.86   22.22
  -5 -11   6 1063.39   54.14
  -3 -11   6 1665.69   68.07
  -1 -11   6    0.98   14.52
   1 -11   6  555.79   41.13
   3 -11   6  355.43   35.28
   5 -11   6   16.75   19.31
   7 -11   6  663.77   49.78
   9 -11   6  283.82   42.89
  11 -11   6   -2.49   21.75
  13 -11   6  190.15   36.08
 -26 -10   6   29.26   23.59
 -24 -10   6  572.80   46.80
 -22 -10   6  189.76   33.31
 -20 -10   6  190.09   31.43
 -18 -10   6  717.45   46.88
 -16 -10   6  179.04   29.23
 -14 -10   6  692.43   43.65
 -12 -10   6 1736.89   69.39
 -10 -10   6  -14.49   12.32
  -8 -10   6  668.92   41.66
  -6 -10   6  712.24   42.57
  -4 -10   6   -3.28   13.13
  -2 -10   6 1387.09   60.10
   0 -10   6 1228.58   57.90
   2 -10   6   70.94   22.65
   4 -10   6 1542.03   68.11
   6 -10   6  482.74   40.58
   8 -10   6  129.92   30.04
  10 -10   6  856.27   55.03
  12 -10   6  150.91   31.90
  14 -10   6  112.82   33.33
 -27  -9   6    1.23   19.65
 -25  -9   6  -15.62   14.74
 -23  -9   6  -27.33   13.48
 -21  -9   6   -2.09   13.28
 -19  -9   6   35.72   18.46
 -17  -9   6   -9.90   12.43
 -15  -9   6  -13.56   10.75
 -13  -9   6   30.39   15.01
 -11  -9   6   75.02   19.14
  -9  -9   6   14.68   13.46
  -7  -9   6   -0.16   12.01
  -5  -9   6   16.01   13.11
  -3  -9   6   32.08   15.10
  -1  -9   6   -9.94   10.98
   1  -9   6    2.88   14.06
   3  -9   6   23.01   16.48
   5  -9   6  -24.59   11.76
   7  -9   6   87.16   23.42
   9  -9   6   14.93   18.47
  11  -9   6   11.83   18.67
  13  -9   6    7.96   17.53
  15  -9   6   15.37   20.39
 -28  -8   6  212.62   37.81
 -26  -8   6  -11.47   16.66
 -24  -8   6  710.38   48.58
 -22  -8   6  219.19   31.47
 -20  -8   6  391.22   34.21
 -18  -8   6 1304.07   58.69
 -16  -8   6  486.73   35.41
 -14  -8   6  391.56   30.72
 -12  -8   6 1838.91   66.10
 -10  -8   6   29.70   13.87
  -8  -8   6 1776.81   63.03
  -6  -8   6 1532.18   57.82
  -4  -8   6   -7.68    9.36
  -2  -8   6 2585.28   78.96
   0  -8   6 1166.99   51.70
   2  -8   6   29.85   15.55
   4  -8   6 1828.55   69.75
   6  -8   6  876.19   48.71
   8  -8   6  202.01   30.13
  10  -8   6 1555.73   69.07
  12  -8   6  263.44   36.80
  14  -8   6  106.30   27.03
  16  -8   6  406.79   40.44
 -27  -7   6  202.22   35.28
 -25  -7   6  156.84   30.07
 -23  -7   6   29.12   18.24
 -21  -7   6  337.39   31.59
 -19  -7   6   43.66   17.44
 -17  -7   6  176.96   25.79
 -15  -7   6  630.29   37.11
 -13  -7   6   77.43   14.64
 -13  -7   6   76.11   17.29
 -11  -7   6   33.77   13.59
  -9  -7   6  546.83   32.98
  -7  -7   6   11.41   10.87
  -5  -7   6 1688.67   58.04
  -3  -7   6 1701.54   58.86
  -1  -7   6   -1.73    9.62
   1  -7   6  675.89   38.33
   3  -7   6  458.88   32.67
   5  -7   6   -1.16   12.53
   7  -7   6  622.12   40.92
   7  -7   6  687.81   37.61
   9  -7   6  309.25   33.47
   9  -7   6  280.10   34.08
  11  -7   6   18.16   19.48
  11  -7   6   19.38   19.23
  13  -7   6  440.04   46.39
 -28  -6   6   34.23   24.68
 -26  -6   6    0.74   16.05
 -24  -6   6  237.36   33.59
  22   6  -6   15.37   16.69
 -22  -6   6    9.90   14.97
 -20  -6   6  490.64   35.01
  20   6  -6  470.19   33.19
  18   6  -6  427.36   29.12
 -18  -6   6  451.40   32.26
  16   6  -6  105.51   17.78
 -16  -6   6   69.18   14.09
 -16  -6   6  121.16   19.90
 -14  -6   6  166.29   21.84
  14   6  -6  187.70   16.39
 -14  -6   6  183.16   17.10
 -12  -6   6  596.50   28.04
 -12  -6   6  515.57   31.06
  12   6  -6  577.33   22.78
  10   6  -6   96.78    9.78
 -10  -6   6  105.07   17.45
  -8  -6   6 1020.56   42.77
  -6  -6   6 1177.11   45.20
  -4  -6   6   22.87   10.96
  -2  -6   6 1604.00   34.11
  -2  -6   6 1600.20   54.82
   0  -6   6  642.95   24.11
   0  -6   6  641.90   35.18
   2  -6   6   -3.35    7.13
   2  -6   6   -2.25    9.87
   4  -6   6  213.14   20.30
   4  -6   6  195.96   25.54
   6  -6   6  341.23   29.51
   6  -6   6  313.59   25.70
   8  -6   6  117.38   22.41
  10  -6   6  329.97   32.17
  12  -6   6   -1.10   19.54
  14  -6   6  211.43   37.01
  16  -6   6  522.50   56.38
  18  -6   6   90.78   32.53
 -29  -5   6    4.27   19.61
  27   5  -6  561.07   46.90
 -27  -5   6  562.90   44.25
  25   5  -6  423.33   39.08
 -25  -5   6  451.06   37.29
 -23  -5   6   20.62   15.74
  23   5  -6   -6.37   15.78
  21   5  -6 1257.06   55.08
 -21  -5   6 1164.65   53.50
  19   5  -6  882.03   42.59
 -19  -5   6  885.72   43.56
  17   5  -6  276.50   22.85
 -17  -5   6  295.00   24.82
 -17  -5   6  314.73   20.84
 -15  -5   6 2703.30   75.39
 -15  -5   6 2777.97   66.98
  15   5  -6 2781.77   66.63
 -13  -5   6  957.48   40.18
  13   5  -6  960.17   31.57
 -13  -5   6  947.82   35.18
 -11  -5   6 2448.06   61.94
 -11  -5   6 2319.60   65.95
  11   5  -6 2412.45   48.11
   9   5  -6 4590.42   70.02
  -9  -5   6 4528.68  101.06
  -7  -5   6  310.38   22.24
  -5  -5   6 1528.50   50.09
  -3  -5   6 1981.51   36.34
  -3  -5   6 2183.67   61.54
  -1  -5   6    7.73    6.54
  -1  -5   6   -0.61    8.53
   1  -5   6 1367.79   38.48
   1  -5   6 1302.83   48.57
   3  -5   6 1448.67   45.17
   3  -5   6 1564.57   55.56
   5  -5   6   83.26   16.46
   7  -5   6 2296.72   70.09
   9  -5   6  932.17   47.51
  11  -5   6  369.25   39.77
  13  -5   6 1195.98   62.43
  15  -5   6  268.51   40.56
  17  -5   6  315.82   45.62
 -30  -4   6  -24.52   19.44
  30   4  -6  -23.82   24.32
 -28  -4   6   -4.48   16.61
  28   4  -6  -17.20   22.62
 -26  -4   6  -11.01   13.92
  26   4  -6    2.74   20.46
  24   4  -6   -3.88   15.37
 -24  -4   6   -7.87   12.68
 -22  -4   6   14.47   13.66
  22   4  -6  -13.90   15.53
  20   4  -6  256.93   30.23
 -20  -4   6  248.04   24.38
 -18  -4   6  199.02   20.81
  18   4  -6  181.63   24.08
 -18  -4   6  157.81   15.88
 -16  -4   6   18.05    9.99
  16   4  -6    7.51   10.83
 -16  -4   6    0.84    7.26
 -14  -4   6   39.62   10.58
 -14  -4   6   67.94   13.91
  14   4  -6   39.82   11.31
  12   4  -6   14.77    7.35
 -12  -4   6   15.54    8.59
 -12  -4   6   12.19    8.64
  10   4  -6   82.55    7.76
 -10  -4   6   75.32   13.30
  -8  -4   6   17.30    8.44
  -6  -4   6  510.44   26.19
  -4  -4   6   46.88   11.64
  -2  -4   6   78.66   13.85
  -2  -4   6   87.30    8.90
   0  -4   6  246.83   15.08
   0  -4   6  195.81   18.23
   2  -4   6   11.60    8.89
   2  -4   6    7.76    9.54
   4  -4   6   59.00   13.95
   6  -4   6   -3.23   10.66
   8  -4   6   10.53   14.23
  10  -4   6   -1.60   15.26
  12  -4   6  166.02   31.00
  14  -4   6   30.73   23.59
  16  -4   6   -2.01   23.94
  18  -4   6  -13.64   25.67
  29   3  -6  -22.17   21.83
  27   3  -6  461.56   43.30
 -27  -3   6  464.94   39.66
 -25  -3   6  280.33   29.43
  25   3  -6  425.31   46.84
  23   3  -6   93.13   25.47
 -23  -3   6   72.68   20.10
 -21  -3   6 1411.66   56.42
  21   3  -6 1632.04   63.63
 -19  -3   6  161.80   21.51
  19   3  -6  104.72   21.09
 -19  -3   6  152.19   16.33
 -17  -3   6  654.95   29.30
  17   3  -6  603.29   32.33
 -17  -3   6  624.37   32.10
 -15  -3   6 1647.29   51.11
  15   3  -6 1527.82   47.57
 -15  -3   6 1636.82   47.98
  13   3  -6  461.79   21.85
 -13  -3   6  443.69   24.29
 -13  -3   6  461.55   23.56
  11   3  -6 1398.96   34.31
 -11  -3   6 1445.96   43.33
 -11  -3   6 1454.31   44.04
  -9  -3   6 5972.11  115.68
   9   3  -6 6269.22   92.74
  -7  -3   6 1307.12   40.81
  -5  -3   6  639.74   27.51
  -3  -3   6 5067.16   79.33
  -3  -3   6 5086.62  101.45
  -1  -3   6   28.98    7.93
  -1  -3   6   26.17    9.03
   1  -3   6 3605.48   83.70
   1  -3   6 3546.13   72.33
   3  -3   6 1495.73   46.02
   5  -3   6   45.65   14.35
   7  -3   6 2068.19   66.20
   9  -3   6  964.75   47.49
  11  -3   6  185.61   28.61
  13  -3   6 1167.05   60.53
  15  -3   6  263.65   39.56
  17  -3   6  126.63   37.34
  19  -3   6  622.57   63.42
  30   2  -6  171.71   38.75
  28   2  -6  240.17   42.59
  26   2  -6   49.22   23.59
 -26  -2   6   85.59   22.19
 -24  -2   6  474.83   34.90
  24   2  -6  491.81   40.33
  22   2  -6  496.88   38.32
 -22  -2   6  495.78   33.34
 -20  -2   6  307.66   24.88
 -20  -2   6  298.71   23.03
  20   2  -6  244.05   29.64
 -18  -2   6 1414.75   46.95
 -18  -2   6 1432.66   49.67
  18   2  -6 1344.27   51.73
 -16  -2   6  414.10   24.33
  16   2  -6  378.27   25.18
 -16  -2   6  403.30   23.14
 -14  -2   6  918.38   34.34
 -14  -2   6  932.42   34.60
  14   2  -6  908.13   33.66
 -12  -2   6 1250.48   38.76
  12   2  -6 1210.09   34.74
 -12  -2   6 1276.40   40.16
 -10  -2   6   46.97    9.69
  10   2  -6   48.68    7.98
 -10  -2   6   46.93   10.02
   8   2  -6 1365.75   27.48
  -8  -2   6 1347.07   41.32
  -8  -2   6 1323.83   38.65
   6   2  -6 3342.00   52.13
  -6  -2   6 3221.27   69.37
  -4  -2   6  139.49   12.94
   4   2  -6  135.63    7.83
   2   2  -6 3158.51   56.98
  -2  -2   6 3142.30   69.05
   0  -2   6 3498.33   69.74
   2  -2   6  675.12   29.09
   4  -2   6 1640.89   51.65
   6  -2   6  564.71   32.23
   8  -2   6  221.43   27.79
  10  -2   6  224.64   31.07
  12  -2   6  695.42   46.36
  14  -2   6  123.59   28.85
  16  -2   6  650.27   50.59
  18  -2   6   37.55   27.92
  31   1  -6  -41.17   24.87
  29   1  -6    2.45   23.32
  27   1  -6  118.73   32.87
 -25  -1   6   95.05   23.70
  25   1  -6  115.33   30.45
 -23  -1   6  -17.53   10.70
  23   1  -6  -12.35   14.41
  21   1  -6  356.03   31.96
 -21  -1   6  359.79   27.91
 -21  -1   6  328.59   25.27
 -19  -1   6    3.88    9.06
 -19  -1   6   -0.01    9.21
  19   1  -6   14.50   14.49
 -17  -1   6    1.27    8.06
  17   1  -6  -13.41    9.28
 -17  -1   6    8.41    8.56
 -15  -1   6  418.96   23.51
 -15  -1   6  434.95   22.77
  15   1  -6  414.88   24.83
 -13  -1   6   38.54    9.11
 -13  -1   6   12.76    8.27
  13   1  -6   26.18    8.97
  11   1  -6  429.61   19.28
 -11  -1   6  422.26   19.57
 -11  -1   6  427.68   22.05
  -9  -1   6 2228.33   49.65
   9   1  -6 2192.18   44.13
  -9  -1   6 2166.03   54.80
  -7  -1   6   64.46    9.17
  -7  -1   6   68.60   11.58
   7   1  -6   72.19    6.84
   5   1  -6  330.76   12.76
  -5  -1   6  323.30   16.68
  -3  -1   6  293.04   15.80
   3   1  -6  260.25   12.69
   1   1  -6  282.40   15.40
  -1   1  -6 1702.19   44.67
   3  -1   6  201.26   20.97
   5  -1   6   -5.46    8.74
   7  -1   6  642.90   36.72
   9  -1   6  504.61   35.22
  11  -1   6  234.89   32.00
  13  -1   6  195.35   33.80
  15  -1   6   62.81   26.41
  17  -1   6   -4.92   22.41
  19  -1   6  143.29   37.75
  30   0  -6  779.46   61.07
  28   0  -6  145.40   35.97
  26   0  -6   81.30   27.68
  24   0  -6  880.45   54.24
 -22   0   6 1202.75   49.60
  22   0  -6 1064.54   54.86
  20   0  -6    8.21   13.89
 -20   0   6    1.63   10.57
 -20   0   6    8.82   10.92
 -18   0   6 3944.16   89.83
 -18   0   6 4043.62   93.35
  18   0  -6 3841.51   95.91
 -16   0   6  209.74   17.20
 -16   0   6  212.60   17.98
  16   0  -6  208.50   19.93
  14   0  -6 1051.22   38.13
 -14   0   6 1070.94   38.25
 -14   0   6 1072.34   34.17
  12   0  -6 3565.68   73.27
 -12   0   6 3633.51   70.92
 -12   0   6 3540.86   79.07
 -10   0   6   31.38    6.59
 -10   0   6   30.16    8.77
  10   0  -6   23.02    7.58
   8   0  -6  501.01   18.45
  -8   0   6  536.20   23.85
  -8   0   6  500.01   18.02
   6   0  -6 2843.44   53.59
  -6   0   6 2891.60   65.39
  -6   0   6 2931.17   56.91
   4   0  -6  296.72   14.17
  -4   0   6  302.25   14.38
   2   0  -6 5279.48   90.61
   0   0  -6 5142.38   92.84
  -2   0  -6   89.25   13.56
  -4   0  -6 2492.02   64.92
   6   0   6 1456.95   53.99
   8   0   6  512.59   34.87
  10   0   6 1554.39   64.07
  12   0   6   77.13   23.30
  14   0   6  582.43   45.67
  16   0   6 1481.22   76.41
  18   0   6  147.43   37.06
  31  -1  -6  -25.61   26.64
  29  -1  -6  -21.05   22.00
  27  -1  -6  134.43   35.60
  25  -1  -6   86.82   27.08
  23  -1  -6   -2.65   15.89
  21  -1  -6  335.64   37.28
 -19   1   6    0.75    8.76
 -19   1   6    7.05    9.96
  19  -1  -6   -6.59   12.16
 -17   1   6   14.10    8.73
  17  -1  -6   -2.45   10.86
 -17   1   6    7.04    9.39
 -15   1   6  398.43   20.65
 -15   1   6  378.85   23.68
  15  -1  -6  437.22   26.50
 -13   1   6   24.83    7.17
  13  -1  -6   20.56    9.97
 -13   1   6   11.04    7.93
 -11   1   6  428.27   16.31
 -11   1   6  404.30   21.73
  11  -1  -6  393.97   20.49
   9  -1  -6 2160.07   48.83
  -9   1   6 2208.51   55.07
  -9   1   6 2194.71   42.22
  -7   1   6   68.56    6.17
  -7   1   6   51.91   10.15
   7  -1  -6   76.49    9.64
  -5   1   6  305.54   17.88
  -5   1   6  337.26   13.22
   5  -1  -6  324.51   15.94
  -3   1   6  245.58   16.20
   3  -1  -6  254.07   14.88
   1  -1  -6  279.62   16.71
  -1  -1  -6 1679.50   46.35
  -3  -1  -6  142.75   17.36
  -5  -1  -6   -3.57    8.12
   9   1   6  556.54   38.86
  11   1   6  303.84   36.57
  13   1   6  173.79   32.65
  15   1   6   35.93   22.90
  17   1   6   -2.15   22.38
  19   1   6   75.58   35.87
  30  -2  -6  300.73   51.12
  28  -2  -6  188.90   39.16
  26  -2  -6   72.80   26.75
  24  -2  -6  511.30   41.96
  22  -2  -6  490.90   38.67
  20  -2  -6  338.68   30.76
 -18   2   6 1372.54   51.02
  18  -2  -6 1390.91   54.16
  16  -2  -6  379.43   26.88
 -16   2   6  400.12   25.77
 -14   2   6  906.04   36.85
  14  -2  -6  923.98   37.32
 -14   2   6  913.64   28.84
 -12   2   6 1281.06   31.09
 -12   2   6 1224.55   41.53
  12  -2  -6 1246.29   40.94
 -10   2   6   57.99    6.08
  10  -2  -6   35.55    8.88
 -10   2   6   20.25    8.44
  -8   2   6 1334.44   40.68
   8  -2  -6 1334.37   37.06
   6  -2  -6 3237.52   64.97
  -6   2   6 3180.15   69.67
   4  -2  -6  102.90   12.06
  -4   2   6  145.53   12.42
  -2   2   6 3221.54   69.05
   2  -2  -6 3249.39   67.87
   0  -2  -6 3312.33   71.85
  -2  -2  -6  603.50   28.47
  -4  -2  -6 1519.67   49.69
  -6  -2  -6  523.27   31.21
  -8  -2  -6  128.48   22.21
  10   2   6  238.93   35.02
  12   2   6  637.09   46.59
  14   2   6   96.25   28.93
  16   2   6  673.30   54.18
  18   2   6   50.93   31.55
  29  -3  -6  -22.32   23.22
  27  -3  -6  486.60   54.85
  25  -3  -6  371.32   45.84
  23  -3  -6   85.60   25.29
  21  -3  -6 1401.29   61.44
  19  -3  -6  162.57   25.76
 -17   3   6  582.02   32.83
  17  -3  -6  630.94   35.73
 -15   3   6 1554.56   52.74
  15  -3  -6 1597.02   53.59
 -13   3   6  463.56   26.11
  13  -3  -6  421.82   25.34
  11  -3  -6 1383.35   43.36
 -11   3   6 1412.11   44.78
   9  -3  -6 5824.54  106.57
  -9   3   6 5899.84  113.54
   7  -3  -6 1328.62   39.22
  -7   3   6 1272.93   39.66
   5  -3  -6  706.74   27.39
  -5   3   6  674.96   26.64
  -3   3   6 4902.91   94.47
   3  -3  -6 5067.21   95.23
  -1   3   6   29.71    7.86
   1  -3  -6   13.38    8.28
   1   3   6 3425.58   70.61
  -1  -3  -6 3338.26   76.74
  -3  -3  -6 1454.57   47.90
  -5  -3  -6   38.02   12.33
  -7  -3  -6 1975.71   65.27
  -9  -3  -6 1025.68   49.08
  11   3   6  245.77   36.39
  13   3   6 1208.94   67.62
  15   3   6  211.67   39.97
  17   3   6  171.60   39.92
  19   3   6  640.37   69.46
  30  -4  -6  -18.34   25.26
  28  -4  -6   15.27   23.64
  26  -4  -6    0.57   20.74
  24  -4  -6   -5.08   16.45
  22  -4  -6  -26.64   12.78
  20  -4  -6  287.46   33.46
  18  -4  -6  132.24   23.04
  16  -4  -6   -1.78   10.82
 -16   4   6    2.21    9.19
 -14   4   6   44.91   11.96
  14  -4  -6   34.54   13.25
 -12   4   6    1.11    7.97
  12  -4  -6    8.24    8.97
 -10   4   6  112.14   15.83
  10  -4  -6   92.95   14.38
   8  -4  -6   18.27    7.98
  -8   4   6    7.11    7.15
  -6   4   6  516.69   24.28
   6  -4  -6  541.22   25.38
  -4   4   6   51.26   10.01
   4  -4  -6   44.55   10.31
  -2   4   6   89.01   11.14
   2  -4  -6   67.94   12.66
   0  -4  -6  222.08   18.55
   0   4   6  204.33   14.05
  -2  -4  -6   21.23   10.29
   2   4   6   13.99    6.99
  -4  -4  -6   36.58   12.37
  -6  -4  -6   -6.57   10.05
  -8  -4  -6  -10.27    8.99
 -10  -4  -6    2.85   14.47
  12   4   6  176.47   37.03
  14   4   6  -20.14   20.39
  16   4   6  -12.23   22.49
  18   4   6  -28.80   29.79
  29  -5  -6   -4.16   25.14
  27  -5  -6  511.32   48.45
  25  -5  -6  365.22   45.38
  23  -5  -6    7.06   17.93
  21  -5  -6 1196.13   58.47
  19  -5  -6  850.74   46.60
  17  -5  -6  265.98   29.77
  15  -5  -6 2682.43   75.89
 -15   5   6 2782.33   77.77
 -13   5   6  927.45   40.01
  13  -5  -6  949.31   40.11
 -11   5   6 2366.18   65.96
  11  -5  -6 2395.52   64.65
  11  -5  -6 2496.47   44.96
   9  -5  -6 4264.76   91.43
  -9   5   6 4498.13   95.40
  -7   5   6  365.17   21.60
   7  -5  -6  342.69   21.85
   5  -5  -6 1471.76   46.59
  -5   5   6 1519.36   43.62
   3  -5  -6 1920.53   55.38
  -3   5   6 1969.03   49.41
   1  -5  -6    2.67    7.85
  -1   5   6   -3.06    5.77
   1  -5  -6    5.32    6.07
   1   5   6 1325.86   36.03
  -1  -5  -6 1257.64   45.95
  -3  -5  -6 1465.81   51.78
  -5  -5  -6   57.06   15.20
  -7  -5  -6 2171.49   70.95
  -9  -5  -6  932.93   48.19
 -11  -5  -6  309.32   36.43
  13   5   6 1292.60   78.91
  15   5   6  270.57   50.72
  17   5   6  254.92   49.65
  28  -6  -6   90.68   32.71
  26  -6  -6   -5.63   19.95
  24  -6  -6  107.10   29.32
  22  -6  -6    1.42   15.99
  20  -6  -6  474.28   37.48
  18  -6  -6  480.22   35.41
  16  -6  -6  113.40   21.89
  14  -6  -6  152.80   21.52
 -12   6   6  596.71   32.06
  12  -6  -6  558.10   31.17
 -10   6   6  115.87   16.91
  10  -6  -6  104.18   16.69
   8  -6  -6  980.66   39.10
  -8   6   6 1016.72   38.48
   6  -6  -6 1262.21   25.24
   6  -6  -6 1221.19   43.67
  -6   6   6 1203.18   40.35
   4  -6  -6   -2.06    7.34
  -4   6   6    9.35    7.11
   4  -6  -6    7.84    5.24
   2  -6  -6 1498.51   37.70
  -2   6   6 1489.68   41.39
   2  -6  -6 1454.21   49.86
   0  -6  -6  578.78   31.73
   0   6   6  585.03   22.94
   0  -6  -6  569.74   24.50
  -2  -6  -6   -9.44    8.57
  -2  -6  -6    0.09    7.14
  -4  -6  -6  198.46   18.61
  -4  -6  -6  167.00   22.85
  -6  -6  -6  295.36   26.86
  -8  -6  -6  150.46   24.77
 -10  -6  -6  383.03   33.33
 -12  -6  -6   26.45   18.08
  14   6   6  198.36   47.21
  16   6   6  707.23   80.08
  18   6   6  -12.70   34.12
  27  -7  -6  259.71   42.93
  25  -7  -6  142.35   32.94
  23  -7  -6   55.37   23.18
  21  -7  -6  337.54   39.15
  19  -7  -6   40.62   19.44
  17  -7  -6  141.77   24.04
  15  -7  -6  669.83   38.12
  13  -7  -6   74.00   18.10
  11  -7  -6    4.38    9.20
  -9   7   6  570.79   30.48
   9  -7  -6  544.67   30.70
  -7   7   6    8.76    8.91
   7  -7  -6    1.34    8.37
   5  -7  -6 1782.94   56.41
  -5   7   6 1695.19   50.25
  -3   7   6 1664.45   47.16
   3  -7  -6 1595.28   54.58
   3  -7  -6 1741.74   40.25
   1  -7  -6   -0.57    6.04
  -1   7   6   -4.14    6.06
   1  -7  -6   -0.35    8.78
  -1  -7  -6  601.81   35.06
  -1  -7  -6  630.98   28.12
  -3  -7  -6  417.98   29.99
  -3  -7  -6  401.07   24.48
  -5  -7  -6   -9.80    8.33
  -5  -7  -6    1.34   11.66
  -7  -7  -6  582.18   34.88
  -7  -7  -6  576.12   37.83
  -9  -7  -6  253.91   32.22
 -11  -7  -6  -11.24   14.70
 -13  -7  -6  397.98   38.10
  15   7   6  168.07   49.19
  17   7   6  125.04   49.31
  28  -8  -6  171.98   41.05
  26  -8  -6  -26.18   21.31
  24  -8  -6  640.69   49.60
  22  -8  -6  182.06   32.05
  20  -8  -6  382.48   35.06
  18  -8  -6 1361.15   59.85
  16  -8  -6  445.77   33.72
  14  -8  -6  405.44   30.91
  12  -8  -6 1833.19   62.64
  10  -8  -6   33.71   13.22
   8  -8  -6 1747.14   58.50
   6  -8  -6 1453.82   53.05
  -4   8   6   -5.85    7.24
   4  -8  -6   -7.34    8.76
  -2   8   6 2526.12   61.61
   2  -8  -6 2424.09   72.87
   0  -8  -6 1057.94   36.25
   0  -8  -6 1110.48   47.66
  -2  -8  -6   48.14   16.40
  -2  -8  -6   14.85    9.65
  -4  -8  -6 1585.47   52.65
  -4  -8  -6 1504.20   59.80
  -6  -8  -6  679.84   36.56
  -6  -8  -6  712.61   42.28
  -8  -8  -6   94.54   23.58
  -8  -8  -6  148.09   22.38
 -10  -8  -6 1363.10   62.97
 -12  -8  -6  290.77   38.18
 -14  -8  -6   67.19   26.02
  16   8   6  656.43   90.26
  27  -9  -6  -18.37   22.16
  25  -9  -6  -15.72   19.88
  23  -9  -6   -4.32   18.87
  21  -9  -6   -4.99   15.76
  19  -9  -6   56.13   19.98
  17  -9  -6    9.68   13.56
  15  -9  -6    3.63   12.77
  13  -9  -6    3.01   11.61
  11  -9  -6   81.72   18.21
   9  -9  -6   10.47   11.82
   7  -9  -6   -0.98    9.98
   5  -9  -6    4.27   10.85
   3  -9  -6   32.09   14.42
   1  -9  -6   -7.60    9.65
  -1  -9  -6    8.33   11.77
  -3  -9  -6   23.19   12.01
  -3  -9  -6   45.38   17.72
  -5  -9  -6   12.09   15.29
  -5  -9  -6   -7.41    9.32
  -7  -9  -6   86.57   19.75
  -7  -9  -6   72.07   21.33
  -9  -9  -6   14.36   16.79
  -9  -9  -6    8.84   15.46
 -11  -9  -6   11.23   16.76
 -13  -9  -6    4.32   18.41
 -15  -9  -6   -6.70   20.41
  26 -10  -6   31.41   27.59
  24 -10  -6  585.79   48.46
  22 -10  -6  242.01   36.18
  20 -10  -6  135.88   28.39
  18 -10  -6  758.43   46.96
  16 -10  -6  190.51   28.85
  14 -10  -6  656.99   41.02
  12 -10  -6 1572.32   61.30
  10 -10  -6    3.13   12.52
   8 -10  -6  599.41   36.65
   6 -10  -6  748.31   40.76
   4 -10  -6   -9.28    9.29
   2 -10  -6 1337.70   56.50
   0 -10  -6 1289.03   55.96
  -2 -10  -6   67.09   21.67
  -4 -10  -6 1341.80   59.98
  -6 -10  -6  415.61   35.16
  -8 -10  -6  134.98   27.56
  -8 -10  -6  123.07   24.38
 -10 -10  -6  893.81   54.31
 -10 -10  -6  793.86   46.09
 -12 -10  -6  148.85   32.31
 -14 -10  -6   96.99   30.23
  25 -11  -6  231.84   41.36
  23 -11  -6  -21.62   18.29
  21 -11  -6  301.03   40.29
  19 -11  -6  100.09   26.59
  17 -11  -6  258.81   34.96
  15 -11  -6  403.96   34.99
  13 -11  -6   33.75   17.90
  11 -11  -6  180.45   27.66
   9 -11  -6  775.78   43.58
   7 -11  -6  104.80   21.94
   5 -11  -6 1163.39   53.41
   3 -11  -6 1691.24   65.53
   1 -11  -6   -4.93   14.39
  -1 -11  -6  585.61   40.26
  -3 -11  -6  310.02   30.89
  -5 -11  -6   47.58   21.01
  -7 -11  -6  611.46   43.67
  -9 -11  -6  352.51   41.12
 -11 -11  -6   -2.97   20.55
 -13 -11  -6  182.24   36.10
  22 -12  -6    4.86   20.30
  20 -12  -6   16.78   20.32
  18 -12  -6  113.74   27.32
  16 -12  -6   -5.84   15.42
  14 -12  -6  207.49   30.19
  12 -12  -6  205.36   30.71
  10 -12  -6   -0.91   15.52
   8 -12  -6  208.47   29.82
   6 -12  -6  374.47   32.71
   4 -12  -6    2.18   14.57
   2 -12  -6  145.46   26.71
   0 -12  -6   22.64   17.52
  -2 -12  -6    9.94   18.52
  -4 -12  -6  153.73   29.15
  -6 -12  -6   76.02   25.52
  -8 -12  -6    8.09   20.13
 -10 -12  -6  106.42   28.78
 -12 -12  -6  -29.47   19.81
  21 -13  -6  527.34   45.50
  19 -13  -6  302.37   40.38
  17 -13  -6   42.41   21.37
  15 -13  -6 1006.10   56.33
  13 -13  -6  241.86   35.73
  11 -13  -6  426.95   37.29
   9 -13  -6 1296.44   61.13
   7 -13  -6    3.83   16.16
   5 -13  -6  614.05   42.75
   3 -13  -6  684.74   45.38
   1 -13  -6   11.42   15.42
  -1 -13  -6  654.08   46.04
  -3 -13  -6  717.53   48.07
  -5 -13  -6   -9.56   17.46
  -7 -13  -6  568.49   45.87
  -9 -13  -6  189.75   35.62
 -11 -13  -6   52.12   27.38
  20 -14  -6   18.72   23.22
  18 -14  -6   96.77   29.54
  16 -14  -6  -25.25   15.87
  14 -14  -6   19.60   19.89
  12 -14  -6  179.27   32.71
  10 -14  -6   28.28   18.77
   8 -14  -6   -5.00   15.50
   6 -14  -6  167.73   29.82
   4 -14  -6  -20.50   14.08
   2 -14  -6   39.73   21.08
   0 -14  -6  101.54   28.11
  -2 -14  -6   35.21   22.92
  -4 -14  -6   23.41   20.44
  -6 -14  -6   48.24   25.29
  -8 -14  -6  -34.66   16.50
  17 -15  -6  133.67   31.82
  15 -15  -6  326.75   42.12
  13 -15  -6   72.46   24.66
  11 -15  -6  177.43   33.13
   9 -15  -6  410.63   38.41
   7 -15  -6   50.09   21.46
   5 -15  -6  367.87   41.54
   3 -15  -6  400.19   45.21
   1 -15  -6   -9.39   19.20
  -1 -15  -6  382.82   46.44
  -3 -15  -6  461.87   49.65
  -5 -15  -6   12.23   21.49
  14 -16  -6  131.44   31.00
  12 -16  -6  366.53   43.85
  10 -16  -6   65.23   26.04
   8 -16  -6  328.40   42.08
   6 -16  -6  494.28   43.30
   4 -16  -6  -27.65   19.93
   2 -16  -6  401.60   45.78
   0 -16  -6  326.70   44.17
  -2 -16  -6   92.63   30.23
   9 -17  -6   42.25   25.53
   7 -17  -6    1.13   23.13
   5 -17  -6   27.04   25.59
   3 -17  -6    2.67   21.92
 -14 -16   7    2.47   23.85
 -12 -16   7   52.91   26.52
 -10 -16   7   79.63   29.58
  -8 -16   7   -7.75   19.40
  -6 -16   7   90.84   30.53
  -4 -16   7   50.21   27.18
  -2 -16   7  -18.96   19.45
   0 -16   7  217.48   41.71
 -17 -15   7   62.96   29.68
 -15 -15   7  128.30   33.34
 -13 -15   7  307.07   44.34
 -11 -15   7   20.88   22.84
  -9 -15   7   67.50   25.82
  -7 -15   7  141.06   33.85
  -5 -15   7   -3.65   20.95
  -3 -15   7  286.91   43.26
  -1 -15   7  181.66   36.19
   1 -15   7   18.96   23.44
   3 -15   7  365.36   47.89
 -20 -14   7  116.52   32.37
 -18 -14   7   57.36   27.88
 -16 -14   7  402.66   48.02
 -14 -14   7   87.03   27.51
 -12 -14   7  423.94   48.77
 -10 -14   7  570.32   46.26
  -8 -14   7  -29.16   16.25
  -6 -14   7  502.10   43.71
  -4 -14   7  470.29   42.80
  -2 -14   7    1.68   16.62
   0 -14   7  662.13   51.49
   2 -14   7  491.93   46.85
   4 -14   7   10.63   24.04
   6 -14   7  526.30   50.60
 -21 -13   7   13.45   21.95
 -19 -13   7  -15.99   16.72
 -17 -13   7   13.83   19.47
 -15 -13   7   19.35   20.70
 -13 -13   7   -5.28   17.08
 -11 -13   7   -0.45   16.31
  -9 -13   7  -16.30   12.19
  -7 -13   7  -11.80   15.62
  -5 -13   7    6.49   17.54
  -3 -13   7    9.67   17.77
  -1 -13   7   -5.03   17.17
   1 -13   7  -10.27   18.21
   3 -13   7   15.59   21.58
   5 -13   7   -7.40   21.69
   7 -13   7  -15.95   22.03
   9 -13   7   11.80   26.79
 -24 -12   7   10.37   23.06
 -22 -12   7  427.66   49.66
 -20 -12   7   95.12   28.20
 -18 -12   7  368.98   43.72
 -16 -12   7  934.94   56.27
 -14 -12   7  178.29   31.66
 -12 -12   7  477.39   40.13
 -10 -12   7 1066.70   58.16
  -8 -12   7    0.85   17.00
  -6 -12   7  762.86   48.69
  -4 -12   7  557.74   41.97
  -2 -12   7   -5.87   13.86
   0 -12   7  558.32   44.56
   2 -12   7  656.34   48.95
   4 -12   7   33.12   23.95
   6 -12   7  723.04   54.22
   8 -12   7  307.66   45.10
  10 -12   7   44.42   29.28
 -25 -11   7  297.22   42.85
 -23 -11   7   64.12   25.24
 -21 -11   7   79.88   26.20
 -19 -11   7  297.18   38.31
 -17 -11   7   51.94   21.56
 -15 -11   7  351.43   34.54
 -13 -11   7  606.52   43.40
 -11 -11   7    6.31   16.47
  -9 -11   7  548.73   40.70
  -7 -11   7 1148.65   57.36
  -5 -11   7   -0.31   14.66
  -3 -11   7  481.24   38.23
  -1 -11   7  275.01   35.36
   1 -11   7   42.44   21.60
   3 -11   7  504.69   42.92
   5 -11   7  226.33   37.58
   7 -11   7   94.89   29.16
   9 -11   7  318.30   44.18
  11 -11   7   61.62   27.00
 -26 -10   7   19.74   22.42
 -24 -10   7  -16.15   16.53
 -22 -10   7  106.06   26.99
 -20 -10   7    1.49   16.79
 -18 -10   7   64.50   22.75
 -16 -10   7  145.39   27.07
 -14 -10   7   -2.16   13.54
 -12 -10   7  107.80   24.41
 -10 -10   7  325.96   32.49
  -8 -10   7    3.39   14.34
  -6 -10   7  215.51   29.95
  -4 -10   7  972.95   50.70
  -2 -10   7  189.50   29.01
   0 -10   7  370.00   34.69
   2 -10   7  135.67   28.48
   4 -10   7   61.59   25.05
   6 -10   7  212.89   35.20
   8 -10   7   26.33   23.86
  10 -10   7  -16.25   18.50
  12 -10   7  125.05   31.51
 -27  -9   7   18.56   22.17
 -25  -9   7  636.50   48.41
 -23  -9   7  217.79   35.30
 -21  -9   7  190.56   30.87
 -19  -9   7 1101.03   56.88
 -17  -9   7  183.90   28.97
 -15  -9   7  643.20   41.32
 -13  -9   7 1544.63   64.08
 -11  -9   7   48.85   16.90
  -9  -9   7  614.90   39.64
  -7  -9   7 1246.21   55.39
  -5  -9   7  271.73   27.11
  -3  -9   7 2267.74   77.69
  -1  -9   7 1102.00   54.73
   1  -9   7   59.43   20.65
   3  -9   7 1867.38   75.54
   5  -9   7 1181.61   61.27
   7  -9   7  266.63   36.30
   9  -9   7 1155.94   62.97
  11  -9   7  193.56   34.11
  13  -9   7   43.50   25.42
 -28  -8   7   27.07   23.22
 -26  -8   7   40.79   20.90
 -24  -8   7   -1.50   16.79
 -22  -8   7   -1.33   15.07
 -20  -8   7   -5.46   14.09
 -18  -8   7   15.56   15.79
 -16  -8   7  197.94   27.46
 -14  -8   7   -6.74    9.54
 -14  -8   7   -8.70    9.83
 -12  -8   7   19.15   13.44
 -10  -8   7   58.18   16.96
  -8  -8   7    2.74   11.76
  -6  -8   7  115.89   20.64
  -4  -8   7 1087.47   49.66
  -2  -8   7  150.96   24.05
   0  -8   7   14.21   14.95
   2  -8   7  288.09   33.65
   4  -8   7    8.94   16.08
   6  -8   7   27.28   18.44
   8  -8   7   -4.35   16.76
  10  -8   7   -6.70   18.18
  12  -8   7    4.19   18.62
  14  -8   7  -17.74   17.67
 -29  -7   7  173.57   34.36
 -27  -7   7   23.48   19.91
 -25  -7   7  390.02   37.18
 -23  -7   7   77.53   21.14
 -21  -7   7   73.66   20.84
 -19  -7   7 1124.20   53.09
 -17  -7   7  398.54   31.30
 -15  -7   7  551.66   29.46
 -15  -7   7  503.05   33.87
 -13  -7   7 1637.65   60.73
 -11  -7   7    1.64   10.09
  -9  -7   7 1174.75   49.40
  -7  -7   7 1085.83   46.85
  -5  -7   7   33.42   13.79
  -3  -7   7 2193.80   70.77
  -1  -7   7 1410.17   56.50
   1  -7   7  -10.08   10.03
   3  -7   7 1097.33   52.56
   5  -7   7  379.52   32.90
   7  -7   7  282.83   30.18
   9  -7   7  862.93   50.72
  11  -7   7   77.28   24.60
  13  -7   7  127.47   28.44
 -28  -6   7  304.62   40.38
 -26  -6   7  250.17   34.68
 -24  -6   7   12.07   15.11
 -22  -6   7  840.74   46.76
 -20  -6   7  166.31   26.84
 -18  -6   7  404.75   30.87
 -16  -6   7 1517.31   49.15
 -16  -6   7 1500.54   56.80
 -14  -6   7  482.62   27.19
 -14  -6   7  454.83   30.30
 -12  -6   7  878.87   40.93
 -10  -6   7 1787.33   59.96
  -8  -6   7   -2.94    9.37
  -6  -6   7 1694.77   57.03
  -4  -6   7 1043.46   44.63
  -2  -6   7   -6.39    8.13
   0  -6   7 1272.20   52.41
   2  -6   7 1122.81   50.04
   4  -6   7   23.12   14.85
   6  -6   7 1102.00   53.23
   8  -6   7  305.08   30.82
   8  -6   7  325.24   30.39
  10  -6   7  107.63   25.54
 -29  -5   7   -2.79   17.73
 -27  -5   7  -16.78   14.34
 -25  -5   7   42.18   18.89
 -23  -5   7    6.14   13.72
  21   5  -7   42.78   18.39
 -21  -5   7   84.35   19.90
  19   5  -7  253.36   24.08
 -19  -5   7  264.56   25.60
 -17  -5   7   -4.29    7.78
 -17  -5   7    3.57    9.78
  17   5  -7   -1.90    7.84
  15   5  -7   10.00    8.93
 -15  -5   7   14.56   11.29
 -15  -5   7   -3.44    7.97
 -13  -5   7  481.56   29.10
 -13  -5   7  497.63   27.02
 -11  -5   7   25.64   11.01
  -9  -5   7   20.17   10.33
  -7  -5   7  160.25   19.49
  -5  -5   7  -11.98    7.37
  -3  -5   7    1.78    8.79
  -1  -5   7  113.65   12.80
  -1  -5   7  142.13   21.00
   1  -5   7    6.71   10.96
   1  -5   7   16.39   10.09
   3  -5   7  114.05   20.86
   3  -5   7  120.90   18.30
   5  -5   7   82.79   18.10
   5  -5   7   85.69   20.34
   7  -5   7   15.67   15.93
   9  -5   7    7.07   17.45
  11  -5   7    6.20   19.33
  13  -5   7  -30.91   18.11
  15  -5   7  124.35   32.27
  17  -5   7  -22.07   27.76
 -30  -4   7    5.88   20.21
 -28  -4   7  732.36   49.05
  28   4  -7  727.51   53.45
  26   4  -7  237.20   36.37
 -26  -4   7  316.50   37.24
 -24  -4   7   86.55   21.26
  24   4  -7   84.36   22.61
 -22  -4   7 1337.63   56.19
  22   4  -7 1372.00   58.04
  20   4  -7  458.59   33.12
 -20  -4   7  478.13   31.44
 -18  -4   7  123.13   19.75
 -18  -4   7  144.52   18.99
  18   4  -7  141.14   20.28
 -16  -4   7 1477.87   47.25
  16   4  -7 1419.71   44.31
 -16  -4   7 1381.22   49.84
 -14  -4   7   57.83   12.81
 -14  -4   7   78.60   14.77
  14   4  -7   84.14   12.41
 -12  -4   7 1386.78   47.80
  12   4  -7 1409.37   33.21
 -12  -4   7 1461.49   46.82
  10   4  -7 3638.72   56.14
 -10  -4   7 3514.31   84.09
  -8  -4   7  357.57   23.05
  -6  -4   7 1273.17   44.20
  -4  -4   7 4160.96   64.60
  -4  -4   7 4116.62   92.75
  -2  -4   7    2.52    5.89
  -2  -4   7    6.07    8.39
   0  -4   7 2891.37   76.02
   0  -4   7 2700.21   59.80
   2  -4   7  945.26   42.25
   2  -4   7  866.82   34.31
   4  -4   7  197.36   22.85
   6  -4   7 2343.72   70.55
   8  -4   7  507.26   35.88
  10  -4   7  381.29   34.60
  12  -4   7 1366.70   65.00
  14  -4   7  168.07   35.27
  16  -4   7  291.28   47.31
  31   3  -7   36.94   32.82
  29   3  -7   14.95   24.57
 -29  -3   7   -2.92   17.16
  27   3  -7    4.79   21.74
 -27  -3   7   -3.73   14.99
  25   3  -7  232.06   35.11
 -25  -3   7  269.21   33.19
  23   3  -7   66.20   21.31
 -23  -3   7   80.12   19.76
 -21  -3   7  452.93   28.03
 -21  -3   7  420.68   29.71
  21   3  -7  404.78   32.52
 -19  -3   7 1538.63   50.58
  19   3  -7 1539.57   54.47
 -19  -3   7 1493.92   53.28
 -17  -3   7   48.56   14.00
 -17  -3   7   29.47   11.00
  17   3  -7   52.55   13.85
 -15  -3   7  511.73   26.50
 -15  -3   7  498.36   27.26
  15   3  -7  479.45   24.08
 -13  -3   7  908.00   35.41
  13   3  -7  921.12   28.75
 -13  -3   7  893.12   35.24
  11   3  -7  364.01   15.07
 -11  -3   7  404.77   23.19
 -11  -3   7  377.73   22.65
  -9  -3   7  176.09   16.29
   9   3  -7  129.34    6.99
  -7  -3   7  736.38   30.62
  -5  -3   7   53.15   11.58
  -3  -3   7 1794.49   52.87
  -3  -3   7 1860.14   39.33
  -1  -3   7  282.43   20.82
  -1  -3   7  267.02   16.28
   1  -3   7   56.35   14.00
   1  -3   7   58.00   12.40
   3  -3   7  796.85   34.90
   5  -3   7   53.62   16.27
   7  -3   7   58.09   16.87
   9  -3   7  774.25   45.17
  11  -3   7  209.34   31.80
  13  -3   7   63.01   26.62
  15  -3   7  290.75   42.53
  17  -3   7   -2.09   27.18
  30   2  -7   48.54   28.32
  28   2  -7  284.23   43.30
 -28  -2   7  275.41   35.52
  26   2  -7  157.69   35.13
 -26  -2   7  235.64   31.39
  24   2  -7   15.84   18.01
 -24  -2   7   34.53   16.97
 -22  -2   7  545.09   34.50
 -22  -2   7  567.91   32.19
  22   2  -7  499.32   36.51
 -20  -2   7  715.02   35.48
 -20  -2   7  771.44   37.62
  20   2  -7  760.79   40.46
 -18  -2   7  155.92   16.69
  18   2  -7  210.50   24.00
 -18  -2   7  197.47   19.06
 -16  -2   7  804.69   33.47
 -16  -2   7  752.45   33.45
  16   2  -7  710.92   31.71
 -14  -2   7  124.64   15.06
 -14  -2   7  158.60   15.67
  14   2  -7  131.88   15.02
  12   2  -7 1297.00   34.21
 -12  -2   7 1323.60   43.25
 -12  -2   7 1301.25   40.31
 -10  -2   7 1611.09   45.12
 -10  -2   7 1594.98   48.50
  10   2  -7 1655.14   34.84
  -8  -2   7   -4.58    5.44
   8   2  -7    7.32    3.98
   6   2  -7  374.24   12.88
  -6  -2   7  398.22   21.32
   4   2  -7 1577.07   33.58
  -4  -2   7 1537.09   45.13
  -2  -2   7   83.68   12.82
   2   2  -7   66.93    9.45
   0  -2   7  835.76   31.37
   2  -2   7 1246.79   43.10
   4  -2   7   45.83   14.19
   6  -2   7 1482.57   55.70
   8  -2   7  821.85   43.90
  10  -2   7  124.73   25.77
  12  -2   7  111.62   28.59
  14  -2   7   68.67   28.04
  16  -2   7   53.94   31.45
  18  -2   7  413.01   54.47
  31   1  -7  305.92   47.96
  27   1  -7   43.27   24.12
 -25  -1   7  752.74   43.53
  25   1  -7  770.28   50.05
 -23  -1   7  582.89   36.01
  23   1  -7  545.30   39.77
 -23  -1   7  570.64   33.90
 -21  -1   7 1196.28   48.09
 -21  -1   7 1220.75   48.42
  21   1  -7 1183.28   52.34
  19   1  -7 1720.45   58.84
 -19  -1   7 1650.12   54.70
 -19  -1   7 1659.13   53.55
 -17  -1   7   44.81   12.90
 -17  -1   7   83.62   14.06
  17   1  -7   81.75   16.82
  15   1  -7 1393.50   43.67
 -15  -1   7 1496.24   48.06
 -15  -1   7 1439.32   43.50
 -13  -1   7 3046.99   73.34
  13   1  -7 3049.09   65.09
 -13  -1   7 3213.90   68.22
 -11  -1   7  406.95   23.04
  11   1  -7  407.42   18.10
 -11  -1   7  412.20   19.60
   9   1  -7 4711.43   77.61
  -9  -1   7 4707.40   88.57
  -9  -1   7 4534.89   96.43
   7   1  -7 4553.63   75.64
  -7  -1   7 4577.09   87.98
  -7  -1   7 4722.21   97.65
  -5  -1   7    2.18    5.56
   5   1  -7   -1.49    4.54
   3   1  -7 6485.24  103.89
  -3  -1   7 6233.60  115.52
   1   1  -7 3366.10   67.52
  -1   1  -7  646.52   27.92
   3  -1   7 2993.93   76.03
   5  -1   7 1374.68   52.30
   7  -1   7  125.86   23.25
   9  -1   7 1441.58   62.10
  11  -1   7  543.80   41.22
  13  -1   7  587.27   46.68
  15  -1   7 1232.85   69.34
  17  -1   7   48.13   28.83
  30   0  -7    7.33   24.92
  28   0  -7  -22.60   19.92
  26   0  -7   19.17   23.67
  24   0  -7   -7.08   17.05
 -24   0   7   -7.64   10.64
 -22   0   7   -3.84    9.98
 -22   0   7   -4.23    9.60
  22   0  -7  -13.69   13.02
 -20   0   7   -1.65    9.35
 -20   0   7   -3.81    9.20
  20   0  -7   -5.01   13.02
 -18   0   7   -1.17    7.61
 -18   0   7   -1.30    8.81
  18   0  -7    7.79   11.50
 -16   0   7    4.36    7.20
 -16   0   7   -7.96    6.94
  16   0  -7   -0.70    9.12
 -14   0   7    1.23    5.95
 -14   0   7   -0.31    7.19
  14   0  -7   -1.79    6.91
 -12   0   7   -2.20    4.42
 -12   0   7   -2.54    6.11
  12   0  -7    4.14    6.51
 -10   0   7   -0.08    4.76
  10   0  -7   -1.42    5.07
 -10   0   7   -7.66    5.47
   8   0  -7   -4.76    4.37
  -8   0   7   -7.07    5.20
  -8   0   7   -2.97    4.42
  -6   0   7    4.87    7.01
  -6   0   7    9.53    5.59
   6   0  -7   -0.25    4.74
   4   0  -7    3.26    5.47
  -4   0   7    0.41    4.98
   2   0  -7   -3.39    5.55
   0   0  -7   -8.77    5.39
  -2   0  -7    1.18    6.70
  -4   0  -7   -2.06    8.46
   6   0   7    1.08   13.92
   8   0   7   -8.93   13.31
  10   0   7    0.51   17.68
  12   0   7   -3.65   18.43
  14   0   7  -13.32   20.14
  16   0   7  -10.23   23.21
  18   0   7   -9.65   28.26
  31  -1  -7  216.67   42.95
  29  -1  -7  224.03   40.91
  27  -1  -7   79.75   29.09
  25  -1  -7  716.51   49.68
  23  -1  -7  566.93   40.72
  21  -1  -7 1180.29   53.75
 -21   1   7 1115.02   48.33
 -21   1   7 1222.27   46.50
 -19   1   7 1687.08   51.44
 -19   1   7 1632.27   56.90
  19  -1  -7 1719.58   60.00
 -17   1   7   51.11   13.61
 -17   1   7   76.83   12.88
  17  -1  -7   75.37   17.62
  15  -1  -7 1359.09   45.26
 -15   1   7 1419.09   39.18
 -15   1   7 1322.59   46.34
 -13   1   7 3061.16   61.26
 -13   1   7 3079.10   75.06
  13  -1  -7 3093.68   69.46
  11  -1  -7  416.13   20.35
 -11   1   7  381.12   22.83
 -11   1   7  415.46   15.97
   9  -1  -7 4731.10   86.08
  -9   1   7 4897.87   81.71
  -9   1   7 4810.34   98.71
  -7   1   7 4451.27   78.15
   7  -1  -7 4531.15   81.98
  -7   1   7 4502.83   93.09
   5  -1  -7   -3.48    5.23
  -5   1   7   -1.00    5.84
  -5   1   7    0.72    4.21
   3  -1  -7 6307.94  109.25
   1  -1  -7 3379.66   71.69
  -1  -1  -7  679.61   29.75
  -3  -1  -7 2567.33   67.39
  -5  -1  -7 1223.34   47.67
   7   1   7  184.51   29.19
   9   1   7 1521.40   67.02
  11   1   7  725.85   49.84
  13   1   7  665.84   51.09
  15   1   7 1361.48   75.62
  17   1   7   50.89   34.26
  30  -2  -7    3.73   24.26
  28  -2  -7  257.50   42.70
  26  -2  -7  267.55   39.84
  24  -2  -7   25.94   19.20
  22  -2  -7  466.42   37.14
 -20   2   7  747.30   39.41
  20  -2  -7  780.13   43.45
  18  -2  -7  212.78   26.49
 -18   2   7  197.70   20.64
  16  -2  -7  785.76   36.36
 -16   2   7  735.40   35.32
 -16   2   7  734.80   27.39
  14  -2  -7  163.95   19.49
 -14   2   7  120.18   10.38
 -14   2   7   74.09   14.60
  12  -2  -7 1301.00   40.92
 -12   2   7 1232.61   43.09
 -12   2   7 1269.90   29.50
 -10   2   7 1649.07   49.48
  10  -2  -7 1618.55   44.20
 -10   2   7 1586.50   31.17
  -8   2   7    5.24    6.76
   8  -2  -7   -0.98    5.86
  -6   2   7  364.59   13.25
  -6   2   7  369.17   21.00
   6  -2  -7  363.11   19.18
   4  -2  -7 1626.93   44.29
  -4   2   7 1615.51   46.52
  -2   2   7   75.21   13.06
   2  -2  -7   68.86   12.38
   0  -2  -7  733.70   31.44
  -2  -2  -7 1219.47   43.34
  -4  -2  -7   49.27   13.68
  -6  -2  -7 1504.15   56.33
  -8  -2  -7  742.31   41.68
  10   2   7  114.52   27.74
  12   2   7  104.36   29.01
  14   2   7   25.78   28.03
  16   2   7  128.38   39.16
  18   2   7  312.40   56.39
  31  -3  -7   31.29   31.09
  29  -3  -7    1.60   26.77
  27  -3  -7  -12.43   20.14
  25  -3  -7  188.71   33.88
  23  -3  -7   63.66   23.24
  21  -3  -7  369.08   32.35
 -19   3   7 1502.64   56.79
  19  -3  -7 1514.98   58.50
 -17   3   7   52.10   14.72
  17  -3  -7   19.55   14.08
 -15   3   7  510.65   29.25
  15  -3  -7  470.39   28.15
  13  -3  -7  819.33   34.74
 -13   3   7  887.35   37.04
 -11   3   7  373.35   23.29
  11  -3  -7  387.07   22.24
  -9   3   7  119.16   16.31
   9  -3  -7  117.96   15.22
   7  -3  -7  707.00   29.02
  -7   3   7  754.64   30.53
   5  -3  -7   37.24    9.86
  -5   3   7   37.59    9.74
  -3   3   7 1726.69   47.58
   3  -3  -7 1718.88   48.85
  -1   3   7  252.08   16.83
   1  -3  -7  256.20   19.25
   1   3   7   90.72   13.48
  -1  -3  -7   64.40   13.66
  -3  -3  -7  676.44   33.90
  -5  -3  -7   75.00   16.91
  -7  -3  -7   35.03   15.36
  -9  -3  -7  713.31   42.70
  11   3   7  249.35   40.76
  13   3   7   69.02   29.95
  15   3   7  331.87   52.44
  17   3   7   16.36   31.33
  30  -4  -7  -20.00   26.29
  28  -4  -7  668.21   55.27
  26  -4  -7  301.33   41.18
  24  -4  -7   78.43   24.34
  22  -4  -7 1320.94   61.57
  20  -4  -7  457.30   34.92
  18  -4  -7  101.04   20.46
 -18   4   7  109.39   19.37
 -16   4   7 1460.26   53.31
  16  -4  -7 1373.81   51.54
 -14   4   7   73.51   16.03
  14  -4  -7   51.56   13.52
  12  -4  -7 1300.25   45.00
 -12   4   7 1460.06   48.74
 -10   4   7 3429.06   81.46
  10  -4  -7 3605.48   79.18
   8  -4  -7  393.60   22.74
  -8   4   7  388.23   22.62
   6  -4  -7 1294.29   42.20
  -6   4   7 1262.79   41.07
  -4   4   7 4110.19   85.43
   4  -4  -7 4080.07   87.74
   2  -4  -7    8.77    8.98
  -2   4   7    8.99    6.88
   0  -4  -7 2685.85   69.77
   0   4   7 2622.82   61.25
   2   4   7  771.44   29.07
  -2  -4  -7  806.73   37.06
  -4  -4  -7  132.08   20.56
  -6  -4  -7 2116.42   69.29
  -8  -4  -7  508.77   35.70
 -10  -4  -7  290.76   34.87
  12   4   7 1989.02   96.16
  14   4   7  245.99   51.24
  16   4   7  260.76   50.36
  29  -5  -7  -14.85   24.60
  27  -5  -7  -15.77   20.78
  25  -5  -7   32.30   21.67
  23  -5  -7  -15.34   15.22
  21  -5  -7   83.56   22.67
  19  -5  -7  205.71   29.08
  17  -5  -7    6.95   11.95
 -17   5   7   -8.70    9.12
  15  -5  -7    9.17   11.84
 -15   5   7    8.00   10.15
  13  -5  -7  440.57   27.51
 -13   5   7  433.72   27.74
  11  -5  -7   20.40   10.46
 -11   5   7   16.28    9.94
  -9   5   7   14.73    9.14
   9  -5  -7   11.90    9.10
  -7   5   7  116.48   15.99
   7  -5  -7  151.79   18.36
   5  -5  -7   -0.37    6.87
  -5   5   7   -6.90    5.54
   3  -5  -7   -7.21    7.42
  -3   5   7    7.76    6.96
   1  -5  -7  114.38   17.72
  -1   5   7  112.35   14.41
   1   5   7    2.67    6.81
  -1  -5  -7   -4.64    8.64
  -3  -5  -7   56.55   15.36
  -5  -5  -7   64.54   19.51
  -7  -5  -7    3.42   13.65
  -9  -5  -7    7.16   12.54
 -11  -5  -7   -4.54   14.84
  13   5   7   -6.73   28.95
  15   5   7  182.79   51.08
  17   5   7   21.44   38.27
  28  -6  -7  369.99   49.06
  26  -6  -7  273.89   42.48
  24  -6  -7   26.07   20.61
  22  -6  -7  853.00   51.42
  20  -6  -7  119.97   24.81
  18  -6  -7  374.32   31.21
  16  -6  -7 1413.42   54.91
 -14   6   7  471.36   30.52
  14  -6  -7  438.92   29.67
  12  -6  -7  843.27   38.71
 -12   6   7  856.86   39.12
  10  -6  -7 1774.79   56.41
 -10   6   7 1806.78   56.53
   8  -6  -7   -6.14    6.94
  -8   6   7   -1.76    6.15
  -6   6   7 1720.61   50.71
   6  -6  -7 1728.71   54.76
   4  -6  -7 1035.52   42.15
  -4   6   7  998.39   35.63
   2  -6  -7   -2.18    8.69
  -2   6   7   -5.35    5.86
   0  -6  -7 1173.35   47.53
   0   6   7 1221.28   36.87
  -2  -6  -7 1072.72   46.98
  -4  -6  -7   26.43   16.95
  -6  -6  -7  967.68   48.18
  -8  -6  -7  273.65   32.53
 -10  -6  -7  137.82   26.98
 -12  -6  -7  629.59   46.52
  14   6   7  288.06   61.59
  16   6   7  234.56   58.74
  29  -7  -7  152.99   41.55
  27  -7  -7   45.17   27.35
  25  -7  -7  440.26   42.73
  23  -7  -7   48.12   22.05
  21  -7  -7   99.02   24.73
  19  -7  -7 1097.72   53.43
  17  -7  -7  377.92   31.00
  15  -7  -7  489.62   33.15
 -13   7   7 1508.86   55.77
  13  -7  -7 1569.51   56.55
 -11   7   7    2.18    8.96
  11  -7  -7    2.89    8.79
  -9   7   7 1166.58   44.66
   9  -7  -7 1166.09   46.03
   7  -7  -7 1041.85   43.63
  -7   7   7 1064.74   40.58
   5  -7  -7   35.33   12.67
  -5   7   7   53.68   12.60
  -3   7   7 2295.79   58.37
   3  -7  -7 2268.14   68.78
   1  -7  -7 1130.38   36.46
   1  -7  -7 1145.20   48.52
  -1   7   7 1271.38   38.35
  -1  -7  -7   -4.63   10.73
  -1  -7  -7   -3.69    8.14
  -3  -7  -7 1033.46   48.76
  -5  -7  -7  321.01   29.06
  -7  -7  -7  239.62   31.06
  -9  -7  -7  884.25   50.28
 -11  -7  -7   72.17   24.61
 -13  -7  -7   85.02   28.90
  15   7   7  544.75   91.86
  28  -8  -7   34.35   26.54
  26  -8  -7   18.06   22.42
  24  -8  -7  -12.14   17.49
  22  -8  -7    3.46   16.45
  20  -8  -7    0.10   15.19
  18  -8  -7   10.96   15.17
  16  -8  -7  147.25   24.34
  14  -8  -7  -13.24   10.63
  12  -8  -7   44.85   14.33
 -10   8   7   48.59   14.62
  10  -8  -7   12.25   13.23
  -8   8   7   54.91   15.09
   8  -8  -7    3.05    9.41
   6  -8  -7   82.80   17.91
  -6   8   7  130.27   17.62
  -4   8   7  983.00   37.46
   4  -8  -7 1015.97   45.62
   2  -8  -7   77.78   18.23
   0  -8  -7   10.72   13.09
  -2  -8  -7  181.85   26.57
  -4  -8  -7   16.58   15.52
  -4  -8  -7   16.29   12.30
  -6  -8  -7   14.67   14.16
  -8  -8  -7  -11.17   12.73
 -10  -8  -7   -8.91   16.43
 -12  -8  -7   10.73   19.52
  27  -9  -7    7.64   25.24
  25  -9  -7  649.22   50.96
  23  -9  -7  242.88   37.79
  21  -9  -7  275.29   35.92
  19  -9  -7 1069.75   55.34
  17  -9  -7  180.24   28.07
  15  -9  -7  596.59   39.59
  13  -9  -7 1527.06   59.64
  11  -9  -7   30.73   14.82
   9  -9  -7  610.60   36.62
   7  -9  -7 1362.08   54.87
   5  -9  -7  286.28   26.49
   3  -9  -7 2150.15   72.06
   1  -9  -7 1052.55   50.22
  -1  -9  -7   78.73   20.43
  -3  -9  -7 1647.60   66.70
  -5  -9  -7 1011.85   52.69
  -7  -9  -7  230.87   32.68
  -9  -9  -7  994.53   56.86
 -11  -9  -7  117.09   29.41
 -13  -9  -7   75.21   28.57
  26 -10  -7   21.54   24.05
  24 -10  -7   -9.48   17.33
  22 -10  -7  171.34   32.49
  20 -10  -7   16.24   17.39
  18 -10  -7   48.90   19.83
  16 -10  -7  121.26   24.72
  14 -10  -7    1.18   12.49
  12 -10  -7  181.69   26.86
  10 -10  -7  294.21   27.91
   8 -10  -7   -0.01   12.83
   6 -10  -7  273.26   30.84
   4 -10  -7 1050.67   51.05
   2 -10  -7  123.04   24.00
   0 -10  -7  325.38   30.58
  -2 -10  -7  160.01   27.56
  -4 -10  -7   27.72   18.94
  -6 -10  -7  203.43   32.73
  -8 -10  -7   56.68   24.14
 -10 -10  -7  -12.96   15.96
 -12 -10  -7  121.30   31.43
  25 -11  -7  286.75   42.84
  23 -11  -7   64.20   26.41
  21 -11  -7   78.97   26.79
  19 -11  -7  305.69   39.59
  17 -11  -7   67.39   21.76
  15 -11  -7  342.38   37.73
  13 -11  -7  606.32   41.40
  11 -11  -7   32.34   17.23
   9 -11  -7  493.54   36.42
   7 -11  -7 1121.14   53.65
   5 -11  -7   16.54   16.55
   3 -11  -7  510.48   37.59
   1 -11  -7  275.18   33.46
  -1 -11  -7   38.37   19.78
  -3 -11  -7  402.20   36.78
  -5 -11  -7  188.01   31.56
  -7 -11  -7   59.62   22.89
  -9 -11  -7  307.60   40.88
 -11 -11  -7   35.36   24.65
  24 -12  -7   33.56   24.59
  22 -12  -7  444.50   48.49
  20 -12  -7  201.07   33.67
  18 -12  -7  382.25   43.16
  16 -12  -7  992.29   54.85
  14 -12  -7  218.65   32.28
  12 -12  -7  497.66   38.65
  10 -12  -7 1131.40   56.42
   8 -12  -7  -15.23   13.35
   6 -12  -7  701.73   44.52
   4 -12  -7  628.58   43.34
   2 -12  -7    7.07   15.94
   0 -12  -7  535.52   41.35
  -2 -12  -7  489.92   39.93
  -4 -12  -7   35.62   23.31
  -6 -12  -7  632.37   47.70
  -8 -12  -7  223.45   37.66
 -10 -12  -7   63.04   27.38
  21 -13  -7    5.91   19.77
  19 -13  -7  -12.60   16.23
  17 -13  -7    6.32   17.35
  15 -13  -7   -2.02   15.87
  13 -13  -7  -13.48   16.46
  11 -13  -7   -4.28   14.95
   9 -13  -7   -2.03   16.92
   7 -13  -7    4.04   16.93
   5 -13  -7  -16.06   13.38
   3 -13  -7    3.00   16.58
   1 -13  -7   11.09   17.33
  -1 -13  -7  -28.44   15.86
  -3 -13  -7   17.02   21.42
  -5 -13  -7  -17.14   19.28
  -7 -13  -7   15.12   18.97
  -9 -13  -7  -13.47   20.80
  20 -14  -7  107.55   30.07
  18 -14  -7   80.64   27.83
  16 -14  -7  453.46   41.72
  14 -14  -7   72.01   24.57
  12 -14  -7  381.17   42.85
  10 -14  -7  756.50   49.94
   8 -14  -7   -7.26   20.02
   6 -14  -7  626.99   46.34
   4 -14  -7  527.33   43.56
   2 -14  -7   -8.66   17.03
   0 -14  -7  662.71   49.08
  -2 -14  -7  437.44   40.72
  -4 -14  -7   28.31   23.58
  -6 -14  -7  524.97   47.37
  17 -15  -7   46.47   23.36
  15 -15  -7  142.30   32.47
  13 -15  -7  270.87   38.68
  11 -15  -7   39.43   23.43
   9 -15  -7  148.39   31.57
   7 -15  -7  210.13   35.61
   5 -15  -7  -19.35   15.92
   3 -15  -7  221.17   37.14
   1 -15  -7  233.56   37.78
  -1 -15  -7   -0.49   19.59
  -3 -15  -7  322.44   45.77
  14 -16  -7   10.53   21.75
  12 -16  -7   62.52   27.03
  10 -16  -7   86.65   29.51
   8 -16  -7   -5.30   20.05
   6 -16  -7   84.34   27.54
   4 -16  -7   62.12   26.60
   2 -16  -7  -16.71   22.09
   0 -16  -7  207.45   38.36
 -12 -16   8    5.56   24.24
 -10 -16   8  185.33   37.96
  -8 -16   8  308.97   47.24
  -6 -16   8  -16.81   19.08
  -4 -16   8  298.95   45.65
  -2 -16   8  185.70   39.54
 -17 -15   8  159.29   36.84
 -15 -15   8    4.59   24.12
 -13 -15   8  146.52   34.39
 -11 -15   8  402.18   42.34
  -9 -15   8   -0.58   20.08
  -7 -15   8  367.63   46.87
  -5 -15   8  291.04   42.98
  -3 -15   8    6.06   23.70
  -1 -15   8  549.99   49.09
   1 -15   8  318.21   47.12
 -20 -14   8   27.34   24.63
 -18 -14   8   -1.33   19.85
 -16 -14   8   16.22   22.30
 -14 -14   8   25.23   22.48
 -12 -14   8   -9.46   19.79
 -10 -14   8   23.25   21.54
  -8 -14   8   21.14   21.11
  -6 -14   8    2.88   19.00
  -4 -14   8   68.66   26.16
  -2 -14   8   35.45   24.52
   0 -14   8    4.34   21.10
   2 -14   8   70.14   29.25
   4 -14   8   17.24   26.07
 -21 -13   8  116.85   30.98
 -19 -13   8  266.17   41.07
 -17 -13   8  827.78   56.40
 -15 -13   8   19.62   19.20
 -13 -13   8  450.62   41.97
 -11 -13   8  587.05   46.38
  -9 -13   8    2.26   17.13
  -7 -13   8  516.31   43.65
  -5 -13   8  588.71   46.37
  -3 -13   8   24.75   21.14
  -1 -13   8  784.28   54.13
   1 -13   8  318.48   44.39
   3 -13   8   56.01   28.35
   5 -13   8  735.16   58.36
   7 -13   8  221.05   43.46
 -24 -12   8   27.23   25.63
 -22 -12   8   -6.84   18.31
 -20 -12   8   76.36   28.41
 -18 -12   8   93.42   26.81
 -16 -12   8    8.76   18.08
 -14 -12   8  303.99   39.92
 -12 -12   8  -17.18   13.75
 -10 -12   8  225.58   34.22
  -8 -12   8  267.84   36.54
  -6 -12   8   -7.77   15.49
  -4 -12   8    9.55   17.15
  -2 -12   8   54.57   23.17
   0 -12   8   22.03   21.32
   2 -12   8  268.52   41.44
   4 -12   8  121.22   32.09
   6 -12   8   46.49   25.91
   8 -12   8  136.15   36.77
 -25 -11   8  -17.13   19.00
 -23 -11   8  164.02   32.93
 -21 -11   8   23.82   22.12
 -19 -11   8  139.98   30.03
 -17 -11   8  443.26   38.88
 -15 -11   8  103.94   25.85
 -13 -11   8  436.36   37.60
 -11 -11   8  469.28   38.67
  -9 -11   8  -10.02   13.90
  -7 -11   8  542.49   41.67
  -5 -11   8  459.28   37.97
  -3 -11   8    7.08   18.40
  -1 -11   8  541.56   43.04
   1 -11   8  253.05   38.81
   3 -11   8   57.46   26.80
   5 -11   8  450.91   44.24
   7 -11   8   81.52   29.57
   9 -11   8  140.93   38.12
 -26 -10   8  538.95   47.11
 -24 -10   8  122.50   30.42
 -22 -10   8  171.45   32.10
 -20 -10   8  758.78   49.74
 -18 -10   8   74.68   24.09
 -16 -10   8  635.60   44.40
 -14 -10   8  999.26   54.48
 -12 -10   8   80.20   22.37
 -10 -10   8 1337.10   61.62
  -8 -10   8 1802.85   71.82
  -6 -10   8  -20.89   11.03
  -4 -10   8 1471.36   64.81
  -2 -10   8  563.07   41.66
   0 -10   8   25.67   18.56
   2 -10   8 1212.20   64.02
   4 -10   8  469.76   42.95
   6 -10   8   71.46   27.77
   8 -10   8  612.14   50.39
  10 -10   8  162.43   36.03
 -27  -9   8    7.99   19.70
 -25  -9   8  -18.53   14.49
 -23  -9   8   -0.93   17.80
 -21  -9   8    4.75   15.82
 -19  -9   8   17.68   17.75
 -17  -9   8   -5.79   12.53
 -15  -9   8    2.36   12.50
 -13  -9   8   27.37   17.19
 -11  -9   8  153.52   27.36
  -9  -9   8   22.41   15.14
  -7  -9   8   -7.51   12.85
  -5  -9   8   11.30   14.10
  -3  -9   8   23.40   15.67
  -1  -9   8    4.48   14.76
   1  -9   8   11.57   16.35
   3  -9   8   -6.91   14.85
   5  -9   8   46.75   23.12
   7  -9   8    1.57   18.89
   9  -9   8   -1.53   17.64
  11  -9   8   -0.54   20.38
 -28  -8   8  104.58   28.63
 -26  -8   8  582.72   45.75
 -24  -8   8  177.22   31.36
 -22  -8   8  244.35   32.62
 -20  -8   8 1301.35   60.61
 -18  -8   8  101.79   23.12
 -16  -8   8  777.70   44.54
 -14  -8   8 2143.20   75.52
 -12  -8   8   33.09   15.98
 -10  -8   8 1371.94   57.47
  -8  -8   8 1755.07   65.54
  -6  -8   8  267.00   26.24
  -4  -8   8 2039.39   72.23
  -2  -8   8 2343.73   79.99
   0  -8   8  -15.93   11.68
   2  -8   8 1791.07   73.61
   4  -8   8 1052.38   57.14
   6  -8   8  321.46   38.81
   8  -8   8  775.88   51.23
  10  -8   8  153.39   32.07
  12  -8   8  137.68   33.82
 -29  -7   8  156.39   33.76
 -27  -7   8   80.51   25.80
 -25  -7   8   33.97   19.26
 -23  -7   8  110.54   24.50
 -21  -7   8   20.77   16.35
 -19  -7   8  229.33   29.42
 -17  -7   8  573.26   31.97
 -17  -7   8  642.64   40.16
 -15  -7   8   75.39   20.06
 -15  -7   8   49.16   15.49
 -13  -7   8  336.52   28.23
 -11  -7   8  308.85   27.07
  -9  -7   8    2.59   11.31
  -7  -7   8  494.81   32.96
  -5  -7   8  526.07   34.25
  -3  -7   8   49.69   16.15
  -1  -7   8  463.73   34.51
   1  -7   8  355.00   33.05
   3  -7   8   38.69   19.28
   5  -7   8  311.73   32.07
   7  -7   8  109.85   25.54
   9  -7   8  177.18   32.28
  11  -7   8  258.01   36.66
  13  -7   8   -1.66   15.68
 -30  -6   8   66.62   26.06
 -28  -6   8   23.27   21.00
 -26  -6   8  231.41   32.98
 -24  -6   8   82.94   20.91
 -22  -6   8   57.78   18.53
 -20  -6   8  698.53   41.02
 -18  -6   8  147.40   21.34
 -18  -6   8  214.23   26.50
 -16  -6   8  200.48   23.69
 -16  -6   8  207.21   26.02
 -14  -6   8 1277.04   51.97
 -14  -6   8 1256.27   47.26
 -12  -6   8   25.60   12.15
 -10  -6   8  133.70   20.45
  -8  -6   8  422.97   28.63
  -6  -6   8   15.19   11.73
  -4  -6   8  346.82   27.26
  -2  -6   8  847.66   43.00
   0  -6   8  101.36   20.70
   2  -6   8  783.53   44.09
   4  -6   8  208.77   29.46
   6  -6   8  336.04   33.13
   8  -6   8  387.98   35.00
 -29  -5   8  340.19   41.34
 -27  -5   8  155.80   28.72
 -25  -5   8  285.87   34.51
 -23  -5   8 1129.32   53.76
 -21  -5   8  246.15   25.37
 -19  -5   8  699.37   38.49
 -19  -5   8  693.34   34.60
 -17  -5   8 1912.91   59.22
 -17  -5   8 1945.81   64.32
 -15  -5   8   40.05   13.64
 -15  -5   8   71.04   15.34
 -13  -5   8 1134.29   43.92
 -13  -5   8 1053.68   44.55
 -11  -5   8 2273.53   67.87
  -9  -5   8   -4.72    8.33
  -7  -5   8 1208.11   46.78
  -5  -5   8 2125.82   65.09
  -3  -5   8  340.84   26.05
  -1  -5   8 2149.21   69.25
   1  -5   8 1050.42   48.47
   3  -5   8  181.89   26.51
   5  -5   8 1513.66   62.66
 -30  -4   8   -3.55   17.91
 -28  -4   8   22.43   18.39
 -26  -4   8   75.36   21.20
 -24  -4   8   81.32   20.58
 -22  -4   8   -2.31   12.69
 -20  -4   8   -2.08   10.29
 -20  -4   8    9.24   12.06
 -18  -4   8   -6.12    8.31
 -18  -4   8  -10.41    9.07
  18   4  -8   -6.18    9.15
 -16  -4   8   -3.92    8.27
 -16  -4   8    1.46    8.66
 -14  -4   8  162.78   20.33
 -14  -4   8  139.42   18.94
 -12  -4   8   14.15    9.96
 -12  -4   8    4.39    8.59
 -10  -4   8   53.21   13.91
  -8  -4   8   82.39   15.46
  -6  -4   8  130.46   17.89
  -4  -4   8  127.59   18.12
  -2  -4   8   80.41   16.32
  -2  -4   8   80.92   11.25
   0  -4   8    1.06   10.26
   0  -4   8   -1.43    8.14
   2  -4   8   22.13   12.83
   2  -4   8   26.42   12.82
   4  -4   8   15.75   12.62
   6  -4   8   16.72   15.25
   8  -4   8   51.22   19.26
  10  -4   8  -27.31   13.95
  12  -4   8  -23.40   17.34
  14  -4   8  -40.87   20.87
  16  -4   8    0.78   28.91
 -31  -3   8   47.35   24.84
 -29  -3   8  514.30   40.87
  27   3  -8  161.73   33.43
 -27  -3   8  147.13   26.93
  25   3  -8   58.75   21.45
 -25  -3   8  127.00   24.35
  23   3  -8 1243.12   54.21
 -23  -3   8 1176.15   51.53
 -21  -3   8  392.79   28.34
 -21  -3   8  342.56   25.84
  21   3  -8  419.47   30.68
  19   3  -8  423.95   27.77
 -19  -3   8  450.45   29.05
 -19  -3   8  462.84   28.11
 -17  -3   8  500.74   28.51
 -17  -3   8  524.48   28.94
  17   3  -8  479.39   26.01
  15   3  -8  120.63   14.48
 -15  -3   8  123.99   18.66
 -15  -3   8  128.06   17.94
 -13  -3   8 1515.54   48.64
 -13  -3   8 1467.00   49.64
  13   3  -8 1514.87   36.20
  11   3  -8 3139.59   54.20
 -11  -3   8 3196.98   76.78
 -11  -3   8 3209.90   80.05
   9   3  -8  103.38    6.36
  -9  -3   8   98.93   15.41
  -7  -3   8 2433.08   64.05
   7   3  -8 2498.24   40.70
  -5  -3   8 2006.74   57.52
  -3  -3   8    9.13    7.23
  -3  -3   8   -4.20    6.88
  -1  -3   8 2790.19   75.41
  -1  -3   8 2960.49   63.93
   1  -3   8  809.79   38.88
   1  -3   8  795.56   33.45
   3  -3   8  404.15   26.92
   5  -3   8 1849.39   62.21
   7  -3   8  469.16   35.28
   9  -3   8   29.84   19.93
  11  -3   8  409.07   42.68
  13  -3   8   49.35   27.68
  15  -3   8  376.97   50.74
  30   2  -8  114.03   31.76
  28   2  -8   -4.18   20.54
 -28  -2   8   20.79   17.41
 -26  -2   8  447.11   35.25
  26   2  -8  439.80   39.43
  24   2  -8  136.46   25.17
 -24  -2   8  112.16   21.36
 -22  -2   8  557.72   33.72
 -22  -2   8  513.80   32.11
  22   2  -8  508.13   35.32
 -20  -2   8 1381.08   50.23
  20   2  -8 1356.33   51.31
 -20  -2   8 1370.73   50.39
  18   2  -8  135.93   18.76
 -18  -2   8  130.80   18.52
 -18  -2   8  141.61   17.80
 -16  -2   8  692.11   33.49
 -16  -2   8  702.20   31.15
  16   2  -8  680.28   29.24
 -14  -2   8 1800.91   55.00
 -14  -2   8 1801.97   50.78
  14   2  -8 1704.20   43.78
  12   2  -8  189.85   12.45
 -12  -2   8  212.42   16.40
 -12  -2   8  173.09   17.08
  10   2  -8 1487.20   32.53
 -10  -2   8 1485.70   49.39
 -10  -2   8 1452.76   44.09
   8   2  -8 1088.22   25.15
  -8  -2   8 1028.23   36.12
  -6  -2   8   -2.10    6.10
   6   2  -8   -1.33    4.60
   4   2  -8 3439.97   62.59
  -4  -2   8 3341.09   77.71
  -2  -2   8  519.08   27.34
   2   2  -8  486.81   21.26
   0  -2   8  109.84   15.72
   2  -2   8  972.52   40.12
   4  -2   8  369.54   28.17
   6  -2   8  170.58   26.37
   8  -2   8 2141.67   75.85
  10  -2   8  131.12   29.46
  12  -2   8  434.76   41.77
  14  -2   8  724.05   54.80
  16  -2   8    7.91   30.49
  31   1  -8  -29.01   24.43
  29   1  -8   29.12   24.35
 -27  -1   8   16.43   15.46
  27   1  -8  -14.89   19.71
 -25  -1   8   15.59   15.21
  25   1  -8   -4.04   17.35
 -23  -1   8  260.01   23.96
 -23  -1   8  245.66   24.24
  23   1  -8  341.82   36.39
 -21  -1   8  198.98   21.40
 -21  -1   8  240.47   22.30
  21   1  -8  235.24   27.74
 -19  -1   8  232.91   19.97
 -19  -1   8  218.99   20.35
  19   1  -8  240.17   22.90
  17   1  -8  280.78   21.75
 -17  -1   8  309.44   20.77
 -17  -1   8  300.31   22.49
  15   1  -8   -9.24    6.76
 -15  -1   8    7.40    7.47
 -15  -1   8   -5.37    7.57
 -13  -1   8  323.68   22.22
 -13  -1   8  329.45   19.06
  13   1  -8  295.08   17.14
 -11  -1   8   99.46   12.43
 -11  -1   8   55.35   13.06
  11   1  -8   75.29    9.82
  -9  -1   8    6.53    6.72
   9   1  -8   -0.57    5.02
  -9  -1   8   -2.49    7.13
   7   1  -8  257.76   13.65
  -7  -1   8  245.40   16.55
  -5  -1   8  412.97   21.89
   5   1  -8  441.48   18.33
  -3  -1   8   53.34   11.05
   3   1  -8   31.56    8.59
   1   1  -8   34.86    9.75
  -1   1  -8  110.56   16.32
   3  -1   8   -2.02   11.11
   5  -1   8  343.17   29.86
   7  -1   8  274.92   31.66
   9  -1   8   76.36   22.87
  11  -1   8   84.33   28.11
  13  -1   8    1.46   21.64
  15  -1   8   92.41   35.15
  30   0  -8  391.47   49.70
  28   0  -8   29.46   23.72
  26   0  -8  656.30   47.62
 -24   0   8  194.96   26.96
 -24   0   8  193.45   24.50
  24   0  -8  167.14   27.66
  22   0  -8  591.53   38.51
 -22   0   8  655.80   37.86
 -22   0   8  655.36   34.76
 -20   0   8  711.13   37.51
  20   0  -8  751.68   38.74
 -20   0   8  734.50   34.12
  18   0  -8  142.09   20.33
 -18   0   8  142.63   19.70
 -18   0   8  139.42   14.61
 -16   0   8 1087.71   43.04
 -16   0   8 1162.98   36.73
  16   0  -8 1125.24   40.38
 -14   0   8 3516.94   72.60
  14   0  -8 3683.90   75.78
 -14   0   8 3505.50   85.36
  12   0  -8   16.14    7.69
 -12   0   8   -0.77    7.41
 -12   0   8    5.94    5.56
  10   0  -8 8976.54  139.69
 -10   0   8 8878.32  145.93
 -10   0   8 8586.56  161.15
  -8   0   8 4065.96   90.68
  -8   0   8 3944.16   76.95
   8   0  -8 3964.79   73.26
   6   0  -8    5.65    6.69
  -6   0   8    7.16    6.92
  -4   0   8 6102.00  111.48
   4   0  -8 6101.38  105.33
   2   0  -8 1386.50   40.10
   0   0  -8  511.99   25.40
  -2   0  -8 2885.91   72.58
  -4   0  -8 1893.76   60.42
   6   0   8   89.10   21.07
   8   0   8 2345.63   83.09
  10   0   8  104.44   26.87
  12   0   8  604.71   48.23
  14   0   8  991.80   65.24
  16   0   8   88.59   36.63
  31  -1  -8  -20.33   25.86
  29  -1  -8   61.88   28.22
  27  -1  -8  -14.75   16.26
  25  -1  -8   17.30   19.06
 -23   1   8  270.59   26.25
 -23   1   8  253.68   23.49
  23  -1  -8  274.99   32.28
 -21   1   8  230.74   20.74
 -21   1   8  202.09   26.29
  21  -1  -8  218.82   28.55
 -19   1   8  245.55   18.87
 -19   1   8  236.26   22.40
  19  -1  -8  260.18   24.89
 -17   1   8  294.62   23.10
  17  -1  -8  294.66   23.45
 -17   1   8  314.30   19.05
  15  -1  -8    1.26    8.19
 -15   1   8    1.19    5.97
 -15   1   8    1.82    8.77
 -13   1   8  272.89   20.64
  13  -1  -8  306.27   19.51
 -13   1   8  352.14   16.14
 -11   1   8   55.66   13.23
 -11   1   8   88.65    9.28
  11  -1  -8   58.84   10.67
  -9   1   8    7.21    5.43
   9  -1  -8    3.73    6.57
  -9   1   8   -7.69    6.17
  -7   1   8  263.83   14.22
  -7   1   8  265.33   19.57
   7  -1  -8  263.62   16.21
  -5   1   8  445.24   25.02
   5  -1  -8  434.81   21.20
  -5   1   8  409.15   18.29
   3  -1  -8   38.81    9.99
   1  -1  -8   56.84   11.58
  -1  -1  -8   85.36   14.87
  -3  -1  -8  -11.55    7.26
  -5  -1  -8  271.94   25.15
   7   1   8  236.73   33.51
   9   1   8   87.90   26.49
  11   1   8   62.22   26.97
  13   1   8  -38.66   21.15
  15   1   8   79.52   34.32
  30  -2  -8  161.53   37.69
  28  -2  -8   22.11   24.13
  26  -2  -8  523.04   44.17
  24  -2  -8  105.08   26.47
  22  -2  -8  586.88   39.55
 -22   2   8  524.33   35.55
  20  -2  -8 1415.10   55.49
 -20   2   8 1362.90   54.51
 -18   2   8  116.78   19.84
  18  -2  -8  138.58   21.87
 -16   2   8  666.22   24.68
  16  -2  -8  696.57   33.33
 -16   2   8  673.75   34.40
 -14   2   8 1648.03   54.27
  14  -2  -8 1801.16   51.81
 -14   2   8 1759.71   39.46
  12  -2  -8  203.54   17.13
 -12   2   8  189.90   17.90
 -12   2   8  204.45   10.26
 -10   2   8 1456.79   47.45
 -10   2   8 1392.08   28.85
  10  -2  -8 1453.31   42.33
  -8   2   8 1034.56   38.70
  -8   2   8 1037.95   25.04
   8  -2  -8 1094.66   35.60
  -6   2   8   -3.45    6.30
  -6   2   8   -4.03    4.09
   6  -2  -8   -5.50    5.77
  -4   2   8 3450.95   80.35
   4  -2  -8 3507.56   75.49
  -2   2   8  531.03   27.24
   2  -2  -8  475.05   25.66
   0  -2  -8   53.67   12.92
  -2  -2  -8  915.88   39.37
  -4  -2  -8  357.15   26.77
  -6  -2  -8  165.15   23.68
  10   2   8  128.93   33.56
  12   2   8  528.10   49.70
  14   2   8  655.88   60.10
  16   2   8   61.56   37.19
  31  -3  -8    3.82   25.86
  29  -3  -8  523.15   48.75
  27  -3  -8  170.61   33.46
  25  -3  -8  104.45   26.18
  23  -3  -8 1146.21   56.46
  21  -3  -8  372.22   31.37
 -21   3   8  392.84   30.59
  19  -3  -8  446.09   32.44
 -19   3   8  438.34   31.08
  17  -3  -8  520.18   31.62
 -17   3   8  491.02   30.74
  15  -3  -8   91.93   16.19
 -15   3   8  127.03   18.96
  13  -3  -8 1523.28   47.92
 -13   3   8 1474.76   50.75
  11  -3  -8 2967.85   68.98
 -11   3   8 2888.48   74.31
   9  -3  -8   84.72   14.42
  -9   3   8   94.46   15.41
   7  -3  -8 2535.51   62.21
  -7   3   8 2607.82   66.24
  -7   3   8 2508.97   45.60
  -5   3   8 2022.16   56.59
   5  -3  -8 2124.16   56.61
  -3   3   8    4.49    7.83
   3  -3  -8    1.03    7.33
   1  -3  -8 2865.74   71.13
  -1   3   8 2601.68   66.43
   1   3   8  807.40   33.12
  -1  -3  -8  783.65   36.25
  -3  -3  -8  329.87   25.65
  -5  -3  -8 1682.94   60.49
  -7  -3  -8  450.74   34.04
  11   3   8  484.47   59.00
  13   3   8   97.24   37.21
  15   3   8  498.61   67.71
  30  -4  -8  -28.26   22.38
  28  -4  -8  -22.86   19.25
  26  -4  -8   19.48   22.39
  24  -4  -8   52.24   21.91
  22  -4  -8   -6.96   14.49
 -20   4   8    2.37   12.19
  20  -4  -8    6.28   13.70
  18  -4  -8    2.67   11.55
 -18   4   8    6.85   11.81
  16  -4  -8   -0.10    8.78
 -16   4   8    7.14   10.68
  14  -4  -8  183.00   21.40
 -14   4   8  133.99   19.89
  12  -4  -8   -0.33    7.87
 -12   4   8    9.60    8.84
 -10   4   8   43.37   12.02
  10  -4  -8   44.39   12.16
   8  -4  -8   79.89   14.60
  -8   4   8   84.95   14.89
  -6   4   8  140.95   17.60
   6  -4  -8  103.71   15.80
   4  -4  -8  111.62   16.79
  -4   4   8  112.39   15.06
  -2   4   8   62.68   13.11
   2  -4  -8   82.18   15.76
   0   4   8   -4.18    7.31
   0  -4  -8    3.62    9.91
  -2  -4  -8   13.87   11.25
  -4  -4  -8   -2.38   10.91
  -6  -4  -8   -4.87   11.13
  -8  -4  -8   15.93   14.46
 -10  -4  -8    8.31   15.80
  12   4   8  -29.22   26.90
  14   4   8   -8.49   31.34
  16   4   8   17.42   37.01
  29  -5  -8  382.72   52.29
  27  -5  -8  151.95   33.74
  25  -5  -8  261.21   38.56
  23  -5  -8 1143.03   58.25
  21  -5  -8  239.06   31.55
  19  -5  -8  640.90   39.61
 -19   5   8  687.82   40.07
 -17   5   8 1831.96   64.48
  17  -5  -8 1836.69   62.82
  15  -5  -8   41.74   13.96
 -15   5   8   75.93   17.12
 -13   5   8 1036.28   43.48
  13  -5  -8 1117.11   44.03
  11  -5  -8 2256.26   63.90
 -11   5   8 2206.78   64.44
  -9   5   8   -5.26    6.81
   9  -5  -8   -0.24    8.18
   7  -5  -8 1204.58   43.98
  -7   5   8 1160.64   41.86
   5  -5  -8 2104.81   61.91
  -5   5   8 2160.44   58.60
   3  -5  -8  274.77   22.37
  -3   5   8  319.18   20.68
  -1   5   8 1986.67   53.01
   1  -5  -8 1902.89   61.10
  -1  -5  -8  867.78   41.60
  -3  -5  -8  136.60   21.91
  -5  -5  -8 1399.22   57.64
  -7  -5  -8  520.73   37.03
  -9  -5  -8  329.72   37.50
 -11  -5  -8 1265.73   64.45
  13   5   8  430.90   67.39
  15   5   8  301.92   65.60
  30  -6  -8   76.56   32.09
  28  -6  -8   64.79   27.56
  26  -6  -8  180.52   34.88
  24  -6  -8   87.70   26.73
  22  -6  -8   40.70   18.48
  20  -6  -8  661.38   41.73
  18  -6  -8  112.17   22.17
 -18   6   8  176.16   26.06
  16  -6  -8  187.93   24.70
 -16   6   8  222.59   27.00
 -14   6   8 1295.22   51.50
  14  -6  -8 1290.85   50.58
 -12   6   8   31.44   12.29
  12  -6  -8   25.61   11.72
 -10   6   8  164.01   21.37
  10  -6  -8  127.57   19.62
  -8   6   8  371.55   24.65
   8  -6  -8  391.98   26.82
   6  -6  -8    9.30    9.84
  -6   6   8   24.41   10.21
  -4   6   8  323.71   21.46
   4  -6  -8  313.81   24.70
   2  -6  -8  697.99   37.36
  -2   6   8  734.25   30.35
   0  -6  -8   46.35   15.67
  -2  -6  -8  670.74   38.93
  -4  -6  -8  183.60   26.27
  -6  -6  -8  330.34   31.53
  -8  -6  -8  319.29   31.73
 -10  -6  -8   19.86   18.13
  14   6   8  331.12   72.69
  29  -7  -8  146.94   36.78
  27  -7  -8   49.22   26.98
  25  -7  -8    7.39   19.44
  23  -7  -8  110.21   25.84
  21  -7  -8   12.91   16.77
  19  -7  -8  190.66   28.22
  17  -7  -8  666.81   39.78
  15  -7  -8   54.78   17.43
 -15   7   8   95.61   19.87
  13  -7  -8  338.68   26.72
 -13   7   8  304.68   25.25
 -11   7   8  346.37   25.83
  11  -7  -8  294.93   25.38
   9  -7  -8   -8.37    9.92
  -9   7   8    0.38    9.08
   7  -7  -8  511.76   31.65
  -7   7   8  498.68   28.11
  -5   7   8  464.23   26.02
   5  -7  -8  482.52   31.85
   3  -7  -8   21.79   13.54
  -3   7   8   39.93   11.66
   1  -7  -8  458.52   33.20
  -1  -7  -8  329.04   28.98
  -3  -7  -8   36.34   16.59
  -5  -7  -8  331.85   31.49
  -7  -7  -8   72.05   21.70
  -9  -7  -8  136.87   29.14
 -11  -7  -8  219.90   36.05
  28  -8  -8   48.07   29.96
  26  -8  -8  569.83   48.27
  24  -8  -8  232.18   36.05
  22  -8  -8  288.96   36.64
  20  -8  -8 1295.89   60.53
  18  -8  -8   94.89   22.41
  16  -8  -8  782.38   43.67
  14  -8  -8 2062.95   69.38
 -12   8   8   17.02   13.03
  12  -8  -8   34.19   16.93
 -10   8   8 1340.95   51.04
  10  -8  -8 1346.86   53.78
  -8   8   8 1632.97   55.79
   8  -8  -8 1781.08   62.48
  -6   8   8  276.82   21.97
   6  -8  -8  242.81   27.76
  -4   8   8 2032.17   58.64
   4  -8  -8 2126.51   70.48
   2  -8  -8 2191.93   72.79
   0  -8  -8  -18.05   11.90
  -2  -8  -8 1495.58   62.47
  -4  -8  -8  847.29   47.98
  -6  -8  -8  312.05   36.74
  -8  -8  -8  763.19   49.53
 -10  -8  -8  167.93   33.50
 -12  -8  -8  148.47   32.55
  27  -9  -8   21.91   22.72
  25  -9  -8    0.77   18.25
  23  -9  -8  -23.16   15.23
  21  -9  -8    7.36   15.81
  19  -9  -8    7.84   14.63
  17  -9  -8    5.17   13.06
  15  -9  -8  -10.89   11.04
  13  -9  -8    8.16   13.16
  11  -9  -8  129.01   23.05
   9  -9  -8    7.03   12.59
  -9   9   8   14.52   12.84
   7  -9  -8   -9.86   11.29
  -7   9   8   -8.30    9.08
  -5   9   8   67.54   15.06
   5  -9  -8   27.22   15.13
   3  -9  -8   -7.94   12.05
   1  -9  -8  -12.36   11.37
  -1  -9  -8   -9.06   12.15
  -3  -9  -8  -17.44   12.28
  -5  -9  -8   21.03   17.19
  -7  -9  -8   11.84   18.66
  -9  -9  -8  -28.03   15.57
 -11  -9  -8    6.39   20.03
  26 -10  -8  474.58   45.94
  24 -10  -8  125.80   30.42
  22 -10  -8  202.44   33.60
  20 -10  -8  780.44   49.59
  18 -10  -8   38.65   19.27
  16 -10  -8  593.21   41.02
  14 -10  -8  942.29   50.04
  12 -10  -8   69.92   20.15
  10 -10  -8 1423.14   60.28
   8 -10  -8 1741.31   66.41
   6 -10  -8   -8.73   12.27
   4 -10  -8 1438.68   61.61
   2 -10  -8  572.70   40.16
   0 -10  -8   30.71   19.69
  -2 -10  -8 1120.99   57.04
  -4 -10  -8  498.38   39.98
  -6 -10  -8   87.09   25.25
  -8 -10  -8  449.31   42.15
 -10 -10  -8  179.30   34.60
  25 -11  -8   -2.60   21.08
  23 -11  -8  227.89   37.37
  21 -11  -8   47.53   23.34
  19 -11  -8   93.84   25.34
  17 -11  -8  417.55   36.56
  15 -11  -8  125.13   27.06
  13 -11  -8  428.45   35.27
  11 -11  -8  511.45   37.95
   9 -11  -8  -15.43   11.70
   7 -11  -8  582.81   40.02
   5 -11  -8  500.22   37.64
   3 -11  -8   17.51   14.57
   1 -11  -8  509.06   39.65
  -1 -11  -8  202.80   31.94
  -3 -11  -8   18.16   17.93
  -5 -11  -8  416.06   38.73
  -7 -11  -8   82.75   27.58
  -9 -11  -8  107.16   31.80
  24 -12  -8   51.64   25.40
  22 -12  -8   -2.12   19.29
  20 -12  -8   67.29   25.80
  18 -12  -8   35.96   20.95
  16 -12  -8   30.87   18.02
  14 -12  -8  287.61   37.14
  12 -12  -8  -16.23   13.08
  10 -12  -8  219.18   31.83
   8 -12  -8  217.75   32.00
   6 -12  -8   -3.43   15.04
   4 -12  -8   21.69   18.78
   2 -12  -8   48.59   21.00
   0 -12  -8  -17.90   14.36
  -2 -12  -8  223.80   34.99
  -4 -12  -8   78.97   27.69
  -6 -12  -8  103.11   27.69
  -8 -12  -8  111.53   30.33
  21 -13  -8   63.83   25.42
  19 -13  -8  323.88   41.28
  17 -13  -8  806.07   53.38
  15 -13  -8   14.42   18.23
  13 -13  -8  458.13   40.53
  11 -13  -8  620.53   45.87
   9 -13  -8   23.59   19.98
   7 -13  -8  496.86   40.94
   5 -13  -8  723.40   48.76
   3 -13  -8   44.35   21.30
   1 -13  -8  757.36   51.58
  -1 -13  -8  336.33   42.33
  -3 -13  -8   28.23   23.06
  -5 -13  -8  648.83   50.70
  -7 -13  -8  171.86   36.27
  20 -14  -8   43.30   25.11
  18 -14  -8   17.50   22.03
  16 -14  -8    0.88   19.70
  14 -14  -8  129.29   30.70
  12 -14  -8   11.49   18.33
  10 -14  -8   44.05   21.37
   8 -14  -8   19.85   17.90
   6 -14  -8   -3.45   16.89
   4 -14  -8   70.42   24.91
   2 -14  -8   35.58   23.16
   0 -14  -8  -18.96   18.92
  -2 -14  -8  107.30   32.23
  -4 -14  -8    7.60   22.85
  17 -15  -8  108.12   31.03
  15 -15  -8    1.23   20.66
  13 -15  -8  210.50   36.48
  11 -15  -8  383.95   45.17
   9 -15  -8   -5.97   19.82
   7 -15  -8  386.67   44.90
   5 -15  -8  312.40   44.38
   3 -15  -8   -0.39   21.41
   1 -15  -8  574.76   48.97
  -1 -15  -8  299.72   43.31
  12 -16  -8  -33.38   16.51
  10 -16  -8  361.74   47.76
   8 -16  -8  334.00   46.51
   6 -16  -8  -17.26   22.50
   4 -16  -8  373.33   46.49
   2 -16  -8  200.90   38.39
 -10 -16   9   -6.59   21.84
  -8 -16   9  112.66   33.15
  -6 -16   9  119.86   34.68
 -15 -15   9  117.39   32.53
 -13 -15   9    0.58   21.89
 -11 -15   9  245.61   40.99
  -9 -15   9  169.72   36.78
  -7 -15   9   -8.24   20.87
  -5 -15   9  267.00   43.23
  -3 -15   9   69.50   30.11
  -1 -15   9    4.90   21.86
 -20 -14   9  135.78   36.49
 -18 -14   9  532.43   48.47
 -16 -14   9  -10.26   22.51
 -14 -14   9  357.85   45.95
 -12 -14   9  383.45   40.60
 -10 -14   9  -25.93   19.74
  -8 -14   9  433.14   42.62
  -6 -14   9  363.35   45.53
  -4 -14   9   78.90   28.18
  -2 -14   9  874.75   60.29
   0 -14   9  278.84   44.85
   2 -14   9   75.69   31.26
 -21 -13   9  -20.87   18.85
 -19 -13   9  -26.34   19.48
 -17 -13   9  -27.68   16.08
 -15 -13   9   -2.94   18.40
 -13 -13   9  -16.16   16.62
 -11 -13   9    9.60   20.36
  -9 -13   9   -3.99   16.93
  -7 -13   9   -8.71   16.60
  -5 -13   9    3.55   18.50
  -3 -13   9   -5.46   17.15
  -1 -13   9  -15.32   19.22
   1 -13   9   13.49   24.33
   3 -13   9   -2.58   27.14
   5 -13   9   44.40   30.78
 -24 -12   9  436.01   54.29
 -22 -12   9    0.83   21.19
 -20 -12   9  201.53   35.92
 -18 -12   9  661.45   50.06
 -16 -12   9   18.19   18.06
 -14 -12   9  499.75   42.81
 -12 -12   9  700.70   49.29
 -10 -12   9   -7.31   15.96
  -8 -12   9  551.72   43.79
  -6 -12   9  512.45   43.10
  -4 -12   9   15.34   18.70
  -2 -12   9  563.09   47.09
   0 -12   9  244.55   39.94
   2 -12   9   99.03   30.86
   4 -12   9  800.86   59.79
   6 -12   9  208.07   41.15
 -25 -11   9  107.70   30.25
 -23 -11   9   22.62   22.01
 -21 -11   9  526.42   44.97
 -19 -11   9   59.89   25.02
 -17 -11   9  140.69   28.84
 -15 -11   9  418.63   38.98
 -13 -11   9    2.42   15.46
 -11 -11   9  529.90   41.95
  -9 -11   9  503.32   40.68
  -7 -11   9    2.30   15.58
  -5 -11   9  472.50   39.53
  -3 -11   9  250.17   36.32
  -1 -11   9   70.17   25.51
   1 -11   9  839.23   56.84
   3 -11   9  113.46   31.89
   5 -11   9  102.70   32.33
   7 -11   9  378.37   51.27
 -26 -10   9   -8.84   19.77
 -24 -10   9   21.41   22.70
 -22 -10   9   43.15   22.95
 -20 -10   9   25.36   21.46
 -18 -10   9  119.88   26.78
 -16 -10   9   12.71   17.66
 -14 -10   9   61.17   20.78
 -12 -10   9  244.66   34.24
 -10 -10   9   -1.90   16.51
  -8 -10   9  207.57   31.25
  -6 -10   9  269.94   34.31
  -4 -10   9   80.58   23.36
  -2 -10   9  353.20   41.72
   0 -10   9   54.00   23.56
   2 -10   9   39.49   23.88
   4 -10   9  127.68   32.06
   6 -10   9   32.06   24.70
   8 -10   9   28.00   24.97
  10 -10   9   51.78   28.44
 -27  -9   9  573.45   47.87
 -25  -9   9  159.95   33.10
 -23  -9   9  404.22   39.40
 -21  -9   9  798.24   50.41
 -19  -9   9   33.06   19.31
 -17  -9   9 1027.06   54.79
 -15  -9   9 1478.40   65.56
 -13  -9   9  -15.75   13.51
 -11  -9   9 1576.29   66.10
  -9  -9   9 1523.62   64.65
  -7  -9   9   66.36   20.98
  -5  -9   9 1369.21   61.76
  -3  -9   9 1891.34   75.21
  -1  -9   9   76.84   24.24
   1  -9   9 1939.33   81.18
   3  -9   9  303.88   40.96
   5  -9   9  307.70   42.23
   7  -9   9  660.07   51.27
   9  -9   9  126.60   32.81
  11  -9   9  318.84   45.95
 -28  -8   9   17.52   20.72
 -26  -8   9   17.37   19.29
 -24  -8   9  -11.88   14.27
 -22  -8   9    8.30   14.01
 -20  -8   9   56.23   21.20
 -18  -8   9   65.12   20.64
 -16  -8   9   12.41   11.99
 -16  -8   9   29.04   16.33
 -14  -8   9  -14.14   11.80
 -12  -8   9  123.26   23.22
 -10  -8   9   -2.47   12.44
  -8  -8   9  459.95   34.58
  -6  -8   9    5.20   13.87
  -4  -8   9  348.81   31.93
  -2  -8   9  160.59   28.47
   0  -8   9    5.92   16.59
   2  -8   9   -6.10   14.37
   4  -8   9   67.37   24.27
   6  -8   9   -5.74   17.99
   8  -8   9   22.26   22.10
  10  -8   9   23.14   23.20
  12  -8   9  -14.11   20.20
 -29  -7   9   23.27   22.04
 -27  -7   9  254.32   36.23
 -25  -7   9  206.76   33.11
 -23  -7   9  100.69   24.56
 -21  -7   9  721.55   44.37
 -19  -7   9  125.85   23.69
 -17  -7   9  719.78   37.52
 -17  -7   9  671.84   40.77
 -15  -7   9 1500.77   56.01
 -15  -7   9 1537.21   61.71
 -13  -7   9  201.55   27.15
 -11  -7   9 1040.53   48.88
  -9  -7   9  538.01   35.12
  -7  -7   9  478.85   33.33
  -5  -7   9 2637.14   82.57
  -3  -7   9 1132.21   53.54
  -1  -7   9  134.75   25.20
   1  -7   9 1403.04   64.46
   3  -7   9  540.55   41.78
   5  -7   9  129.65   27.54
   7  -7   9  736.03   49.68
   9  -7   9  111.77   29.00
  11  -7   9  203.84   35.48
 -30  -6   9  314.55   42.01
 -28  -6   9   83.74   25.28
 -26  -6   9  156.22   29.90
 -24  -6   9  586.19   41.23
 -22  -6   9   27.38   16.90
 -20  -6   9  702.06   41.23
 -18  -6   9  781.18   43.07
 -18  -6   9  840.10   40.34
 -16  -6   9    7.29   12.06
 -16  -6   9   -7.21   10.14
 -14  -6   9 1362.94   52.48
 -14  -6   9 1398.56   55.46
 -12  -6   9 1096.41   48.46
 -10  -6   9   14.84   12.54
  -8  -6   9 1276.63   51.40
  -6  -6   9  561.41   34.72
  -4  -6   9   19.81   14.50
  -2  -6   9 1263.26   55.49
   0  -6   9  496.30   36.67
   2  -6   9  164.39   27.80
   4  -6   9 1171.56   58.59
   6  -6   9  150.52   28.40
   8  -6   9  254.51   37.48
  10  -6   9  704.75   48.78
  12  -6   9   83.50   25.64
 -31  -5   9   45.13   24.37
 -29  -5   9   21.83   20.90
 -27  -5   9   10.88   16.74
 -25  -5   9   -6.68   13.64
 -23  -5   9  107.87   22.62
 -21  -5   9  212.23   27.03
 -19  -5   9   -0.99   11.87
 -19  -5   9   -2.57   11.56
 -17  -5   9   93.06   18.63
 -17  -5   9   46.92   15.52
 -15  -5   9   67.09   16.66
 -15  -5   9   71.81   17.28
 -13  -5   9   49.42   15.21
 -13  -5   9   34.62   14.24
 -11  -5   9   52.05   15.34
  -9  -5   9   79.34   16.13
  -7  -5   9  -14.00    8.52
  -5  -5   9    0.43   11.42
  -3  -5   9  184.82   24.48
  -1  -5   9  145.86   23.69
   1  -5   9  175.03   26.34
   3  -5   9   -0.69   15.00
   5  -5   9  133.45   26.22
   7  -5   9   76.97   23.33
 -30  -4   9  441.85   40.40
 -28  -4   9  226.89   33.53
 -26  -4   9  277.24   28.92
 -24  -4   9 1091.50   51.77
 -22  -4   9  306.38   25.41
 -22  -4   9  313.07   28.20
 -20  -4   9  945.63   44.08
 -20  -4   9  940.38   43.03
 -18  -4   9  711.47   36.66
 -18  -4   9  740.04   37.15
 -16  -4   9   68.47   16.50
 -16  -4   9   68.18   15.59
 -14  -4   9 1377.11   51.34
 -14  -4   9 1461.06   51.48
 -12  -4   9 1988.70   63.63
 -12  -4   9 2013.29   61.79
 -10  -4   9   -6.66    7.48
  -8  -4   9 2766.71   74.31
  -6  -4   9 1894.96   59.90
  -4  -4   9  246.40   22.43
  -2  -4   9 2511.07   75.18
   0  -4   9  712.57   39.27
   2  -4   9  489.28   34.95
   4  -4   9 1724.88   66.95
 -31  -3   9  114.20   28.92
 -29  -3   9   88.85   23.76
 -27  -3   9  292.90   30.53
 -25  -3   9  119.71   23.79
 -23  -3   9   73.36   19.04
 -23  -3   9   45.94   15.92
 -21  -3   9   -1.37   11.25
 -21  -3   9   18.93   13.08
 -19  -3   9  125.68   20.37
 -19  -3   9  176.95   21.59
 -17  -3   9   86.03   17.26
 -17  -3   9  164.07   19.80
 -15  -3   9  824.09   36.13
 -15  -3   9  841.12   38.40
 -13  -3   9   85.62   15.48
 -13  -3   9   85.55   17.30
 -11  -3   9  340.33   22.88
 -11  -3   9  290.30   23.58
  -9  -3   9  178.37   17.90
  -7  -3   9  184.86   17.90
  -5  -3   9  910.87   38.68
  -3  -3   9  266.00   22.91
  -1  -3   9   45.20   12.34
  -1  -3   9   68.03   16.41
   1  -3   9  232.37   27.31
   1  -3   9  198.00   22.33
   3  -3   9  295.95   25.27
   5  -3   9  221.30   27.99
   7  -3   9  678.71   43.08
   9  -3   9  120.98   29.42
  11  -3   9  107.30   28.63
  13  -3   9  232.25   39.25
 -28  -2   9   65.06   21.73
  28   2  -9   12.47   21.89
  26   2  -9   47.74   22.20
 -26  -2   9   33.43   17.93
 -24  -2   9  364.59   29.61
 -24  -2   9  375.43   29.29
  24   2  -9  406.19   33.47
 -22  -2   9  -13.36    9.98
 -22  -2   9    4.79   11.97
  22   2  -9    0.61   12.25
  20   2  -9   39.42   14.66
 -20  -2   9   38.62   13.71
 -20  -2   9   23.40   13.27
 -18  -2   9  324.76   22.61
  18   2  -9  274.55   20.71
 -18  -2   9  302.21   24.31
 -16  -2   9   -1.71    7.64
  16   2  -9   12.98    9.28
 -16  -2   9   -5.09    8.15
 -14  -2   9 1130.80   39.51
  14   2  -9 1056.21   31.59
 -14  -2   9 1080.91   43.59
 -12  -2   9 1666.43   55.58
  12   2  -9 1672.82   37.90
 -12  -2   9 1662.12   49.48
 -10  -2   9  376.37   22.41
  10   2  -9  362.45   15.03
 -10  -2   9  385.14   26.42
   8   2  -9 1882.11   38.73
  -8  -2   9 1846.28   53.03
   6   2  -9  994.79   26.99
  -6  -2   9  932.74   36.64
   4   2  -9   41.95    9.38
  -4  -2   9   49.30   12.22
   2   2  -9  795.30   29.77
  -2  -2   9  786.22   36.54
   0  -2   9   37.86   13.31
   0  -2   9   12.95   11.34
   2  -2   9  246.65   26.36
   4  -2   9 1026.03   47.19
   6  -2   9  301.53   33.65
   8  -2   9  158.26   29.80
  10  -2   9  805.89   51.27
  12  -2   9   -7.61   21.81
  14  -2   9  314.87   47.44
  31   1  -9  106.85   32.15
  29   1  -9   40.19   25.46
  27   1  -9  695.26   46.71
  25   1  -9  114.13   25.33
 -25  -1   9   97.26   21.51
 -25  -1   9  140.11   22.83
  23   1  -9  434.96   33.14
 -23  -1   9  428.69   29.91
 -23  -1   9  460.06   31.97
  21   1  -9 2965.05   79.84
 -21  -1   9 2879.11   76.74
 -21  -1   9 2910.32   82.34
 -19  -1   9  273.59   23.50
  19   1  -9  288.66   23.18
 -19  -1   9  305.85   21.92
 -17  -1   9  866.82   34.20
  17   1  -9  887.46   34.68
 -17  -1   9  861.98   39.96
 -15  -1   9 3177.41   70.37
  15   1  -9 3020.86   65.72
 -15  -1   9 2874.60   78.18
 -13  -1   9   79.53   15.84
 -13  -1   9   67.15   11.79
  13   1  -9   51.43   10.10
  11   1  -9 1703.91   40.99
 -11  -1   9 1776.02   57.31
 -11  -1   9 1853.86   49.10
  -9  -1   9 2721.77   74.55
  -9  -1   9 2781.10   64.38
   9   1  -9 2760.33   54.82
   7   1  -9    3.74    6.14
  -7  -1   9   -3.98    6.68
   5   1  -9 3119.88   62.20
  -5  -1   9 2958.49   71.09
   3   1  -9 1477.07   41.38
  -3  -1   9 1513.29   47.95
   1   1  -9   51.22   11.74
  -1   1  -9 2799.96   70.72
   3  -1   9 1510.67   57.33
   5  -1   9  216.47   30.80
   7  -1   9 1556.17   66.67
   9  -1   9   20.80   21.06
  11  -1   9  171.15   35.82
  13  -1   9  749.31   56.89
  15  -1   9   22.73   29.72
  32   0  -9  -30.38   25.14
  30   0  -9    0.34   24.45
  28   0  -9   -4.07   20.17
  26   0  -9  -11.26   15.21
 -26   0   9   -5.26   13.49
 -24   0   9    3.29   13.48
  24   0  -9  -12.17   15.01
  22   0  -9  -10.87   12.57
 -22   0   9    0.57   12.10
 -22   0   9    6.20   11.47
 -20   0   9   -0.26   10.19
 -20   0   9   -6.33    8.49
  20   0  -9  -11.27   10.99
  18   0  -9    3.21    9.67
 -18   0   9    9.16    8.14
 -18   0   9    6.22   10.12
 -16   0   9   -1.32    6.77
 -16   0   9   -5.37    8.31
  16   0  -9   -7.18    7.96
 -14   0   9    3.25    6.27
 -14   0   9   -5.78    7.49
  14   0  -9   -5.42    5.99
 -12   0   9   -0.46    7.78
 -12   0   9   -6.87    4.92
  12   0  -9   -2.31    6.05
 -10   0   9   -1.57    5.34
  10   0  -9   -4.30    5.73
 -10   0   9   -5.69    7.49
   8   0  -9   -3.06    5.69
  -8   0   9   -0.37    6.46
  -8   0   9   -7.29    7.39
  -6   0   9    4.94    6.98
   6   0  -9    0.09    6.06
  -6   0   9    2.63    8.61
  -4   0   9   -2.16    6.88
   4   0  -9   -3.16    6.48
   2   0  -9    0.00    7.48
   0   0  -9   -7.79    7.86
  -2   0  -9   -1.28   10.68
   6   0   9    3.64   16.61
   8   0   9  -11.57   16.71
  10   0   9  -18.92   19.00
  12   0   9   -1.70   21.96
  14   0   9    4.98   25.08
  31  -1  -9  129.25   35.49
  29  -1  -9   60.77   27.10
  27  -1  -9  715.83   49.97
  25  -1  -9  125.91   27.76
 -25   1   9   97.47   23.03
  23  -1  -9  512.44   36.50
 -23   1   9  424.35   32.73
 -21   1   9 2920.94   84.23
  21  -1  -9 2847.03   81.85
  19  -1  -9  302.57   25.08
 -19   1   9  265.95   23.84
  17  -1  -9  749.33   34.17
 -17   1   9  696.99   36.37
 -15   1   9 3008.90   81.01
 -15   1   9 3166.60   63.76
  15  -1  -9 3056.06   71.43
  13  -1  -9   41.53   10.55
 -13   1   9   54.41   13.55
 -13   1   9   69.98    9.57
  11  -1  -9 1860.20   48.10
 -11   1   9 1796.11   40.92
 -11   1   9 1757.61   56.33
  -9   1   9 2795.78   57.08
   9  -1  -9 2755.12   61.21
  -9   1   9 2702.75   72.53
   7  -1  -9    7.43    7.11
  -7   1   9    0.61    6.03
  -7   1   9   10.04    9.54
   5  -1  -9 3035.40   67.60
  -5   1   9 2953.18   77.51
  -5   1   9 3046.31   65.14
   3  -1  -9 1578.33   46.99
   1  -1  -9   36.53   11.60
  -1  -1  -9 2599.36   69.78
  -3  -1  -9 1246.99   49.14
  -5  -1  -9  191.64   25.69
   7   1   9 1784.85   77.89
   9   1   9   12.24   21.85
  11   1   9  253.81   44.61
  13   1   9  730.60   62.26
  15   1   9   73.97   39.21
  32  -2  -9  -47.81   23.23
  30  -2  -9  283.91   44.12
  28  -2  -9   29.42   20.83
  26  -2  -9   58.82   23.17
 -24   2   9  428.23   34.46
  24  -2  -9  377.59   39.34
 -22   2   9    0.01   12.69
  22  -2  -9   -0.43   12.49
 -20   2   9   35.72   14.75
  20  -2  -9   36.26   17.04
  18  -2  -9  286.33   24.32
 -18   2   9  288.13   24.80
 -16   2   9    4.67    9.41
  16  -2  -9   -9.10    7.87
 -14   2   9 1078.63   44.04
  14  -2  -9 1075.78   39.08
  12  -2  -9 1562.46   46.50
 -12   2   9 1609.95   53.85
 -10   2   9  358.37   24.41
  10  -2  -9  354.33   21.22
  -8   2   9 1843.09   40.84
  -8   2   9 1856.90   56.96
   8  -2  -9 1937.22   51.47
   6  -2  -9  978.94   35.62
  -6   2   9  976.79   39.59
  -6   2   9  901.36   27.47
  -4   2   9   44.22   12.68
   4  -2  -9   46.64   12.40
  -2   2   9  750.99   34.95
   2  -2  -9  788.36   34.73
   0  -2  -9    7.27    9.60
  -2  -2  -9  178.52   22.49
  -4  -2  -9  879.84   43.13
  -6  -2  -9  250.37   30.12
   8   2   9  277.02   43.46
  10   2   9 1019.06   68.37
  12   2   9  -22.14   24.40
  14   2   9  367.87   60.22
  31  -3  -9   26.34   28.22
  29  -3  -9   43.38   25.05
  27  -3  -9  344.23   42.36
  25  -3  -9   64.48   25.31
 -23   3   9   33.06   16.23
  23  -3  -9   38.75   18.58
  21  -3  -9   -2.14   13.30
 -21   3   9    5.13   12.39
 -19   3   9  151.74   22.95
  19  -3  -9  106.85   20.10
 -17   3   9  133.52   20.90
  17  -3  -9  111.48   19.60
 -15   3   9  787.36   38.25
  15  -3  -9  799.46   35.98
 -13   3   9   77.05   15.99
  13  -3  -9  109.38   16.72
 -11   3   9  302.35   23.09
  11  -3  -9  344.73   22.58
  -9   3   9  193.91   18.09
   9  -3  -9  133.25   16.54
   7  -3  -9  187.12   17.64
  -7   3   9  195.64   18.16
   5  -3  -9  863.88   35.96
  -5   3   9  932.26   37.62
   3  -3  -9  250.49   20.54
  -3   3   9  281.67   21.25
   1  -3  -9   59.74   13.95
  -1   3   9   69.17   13.48
  -1  -3  -9  198.16   23.78
   1   3   9  171.30   17.61
  -3  -3  -9  264.04   24.87
  -5  -3  -9  158.26   24.66
  -7  -3  -9  633.03   41.29
   9   3   9  169.88   43.45
  11   3   9  173.60   45.46
  13   3   9  384.82   62.22
  30  -4  -9  413.37   52.89
  28  -4  -9  229.76   39.18
  26  -4  -9  265.07   38.59
  24  -4  -9 1082.90   56.66
 -22   4   9  292.40   29.17
  22  -4  -9  289.54   28.56
  20  -4  -9  910.26   45.37
 -20   4   9  870.19   45.68
 -18   4   9  698.26   39.54
  18  -4  -9  730.37   38.74
 -16   4   9   29.97   14.08
  16  -4  -9   91.58   18.09
  14  -4  -9 1405.19   49.20
 -14   4   9 1384.71   51.72
 -12   4   9 1981.35   62.30
  12  -4  -9 2054.86   59.53
 -10   4   9   -1.81    7.72
  10  -4  -9   -7.29    7.82
   8  -4  -9 2817.40   70.87
  -8   4   9 2643.10   71.91
  -6   4   9 1969.12   57.84
   6  -4  -9 1995.73   58.70
  -4   4   9  275.92   20.33
   4  -4  -9  260.56   22.12
  -2   4   9 2329.38   62.97
   2  -4  -9 2352.63   67.71
   0  -4  -9  620.96   34.69
   0   4   9  620.38   29.74
  -2  -4  -9  420.16   29.93
  -4  -4  -9 1440.67   57.95
  -6  -4  -9  509.97   37.07
  -8  -4  -9  469.04   38.62
  10   4   9 1350.89   95.69
  12   4   9  183.31   56.88
  14   4   9  285.93   63.34
  31  -5  -9   10.53   26.39
  29  -5  -9  -11.84   21.36
  27  -5  -9   16.08   22.64
  25  -5  -9  -11.15   17.98
  23  -5  -9  109.49   24.16
 -21   5   9  190.00   28.01
  21  -5  -9  129.69   24.64
 -19   5   9    6.26   11.55
  19  -5  -9   -0.47   11.99
  17  -5  -9   78.67   18.04
  15  -5  -9   38.70   15.05
 -15   5   9   78.01   17.75
  13  -5  -9   26.60   11.60
 -13   5   9   46.56   14.09
  11  -5  -9   38.34   13.27
 -11   5   9   32.07   12.78
  -9   5   9  102.39   17.14
   9  -5  -9  101.43   17.07
  -7   5   9   -3.83    7.77
   7  -5  -9   -5.24    7.65
  -5   5   9    6.94    9.28
   5  -5  -9   -0.29    9.14
   3  -5  -9  145.43   21.02
  -3   5   9  180.15   17.19
  -1   5   9  150.12   15.93
   1  -5  -9  159.57   23.30
  -1  -5  -9  164.24   24.45
  -3  -5  -9    5.63   13.44
  -5  -5  -9   85.35   21.61
  -7  -5  -9   43.18   19.61
  -9  -5  -9   73.32   23.83
  13   5   9  185.82   69.71
  30  -6  -9  239.99   42.96
  28  -6  -9   79.80   28.37
  26  -6  -9  128.59   30.77
  24  -6  -9  521.01   42.38
  22  -6  -9   34.28   17.92
  20  -6  -9  727.08   43.01
 -20   6   9  727.18   43.64
 -18   6   9  781.40   43.43
  18  -6  -9  814.87   43.19
  16  -6  -9   -0.16   11.23
 -16   6   9    7.91   11.96
 -14   6   9 1286.31   52.15
  14  -6  -9 1301.30   50.82
  12  -6  -9 1183.76   48.07
 -12   6   9 1141.83   47.12
  10  -6  -9   19.08   11.88
 -10   6   9   32.19   12.94
  -8   6   9 1263.24   46.48
   8  -6  -9 1273.75   49.45
  -6   6   9  582.59   30.47
   6  -6  -9  629.11   35.30
  -4   6   9   14.94   10.06
   4  -6  -9    2.64   10.01
  -2   6   9 1176.05   41.55
   2  -6  -9 1144.13   49.64
   0  -6  -9  333.05   29.26
  -2  -6  -9   69.96   19.63
  -4  -6  -9 1121.02   54.13
  -6  -6  -9  104.22   23.86
  -8  -6  -9  345.12   41.36
 -10  -6  -9  730.42   51.08
  12   6   9  230.37   86.09
  29  -7  -9   95.05   30.63
  27  -7  -9  251.50   40.78
  25  -7  -9  142.33   30.07
  23  -7  -9  166.67   29.64
  21  -7  -9  676.45   43.71
  19  -7  -9   57.37   19.60
  17  -7  -9  607.07   38.74
 -17   7   9  671.58   40.61
  15  -7  -9 1436.99   56.13
 -15   7   9 1375.71   56.44
  13  -7  -9  149.95   22.68
 -13   7   9  146.09   23.09
 -11   7   9 1057.09   45.61
  11  -7  -9 1119.27   47.88
  -9   7   9  497.17   30.35
   9  -7  -9  559.34   33.90
   7  -7  -9  462.66   31.49
  -7   7   9  490.70   28.39
  -5   7   9 2419.00   65.82
   5  -7  -9 2377.15   74.41
   3  -7  -9 1014.92   48.02
   1  -7  -9  107.10   21.86
  -1  -7  -9 1230.23   55.54
  -3  -7  -9  448.38   36.15
  -5  -7  -9   91.83   23.68
  -7  -7  -9  698.98   47.01
  -9  -7  -9  156.62   32.43
 -11  -7  -9  211.47   36.79
  28  -8  -9  -27.48   18.14
  26  -8  -9  -16.46   15.39
  24  -8  -9    3.46   19.11
  22  -8  -9   -3.97   15.36
  20  -8  -9   97.31   23.10
  18  -8  -9   45.98   18.31
 -16   8   9   28.01   16.02
  16  -8  -9   33.16   16.75
 -14   8   9    4.61   11.25
  14  -8  -9   -8.94   11.62
  12  -8  -9  106.95   21.47
 -12   8   9  170.03   23.73
 -10   8   9   10.09   11.61
  10  -8  -9   -0.04   11.74
   8  -8  -9  451.27   32.19
  -8   8   9  431.33   28.13
  -6   8   9    1.18    9.07
   6  -8  -9   13.10   12.68
   4  -8  -9  323.39   29.15
   2  -8  -9  185.16   28.50
   0  -8  -9   -6.54   13.25
  -2  -8  -9    5.87   15.17
  -4  -8  -9   59.64   19.39
  -6  -8  -9   24.70   17.70
  -8  -8  -9   24.18   19.69
 -10  -8  -9   35.22   24.29
 -12  -8  -9  -20.72   20.16
  27  -9  -9  565.80   49.67
  25  -9  -9  160.31   33.20
  23  -9  -9  373.54   37.28
  21  -9  -9  755.16   48.76
  19  -9  -9   32.72   20.76
  17  -9  -9  966.33   50.75
  15  -9  -9 1438.22   61.14
  13  -9  -9   -0.41   13.47
 -13   9   9   -1.37   11.40
 -11   9   9 1510.54   58.48
  11  -9  -9 1541.69   61.89
   9  -9  -9 1426.16   59.06
  -9   9   9 1404.52   53.82
  -7   9   9   83.23   18.36
   7  -9  -9   68.45   20.67
   5  -9  -9 1392.91   59.91
   3  -9  -9 1750.63   68.56
   1  -9  -9   71.34   20.67
  -1  -9  -9 1840.02   73.72
  -3  -9  -9  297.55   36.55
  -5  -9  -9  240.04   34.31
  -7  -9  -9  619.60   46.93
  -9  -9  -9  110.77   30.28
 -11  -9  -9  411.51   50.59
  26 -10  -9   -1.10   19.75
  24 -10  -9   63.60   25.61
  22 -10  -9    9.83   20.25
  20 -10  -9   39.11   19.43
  18 -10  -9  102.89   24.61
  16 -10  -9   13.73   15.61
  14 -10  -9   64.80   20.17
  12 -10  -9  222.85   30.29
  10 -10  -9    1.36   13.90
   8 -10  -9  284.51   34.05
   6 -10  -9  263.22   32.15
   4 -10  -9   52.65   18.85
   2 -10  -9  313.05   36.42
   0 -10  -9   71.58   22.40
  -2 -10  -9   28.86   19.24
  -4 -10  -9  101.42   26.54
  -6 -10  -9   32.53   21.52
  -8 -10  -9   42.05   24.03
 -10 -10  -9   33.83   25.34
  25 -11  -9   90.49   30.23
  23 -11  -9   77.98   28.17
  21 -11  -9  499.29   43.08
  19 -11  -9   33.95   20.39
  17 -11  -9  176.24   29.94
  15 -11  -9  410.37   36.10
  13 -11  -9   -3.63   13.41
  11 -11  -9  539.48   40.70
   9 -11  -9  426.29   36.74
   7 -11  -9   33.05   18.26
   5 -11  -9  440.21   36.94
   3 -11  -9  205.15   31.84
   1 -11  -9   87.36   25.13
  -1 -11  -9  785.87   50.98
  -3 -11  -9  137.31   30.50
  -5 -11  -9   47.29   24.68
  -7 -11  -9  269.05   40.26
  24 -12  -9  525.67   47.43
  22 -12  -9   39.62   23.13
  20 -12  -9  272.29   38.26
  18 -12  -9  755.80   51.03
  16 -12  -9   32.05   19.05
  14 -12  -9  434.77   38.40
  12 -12  -9  712.22   47.87
  10 -12  -9  -11.90   14.08
   8 -12  -9  476.52   39.26
   6 -12  -9  507.07   40.80
   4 -12  -9   -1.13   14.98
   2 -12  -9  509.03   43.39
   0 -12  -9  216.08   36.84
  -2 -12  -9   77.96   28.56
  -4 -12  -9  675.42   51.42
  -6 -12  -9  119.50   31.42
  21 -13  -9    3.91   19.33
  19 -13  -9    8.24   18.90
  17 -13  -9  -15.41   15.70
  15 -13  -9  -21.36   16.09
  13 -13  -9   -9.53   16.69
  11 -13  -9    7.22   17.37
   9 -13  -9  -14.21   15.51
   7 -13  -9  -18.15   14.45
   5 -13  -9  -13.91   16.82
   3 -13  -9   22.24   20.02
   1 -13  -9  -21.51   18.17
  -1 -13  -9   -1.28   20.16
  -3 -13  -9  -26.03   21.33
  -5 -13  -9   16.77   21.95
  20 -14  -9  156.90   34.32
  18 -14  -9  452.04   42.65
  16 -14  -9   10.96   20.71
  14 -14  -9  287.80   40.06
  12 -14  -9  454.61   41.21
  10 -14  -9  -26.37   14.41
   8 -14  -9  543.72   45.14
   6 -14  -9  492.23   51.96
   4 -14  -9   44.65   23.41
   2 -14  -9  908.98   59.58
   0 -14  -9  412.97   49.83
  -2 -14  -9   88.02   30.21
  17 -15  -9   13.06   21.67
  15 -15  -9   88.84   30.43
  13 -15  -9  -14.93   20.56
  11 -15  -9  165.88   33.13
   9 -15  -9  263.45   39.63
   7 -15  -9   -3.84   19.82
   5 -15  -9  272.31   42.49
   3 -15  -9   93.87   31.03
   1 -15  -9    8.28   23.90
  10 -16  -9  -21.32   20.32
   8 -16  -9  168.50   37.57
   6 -16  -9  142.02   36.06
 -15 -15  10  266.97   44.00
 -13 -15  10  108.70   34.83
 -11 -15  10    9.66   25.80
  -9 -15  10  401.82   49.86
  -7 -15  10  228.60   41.52
  -5 -15  10   33.73   30.24
 -18 -14  10   41.99   27.91
 -16 -14  10   44.93   25.95
 -14 -14  10  -27.07   15.86
 -12 -14  10   40.35   26.69
 -10 -14  10   35.12   24.83
  -8 -14  10    2.76   21.65
  -6 -14  10   38.07   25.82
  -4 -14  10   18.60   22.83
  -2 -14  10   53.28   27.61
   0 -14  10   36.43   28.91
 -21 -13  10  297.01   44.28
 -19 -13  10  409.85   43.29
 -17 -13  10  -21.33   18.26
 -15 -13  10  491.68   45.06
 -13 -13  10  371.57   39.42
 -11 -13  10  -12.57   18.81
  -9 -13  10  613.69   49.12
  -7 -13  10  410.30   49.29
  -5 -13  10   18.10   20.53
  -1 -13  10  412.38   51.64
   1 -13  10  118.76   35.22
   3 -13  10  659.17   58.82
 -24 -12  10   22.97   26.53
 -22 -12  10   68.83   26.73
 -20 -12  10    0.66   19.33
 -18 -12  10   82.38   27.07
 -16 -12  10   -1.83   18.79
 -14 -12  10    0.88   18.09
 -12 -12  10  135.50   32.10
 -10 -12  10   10.12   17.62
  -8 -12  10  -15.90   16.22
  -6 -12  10  259.70   37.30
  -4 -12  10  117.40   29.09
  -2 -12  10   49.83   26.10
   0 -12  10  106.58   32.18
   2 -12  10   -2.34   23.32
   4 -12  10   29.46   30.69
 -25 -11  10  370.92   47.15
 -23 -11  10    5.81   20.56
 -21 -11  10  147.04   32.15
 -19 -11  10  378.51   38.77
 -17 -11  10  -15.49   14.80
 -15 -11  10  311.52   40.47
 -13 -11  10  468.83   40.28
 -11 -11  10  -10.31   16.40
  -9 -11  10  367.59   36.24
  -7 -11  10  439.42   38.60
  -5 -11  10  100.15   26.62
  -3 -11  10  831.27   55.32
  -1 -11  10  144.81   32.65
   1 -11  10  147.36   34.99
   3 -11  10  440.22   52.47
   5 -11  10  104.96   32.29
 -26 -10  10   72.47   28.25
 -24 -10  10  221.49   38.18
 -22 -10  10  552.58   45.82
 -20 -10  10   18.55   19.18
 -18 -10  10  325.60   34.68
 -16 -10  10  749.11   49.28
 -14 -10  10   -9.17   12.09
 -12 -10  10  847.31   51.62
 -10 -10  10 1153.90   59.17
  -8 -10  10  -17.57   12.74
  -6 -10  10  709.11   47.62
  -4 -10  10  361.43   37.46
  -2 -10  10  148.65   33.12
   0 -10  10  714.36   52.30
   2 -10  10  186.29   36.43
   4 -10  10  160.73   36.34
   6 -10  10  638.24   55.46
   8 -10  10    1.10   27.62
 -27  -9  10  -14.10   19.50
 -25  -9  10    4.36   16.70
 -23  -9  10  -10.21   16.12
 -21  -9  10   -7.73   15.14
 -19  -9  10   -3.81   16.19
 -17  -9  10  -15.98   12.52
 -15  -9  10   10.79   17.49
 -13  -9  10   18.07   16.17
 -11  -9  10    1.82   14.18
  -9  -9  10   24.80   17.31
  -7  -9  10   49.09   19.25
  -5  -9  10   18.40   17.46
  -3  -9  10   -2.26   15.48
  -1  -9  10    3.15   17.40
   1  -9  10   -4.52   18.55
   3  -9  10   21.31   21.46
   5  -9  10   -9.33   21.78
   7  -9  10  -12.62   21.26
   9  -9  10   -0.65   20.60
 -28  -8  10  405.39   40.43
 -26  -8  10  232.07   37.15
 -24  -8  10  208.85   34.56
 -22  -8  10  676.53   45.55
 -20  -8  10   14.72   18.53
 -18  -8  10  963.33   47.10
 -18  -8  10 1200.35   58.12
 -16  -8  10 1285.53   54.45
 -16  -8  10 1219.79   58.38
 -14  -8  10   28.28   17.80
 -12  -8  10  959.03   50.19
 -10  -8  10  823.47   46.45
  -8  -8  10   10.50   14.90
  -6  -8  10 1419.03   62.14
  -4  -8  10  994.18   53.96
  -2  -8  10  215.42   34.59
   0  -8  10 1672.73   74.69
   2  -8  10  258.29   38.28
   4  -8  10  222.27   38.20
   6  -8  10  704.78   52.46
   8  -8  10   11.29   22.74
  10  -8  10  315.64   44.17
 -29  -7  10   10.52   21.03
 -27  -7  10   76.63   25.08
 -25  -7  10  263.36   35.29
 -23  -7  10  -17.04   12.05
 -21  -7  10  257.13   32.59
 -19  -7  10  299.00   27.84
 -19  -7  10  306.09   34.17
 -17  -7  10    2.71   12.69
 -17  -7  10    8.88   14.82
 -15  -7  10  645.05   40.42
 -15  -7  10  560.82   35.82
 -13  -7  10  480.98   34.88
 -11  -7  10  101.83   21.40
  -9  -7  10  661.70   39.68
  -7  -7  10  152.46   24.24
  -5  -7  10  160.38   26.41
  -3  -7  10  989.48   52.27
  -1  -7  10  431.09   37.22
   1  -7  10   78.20   24.48
   3  -7  10  528.79   42.93
   5  -7  10   23.23   19.84
   7  -7  10  148.13   31.03
   9  -7  10  249.98   38.63
  11  -7  10   -5.77   22.86
 -30  -6  10   16.12   20.45
 -28  -6  10  166.10   30.50
 -26  -6  10   59.45   21.55
 -24  -6  10   99.00   22.87
 -22  -6  10  322.04   31.01
 -20  -6  10    2.04   13.46
 -20  -6  10  -15.20   11.62
 -18  -6  10  299.30   28.89
 -18  -6  10  291.11   25.86
 -16  -6  10  303.55   26.20
 -16  -6  10  290.99   27.56
 -14  -6  10   64.15   19.43
 -14  -6  10   43.76   16.13
 -12  -6  10  392.68   30.98
 -10  -6  10   32.68   14.54
  -8  -6  10   80.11   18.20
  -6  -6  10 1651.79   62.41
  -4  -6  10  601.40   38.80
  -2  -6  10  161.36   26.81
   0  -6  10  873.44   50.66
   2  -6  10   23.08   19.81
   4  -6  10    9.56   17.77
   6  -6  10  417.81   38.50
   8  -6  10  100.87   28.08
  10  -6  10   51.38   25.08
 -31  -5  10  657.12   50.22
 -29  -5  10   88.54   25.03
 -27  -5  10  258.58   34.27
 -25  -5  10  814.05   46.99
 -23  -5  10   38.04   17.43
 -21  -5  10  433.28   32.32
 -21  -5  10  432.38   31.84
 -19  -5  10  922.31   45.28
 -19  -5  10  871.84   42.85
 -17  -5  10   40.14   14.95
 -17  -5  10   24.95   13.47
 -15  -5  10 1740.76   61.86
 -15  -5  10 1726.31   61.08
 -13  -5  10 1605.24   60.18
 -13  -5  10 1611.10   58.56
 -11  -5  10   71.31   18.33
  -9  -5  10 2433.21   72.89
  -7  -5  10  469.66   31.47
  -5  -5  10   45.13   16.57
  -3  -5  10 2307.36   76.49
  -1  -5  10  665.11   41.54
   1  -5  10  285.52   29.91
   3  -5  10 2259.20   82.49
   5  -5  10  271.73   34.96
   7  -5  10  495.32   41.10
   9  -5  10  683.73   48.06
 -30  -4  10   -4.52   18.34
 -28  -4  10   38.21   19.89
 -26  -4  10   10.66   16.32
 -24  -4  10    4.75   13.80
 -22  -4  10   13.09   14.22
 -22  -4  10   41.24   16.47
 -20  -4  10   23.16   15.46
 -20  -4  10    5.69   11.08
 -18  -4  10  182.51   23.75
 -18  -4  10  135.74   21.90
 -16  -4  10   81.06   17.98
 -16  -4  10   63.73   16.50
 -14  -4  10   15.22   10.91
 -14  -4  10  -11.54    8.49
 -12  -4  10    8.94   11.56
 -12  -4  10    1.31   10.18
 -10  -4  10   55.31   13.89
  -8  -4  10    0.58   10.08
  -6  -4  10  147.91   21.35
  -4  -4  10    4.09   12.00
  -2  -4  10   22.62   15.96
   0  -4  10    2.10   12.75
   2  -4  10   10.01   15.06
   4  -4  10   19.92   17.33
 -27  -3  10  279.95   29.23
 -25  -3  10  809.27   43.50
 -23  -3  10  252.37   25.33
 -23  -3  10  225.85   24.31
 -21  -3  10  378.35   29.63
 -21  -3  10  381.71   28.55
 -19  -3  10 1515.03   53.19
 -19  -3  10 1425.86   54.83
 -17  -3  10    3.98   10.23
 -17  -3  10   -0.69    9.40
 -15  -3  10 1166.69   44.61
 -15  -3  10 1063.86   46.44
 -13  -3  10 1316.79   47.12
 -13  -3  10 1302.19   51.66
 -11  -3  10  236.08   20.56
 -11  -3  10  250.71   23.85
  -9  -3  10 2453.22   67.73
  -7  -3  10 1711.93   55.81
  -5  -3  10   35.46   13.24
  -3  -3  10 1674.64   58.67
  -1  -3  10  183.39   24.93
   1  -3  10  398.16   31.34
 -24  -2  10  202.40   28.38
 -24  -2  10  213.02   22.32
 -22  -2  10  743.47   40.73
 -22  -2  10  773.11   38.28
 -20  -2  10    9.24   11.11
 -20  -2  10    9.04   11.86
 -18  -2  10  683.02   37.26
 -18  -2  10  696.69   32.99
 -16  -2  10 1575.54   49.73
 -16  -2  10 1516.27   55.83
 -14  -2  10   56.57   15.95
 -14  -2  10   86.06   14.87
 -12  -2  10  796.18   34.22
 -12  -2  10  833.71   40.23
 -10  -2  10 1906.04   64.14
 -10  -2  10 1917.40   55.31
  -8  -2  10   37.07   11.61
  -6  -2  10 1645.05   52.74
   4   2 -10  917.61   31.18
  -4  -2  10  890.30   39.36
  -2  -2  10  148.98   20.72
   0  -2  10 1932.35   59.67
   0  -2  10 1863.63   64.23
   2  -2  10  805.57   41.37
   4  -2  10  306.90   29.10
   6  -2  10  986.60   51.47
   8  -2  10   96.13   28.43
  10  -2  10  191.12   34.98
  12  -2  10  531.10   48.34
  27   1 -10   25.99   20.93
 -25  -1  10   41.06   18.12
  25   1 -10   48.55   20.23
  23   1 -10    7.31   14.51
 -23  -1  10  -13.70   11.07
 -21  -1  10  313.23   27.03
  21   1 -10  342.01   26.58
 -21  -1  10  318.81   24.49
 -19  -1  10   56.00   13.11
  19   1 -10   47.20   13.70
 -19  -1  10   46.44   15.14
 -17  -1  10   13.36   11.75
 -17  -1  10   41.35   11.59
  17   1 -10    3.28    9.01
 -15  -1  10  306.91   25.03
  15   1 -10  348.85   19.85
 -15  -1  10  357.97   21.13
  13   1 -10  467.91   21.37
 -13  -1  10  485.86   30.47
 -13  -1  10  474.77   23.95
 -11  -1  10   -9.88    8.59
  11   1 -10   -7.09    5.84
 -11  -1  10   -2.36    6.61
  -9  -1  10  377.52   22.05
   9   1 -10  367.61   17.94
  -9  -1  10  365.45   27.24
  -7  -1  10  568.13   27.60
   7   1 -10  559.15   22.92
  -5  -1  10   30.87   11.27
   5   1 -10   18.40    8.04
  -3  -1  10   83.31   16.27
   3   1 -10   36.37   11.19
   1   1 -10  189.61   18.40
  -1  -1  10  208.56   23.76
   3  -1  10  342.02   30.36
   5  -1  10   22.62   19.54
   7  -1  10  288.78   38.78
   9  -1  10   35.18   25.92
  11  -1  10  -24.72   21.98
  13  -1  10   54.73   31.06
  32   0 -10  262.90   43.13
  30   0 -10  130.06   32.88
 -28   0  10  455.88   37.19
  28   0 -10  345.63   41.19
  26   0 -10   48.28   19.59
 -26   0  10   25.72   16.68
  24   0 -10  754.68   42.63
 -24   0  10  715.01   41.78
 -22   0  10 2298.69   74.99
  22   0 -10 2375.31   72.05
 -20   0  10  695.27   38.50
  20   0 -10  662.04   34.64
  18   0 -10  996.70   38.69
 -18   0  10  996.78   45.21
  16   0 -10 3282.22   72.96
 -16   0  10 3159.81   86.18
 -14   0  10   24.50    8.71
  14   0 -10   16.12    8.54
 -14   0  10   16.69   11.51
  12   0 -10 2260.54   53.62
 -12   0  10 2267.82   54.26
 -12   0  10 2275.87   68.58
  10   0 -10 2059.47   49.47
 -10   0  10 2001.18   64.11
 -10   0  10 1960.47   50.40
   8   0 -10  272.53   17.34
  -8   0  10  239.11   22.06
  -8   0  10  226.22   17.06
  -6   0  10 1509.56   45.55
   6   0 -10 1559.27   43.43
  -6   0  10 1535.23   55.93
  -4   0  10 1819.75   53.25
   4   0 -10 1837.06   50.15
   2   0 -10  451.80   25.75
   0   0 -10 1989.68   59.44
  -2   0 -10 1038.42   44.94
   4   0  10  677.39   44.48
   6   0  10 1578.53   72.05
   8   0  10  227.81   38.91
  10   0  10  480.02   55.37
  12   0  10  789.45   62.77
  31  -1 -10   31.44   26.27
  29  -1 -10   36.64   23.09
 -27   1  10   48.54   20.19
  27  -1 -10   42.97   21.08
  25  -1 -10   36.53   19.13
 -25   1  10   32.78   16.95
  23  -1 -10    5.80   15.33
 -23   1  10   -3.70   12.29
 -21   1  10  351.47   28.69
  21  -1 -10  347.91   28.48
  19  -1 -10   62.01   16.18
 -19   1  10   26.47   13.35
  17  -1 -10   23.68   10.97
 -17   1  10   20.19   12.16
 -15   1  10  321.39   25.86
  15  -1 -10  345.19   22.24
 -13   1  10  473.83   29.80
  13  -1 -10  448.88   23.87
  11  -1 -10    1.17    6.74
 -11   1  10   -4.98    6.65
  -9   1  10  355.99   18.21
   9  -1 -10  360.66   20.98
  -9   1  10  375.87   26.36
   7  -1 -10  556.61   26.18
  -7   1  10  576.60   24.43
  -7   1  10  545.23   31.56
   5  -1 -10   14.20    9.49
  -5   1  10   16.65   12.00
  -5   1  10   33.26    9.93
   3  -1 -10   79.41   15.06
   1  -1 -10  195.98   21.91
  -1  -1 -10   83.78   16.37
  -3  -1 -10  237.19   28.29
   7   1  10  353.23   44.33
   9   1  10   38.11   28.42
  11   1  10  -42.04   22.34
  13   1  10   71.78   36.86
  32  -2 -10  108.03   35.70
  30  -2 -10   26.94   22.75
  28  -2 -10  460.79   40.96
 -26   2  10   66.26   20.75
  26  -2 -10   49.08   22.27
  24  -2 -10  195.90   28.84
 -24   2  10  241.76   31.78
 -22   2  10  739.31   42.39
  22  -2 -10  701.60   39.74
  20  -2 -10    5.52   12.98
 -20   2  10    4.17   11.55
  18  -2 -10  632.34   33.26
 -18   2  10  637.61   36.32
  16  -2 -10 1459.25   48.59
 -16   2  10 1472.95   55.11
 -14   2  10   76.23   17.04
  14  -2 -10   60.03   12.96
 -12   2  10  782.06   37.95
  12  -2 -10  875.34   34.49
 -10   2  10 1862.93   60.41
  10  -2 -10 1896.67   52.69
  -8   2  10   43.98   13.37
   8  -2 -10   17.80    8.83
  -6   2  10 1583.18   54.64
   6  -2 -10 1604.68   49.22
  -4   2  10  869.54   39.43
   4  -2 -10  887.30   36.91
  -2   2  10  134.80   20.40
   2  -2 -10   71.90   15.01
   0  -2 -10 1704.89   56.82
  -2  -2 -10  652.68   36.51
  -4  -2 -10  318.39   28.70
  -6  -2 -10  853.35   48.19
   8   2  10   93.90   36.20
  10   2  10  155.85   42.98
  12   2  10  689.13   76.57
  31  -3 -10  486.47   54.82
  29  -3 -10   13.45   21.39
  27  -3 -10  306.48   40.05
 -25   3  10  812.75   48.02
  25  -3 -10  823.62   49.38
 -23   3  10  231.06   31.55
  23  -3 -10  253.25   31.28
  21  -3 -10  382.79   29.75
 -21   3  10  337.41   29.65
 -19   3  10 1374.97   56.13
  19  -3 -10 1456.45   53.95
  17  -3 -10   10.88   11.02
 -17   3  10   21.56   12.42
 -15   3  10 1039.51   45.74
  15  -3 -10 1052.39   41.41
  13  -3 -10 1269.42   45.29
 -13   3  10 1305.58   50.75
 -11   3  10  252.80   22.39
  11  -3 -10  256.26   20.64
  -9   3  10 2498.54   71.99
   9  -3 -10 2672.52   67.71
  -7   3  10 1688.20   56.29
   7  -3 -10 1794.14   54.17
   5  -3 -10   27.16   12.26
  -5   3  10   40.09   13.23
   3  -3 -10 1468.96   51.60
  -3   3  10 1542.37   52.66
  -1   3  10  166.90   17.80
   1  -3 -10  154.61   21.49
   1   3  10  339.79   25.04
  -1  -3 -10  370.48   29.03
  -3  -3 -10 1286.50   54.02
  -5  -3 -10  227.61   29.98
  -7  -3 -10  441.74   36.79
   9   3  10 1506.34   95.22
  11   3  10   79.06   47.84
  13   3  10  207.24   57.56
  30  -4 -10   25.16   25.27
  28  -4 -10   43.39   23.29
  26  -4 -10   14.63   19.11
  24  -4 -10    6.47   17.55
 -24   4  10    2.75   13.91
 -22   4  10   17.11   15.01
  22  -4 -10   28.84   18.06
 -20   4  10   12.23   13.36
  20  -4 -10    6.84   12.69
 -18   4  10  148.88   23.79
  18  -4 -10  145.24   21.82
 -16   4  10   75.20   17.64
  16  -4 -10   69.09   17.09
  14  -4 -10   -8.12    9.23
 -14   4  10    8.37   11.25
  12  -4 -10    6.75    9.20
 -12   4  10   10.97   10.91
 -10   4  10   39.85   13.72
  10  -4 -10   27.74   12.27
  -8   4  10   -0.06    8.49
   8  -4 -10   -8.28    8.25
   6  -4 -10  207.12   20.30
  -6   4  10  179.14   18.58
   4  -4 -10    5.03   11.43
  -4   4  10   14.50   10.71
  -2   4  10   13.77   11.05
   2  -4 -10    6.95   11.80
   0  -4 -10    0.56   11.68
  -2  -4 -10   16.65   14.87
  -4  -4 -10    2.46   14.37
  -6  -4 -10    0.95   14.75
  -8  -4 -10   12.63   19.08
  10   4  10  -38.34   41.15
  12   4  10  -22.30   40.29
  31  -5 -10  627.77   55.26
  29  -5 -10   57.63   26.43
  27  -5 -10  162.73   31.41
  25  -5 -10  779.50   49.33
 -23   5  10   80.37   23.08
  23  -5 -10   49.35   20.10
 -21   5  10  450.14   34.92
  21  -5 -10  431.01   33.21
  19  -5 -10  873.72   44.13
 -19   5  10  881.65   46.50
  17  -5 -10   29.33   15.22
 -17   5  10   34.51   15.27
  15  -5 -10 1659.38   57.21
 -15   5  10 1582.63   59.14
 -13   5  10 1602.08   57.86
  13  -5 -10 1635.09   56.09
 -11   5  10   79.59   17.02
  11  -5 -10   71.04   15.90
  -9   5  10 2222.05   67.31
   9  -5 -10 2293.06   67.50
   7  -5 -10  497.20   30.74
  -7   5  10  490.10   29.28
   5  -5 -10   29.73   13.76
  -5   5  10   65.00   14.94
   3  -5 -10 2146.10   68.39
  -3   5  10 2063.58   61.24
   1  -5 -10  614.52   37.55
  -1  -5 -10  224.82   28.62
  -3  -5 -10 2035.79   73.00
  -5  -5 -10  201.74   31.35
  -7  -5 -10  496.56   39.98
  -9  -5 -10  676.27   49.57
  11   5  10  -24.76   60.56
  30  -6 -10  -19.09   23.42
  28  -6 -10  123.18   33.32
  26  -6 -10   95.60   26.93
  24  -6 -10   65.31   22.07
  22  -6 -10  314.44   30.95
 -22   6  10  329.28   31.85
  20  -6 -10    0.42   14.90
 -20   6  10  -10.44   12.25
 -18   6  10  283.92   27.71
  18  -6 -10  265.22   26.13
  16  -6 -10  312.69   26.61
 -16   6  10  265.18   26.72
 -14   6  10   53.42   16.54
  14  -6 -10   54.62   15.48
  12  -6 -10  360.13   27.41
 -12   6  10  406.25   28.84
  10  -6 -10    8.96   11.45
 -10   6  10   39.66   13.88
  -8   6  10  102.10   19.11
   8  -6 -10   65.22   16.90
  -6   6  10 1646.61   54.40
   6  -6 -10 1577.14   58.61
  -4   6  10  539.59   29.96
   4  -6 -10  559.94   35.27
   2  -6 -10  151.59   24.51
   0  -6 -10  731.31   42.29
  -2  -6 -10   42.90   17.93
  -4  -6 -10  -10.79   13.26
  -6  -6 -10  261.92   35.29
  -8  -6 -10   94.30   25.55
 -10  -6 -10   42.72   25.10
  29  -7 -10  -20.71   21.87
  27  -7 -10  123.02   29.32
  25  -7 -10  275.52   37.37
  23  -7 -10   -8.56   14.71
  21  -7 -10  277.36   35.08
  19  -7 -10  290.66   28.85
 -19   7  10  283.17   29.24
  17  -7 -10   -7.81   11.77
 -17   7  10    6.14   13.75
  15  -7 -10  677.19   39.28
 -15   7  10  677.19   39.84
  13  -7 -10  491.89   33.82
 -13   7  10  433.39   31.01
 -11   7  10  107.40   19.84
  11  -7 -10   47.38   16.12
  -9   7  10  580.04   33.00
   9  -7 -10  567.72   35.58
   7  -7 -10  128.96   22.37
  -7   7  10  149.01   21.25
   5  -7 -10  144.66   23.62
  -5   7  10  162.25   20.50
   3  -7 -10  938.30   48.49
   1  -7 -10  331.74   30.49
  -1  -7 -10   60.99   20.56
  -3  -7 -10  456.77   36.43
  -5  -7 -10   12.24   18.63
  -7  -7 -10  100.56   26.64
  -9  -7 -10  311.00   43.68
 -11  -7 -10  -37.32   20.28
  28  -8 -10  387.65   47.56
  26  -8 -10  193.21   34.21
  24  -8 -10  249.80   36.97
  22  -8 -10  733.64   48.17
  20  -8 -10   -1.31   14.51
 -18   8  10 1088.54   54.37
  18  -8 -10 1092.29   53.21
 -16   8  10 1220.28   55.99
  16  -8 -10 1254.96   56.33
  14  -8 -10   10.24   13.18
 -14   8  10   30.45   15.97
 -12   8  10  864.31   43.91
  12  -8 -10  896.26   45.99
  10  -8 -10  828.26   43.93
 -10   8  10  783.59   40.25
   8  -8 -10   10.87   14.33
  -8   8  10   40.43   15.10
  -6   8  10 1390.68   50.90
   6  -8 -10 1500.85   61.13
   4  -8 -10 1007.77   50.51
   2  -8 -10  202.95   29.88
   0  -8 -10 1383.22   62.24
  -2  -8 -10  222.74   31.93
  -4  -8 -10  167.31   29.82
  -6  -8 -10  646.29   47.22
  -8  -8 -10   17.62   20.47
 -10  -8 -10  245.71   42.34
  27  -9 -10   -2.32   22.42
  25  -9 -10  -41.89   15.30
  23  -9 -10    6.82   19.34
  21  -9 -10    5.66   15.80
  19  -9 -10  -13.72   12.21
  17  -9 -10   17.84   16.90
 -15   9  10   14.64   13.76
  15  -9 -10  -12.38   11.09
 -13   9  10   20.54   14.65
  13  -9 -10    1.74   14.93
 -11   9  10   22.51   13.92
  11  -9 -10   -7.49   12.07
  -9   9  10   23.26   13.55
   9  -9 -10   20.11   14.64
   7  -9 -10   39.24   18.41
  -7   9  10   61.07   16.31
   5  -9 -10   -1.28   14.94
   3  -9 -10   -1.88   14.30
   1  -9 -10    3.70   14.52
  -1  -9 -10  -13.26   14.26
  -3  -9 -10   -5.54   15.37
  -5  -9 -10   -9.32   18.54
  -7  -9 -10    2.10   19.70
  -9  -9 -10   -5.79   21.86
  26 -10 -10   62.30   28.11
  24 -10 -10  134.60   30.71
  22 -10 -10  585.89   45.60
  20 -10 -10   49.98   20.37
  18 -10 -10  358.21   40.46
  16 -10 -10  789.26   48.20
  14 -10 -10  -19.68   13.79
  12 -10 -10  866.23   49.29
 -12  10  10  801.90   44.12
  10 -10 -10 1179.47   56.95
 -10  10  10 1082.94   50.04
   8 -10 -10  -14.50   13.16
   6 -10 -10  745.67   46.43
   4 -10 -10  336.86   37.70
   2 -10 -10  210.09   34.08
   0 -10 -10  689.97   47.51
  -2 -10 -10  216.08   34.83
  -4 -10 -10   63.44   24.70
  -6 -10 -10  490.71   45.92
  -8 -10 -10   28.78   23.95
  25 -11 -10  343.79   44.87
  23 -11 -10   31.85   22.95
  21 -11 -10  124.90   28.77
  19 -11 -10  365.01   42.03
  17 -11 -10    1.06   16.14
  15 -11 -10  283.54   35.97
  13 -11 -10  504.15   40.09
  11 -11 -10    4.14   15.38
   9 -11 -10  349.82   34.02
   7 -11 -10  354.54   34.74
   5 -11 -10  102.14   25.29
   3 -11 -10  748.11   49.89
   1 -11 -10  139.64   31.43
  -1 -11 -10   90.73   28.10
  -3 -11 -10  288.14   41.67
  -5 -11 -10   50.88   23.88
  24 -12 -10   52.80   25.51
  22 -12 -10   86.70   26.63
  20 -12 -10   15.86   20.64
  18 -12 -10   39.65   21.96
  16 -12 -10   33.61   20.95
  14 -12 -10   -1.54   15.40
  12 -12 -10  206.77   34.30
  10 -12 -10    1.12   16.94
   8 -12 -10  -16.60   13.94
   6 -12 -10  208.09   34.06
   4 -12 -10   86.24   25.70
   2 -12 -10   48.72   26.76
   0 -12 -10  100.01   31.85
  -2 -12 -10  -17.27   19.08
  -4 -12 -10   29.23   23.05
  21 -13 -10  298.60   41.61
  19 -13 -10  436.57   41.81
  17 -13 -10    1.49   18.15
  15 -13 -10  434.68   40.55
  13 -13 -10  454.92   41.14
  11 -13 -10    9.91   18.78
   9 -13 -10  675.01   48.89
   7 -13 -10  364.71   43.94
   5 -13 -10  101.72   29.11
   3 -13 -10  667.35   51.22
   1 -13 -10  348.82   44.53
  -1 -13 -10  137.80   35.70
  -3 -13 -10  533.76   47.99
  18 -14 -10    2.95   20.49
  16 -14 -10   54.74   25.00
  14 -14 -10  -21.97   17.83
  12 -14 -10   92.70   28.16
  10 -14 -10   57.61   24.38
   8 -14 -10   16.04   21.37
   6 -14 -10   74.69   25.57
   4 -14 -10   19.08   22.19
   2 -14 -10    7.07   23.42
   0 -14 -10   58.02   28.10
  15 -15 -10  273.51   42.50
  13 -15 -10  173.86   35.08
  11 -15 -10   36.29   24.05
   9 -15 -10  440.75   43.81
   7 -15 -10  221.87   40.45
   5 -15 -10   59.89   29.63
 -18 -14  11    1.95   22.00
 -16 -14  11  395.35   50.11
 -14 -14  11  374.04   48.61
 -12 -14  11   34.21   25.14
 -10 -14  11  730.00   56.27
  -8 -14  11  369.83   49.12
  -6 -14  11   87.86   31.97
  -4 -14  11  583.79   53.28
 -21 -13  11    2.16   24.05
 -19 -13  11   -2.86   21.93
 -17 -13  11   -2.02   22.28
 -15 -13  11   -1.33   19.56
 -13 -13  11   40.69   25.24
 -11 -13  11  -13.40   18.33
  -9 -13  11    2.56   19.40
  -7 -13  11   46.99   24.80
  -5 -13  11   -1.86   22.01
  -3 -13  11   -1.12   21.00
  -1 -13  11  -23.25   23.40
 -22 -12  11  216.45   38.67
 -20 -12  11  393.08   48.92
 -18 -12  11   -5.39   17.28
 -16 -12  11  437.96   42.27
 -14 -12  11  389.27   46.28
 -12 -12  11    9.83   19.74
 -10 -12  11  709.84   51.43
  -8 -12  11  374.25   39.88
  -6 -12  11  141.92   32.67
  -4 -12  11  968.19   62.47
  -2 -12  11  337.58   48.25
   0 -12  11   95.73   32.64
   2 -12  11  497.80   52.73
 -25 -11  11  187.53   36.69
 -23 -11  11  304.00   42.26
 -21 -11  11  -12.83   17.72
 -19 -11  11  210.88   35.72
 -17 -11  11  280.05   39.37
 -15 -11  11   30.81   20.40
 -13 -11  11  503.37   43.26
 -11 -11  11  272.63   38.22
  -9 -11  11   -2.74   18.41
  -7 -11  11  433.60   41.11
  -5 -11  11   69.84   27.14
  -3 -11  11   38.53   24.99
  -1 -11  11  379.79   50.16
   1 -11  11   34.23   27.35
   3 -11  11   98.71   34.54
 -26 -10  11  165.58   34.92
 -24 -10  11   52.59   25.78
 -22 -10  11   74.06   26.86
 -20 -10  11   76.93   25.22
 -18 -10  11   -0.39   17.25
 -16 -10  11  233.95   35.44
 -14 -10  11  267.66   35.28
 -12 -10  11   -9.40   16.29
 -10 -10  11  182.31   30.80
  -8 -10  11   86.24   23.26
  -6 -10  11    9.20   18.64
  -4 -10  11  156.37   33.66
  -2 -10  11   -5.42   19.05
   0 -10  11   73.47   28.70
   2 -10  11  111.25   35.64
   4 -10  11   20.14   27.11
   6 -10  11   42.38   28.98
 -27  -9  11   43.03   24.75
 -25  -9  11  275.67   40.63
 -23  -9  11  465.70   40.40
 -21  -9  11   34.63   21.30
 -19  -9  11  391.10   36.69
 -17  -9  11  720.16   42.95
 -17  -9  11  683.50   47.31
 -15  -9  11   52.03   21.23
 -13  -9  11 1163.62   59.08
 -11  -9  11 1149.35   58.16
  -9  -9  11   -4.81   12.35
  -7  -9  11 1486.22   67.51
  -5  -9  11  336.13   35.79
  -3  -9  11  289.61   38.63
  -1  -9  11  905.22   58.29
   1  -9  11  323.99   44.92
   3  -9  11  220.81   39.94
   5  -9  11  813.35   60.30
   7  -9  11   -9.11   22.51
 -28  -8  11   78.02   26.23
 -26  -8  11  186.90   34.38
 -24  -8  11    2.72   18.12
 -22  -8  11   80.25   23.44
 -20  -8  11   91.51   24.84
 -18  -8  11    0.38   13.37
 -18  -8  11   -1.30   14.52
 -16  -8  11  279.48   34.26
 -16  -8  11  295.70   30.47
 -14  -8  11  104.54   25.05
 -12  -8  11   11.06   14.89
 -10  -8  11    6.04   14.37
  -8  -8  11  -21.20   11.99
  -6  -8  11    1.17   15.45
  -4  -8  11  201.01   31.91
  -2  -8  11   34.47   21.14
   0  -8  11   86.18   27.47
   2  -8  11   47.44   25.43
   4  -8  11   -2.26   20.75
   6  -8  11   16.41   24.39
   8  -8  11  -14.23   21.22
 -29  -7  11  455.50   41.55
 -27  -7  11  141.85   29.46
 -25  -7  11  232.82   33.46
 -23  -7  11  621.92   43.43
 -21  -7  11   -0.49   14.23
 -19  -7  11  589.08   40.82
 -19  -7  11  572.98   37.68
 -17  -7  11 1249.06   58.30
 -17  -7  11 1341.93   57.33
 -15  -7  11  -12.45   12.29
 -15  -7  11  -19.21   11.61
 -13  -7  11  680.36   41.54
 -11  -7  11  769.69   44.19
  -9  -7  11   28.26   15.68
  -7  -7  11  690.05   42.69
  -5  -7  11  518.44   39.11
  -3  -7  11  196.35   31.03
  -1  -7  11 1006.03   57.50
   1  -7  11  304.07   39.65
   3  -7  11   82.11   28.23
   5  -7  11  656.74   50.30
   7  -7  11   34.30   24.08
   9  -7  11   83.84   28.76
 -30  -6  11   19.79   21.27
 -28  -6  11  222.92   34.35
 -26  -6  11  552.12   41.27
 -24  -6  11   17.52   18.30
 -22  -6  11  328.42   31.03
 -20  -6  11 1184.03   55.51
 -20  -6  11 1206.08   53.67
 -18  -6  11    5.62   12.84
 -18  -6  11   18.48   15.54
 -16  -6  11  959.37   47.86
 -16  -6  11 1030.41   49.94
 -14  -6  11  754.82   42.98
 -14  -6  11  790.32   43.37
 -12  -6  11  152.57   25.15
 -10  -6  11  729.05   40.79
  -8  -6  11 1025.37   49.21
  -6  -6  11  242.29   30.25
  -4  -6  11 1810.23   71.08
  -2  -6  11  541.73   40.50
   0  -6  11  285.43   39.43
   2  -6  11 1007.59   57.55
   4  -6  11   61.50   25.15
   6  -6  11  393.12   47.09
   8  -6  11  364.87   44.67
  10  -6  11  -12.86   20.93
 -29  -5  11   53.64   23.20
 -27  -5  11   -0.03   16.10
 -25  -5  11   -9.01   15.04
 -23  -5  11   48.38   18.87
 -23  -5  11   68.88   21.00
 -21  -5  11   32.50   16.70
 -21  -5  11   22.14   16.58
 -19  -5  11   97.97   21.60
 -19  -5  11   39.99   16.09
 -17  -5  11   33.76   16.34
 -17  -5  11    4.48   12.67
 -15  -5  11   74.48   17.82
 -15  -5  11   53.26   18.06
 -13  -5  11    0.73   11.52
 -13  -5  11    0.43   12.90
 -11  -5  11   -0.76   11.17
  -9  -5  11    7.87   12.66
  -7  -5  11  735.29   40.62
  -5  -5  11  245.64   29.57
  -3  -5  11   42.31   17.35
  -1  -5  11   75.27   24.31
   1  -5  11   14.35   17.90
   3  -5  11   38.01   20.63
   5  -5  11   61.81   23.11
   7  -5  11    6.19   18.38
   9  -5  11   10.83   21.31
 -26  -4  11  809.63   46.82
 -24  -4  11   66.67   19.35
 -24  -4  11   13.13   13.96
 -22  -4  11  745.13   42.17
 -22  -4  11  701.77   40.23
 -20  -4  11 1176.89   52.21
 -20  -4  11 1289.87   52.10
 -18  -4  11   -7.27   10.64
 -18  -4  11    5.98   11.51
 -16  -4  11 1501.80   55.48
 -16  -4  11 1487.95   59.00
 -14  -4  11 1605.91   56.95
 -14  -4  11 1545.54   60.46
 -12  -4  11  358.53   29.92
 -12  -4  11  392.41   28.49
 -10  -4  11 2389.86   71.30
  -8  -4  11  789.91   39.91
  -6  -4  11  159.11   23.00
  -4  -4  11 2023.50   70.61
  -2  -4  11  359.27   31.43
   0  -4  11  886.35   48.61
   2  -4  11 2195.17   80.55
   4  -4  11  211.55   31.55
   6  -4  11  499.75   40.00
 -25  -3  11   23.73   15.21
 -23  -3  11  161.91   23.65
 -23  -3  11  114.24   23.64
 -21  -3  11   13.54   15.57
 -21  -3  11   31.40   14.99
 -19  -3  11  191.33   26.49
 -19  -3  11  205.19   21.45
 -17  -3  11  284.17   26.12
 -17  -3  11  303.95   24.36
 -15  -3  11   10.15   10.21
 -15  -3  11   -7.16   10.64
 -13  -3  11  505.03   33.78
 -13  -3  11  485.55   29.66
 -11  -3  11  558.64   31.38
 -11  -3  11  514.36   34.85
  -9  -3  11  138.05   20.05
  -7  -3  11  676.16   35.88
  -5  -3  11  443.22   30.82
  -3  -3  11    8.23   14.30
  -1  -3  11  584.80   38.19
   1  -3  11  180.57   27.51
   3  -3  11   94.73   23.73
 -26  -2  11  296.98   29.24
 -24  -2  11   18.62   14.54
 -22  -2  11  830.79   44.09
 -20  -2  11  644.40   33.32
 -20  -2  11  580.60   36.96
 -18  -2  11   -6.62    8.43
 -18  -2  11  -10.21   10.20
 -16  -2  11  783.89   34.67
 -16  -2  11  742.77   40.22
 -14  -2  11  896.54   44.22
 -14  -2  11  879.67   36.75
 -12  -2  11    9.14    9.94
 -12  -2  11    7.39   10.90
 -10  -2  11 1321.14   54.81
 -10  -2  11 1425.85   47.81
  -8  -2  11  733.57   34.85
  -6  -2  11    0.43    9.95
  -4  -2  11 1068.42   45.82
  -2  -2  11  278.90   25.56
   0  -2  11  380.26   30.47
 -27  -1  11   56.93   22.26
 -25  -1  11  279.42   28.49
 -23  -1  11  950.97   47.92
 -21  -1  11  104.79   21.39
 -19  -1  11  871.69   44.49
 -17  -1  11 1358.06   54.66
 -15  -1  11    8.22    9.02
 -15  -1  11   -1.03    9.80
 -13  -1  11 1765.33   51.29
 -13  -1  11 1777.36   63.03
 -11  -1  11  850.00   34.36
 -11  -1  11  847.64   42.75
  -9  -1  11  249.22   24.76
  -9  -1  11  252.90   19.82
  -7  -1  11 1651.14   51.84
  -5  -1  11  995.39   40.86
   5   1 -11  923.68   33.70
   3   1 -11  237.14   19.85
  -3  -1  11  249.22   23.34
   1   1 -11 1688.90   54.24
  -1  -1  11 1768.01   61.91
   1  -1  11  613.49   39.23
   3  -1  11  584.79   41.32
   5  -1  11 1255.14   61.22
   7  -1  11  108.98   30.02
 -28   0  11  -18.62   14.19
  26   0 -11    0.40   16.21
 -26   0  11  -12.63   13.60
  24   0 -11   -7.06   13.81
 -24   0  11   -8.05   11.75
  22   0 -11   -0.37   12.50
 -22   0  11  -10.67   10.63
 -20   0  11  -12.40   10.20
  20   0 -11   -9.27   10.41
  18   0 -11    4.15   10.16
 -18   0  11   -9.38   10.39
  16   0 -11   11.39    8.96
 -16   0  11   10.95    9.64
  14   0 -11    0.44    7.75
 -14   0  11  -13.90    8.20
  12   0 -11   -1.83    7.39
 -12   0  11    1.34   10.39
 -10   0  11   -0.82   10.58
  10   0 -11  -12.25    6.81
  -8   0  11  -11.64    7.85
  -8   0  11   -8.77    9.01
   8   0 -11   -0.90    7.86
  -6   0  11  -13.13    9.30
   6   0 -11   -8.59    7.48
  -6   0  11   -9.13    7.93
  -4   0  11   -1.57    9.06
   4   0 -11   -4.10    8.66
  -2   0  11  -13.45    8.93
   2   0 -11   -7.67    8.72
   0   0 -11   -0.43   11.35
  -2   0 -11    4.38   12.30
   4   0  11  -14.95   18.79
   6   0  11  -22.82   20.24
   8   0  11  -11.44   24.07
  10   0  11    0.22   27.50
  31  -1 -11  116.40   32.42
  29  -1 -11  552.71   44.32
 -29   1  11  513.81   41.52
 -27   1  11   58.96   21.21
  27  -1 -11   58.50   21.13
 -25   1  11  274.38   29.44
  25  -1 -11  350.06   36.68
 -23   1  11  900.99   47.62
  23  -1 -11 1007.98   46.13
  21  -1 -11   95.52   18.77
 -21   1  11   88.79   20.29
  19  -1 -11  806.80   36.83
 -19   1  11  776.05   41.92
  17  -1 -11 1440.95   47.72
 -17   1  11 1496.11   58.02
  15  -1 -11   -6.52    7.91
 -15   1  11    9.81   11.43
  13  -1 -11 1865.67   51.75
 -13   1  11 1859.06   64.07
  11  -1 -11  839.80   32.69
 -11   1  11  790.16   39.51
  -9   1  11  267.01   24.35
   9  -1 -11  282.31   20.54
   7  -1 -11 1750.75   50.60
  -7   1  11 1661.38   60.11
   5  -1 -11  935.22   37.62
  -5   1  11  978.76   36.63
  -5   1  11  981.27   46.08
   3  -1 -11  226.57   20.31
   1  -1 -11 1649.05   55.17
  -1  -1 -11  471.78   32.04
  -3  -1 -11  497.83   35.18
   5   1  11 1402.84   75.66
   7   1  11  143.78   40.13
   9   1  11  654.30   58.05
  11   1  11  800.53   69.77
  32  -2 -11  112.49   35.33
  30  -2 -11   -0.66   20.50
 -28   2  11   75.58   23.67
  28  -2 -11   75.35   26.84
 -26   2  11  306.34   31.28
  26  -2 -11  289.01   35.68
  24  -2 -11   24.79   17.35
 -24   2  11    8.28   16.23
 -22   2  11  748.92   43.49
  22  -2 -11  840.03   42.62
 -20   2  11  604.25   37.63
  20  -2 -11  618.29   34.84
  18  -2 -11  -13.32    9.32
 -18   2  11   -0.81   10.95
 -16   2  11  743.33   40.22
  16  -2 -11  805.08   35.32
  14  -2 -11  863.43   35.76
 -14   2  11  810.66   41.25
 -12   2  11   -2.06    9.44
  12  -2 -11    4.84    9.27
  10  -2 -11 1393.99   46.00
 -10   2  11 1372.08   53.19
   8  -2 -11  755.74   33.27
  -8   2  11  767.57   39.00
   6  -2 -11   -8.31    8.83
  -6   2  11    9.41   12.80
  -4   2  11  973.20   44.26
   4  -2 -11 1009.09   41.58
  -2   2  11  226.93   23.61
   2  -2 -11  253.81   22.58
   0  -2 -11  325.52   26.36
   0   2  11  308.80   27.02
  -2  -2 -11  633.74   38.44
  -4  -2 -11   10.04   15.31
   8   2  11  679.05   65.73
  10   2  11  132.68   45.04
  31  -3 -11   42.02   25.69
  29  -3 -11  108.15   27.57
 -27   3  11    9.64   17.63
  27  -3 -11    3.09   18.20
  25  -3 -11   39.44   19.00
 -25   3  11   49.64   19.42
 -23   3  11   95.76   23.11
  23  -3 -11  111.96   22.24
  21  -3 -11    5.78   13.10
 -21   3  11   24.34   15.02
  19  -3 -11  183.62   24.31
 -19   3  11  169.38   24.58
 -17   3  11  325.41   27.64
  17  -3 -11  302.40   24.34
  15  -3 -11    2.21    8.97
 -15   3  11   -0.82    9.83
  13  -3 -11  503.86   28.84
 -13   3  11  456.34   31.40
 -11   3  11  541.45   32.86
  11  -3 -11  569.17   30.51
   9  -3 -11   86.96   17.20
  -9   3  11  115.41   19.95
  -7   3  11  610.36   34.44
   7  -3 -11  616.67   32.62
   5  -3 -11  422.05   28.24
  -5   3  11  456.64   30.06
  -3   3  11   10.85   12.32
   3  -3 -11    2.31   10.55
   1  -3 -11  541.04   33.47
  -1   3  11  526.00   32.30
  -1  -3 -11  161.49   25.35
  -3  -3 -11   57.92   19.14
  -5  -3 -11   42.59   20.65
   9   3  11  174.18   58.14
  11   3  11  137.97   52.83
  30  -4 -11   16.93   22.12
  28  -4 -11  174.90   34.08
  26  -4 -11  802.04   49.89
 -26   4  11  791.89   49.65
  24  -4 -11   45.79   19.37
 -24   4  11   66.13   21.91
  22  -4 -11  705.86   41.23
 -22   4  11  673.04   42.77
 -20   4  11 1200.12   55.15
  20  -4 -11 1208.41   51.33
 -18   4  11   -0.69   11.31
  18  -4 -11   -9.75    9.32
  16  -4 -11 1437.23   52.93
 -16   4  11 1477.90   57.89
  14  -4 -11 1540.21   53.65
 -14   4  11 1451.52   56.77
 -12   4  11  379.94   28.59
  12  -4 -11  379.71   26.49
 -10   4  11 2350.83   72.88
  10  -4 -11 2464.25   69.58
   8  -4 -11  720.55   37.14
  -8   4  11  801.04   38.82
   6  -4 -11  124.06   20.63
  -6   4  11  150.42   21.54
  -4   4  11 1914.28   62.19
   4  -4 -11 1966.62   63.82
   2  -4 -11  286.53   26.03
  -2   4  11  324.30   24.57
   0  -4 -11  759.06   41.25
  -2  -4 -11 1962.77   71.12
  -4  -4 -11  149.68   27.15
  -6  -4 -11  468.60   40.16
  10   4  11  104.64   61.91
  31  -5 -11   11.06   23.67
  29  -5 -11   32.95   23.34
  27  -5 -11   -7.90   16.42
 -25   5  11    2.72   13.21
  25  -5 -11    2.51   17.89
 -23   5  11   58.81   21.98
  23  -5 -11   23.56   17.60
  21  -5 -11   25.70   16.40
 -21   5  11   30.01   18.14
  19  -5 -11   36.32   15.22
 -19   5  11   57.42   17.92
 -17   5  11   23.81   15.09
  17  -5 -11   26.98   13.57
 -15   5  11   54.81   16.91
  15  -5 -11   35.07   14.70
  13  -5 -11    7.02   10.91
 -13   5  11    7.41   11.88
 -11   5  11    4.49   10.37
  11  -5 -11    1.14   10.69
   9  -5 -11    6.99   10.58
  -9   5  11    6.08    9.87
   7  -5 -11  708.49   38.51
  -7   5  11  671.06   36.33
   5  -5 -11  191.29   25.48
  -5   5  11  214.52   20.45
  -3   5  11    8.83   11.08
   3  -5 -11    3.57   13.03
   1  -5 -11   45.07   17.28
  -1  -5 -11   21.52   15.78
  -3  -5 -11   23.23   16.99
  -5  -5 -11   45.35   20.16
  -7  -5 -11  -22.15   15.67
  30  -6 -11   13.92   22.66
  28  -6 -11  180.82   35.41
  26  -6 -11  580.49   44.82
  24  -6 -11    6.35   18.69
 -24   6  11   11.32   17.66
 -22   6  11  290.77   30.67
  22  -6 -11  369.27   32.65
  20  -6 -11 1163.50   54.55
 -20   6  11 1220.79   58.12
 -18   6  11   11.76   14.37
  18  -6 -11   12.68   14.08
  16  -6 -11  971.36   46.73
 -16   6  11  890.23   45.84
  14  -6 -11  786.71   41.62
 -14   6  11  838.07   43.21
 -12   6  11  112.07   20.87
  12  -6 -11  125.08   20.80
 -10   6  11  669.86   37.09
  10  -6 -11  702.32   38.87
   8  -6 -11  991.67   46.81
  -8   6  11 1011.30   44.32
   6  -6 -11  261.76   26.07
  -6   6  11  209.26   21.67
   4  -6 -11 1573.25   61.35
   2  -6 -11  461.73   35.17
   0  -6 -11  182.16   29.08
  -2  -6 -11  905.40   50.03
  -4  -6 -11   45.26   20.56
  -6  -6 -11  341.27   41.96
  -8  -6 -11  393.37   45.88
  29  -7 -11  424.47   48.95
  27  -7 -11   74.99   26.59
  25  -7 -11  161.62   31.57
  23  -7 -11  549.70   41.97
 -21   7  11   10.27   14.99
  21  -7 -11   -1.02   15.41
 -19   7  11  573.67   40.19
  19  -7 -11  545.10   37.63
  17  -7 -11 1255.19   56.15
 -17   7  11 1271.00   57.70
  15  -7 -11   -5.27   11.43
 -15   7  11   -4.03   12.00
 -13   7  11  591.19   36.87
  13  -7 -11  559.97   36.23
 -11   7  11  723.83   39.35
  11  -7 -11  787.95   42.45
  -9   7  11    2.25   11.86
   9  -7 -11    6.36   14.55
  -7   7  11  707.04   36.46
   7  -7 -11  625.49   39.33
   5  -7 -11  488.75   35.91
   3  -7 -11  143.60   26.59
   1  -7 -11  869.72   49.48
  -1  -7 -11  214.96   32.06
  -3  -7 -11   53.78   21.64
  -5  -7 -11  676.34   47.91
  -7  -7 -11   33.40   25.41
  -9  -7 -11  115.72   32.98
  28  -8 -11   35.64   25.30
  26  -8 -11  127.75   29.76
  24  -8 -11   14.58   19.16
  22  -8 -11   47.71   20.47
  20  -8 -11   60.42   21.01
 -20   8  11  109.21   25.81
 -18   8  11    5.43   13.52
  18  -8 -11   14.00   16.56
 -16   8  11  290.93   28.91
  16  -8 -11  281.14   32.95
  14  -8 -11   78.68   21.10
 -14   8  11   93.20   22.29
 -12   8  11    3.39   11.92
  12  -8 -11    5.49   14.49
  10  -8 -11    4.93   13.38
 -10   8  11    8.52   12.92
  -8   8  11   -3.68   11.06
   8  -8 -11   -4.17   12.55
   6  -8 -11    3.91   13.48
   4  -8 -11  195.61   29.92
   2  -8 -11   10.42   16.07
   0  -8 -11   58.50   23.05
  -2  -8 -11   31.01   20.60
  -4  -8 -11  -29.06   15.72
  -6  -8 -11   15.16   19.44
  -8  -8 -11    6.94   23.73
  27  -9 -11   22.53   23.88
  25  -9 -11  197.70   35.42
  23  -9 -11  462.22   41.83
  21  -9 -11   28.67   18.73
  19  -9 -11  450.90   38.02
  17  -9 -11  610.41   42.37
 -17   9  11  642.10   42.91
 -15   9  11   36.09   18.29
  15  -9 -11   42.57   19.96
  13  -9 -11 1029.89   53.10
 -13   9  11 1188.00   54.13
 -11   9  11 1090.20   50.46
  11  -9 -11 1108.96   55.00
  -9   9  11   11.84   14.36
   9  -9 -11   -9.97   12.88
   7  -9 -11 1533.96   65.70
   5  -9 -11  323.87   38.11
   3  -9 -11  300.71   36.60
   1  -9 -11  876.45   52.90
  -1  -9 -11  256.88   37.20
  -3  -9 -11  210.76   35.61
  -5  -9 -11  728.72   52.56
  -7  -9 -11   36.82   26.06
  26 -10 -11  199.34   37.27
  24 -10 -11   -8.25   20.35
  22 -10 -11   22.56   18.10
  20 -10 -11   68.40   24.63
  18 -10 -11  -19.80   13.45
  16 -10 -11  267.84   35.59
  14 -10 -11  227.85   32.44
 -14  10  11  265.57   27.79
 -12  10  11  -16.46   10.12
  12 -10 -11   11.35   15.58
 -10  10  11  213.80   28.81
  10 -10 -11  223.07   31.95
   8 -10 -11   53.87   21.34
   6 -10 -11    2.65   16.06
   4 -10 -11  121.67   28.99
   2 -10 -11   30.65   19.48
   0 -10 -11   57.45   23.72
  -2 -10 -11   84.59   27.23
  -4 -10 -11   -2.01   22.01
  -6 -10 -11   59.33   26.78
  25 -11 -11  163.51   34.07
  23 -11 -11  260.02   39.81
  21 -11 -11   14.25   20.31
  19 -11 -11  186.03   33.58
  17 -11 -11  229.24   34.41
  15 -11 -11   11.11   16.88
  13 -11 -11  495.58   40.13
  11 -11 -11  214.66   32.78
   9 -11 -11    5.97   14.76
   7 -11 -11  408.74   44.34
   5 -11 -11   95.71   26.46
   3 -11 -11   60.77   24.92
   1 -11 -11  247.68   39.09
  -1 -11 -11   15.32   24.15
  -3 -11 -11   90.44   29.56
  22 -12 -11  277.79   41.67
  20 -12 -11  314.65   42.78
  18 -12 -11  -18.65   17.06
  16 -12 -11  417.22   40.30
  14 -12 -11  252.72   36.90
  12 -12 -11  -19.53   16.01
  10 -12 -11  762.79   51.13
   8 -12 -11  445.23   48.22
   6 -12 -11  123.92   29.65
   4 -12 -11  989.37   60.78
   2 -12 -11  255.01   38.94
   0 -12 -11   75.15   28.75
  -2 -12 -11  454.37   51.88
  21 -13 -11   17.78   21.91
  19 -13 -11  -16.40   18.04
  17 -13 -11   -1.22   18.33
  15 -13 -11  -14.81   17.54
  13 -13 -11   24.93   21.31
  11 -13 -11   -0.35   19.59
   9 -13 -11  -16.02   16.36
   7 -13 -11   32.81   22.04
   5 -13 -11   18.68   22.70
   3 -13 -11  -16.23   17.69
   1 -13 -11   -0.08   21.76
  16 -14 -11  368.92   48.15
  14 -14 -11  325.64   44.20
  12 -14 -11   60.05   28.49
  10 -14 -11  714.65   53.97
   8 -14 -11  296.68   44.57
   6 -14 -11   53.84   26.52
   4 -14 -11  513.54   48.13
 -16 -14  12    7.90   22.60
 -14 -14  12    7.24   23.53
 -12 -14  12   11.56   26.01
 -10 -14  12  -10.17   22.36
  -8 -14  12    4.78   22.94
 -19 -13  12  -25.91   19.48
 -17 -13  12  529.67   48.57
 -15 -13  12  412.99   43.02
 -13 -13  12   73.85   30.88
 -11 -13  12  962.62   62.88
  -9 -13  12  309.37   45.47
  -7 -13  12  100.67   32.31
  -5 -13  12 1065.32   69.78
  -3 -13  12  156.60   40.17
 -22 -12  12  -17.14   18.56
 -20 -12  12   99.81   29.38
 -18 -12  12    9.02   21.44
 -16 -12  12   13.13   19.51
 -14 -12  12   87.16   27.45
 -12 -12  12   25.29   22.46
 -10 -12  12    8.76   20.51
  -8 -12  12  127.14   32.37
  -6 -12  12    9.32   21.29
  -4 -12  12   10.75   22.08
  -2 -12  12   35.64   28.28
   0 -12  12   12.03   26.60
 -23 -11  12  179.05   37.80
 -21 -11  12  274.01   40.34
 -19 -11  12    1.17   17.77
 -17 -11  12  428.24   48.12
 -15 -11  12  380.85   45.66
 -13 -11  12   19.02   18.57
 -11 -11  12  598.63   47.29
  -9 -11  12  143.55   33.06
  -7 -11  12   37.00   21.66
  -5 -11  12  350.98   46.94
  -3 -11  12   78.02   29.56
  -1 -11  12   47.69   30.07
 -26 -10  12  295.35   42.98
 -24 -10  12  396.21   40.63
 -22 -10  12  -25.73   15.50
 -20 -10  12  252.52   39.36
 -18 -10  12  528.90   44.00
 -16 -10  12   26.51   19.78
 -14 -10  12  695.69   49.71
 -12 -10  12  510.03   42.44
 -10 -10  12   55.37   25.17
  -8 -10  12  977.39   57.46
  -6 -10  12  233.41   37.32
  -4 -10  12  299.35   43.20
  -2 -10  12  761.43   58.19
   0 -10  12   92.66   32.80
   2 -10  12  205.36   43.41
   4 -10  12  644.16   57.50
 -27  -9  12   16.19   22.78
 -25  -9  12   13.72   22.63
 -23  -9  12    5.84   19.65
 -21  -9  12   -8.49   16.05
 -19  -9  12    1.29   17.35
 -17  -9  12   -1.58   14.72
 -17  -9  12   -4.70   14.38
 -15  -9  12   -3.09   15.09
 -13  -9  12   -5.61   15.42
 -11  -9  12   39.98   20.27
  -9  -9  12   -3.65   15.64
  -7  -9  12   -6.75   16.55
  -5  -9  12    2.92   18.49
  -3  -9  12  -21.18   16.72
  -1  -9  12    8.98   24.17
   1  -9  12   -9.45   23.02
   3  -9  12    4.68   25.97
   5  -9  12  -16.06   25.00
 -28  -8  12  -21.52   18.58
 -26  -8  12  427.59   47.51
 -24  -8  12  526.92   43.23
 -22  -8  12   -3.01   17.27
 -20  -8  12  651.35   45.12
 -20  -8  12  612.89   41.20
 -18  -8  12  773.83   45.82
 -18  -8  12  771.39   48.40
 -16  -8  12  -23.02   12.99
 -16  -8  12  -16.53   13.63
 -14  -8  12 1049.37   55.13
 -12  -8  12  803.72   47.88
 -10  -8  12   10.26   15.06
  -8  -8  12 1139.37   57.97
  -6  -8  12  268.44   36.19
  -4  -8  12  419.51   40.27
  -2  -8  12 1239.99   67.54
   0  -8  12  265.65   41.38
   2  -8  12  265.82   43.56
   4  -8  12  923.86   63.92
   6  -8  12  -21.25   22.05
 -29  -7  12   42.05   22.46
 -27  -7  12  263.89   36.88
 -25  -7  12   59.46   22.30
 -23  -7  12  251.71   34.81
 -21  -7  12  332.58   33.43
 -21  -7  12  247.19   32.35
 -19  -7  12   -5.26   15.41
 -19  -7  12   -9.31   13.58
 -17  -7  12  498.94   36.91
 -17  -7  12  516.20   37.89
 -15  -7  12  337.96   31.50
 -15  -7  12  342.72   32.71
 -13  -7  12  -14.52   13.09
 -11  -7  12  333.93   31.08
  -9  -7  12  260.10   27.72
  -7  -7  12  118.19   26.85
  -5  -7  12  591.91   43.95
  -3  -7  12  159.78   33.31
  -1  -7  12  135.70   31.01
   1  -7  12  434.51   43.55
   3  -7  12    0.94   22.85
   5  -7  12  156.19   35.12
   7  -7  12  109.17   32.36
 -28  -6  12   11.27   18.50
 -26  -6  12   37.56   18.66
 -24  -6  12  230.17   32.73
 -22  -6  12   -2.03   14.71
 -22  -6  12   -9.12   13.43
 -20  -6  12  529.36   38.15
 -20  -6  12  526.32   37.54
 -18  -6  12  405.41   33.87
 -18  -6  12  428.74   34.72
 -16  -6  12  -12.70   10.98
 -16  -6  12  -11.83   11.98
 -14  -6  12  306.74   30.30
 -14  -6  12  435.61   33.25
 -12  -6  12  394.81   31.90
 -10  -6  12  114.88   22.08
  -8  -6  12  366.41   32.35
  -6  -6  12  122.52   25.43
  -4  -6  12   33.60   19.64
  -2  -6  12  364.72   36.09
   0  -6  12  360.69   37.61
   2  -6  12    2.20   18.98
   4  -6  12  243.88   38.64
   6  -6  12  -33.34   16.30
   8  -6  12  138.03   34.61
 -25  -5  12   16.51   17.53
 -23  -5  12  785.60   45.25
 -23  -5  12  799.06   46.12
 -21  -5  12  602.81   40.30
 -21  -5  12  627.79   39.20
 -19  -5  12   10.30   15.63
 -19  -5  12   15.92   14.34
 -17  -5  12 1167.16   54.85
 -17  -5  12 1134.41   51.76
 -15  -5  12  983.22   47.53
 -15  -5  12  930.07   48.92
 -13  -5  12  162.40   26.90
 -13  -5  12  198.93   27.26
 -11  -5  12 2616.83   79.76
  -9  -5  12 1990.99   69.46
  -7  -5  12  272.82   27.79
  -5  -5  12 2223.85   78.58
  -3  -5  12  412.83   35.50
  -1  -5  12  782.06   49.61
   1  -5  12 1046.96   58.28
   3  -5  12  141.92   30.38
   5  -5  12  389.98   38.45
   7  -5  12  494.61   44.43
 -24  -4  12   -9.62   12.97
 -22  -4  12    9.14   14.70
 -22  -4  12   -2.10   13.12
 -20  -4  12   12.00   14.23
 -20  -4  12   34.91   14.79
 -18  -4  12   47.05   16.78
 -18  -4  12   14.82   14.68
 -16  -4  12    7.12   11.29
 -16  -4  12    4.63   14.36
 -14  -4  12   90.72   19.53
 -14  -4  12   70.22   19.52
 -12  -4  12   35.47   14.95
 -12  -4  12   29.19   16.66
 -10  -4  12   26.48   14.84
  -8  -4  12  159.08   24.14
  -6  -4  12   15.07   13.93
  -4  -4  12   13.21   15.93
  -2  -4  12   34.13   20.26
   0  -4  12   -9.38   14.65
   2  -4  12    5.32   18.54
   4  -4  12    6.04   17.22
   6  -4  12    1.28   18.45
   8  -4  12   24.23   21.65
 -25  -3  12   -1.80   16.17
 -23  -3  12  798.15   45.83
 -21  -3  12 1123.53   53.26
 -19  -3  12   -8.29   11.21
 -19  -3  12   -2.07   11.24
 -17  -3  12 1071.80   44.83
 -17  -3  12  977.76   49.08
 -15  -3  12 1209.97   55.05
 -15  -3  12 1213.82   47.79
 -13  -3  12   45.99   17.54
 -13  -3  12   82.54   17.67
 -11  -3  12 1256.54   57.21
 -11  -3  12 1308.58   49.60
  -9  -3  12  848.48   40.56
  -7  -3  12  242.44   28.19
  -5  -3  12 1535.90   59.43
  -3  -3  12  247.37   29.89
  -1  -3  12  534.68   37.83
   1  -3  12  958.71   51.63
   3  -3  12  232.14   32.12
   5  -3  12  512.73   40.38
 -26  -2  12  130.11   27.28
 -24  -2  12  285.12   28.98
 -22  -2  12   78.21   20.94
 -20  -2  12  331.01   29.52
 -18  -2  12  721.55   41.77
 -16  -2  12   -2.32   11.05
 -14  -2  12 1095.49   51.59
 -14  -2  12 1080.50   42.93
 -12  -2  12  292.11   23.21
 -12  -2  12  243.71   25.88
 -10  -2  12  185.15   19.40
 -10  -2  12  170.93   24.07
  -8  -2  12  876.38   39.52
  -6  -2  12  761.58   38.87
  -4  -2  12  252.50   24.95
  -2  -2  12 1233.16   53.86
   0  -2  12  148.54   26.76
   2  -2  12  325.78   31.03
 -29  -1  12   41.61   20.64
 -27  -1  12   88.09   24.37
 -25  -1  12   16.00   16.56
 -23  -1  12   10.11   15.75
 -21  -1  12  314.10   28.94
 -19  -1  12   26.54   16.22
 -17  -1  12  190.37   26.79
 -15  -1  12  101.58   21.58
 -13  -1  12   20.26   13.64
 -11  -1  12  131.23   23.39
  -9  -1  12   36.95   16.88
  -9  -1  12   34.02   12.82
  -7  -1  12   21.86   11.86
  -5  -1  12  476.84   30.57
  -3  -1  12   24.93   14.92
  -1  -1  12   85.85   21.80
 -30   0  12  459.08   39.33
 -28   0  12   26.00   18.10
 -26   0  12  351.45   33.46
 -24   0  12 1097.79   54.30
 -22   0  12   64.78   19.41
 -20   0  12 1439.41   60.41
 -18   0  12 1117.67   51.82
 -16   0  12   23.15   14.56
 -14   0  12 1187.08   52.52
 -12   0  12  527.81   35.16
 -10   0  12  175.51   25.82
  -8   0  12 2153.13   73.90
   6   0 -12  311.57   21.71
  -6   0  12  510.96   35.40
  -4   0  12  243.11   22.34
   4   0 -12  259.64   21.68
  -2   0  12 2664.85   77.79
   2   0 -12 2527.28   70.81
   0   0 -12  207.47   25.72
 -31   1  12  -11.92   17.62
 -29   1  12   60.41   24.38
 -27   1  12  180.13   30.29
 -25   1  12    8.58   16.67
  25  -1 -12   17.64   15.95
 -23   1  12   -2.34   12.52
  23  -1 -12   15.79   13.88
  21  -1 -12  372.38   27.48
 -21   1  12  322.82   30.03
 -19   1  12   33.34   15.93
  19  -1 -12   38.99   14.69
  17  -1 -12  202.82   19.30
 -17   1  12  188.57   26.93
  15  -1 -12   83.62   15.35
 -15   1  12  109.89   19.36
 -13   1  12   50.70   16.33
  13  -1 -12   40.42   12.17
 -11   1  12  172.83   24.59
  11  -1 -12  147.55   18.44
  -9   1  12   47.48   15.74
   9  -1 -12   31.75   11.18
  -7   1  12   37.49   15.66
   7  -1 -12   18.72   11.02
  -5   1  12  468.07   33.98
   5  -1 -12  465.50   27.99
  -3   1  12   32.76   17.50
   3  -1 -12   11.71   12.54
   1  -1 -12   66.46   16.95
  -1  -1 -12  136.15   23.93
  -3  -1 -12    1.41   14.53
   5   1  12  281.96   47.04
   7   1  12  322.99   54.96
   9   1  12   -7.75   34.83
  30  -2 -12  180.45   33.34
 -30   2  12  207.05   35.43
 -28   2  12   10.63   18.62
  28  -2 -12   25.13   20.10
 -26   2  12  126.61   26.92
  26  -2 -12  126.25   24.85
 -24   2  12  289.23   35.06
  24  -2 -12  277.08   27.40
  22  -2 -12   89.80   20.06
 -22   2  12   52.89   19.07
  20  -2 -12  308.80   25.64
 -20   2  12  313.09   29.42
 -18   2  12  684.99   40.45
  18  -2 -12  670.82   34.21
  16  -2 -12    1.10   11.30
 -16   2  12    8.76   11.29
  14  -2 -12 1113.72   42.19
 -14   2  12 1026.19   48.34
  12  -2 -12  280.59   22.16
 -12   2  12  294.72   25.62
 -10   2  12  165.11   24.54
  10  -2 -12  187.76   22.04
  -8   2  12  891.63   44.24
   8  -2 -12  844.36   37.81
  -6   2  12  685.73   39.38
   6  -2 -12  776.72   36.73
   4  -2 -12  220.11   21.36
  -4   2  12  223.95   23.65
   2  -2 -12 1064.79   46.15
  -2   2  12 1051.33   49.37
   0   2  12  151.92   24.65
   0  -2 -12   79.97   18.92
  -2  -2 -12  229.56   29.33
  -4  -2 -12  368.80   39.45
   6   2  12   19.15   38.65
   8   2  12  331.67   64.73
  31  -3 -12   53.91   24.37
 -29   3  12  164.44   32.46
  29  -3 -12  137.02   30.64
 -27   3  12  550.93   42.71
  27  -3 -12  573.78   40.84
 -25   3  12   13.30   17.46
  25  -3 -12   29.93   17.23
  23  -3 -12  802.76   42.94
 -23   3  12  829.51   48.04
 -21   3  12 1020.42   51.87
  21  -3 -12 1113.96   48.78
  19  -3 -12    3.26   11.67
 -19   3  12    2.52   12.93
  17  -3 -12 1046.88   43.77
 -17   3  12  993.65   48.85
 -15   3  12 1286.89   55.09
  15  -3 -12 1220.28   47.05
  13  -3 -12   66.05   15.14
 -13   3  12   62.15   17.90
 -11   3  12 1228.97   52.65
  11  -3 -12 1329.87   48.69
   9  -3 -12  819.80   38.80
  -9   3  12  909.80   44.32
   7  -3 -12  131.07   20.35
  -7   3  12  229.79   23.21
  -5   3  12 1389.22   54.86
   5  -3 -12 1337.66   51.32
  -3   3  12  247.69   23.85
   3  -3 -12  243.28   23.58
   1  -3 -12  418.17   31.16
  -1  -3 -12  886.33   46.85
  -3  -3 -12  118.87   25.94
  -5  -3 -12  499.99   40.02
   7   3  12 2009.16  130.81
   9   3  12   18.93   55.36
  30  -4 -12   -5.60   20.26
 -28   4  12   10.58   19.57
  28  -4 -12   -2.10   16.42
 -26   4  12    4.18   15.13
  26  -4 -12   30.65   20.71
 -24   4  12   18.69   17.63
  24  -4 -12   -0.83   13.95
 -22   4  12    4.09   14.14
  22  -4 -12   36.94   16.01
 -20   4  12   15.68   14.09
  20  -4 -12   18.03   16.13
  18  -4 -12   43.28   16.07
 -18   4  12   29.54   16.34
  16  -4 -12    5.87   11.86
 -16   4  12    0.37   11.58
 -14   4  12  102.60   21.26
  14  -4 -12   55.91   16.16
 -12   4  12   49.78   17.43
  12  -4 -12    1.82   10.58
  10  -4 -12   29.19   13.71
 -10   4  12   24.83   15.60
   8  -4 -12  105.06   19.67
  -8   4  12  154.05   23.55
   6  -4 -12  -19.24   10.92
  -6   4  12    4.88   11.57
   4  -4 -12   -5.43   12.33
  -4   4  12   10.60   11.96
   2  -4 -12   17.74   15.62
   0  -4 -12  -19.99   13.15
  -2  -4 -12   17.87   17.71
  -4  -4 -12   -4.50   17.20
  -6  -4 -12   -3.15   18.93
   8   4  12  -46.20   82.20
  31  -5 -12   62.73   27.31
  29  -5 -12  367.18   43.76
  27  -5 -12  599.01   45.35
 -27   5  12  554.21   44.30
  25  -5 -12   38.58   20.60
 -25   5  12   28.14   18.43
  23  -5 -12  693.56   42.90
 -23   5  12  709.95   46.59
 -21   5  12  616.23   41.80
  21  -5 -12  616.35   39.68
  19  -5 -12    4.55   12.59
 -19   5  12   -3.54   13.05
 -17   5  12 1004.01   50.31
  17  -5 -12 1091.03   48.98
  15  -5 -12  982.16   44.89
 -15   5  12  885.58   46.15
 -13   5  12  176.77   25.98
  13  -5 -12  146.56   23.12
 -11   5  12 2585.22   80.66
  11  -5 -12 2721.93   78.83
   9  -5 -12 2085.74   68.59
  -9   5  12 2015.52   68.78
  -7   5  12  283.99   25.19
   7  -5 -12  278.13   26.74
  -5   5  12 2044.52   66.65
   5  -5 -12 2061.85   69.93
   3  -5 -12  326.24   29.23
   1  -5 -12  696.75   42.77
  -1  -5 -12  924.86   50.14
  -3  -5 -12  116.93   26.34
  -5  -5 -12  316.49   40.95
  -7  -5 -12  541.92   45.44
  30  -6 -12  111.50   31.10
  28  -6 -12   17.17   21.88
  26  -6 -12   43.26   20.84
 -26   6  12   10.29   18.05
 -24   6  12  207.36   33.95
  24  -6 -12  227.26   33.78
 -22   6  12    1.67   14.36
  22  -6 -12  -17.68   12.56
 -20   6  12  495.59   38.36
  20  -6 -12  524.89   36.62
  18  -6 -12  464.21   34.85
 -18   6  12  443.35   35.01
  16  -6 -12   -3.00   13.14
 -16   6  12    0.21   12.15
  14  -6 -12  400.97   31.52
 -14   6  12  356.82   30.08
 -12   6  12  350.13   29.62
  12  -6 -12  375.43   30.68
  10  -6 -12  103.27   20.64
 -10   6  12  104.54   20.95
  -8   6  12  304.70   26.21
   8  -6 -12  327.67   30.04
   6  -6 -12  106.80   22.15
  -6   6  12  103.00   19.75
   4  -6 -12    8.59   14.81
   2  -6 -12  318.22   35.38
   0  -6 -12  279.49   34.57
  -2  -6 -12   26.83   18.16
  -4  -6 -12  217.27   35.39
  -6  -6 -12   -0.74   20.10
  -8  -6 -12   99.30   29.27
  29  -7 -12   55.87   24.64
  27  -7 -12  280.38   38.58
  25  -7 -12   19.81   19.07
  23  -7 -12  278.79   35.97
 -23   7  12  192.21   32.98
 -21   7  12  290.45   31.20
  21  -7 -12  343.68   37.82
  19  -7 -12   33.90   16.46
 -19   7  12   -4.51   14.97
  17  -7 -12  551.05   37.73
 -17   7  12  521.91   38.00
  15  -7 -12  389.23   32.06
 -15   7  12  406.88   32.60
 -13   7  12  -17.00   12.04
  13  -7 -12   -8.21   13.04
  11  -7 -12  373.00   31.71
 -11   7  12  386.47   29.92
   9  -7 -12  231.32   31.01
  -9   7  12  250.41   24.29
  -7   7  12  120.11   22.61
   7  -7 -12  136.27   25.75
   5  -7 -12  496.57   38.18
   3  -7 -12  149.26   28.82
   1  -7 -12   96.80   24.42
  -1  -7 -12  361.41   34.38
  -3  -7 -12    3.75   19.15
  -5  -7 -12   97.72   28.93
  -7  -7 -12   88.75   27.99
  28  -8 -12   16.43   22.75
  26  -8 -12  298.06   40.35
  24  -8 -12  595.28   44.75
 -22   8  12   -3.97   16.23
  22  -8 -12    0.44   16.77
 -20   8  12  595.79   43.08
  20  -8 -12  552.56   40.58
 -18   8  12  740.78   46.10
  18  -8 -12  745.72   46.20
 -16   8  12  -19.49   12.65
  16  -8 -12    2.18   14.40
 -14   8  12  949.33   49.35
  14  -8 -12  984.11   51.00
 -12   8  12  731.27   42.05
  12  -8 -12  821.18   46.91
 -10   8  12    8.44   13.20
  10  -8 -12   -7.01   13.20
  -8   8  12 1134.94   48.98
   8  -8 -12 1036.64   53.53
   6  -8 -12  292.47   36.04
   4  -8 -12  393.09   35.34
   2  -8 -12 1063.90   57.59
   0  -8 -12  173.73   30.79
  -2  -8 -12  265.56   38.44
  -4  -8 -12  655.83   49.35
  -6  -8 -12   31.88   25.30
  27  -9 -12    0.83   20.30
  25  -9 -12   -9.91   18.38
  23  -9 -12   -9.70   14.93
  21  -9 -12  -23.29   15.17
 -19   9  12    8.35   16.74
  19  -9 -12   12.89   18.03
  17  -9 -12   -9.21   14.10
 -17   9  12   -8.65   12.89
  15  -9 -12  -13.41   14.24
 -15   9  12  -14.11   11.45
  13  -9 -12  -11.98   14.65
 -13   9  12   -2.75   13.65
 -11   9  12   33.78   16.85
  11  -9 -12   12.86   16.82
   9  -9 -12  -19.58   14.91
   7  -9 -12    1.89   15.32
   5  -9 -12  -15.72   13.92
   3  -9 -12    3.21   16.78
   1  -9 -12   20.28   19.04
  -1  -9 -12  -15.78   18.36
  -3  -9 -12    2.95   19.29
  -5  -9 -12  -30.09   17.69
  26 -10 -12  311.67   44.27
  24 -10 -12  448.67   48.60
  22 -10 -12  -11.26   16.18
  20 -10 -12  252.35   37.86
  18 -10 -12  471.51   40.05
  16 -10 -12   10.21   16.31
 -16  10  12    6.28   16.62
  14 -10 -12  610.81   44.20
 -14  10  12  638.84   41.96
  12 -10 -12  468.27   38.60
 -12  10  12  437.54   34.89
  10 -10 -12   32.79   19.33
   8 -10 -12  949.62   55.24
   6 -10 -12  154.15   30.67
   4 -10 -12  252.11   37.03
   2 -10 -12  758.87   51.80
   0 -10 -12   87.99   27.75
  -2 -10 -12  145.44   34.47
  -4 -10 -12  541.22   48.88
  23 -11 -12   98.39   28.34
  21 -11 -12  231.78   37.94
  19 -11 -12    7.09   18.39
  17 -11 -12  371.91   42.84
  15 -11 -12  380.72   37.13
 -13  11  12   13.88   15.58
  13 -11 -12   11.44   18.74
  11 -11 -12  515.96   42.25
   9 -11 -12  104.45   29.27
   7 -11 -12   88.87   26.73
   5 -11 -12  298.86   40.61
   3 -11 -12   74.82   25.88
   1 -11 -12   35.72   24.48
  -1 -11 -12  422.71   49.61
  22 -12 -12   -1.93   20.53
  20 -12 -12   96.35   28.51
  18 -12 -12   32.78   21.89
  16 -12 -12  -19.10   17.15
  14 -12 -12   68.53   24.70
  12 -12 -12   25.69   20.22
  10 -12 -12   35.92   22.34
   8 -12 -12  119.26   29.82
   6 -12 -12   23.04   21.60
   4 -12 -12    3.34   19.46
   2 -12 -12    3.33   23.26
   0 -12 -12   -2.60   22.84
  19 -13 -12  -10.05   19.09
  17 -13 -12  474.34   44.72
  15 -13 -12  407.85   49.51
  13 -13 -12  100.53   31.31
  11 -13 -12  865.51   58.07
   9 -13 -12  301.05   43.78
   7 -13 -12   64.43   27.96
   5 -13 -12  978.21   63.63
   3 -13 -12  115.78   33.57
  14 -14 -12   11.04   23.09
  12 -14 -12   30.23   22.96
  10 -14 -12   -2.32   22.78
   8 -14 -12   11.52   22.92
 -17 -13  13  -14.26   20.52
 -15 -13  13   23.64   23.52
 -13 -13  13  -12.81   20.80
 -11 -13  13  -10.56   21.69
  -9 -13  13   -8.22   21.50
  -7 -13  13    9.38   23.30
 -20 -12  13  -37.09   16.64
 -18 -12  13  418.70   44.17
 -16 -12  13  525.49   47.44
 -14 -12  13   78.64   29.73
 -12 -12  13  730.40   54.76
 -10 -12  13  382.78   46.41
  -8 -12  13  112.32   32.16
  -6 -12  13  743.99   58.59
  -4 -12  13  221.28   43.33
 -23 -11  13  -18.88   20.18
 -21 -11  13  234.20   38.05
 -19 -11  13  124.62   32.57
 -17 -11  13   49.70   24.27
 -15 -11  13  278.57   41.49
 -13 -11  13   72.25   27.96
 -11 -11  13  124.99   32.23
  -9 -11  13  413.42   42.20
  -7 -11  13  153.97   35.51
  -5 -11  13   67.46   26.94
  -3 -11  13  188.44   40.52
  -1 -11  13    3.41   29.11
 -24 -10  13   23.93   24.96
 -22 -10  13   81.35   26.80
 -20 -10  13    7.85   19.60
 -18 -10  13   74.56   24.91
 -18 -10  13   90.89   26.65
 -16 -10  13   58.59   24.17
 -14 -10  13    6.51   20.97
 -12 -10  13  199.38   35.76
 -10 -10  13   81.58   26.35
  -8 -10  13  -14.82   15.31
  -6 -10  13  177.65   35.80
  -4 -10  13   27.43   27.46
  -2 -10  13   32.04   28.84
   0 -10  13  106.61   35.06
 -27  -9  13  247.78   41.03
 -25  -9  13  616.85   48.42
 -23  -9  13  -12.10   16.99
 -21  -9  13  465.80   42.21
 -19  -9  13  534.40   43.32
 -19  -9  13  494.02   40.38
 -17  -9  13   36.76   20.65
 -17  -9  13    1.36   17.44
 -15  -9  13  896.21   54.42
 -13  -9  13  658.31   47.76
 -11  -9  13  236.26   35.30
  -9  -9  13  936.54   55.97
  -7  -9  13  140.46   30.88
  -5  -9  13  355.35   45.34
  -3  -9  13 1092.77   67.44
  -1  -9  13  145.07   36.90
   1  -9  13  494.92   58.10
 -28  -8  13    0.04   19.73
 -26  -8  13  -22.26   15.97
 -24  -8  13   42.48   21.09
 -22  -8  13    2.25   17.34
 -20  -8  13   -4.89   16.64
 -20  -8  13   15.30   18.51
 -18  -8  13   19.91   20.19
 -18  -8  13   31.28   21.02
 -16  -8  13   63.74   22.73
 -16  -8  13   28.37   19.23
 -14  -8  13    2.67   16.74
 -12  -8  13   27.42   18.32
 -10  -8  13   20.90   18.38
  -8  -8  13  123.09   29.03
  -6  -8  13  124.92   29.59
  -4  -8  13   -4.70   19.13
  -2  -8  13   10.71   20.99
   0  -8  13  -17.32   19.86
   2  -8  13  -10.32   22.92
   4  -8  13   13.16   28.26
 -27  -7  13  235.66   37.61
 -25  -7  13  282.66   37.12
 -23  -7  13   -5.35   16.55
 -21  -7  13  631.71   43.69
 -21  -7  13  585.71   43.05
 -19  -7  13  236.20   33.80
 -19  -7  13  276.54   35.19
 -17  -7  13   17.23   15.02
 -17  -7  13   -2.90   15.41
 -15  -7  13  583.84   42.31
 -15  -7  13  652.43   43.79
 -13  -7  13  476.46   37.64
 -11  -7  13   35.24   18.77
  -9  -7  13  640.33   43.09
  -7  -7  13  174.38   30.33
  -5  -7  13  302.51   39.86
  -3  -7  13  808.62   55.08
  -1  -7  13  114.57   33.23
   1  -7  13  222.16   40.42
   3  -7  13  399.04   52.42
   5  -7  13  -13.59   22.90
 -24  -6  13  367.19   34.98
 -22  -6  13  382.76   34.72
 -22  -6  13  377.26   34.43
 -20  -6  13   11.38   17.11
 -20  -6  13    1.87   14.61
 -18  -6  13  704.88   44.08
 -18  -6  13  750.95   46.61
 -16  -6  13  588.58   39.91
 -16  -6  13  553.57   40.35
 -14  -6  13   58.58   21.79
 -14  -6  13  120.32   25.01
 -12  -6  13 1232.76   55.97
 -10  -6  13  334.08   31.42
  -8  -6  13  181.58   29.45
  -6  -6  13  906.81   52.45
  -4  -6  13  158.81   32.08
  -2  -6  13  515.08   44.12
   0  -6  13  940.35   59.77
   2  -6  13   88.29   29.20
   4  -6  13  361.65   47.43
 -25  -5  13   -6.28   16.15
 -23  -5  13  -18.20   13.64
 -21  -5  13  -12.28   13.71
 -21  -5  13   -4.15   14.24
 -19  -5  13   67.17   21.75
 -19  -5  13   98.29   21.69
 -17  -5  13    1.78   14.73
 -17  -5  13   15.92   13.20
 -15  -5  13   96.09   21.73
 -15  -5  13   45.08   19.54
 -13  -5  13   72.38   21.94
 -13  -5  13   81.49   19.05
 -11  -5  13  177.89   25.68
  -9  -5  13   26.04   16.97
  -7  -5  13  -12.26   13.92
  -5  -5  13   12.75   18.07
  -3  -5  13   96.42   25.85
  -1  -5  13   15.25   19.64
   1  -5  13  -10.79   20.26
   3  -5  13   48.89   23.90
   5  -5  13  -12.38   17.80
 -26  -4  13    4.72   16.55
 -24  -4  13  814.40   48.90
 -22  -4  13 1010.37   52.74
 -20  -4  13   -4.71   12.91
 -18  -4  13 1350.43   55.32
 -18  -4  13 1343.82   60.95
 -16  -4  13  755.10   40.71
 -16  -4  13  789.53   46.73
 -14  -4  13   84.55   22.30
 -14  -4  13  139.89   23.56
 -12  -4  13 2405.35   75.10
 -12  -4  13 2389.81   85.64
 -10  -4  13 1026.57   47.91
  -8  -4  13  132.68   24.04
  -6  -4  13 2070.34   74.32
  -4  -4  13  419.85   35.24
  -2  -4  13  366.28   35.13
   0  -4  13 1141.38   60.85
   2  -4  13   82.51   27.11
   4  -4  13  581.35   45.76
   6  -4  13  612.39   47.95
 -27  -3  13   58.42   23.04
 -25  -3  13  146.25   27.91
 -23  -3  13    9.21   15.43
 -21  -3  13  140.63   26.03
 -19  -3  13   75.29   21.78
 -17  -3  13   -3.74   11.69
 -15  -3  13  536.80   38.63
 -13  -3  13  197.52   24.14
 -13  -3  13  183.33   26.19
 -11  -3  13   -1.46   10.39
 -11  -3  13    3.28   14.37
  -9  -3  13  501.62   32.47
  -7  -3  13   -1.20   12.14
  -5  -3  13  256.11   32.31
  -3  -3  13  505.12   37.72
  -1  -3  13   13.66   17.17
   1  -3  13   31.13   20.73
   3  -3  13  168.20   31.41
   5  -3  13  -10.32   17.03
   7  -3  13   36.76   24.11
 -28  -2  13  318.20   32.66
 -26  -2  13   20.94   17.60
 -24  -2  13  311.51   31.11
 -22  -2  13  391.29   33.85
 -20  -2  13  -12.23   11.35
 -18  -2  13  257.86   27.10
 -16  -2  13  562.97   39.04
 -14  -2  13   18.08   14.77
 -12  -2  13  816.34   46.45
 -10  -2  13  271.40   29.18
  -8  -2  13  653.62   36.42
  -6  -2  13  904.19   44.84
  -4  -2  13  252.75   30.54
  -2  -2  13  326.17   36.20
   0  -2  13  476.07   38.08
   2  -2  13   68.81   23.45
   4  -2  13  367.40   34.49
 -29  -1  13   41.95   20.01
 -27  -1  13  204.85   32.83
 -25  -1  13  467.54   37.46
 -23  -1  13    4.71   13.70
 -21  -1  13 1338.40   60.83
 -19  -1  13 1071.25   52.82
 -17  -1  13   19.42   15.28
 -15  -1  13 1122.46   54.21
 -13  -1  13  508.52   37.00
 -11  -1  13   41.20   17.39
  -9  -1  13 1265.41   59.04
  -7  -1  13  856.84   48.93
  -3  -1  13 1641.29   62.51
  -1  -1  13   54.93   20.22
   1  -1  13  398.34   34.02
 -30   0  13    0.14   18.97
 -28   0  13   -5.38   15.34
 -26   0  13   -0.89   16.00
 -24   0  13   -7.91   13.22
 -22   0  13    3.78   13.42
 -20   0  13  -17.63   12.06
 -18   0  13   -7.66    8.92
 -16   0  13   -1.41   12.32
 -14   0  13  -17.67   10.22
 -12   0  13   -1.44   11.79
 -10   0  13  -15.12   11.10
  -8   0  13  -18.16   11.42
  -6   0  13  -21.96   11.48
 -31   1  13  304.87   41.81
 -29   1  13   50.54   24.47
 -27   1  13  244.28   34.64
 -25   1  13  450.66   37.13
 -23   1  13   -7.02   13.68
 -21   1  13 1227.39   57.78
 -19   1  13 1099.50   54.12
 -17   1  13   37.29   17.33
 -15   1  13 1141.89   53.99
 -13   1  13  424.44   33.19
 -11   1  13   51.94   17.64
  -9   1  13 1265.06   57.18
  -7   1  13  856.71   46.79
  -5   1  13  473.01   35.54
  -3   1  13 1379.20   60.95
 -30   2  13  270.53   40.99
 -28   2  13  313.94   40.75
 -26   2  13   14.15   15.51
 -24   2  13  311.34   32.03
 -22   2  13  349.02   32.03
  22  -2 -13  399.65   29.83
  20  -2 -13   -6.86   10.98
 -20   2  13  -12.40   11.23
 -18   2  13  218.24   29.79
  18  -2 -13  290.73   24.36
 -16   2  13  539.04   37.35
  16  -2 -13  500.02   29.99
  14  -2 -13   32.59   13.97
 -14   2  13   29.22   15.01
  12  -2 -13  797.89   36.93
 -12   2  13  834.26   45.34
 -10   2  13  270.57   27.24
  10  -2 -13  290.75   23.81
   8  -2 -13  588.71   32.73
  -8   2  13  604.89   38.87
  -6   2  13  827.45   45.76
   6  -2 -13  885.61   41.23
   4  -2 -13  180.65   23.64
  -4   2  13  187.06   29.74
  -2   2  13  281.02   27.87
   2  -2 -13  266.27   25.29
   0  -2 -13  466.95   34.75
  -2  -2 -13   37.39   18.15
   6   2  13  940.68   86.33
 -31   3  13   22.09   23.12
  29  -3 -13  -18.87   17.19
 -29   3  13   -0.41   18.24
 -27   3  13   92.17   25.78
  27  -3 -13   77.53   23.44
 -25   3  13  139.87   28.55
  25  -3 -13   71.40   20.00
 -23   3  13   -0.05   14.35
  23  -3 -13    4.81   14.01
  21  -3 -13  145.84   23.80
 -21   3  13  127.69   25.80
  19  -3 -13   82.74   17.82
 -19   3  13  113.75   23.29
 -17   3  13    5.72   13.15
  17  -3 -13   10.26   12.80
 -15   3  13  572.41   38.60
  15  -3 -13  592.62   33.76
 -13   3  13  175.51   26.63
  13  -3 -13  143.12   21.81
  11  -3 -13    6.24   11.55
 -11   3  13   -4.82   11.91
  -9   3  13  539.78   36.50
   9  -3 -13  545.10   33.08
   7  -3 -13   18.39   12.80
  -7   3  13   -0.23   12.71
   5  -3 -13  158.17   23.78
  -5   3  13  276.41   32.29
  -3   3  13  408.00   32.24
   3  -3 -13  422.32   30.63
   1  -3 -13   -3.70   13.91
  -1  -3 -13   31.81   18.41
  -3  -3 -13  126.30   26.42
   7   3  13   86.58   59.07
 -30   4  13  297.26   42.33
  30  -4 -13  343.31   42.33
  28  -4 -13  519.51   41.67
 -28   4  13  520.59   43.55
 -26   4  13    8.07   17.35
  26  -4 -13    6.18   15.83
 -24   4  13  809.97   50.08
  24  -4 -13  749.64   44.37
  22  -4 -13 1119.95   51.24
 -22   4  13 1079.96   56.03
  20  -4 -13   -9.02   10.20
 -20   4  13    4.48   11.83
  18  -4 -13 1385.88   54.43
 -18   4  13 1194.79   57.09
 -16   4  13  742.70   43.86
  16  -4 -13  836.04   41.68
 -14   4  13  118.71   24.15
  14  -4 -13  114.87   21.42
  12  -4 -13 2516.74   74.74
 -12   4  13 2466.91   81.61
 -10   4  13  973.80   48.29
  10  -4 -13 1082.17   47.98
   8  -4 -13   91.32   21.17
  -8   4  13  130.44   23.23
   6  -4 -13 2011.19   68.02
  -6   4  13 1895.47   68.22
  -4   4  13  387.16   30.40
   4  -4 -13  422.62   32.98
   2  -4 -13  308.12   33.18
   0  -4 -13  997.42   51.72
  -2  -4 -13  117.68   27.63
  -4  -4 -13  547.53   43.40
  -6  -4 -13  650.47   48.96
  31  -5 -13   12.93   22.97
 -29   5  13    6.80   20.28
  29  -5 -13   -8.99   19.42
 -27   5  13  -18.74   15.68
  27  -5 -13   -8.23   17.72
 -25   5  13  -17.47   14.42
  25  -5 -13   13.56   17.18
 -23   5  13    0.29   15.34
  23  -5 -13   -9.06   14.88
 -21   5  13   -3.30   13.32
  21  -5 -13    3.33   14.46
 -19   5  13   56.35   19.48
  19  -5 -13   45.22   16.74
  17  -5 -13   36.93   16.51
 -17   5  13    6.31   12.92
 -15   5  13   98.14   23.56
  15  -5 -13   66.67   19.59
 -13   5  13  100.01   22.23
  13  -5 -13   51.42   17.60
  11  -5 -13  168.38   25.76
 -11   5  13  127.07   23.79
   9  -5 -13   11.41   12.31
  -9   5  13    3.62   14.24
   7  -5 -13  -10.77   12.97
  -7   5  13    2.89   12.41
   5  -5 -13  -14.65   10.87
   3  -5 -13   70.36   21.19
   1  -5 -13    2.76   13.14
  -1  -5 -13   -1.28   15.18
  -3  -5 -13   -1.83   18.48
  -5  -5 -13   -1.00   19.00
  30  -6 -13  112.22   31.02
  28  -6 -13  468.70   41.45
  26  -6 -13    7.31   17.51
 -26   6  13   30.43   22.48
  24  -6 -13  381.77   35.37
 -24   6  13  365.14   36.83
  22  -6 -13  313.28   35.80
 -22   6  13  362.29   34.88
  20  -6 -13   37.62   17.81
 -20   6  13    2.93   14.59
 -18   6  13  717.86   45.19
  18  -6 -13  738.26   42.73
 -16   6  13  586.85   39.46
  16  -6 -13  550.19   37.68
 -14   6  13   97.11   22.00
  14  -6 -13  106.58   22.34
 -12   6  13 1343.87   57.81
  12  -6 -13 1254.80   55.32
  10  -6 -13  344.96   31.25
 -10   6  13  300.55   27.59
  -8   6  13  145.54   24.95
   8  -6 -13  126.45   25.10
   6  -6 -13  828.51   46.85
   4  -6 -13  166.41   28.80
   2  -6 -13  442.71   36.13
   0  -6 -13  845.81   50.05
  -2  -6 -13   84.21   25.36
  -4  -6 -13  266.56   39.40
  29  -7 -13    6.84   19.85
  27  -7 -13  196.90   34.63
  25  -7 -13  318.81   39.38
 -25   7  13  308.05   41.29
  23  -7 -13   -6.29   14.09
 -23   7  13   -2.19   15.03
  21  -7 -13  562.20   41.00
 -21   7  13  529.03   41.75
 -19   7  13  256.54   34.75
  19  -7 -13  318.98   36.20
  17  -7 -13   -4.07   14.33
 -17   7  13    5.22   15.22
 -15   7  13  632.11   41.28
  15  -7 -13  646.30   41.07
 -13   7  13  485.40   35.41
  13  -7 -13  470.33   35.38
 -11   7  13   29.21   16.16
  11  -7 -13    0.64   14.20
  -9   7  13  606.63   38.34
   9  -7 -13  543.87   38.90
   7  -7 -13  128.44   26.02
   5  -7 -13  235.98   33.09
   3  -7 -13  656.55   44.76
   1  -7 -13  108.61   27.84
  -1  -7 -13  207.78   34.76
  -3  -7 -13  259.38   38.72
  -5  -7 -13  -15.12   19.56
  28  -8 -13   19.30   20.41
  26  -8 -13    2.23   18.68
  24  -8 -13   24.08   19.65
 -24   8  13   -4.42   16.40
 -22   8  13    8.02   17.55
  22  -8 -13    0.45   15.81
 -20   8  13  -22.67   13.10
  20  -8 -13    2.80   16.25
 -18   8  13   27.57   18.18
  18  -8 -13   24.29   18.86
  16  -8 -13   63.41   21.69
 -16   8  13   51.93   21.27
 -14   8  13   -7.97   13.74
  14  -8 -13  -22.95   12.99
  12  -8 -13   17.47   15.76
 -12   8  13    7.49   15.50
  10  -8 -13   29.59   17.86
 -10   8  13   49.56   19.06
   8  -8 -13   35.68   17.94
   6  -8 -13   59.03   23.81
   4  -8 -13  -14.14   15.93
   2  -8 -13   -4.49   16.85
   0  -8 -13   26.58   19.80
  -2  -8 -13   -6.42   21.16
  -4  -8 -13  -12.46   20.76
  27  -9 -13  227.09   37.15
  25  -9 -13  586.95   47.46
  23  -9 -13  -14.86   15.72
 -21   9  13  489.83   41.39
  21  -9 -13  428.66   39.00
 -19   9  13  597.77   43.74
  19  -9 -13  486.00   40.59
  17  -9 -13   28.50   19.74
 -17   9  13   21.75   17.71
 -15   9  13  815.33   48.62
  15  -9 -13  835.30   49.85
 -13   9  13  622.93   41.18
  13  -9 -13  556.41   41.62
  11  -9 -13  195.31   31.77
 -11   9  13  256.34   31.70
   9  -9 -13  959.31   54.74
   7  -9 -13   62.91   23.43
   5  -9 -13  369.78   42.35
   3  -9 -13  909.23   55.90
   1  -9 -13   69.48   25.30
  -1  -9 -13  393.62   46.69
  24 -10 -13   16.47   22.21
  22 -10 -13   79.61   25.80
  20 -10 -13  -14.25   16.93
  18 -10 -13   95.76   27.16
 -18  10  13   76.30   25.44
  16 -10 -13   60.14   24.38
 -16  10  13   87.21   24.89
  14 -10 -13    6.77   16.79
 -14  10  13   28.24   18.44
  12 -10 -13  169.36   31.26
  10 -10 -13   37.81   21.04
   8 -10 -13   36.30   20.69
   6 -10 -13  143.84   31.80
   4 -10 -13   -5.24   17.86
   2 -10 -13   18.94   23.49
   0 -10 -13  117.82   30.97
  23 -11 -13  -17.54   18.52
  21 -11 -13  266.05   39.36
  19 -11 -13  110.48   28.69
  17 -11 -13   58.07   24.60
 -15  11  13  272.14   37.24
  15 -11 -13  223.67   35.58
  13 -11 -13   99.71   27.60
  11 -11 -13   90.34   26.39
   9 -11 -13  378.97   45.36
   7 -11 -13  141.97   31.53
   5 -11 -13   24.71   21.58
   3 -11 -13  180.81   36.75
   1 -11 -13  -14.53   22.10
  20 -12 -13   -7.27   19.79
  18 -12 -13  336.21   44.05
  16 -12 -13  503.82   44.55
  14 -12 -13   43.82   24.41
  12 -12 -13  785.97   54.17
  10 -12 -13  334.60   45.32
   8 -12 -13   59.50   26.94
   6 -12 -13  625.56   51.44
   4 -12 -13  138.03   33.88
  17 -13 -13   -2.23   22.03
  15 -13 -13    8.38   21.72
  13 -13 -13    4.20   21.19
  11 -13 -13    8.03   22.85
   9 -13 -13  -12.20   21.00
   7 -13 -13    3.10   23.09
 -18 -12  14   25.46   22.87
 -16 -12  14  143.23   34.50
 -14 -12  14   40.89   26.43
 -12 -12  14   10.34   27.01
 -10 -12  14  197.86   38.03
  -8 -12  14   21.12   25.44
 -21 -11  14   -1.35   20.98
 -19 -11  14  324.54   45.27
 -17 -11  14  241.68   38.71
 -17 -11  14  201.49   34.99
 -15 -11  14   25.00   23.27
 -13 -11  14  527.83   47.88
 -11 -11  14  230.36   38.90
  -9 -11  14   53.71   29.18
  -7 -11  14  457.77   46.81
  -5 -11  14  119.59   35.64
 -24 -10  14  -30.31   19.00
 -22 -10  14  409.37   41.48
 -20 -10  14  194.58   36.13
 -18 -10  14   38.35   20.60
 -18 -10  14    0.35   18.51
 -16 -10  14  517.53   44.53
 -14 -10  14  152.32   32.91
 -12 -10  14  278.54   40.27
 -10 -10  14  699.61   51.95
  -8 -10  14  282.31   40.87
  -6 -10  14  192.28   39.36
  -4 -10  14  426.11   56.09
  -2 -10  14   14.26   29.53
 -25  -9  14  -35.07   18.93
 -23  -9  14   21.35   22.18
 -21  -9  14  -14.08   17.70
 -19  -9  14   21.43   20.89
 -19  -9  14   -7.81   16.91
 -17  -9  14    6.72   18.22
 -17  -9  14  -15.53   16.17
 -15  -9  14   11.16   19.20
 -13  -9  14   15.49   18.03
 -11  -9  14   19.54   20.94
  -9  -9  14   -4.79   17.88
  -7  -9  14    4.40   19.90
  -5  -9  14  -41.11   18.71
  -3  -9  14  -41.21   21.09
  -1  -9  14   17.58   26.41
 -26  -8  14  544.69   45.97
 -24  -8  14  -14.71   18.73
 -22  -8  14  365.03   37.90
 -20  -8  14  376.57   36.14
 -20  -8  14  452.65   38.95
 -18  -8  14  -12.40   17.55
 -18  -8  14  -13.90   16.51
 -16  -8  14  971.68   55.72
 -16  -8  14  838.95   52.71
 -14  -8  14  420.28   37.83
 -12  -8  14  306.19   39.41
 -10  -8  14  664.17   47.26
  -8  -8  14  139.14   29.98
  -6  -8  14  387.62   46.54
  -4  -8  14 1058.34   66.43
  -2  -8  14  113.50   34.11
   0  -8  14  389.45   54.23
 -23  -7  14  120.74   27.75
 -23  -7  14  154.05   32.04
 -21  -7  14  -22.62   14.14
 -21  -7  14    8.28   15.12
 -19  -7  14  289.29   38.19
 -19  -7  14  316.73   32.96
 -17  -7  14  125.10   30.22
 -17  -7  14  161.16   28.31
 -15  -7  14   11.79   16.22
 -15  -7  14   43.61   20.39
 -13  -7  14  430.13   37.40
 -11  -7  14  215.97   30.69
  -9  -7  14   85.73   24.15
  -7  -7  14  450.00   41.59
  -5  -7  14    7.41   21.24
  -3  -7  14  193.27   36.80
  -1  -7  14  437.83   53.62
   1  -7  14   17.84   28.23
 -24  -6  14    2.10   18.64
 -22  -6  14  190.61   32.45
 -20  -6  14  165.96   28.58
 -20  -6  14  139.68   28.14
 -18  -6  14    6.87   18.65
 -18  -6  14   42.15   18.80
 -16  -6  14  379.62   36.15
 -16  -6  14  465.39   36.27
 -14  -6  14  346.41   32.66
 -14  -6  14  392.33   36.99
 -12  -6  14   33.58   17.66
 -10  -6  14  211.34   31.06
  -8  -6  14   53.97   22.26
  -6  -6  14   84.06   25.77
  -4  -6  14  451.46   41.41
  -2  -6  14    8.12   22.79
   0  -6  14  108.13   32.10
   2  -6  14  204.55   40.58
 -25  -5  14  566.73   43.23
 -23  -5  14 1127.86   59.33
 -21  -5  14    7.65   16.06
 -19  -5  14  875.02   51.45
 -17  -5  14  768.89   44.13
 -17  -5  14  745.30   48.42
 -15  -5  14  119.49   23.65
 -15  -5  14   40.69   20.38
 -13  -5  14 1106.14   59.86
 -13  -5  14 1168.40   53.84
 -11  -5  14  423.10   33.92
  -9  -5  14  126.81   26.30
  -7  -5  14 1074.04   55.62
  -5  -5  14  192.92   33.09
  -3  -5  14  403.33   39.69
  -1  -5  14 1104.91   64.31
   1  -5  14   15.32   22.89
   3  -5  14  455.35   46.33
 -26  -4  14   25.30   19.86
 -24  -4  14    7.72   16.25
 -22  -4  14   29.68   18.81
 -20  -4  14   13.19   16.04
 -18  -4  14   71.41   23.68
 -16  -4  14   18.45   17.99
 -14  -4  14   18.45   17.32
 -12  -4  14   29.71   16.14
 -12  -4  14  -12.31   12.31
 -10  -4  14   77.59   20.49
  -8  -4  14    5.89   15.75
  -6  -4  14    7.60   16.14
  -4  -4  14   30.45   19.63
  -2  -4  14   13.77   20.46
   0  -4  14   -1.83   18.32
   2  -4  14  -10.60   19.18
   4  -4  14  -14.64   20.22
 -27  -3  14  -20.94   16.61
 -25  -3  14  416.68   37.06
 -23  -3  14  311.99   32.20
 -21  -3  14  -16.55   12.80
 -19  -3  14  688.48   45.00
 -17  -3  14  511.58   39.45
 -15  -3  14  105.84   26.22
 -13  -3  14 1585.39   70.08
 -11  -3  14  312.91   32.64
  -7  -3  14 1234.71   55.40
  -5  -3  14  482.50   37.21
  -3  -3  14  404.57   36.25
  -1  -3  14  709.66   47.38
   1  -3  14   11.90   20.38
   3  -3  14  417.46   39.37
   5  -3  14  408.71   42.00
 -28  -2  14  228.14   35.97
 -26  -2  14  334.00   41.99
 -24  -2  14   14.65   17.16
 -22  -2  14  823.00   49.90
 -20  -2  14  322.92   31.80
 -18  -2  14   27.92   17.33
 -16  -2  14  791.69   48.24
 -14  -2  14  407.93   35.93
 -12  -2  14  192.33   30.62
 -10  -2  14 1453.90   67.26
  -2  -2  14   84.13   22.94
   0  -2  14  182.46   31.67
   2  -2  14  464.15   40.63
   4  -2  14    6.34   22.20
 -29  -1  14   40.59   23.12
 -27  -1  14   -4.97   14.53
 -25  -1  14   40.55   20.60
 -23  -1  14  161.74   29.11
 -21  -1  14   -6.44   14.87
 -19  -1  14   81.44   22.67
 -17  -1  14   64.99   21.67
 -15  -1  14   -8.08   13.08
 -13  -1  14  188.86   30.54
 -11  -1  14    2.89   14.99
  -9  -1  14  227.83   33.36
  -7  -1  14  332.73   34.04
   5  -1  14  129.25   29.27
 -32   0  14  625.90   49.01
 -30   0  14  -14.28   21.19
 -28   0  14  418.28   38.22
 -26   0  14  324.58   33.23
 -24   0  14   44.05   20.62
 -22   0  14 1326.69   63.13
 -20   0  14  734.98   46.22
 -18   0  14   82.17   23.07
 -16   0  14 1070.58   54.81
 -14   0  14  675.86   43.60
 -12   0  14  162.94   28.22
 -10   0  14 2057.08   78.92
  -8   0  14  565.06   40.77
  -6   0  14  514.06   40.20
  -4   0  14 1142.82   59.72
 -31   1  14    8.33   21.11
 -29   1  14   38.02   24.18
 -27   1  14    8.15   16.33
 -25   1  14   83.92   23.52
 -23   1  14  130.42   27.38
 -21   1  14   -1.94   13.91
 -19   1  14   79.53   23.06
 -17   1  14   39.44   18.27
 -15   1  14   -2.81   12.50
 -13   1  14  165.05   27.67
 -11   1  14   -5.04   13.52
  -9   1  14  302.12   35.99
  -7   1  14  348.73   32.73
  -5   1  14   32.56   18.98
  -3   1  14  113.27   27.10
 -30   2  14   -5.92   19.74
 -28   2  14  237.27   37.03
 -26   2  14  302.67   32.79
 -24   2  14  -11.34   13.83
 -22   2  14  708.59   45.95
 -20   2  14  320.31   31.16
 -18   2  14   19.55   17.72
 -16   2  14  690.78   43.97
 -14   2  14  374.57   32.69
 -12   2  14  159.03   27.20
 -10   2  14 1468.26   63.30
  -8   2  14   34.28   17.48
  -6   2  14  833.74   47.66
  -4   2  14  690.52   44.54
 -31   3  14  192.86   37.87
 -29   3  14  362.24   45.69
 -27   3  14   19.28   19.32
 -25   3  14  425.82   38.27
 -23   3  14  273.06   35.94
 -21   3  14  -20.61   10.91
 -19   3  14  718.58   45.29
  19  -3 -14  736.14   39.21
  17  -3 -14  590.68   34.77
 -17   3  14  459.43   36.89
  15  -3 -14   99.19   20.70
 -15   3  14  151.55   27.33
  13  -3 -14 1765.60   60.24
 -13   3  14 1656.10   67.53
  11  -3 -14  281.94   25.92
 -11   3  14  296.03   29.32
  -9   3  14   84.86   21.98
   9  -3 -14   73.20   19.81
  -7   3  14 1227.20   56.77
   7  -3 -14 1169.94   50.49
  -5   3  14  423.97   33.97
   5  -3 -14  445.62   33.09
   3  -3 -14  328.02   30.95
   1  -3 -14  691.00   42.67
  -1  -3 -14   12.54   18.16
  -3  -3 -14  452.61   39.63
 -30   4  14    8.01   22.26
 -28   4  14    4.34   19.08
  28  -4 -14    9.72   17.57
  26  -4 -14   30.09   20.70
 -26   4  14   32.89   20.79
  24  -4 -14   -0.92   14.97
 -24   4  14   15.19   16.81
  22  -4 -14   22.18   16.55
 -22   4  14   12.58   15.96
 -20   4  14    2.84   13.97
  20  -4 -14    9.80   13.47
 -18   4  14   94.09   23.89
  18  -4 -14   85.33   20.03
  16  -4 -14   27.76   14.75
 -16   4  14   25.52   16.90
 -14   4  14   22.36   17.02
  14  -4 -14   -8.26   12.65
 -12   4  14    3.42   13.54
  12  -4 -14  -12.50   12.96
 -10   4  14   74.36   21.05
  10  -4 -14   77.56   19.23
   8  -4 -14    4.03   14.78
  -8   4  14   36.25   16.78
  -6   4  14   -1.05   15.35
   6  -4 -14   11.64   14.08
   4  -4 -14   33.27   17.78
   2  -4 -14  -20.22   12.87
   0  -4 -14   14.43   16.50
  -2  -4 -14    4.70   20.49
  -4  -4 -14  -15.03   19.70
  29  -5 -14  353.85   41.31
 -29   5  14  392.92   41.23
 -27   5  14   -3.04   17.17
  27  -5 -14    9.16   18.66
  25  -5 -14  620.57   41.86
 -25   5  14  581.40   45.64
 -23   5  14 1050.04   57.85
  23  -5 -14 1148.90   55.08
  21  -5 -14  -12.24   13.18
 -21   5  14   -4.33   15.58
  19  -5 -14  881.12   46.12
 -19   5  14  931.54   51.97
  17  -5 -14  817.84   44.31
 -17   5  14  764.89   46.92
 -15   5  14  163.61   27.93
  15  -5 -14  114.69   22.94
  13  -5 -14 1245.50   54.26
 -13   5  14 1149.04   56.07
 -11   5  14  501.28   36.82
  11  -5 -14  415.16   32.47
  -9   5  14  181.66   28.24
   9  -5 -14  115.93   22.91
  -7   5  14 1070.29   51.62
   7  -5 -14 1028.97   51.16
   5  -5 -14  122.95   24.79
   3  -5 -14  333.66   36.98
   1  -5 -14  842.24   50.38
  -1  -5 -14   25.16   19.37
  -3  -5 -14  409.76   46.19
 -28   6  14   53.44   25.91
  28  -6 -14   85.49   26.93
  26  -6 -14   63.59   23.73
 -26   6  14   79.20   25.55
 -24   6  14   13.69   19.36
  24  -6 -14   13.70   18.62
 -22   6  14  248.86   35.84
  22  -6 -14  178.67   29.30
  20  -6 -14  126.88   24.88
 -20   6  14  163.05   30.81
  18  -6 -14    2.85   13.31
 -18   6  14   11.47   16.33
 -16   6  14  418.12   34.98
  16  -6 -14  426.73   33.66
 -14   6  14  334.65   32.65
  14  -6 -14  335.33   35.95
 -12   6  14    0.69   15.07
  12  -6 -14   -5.44   15.71
 -10   6  14  214.47   30.07
  10  -6 -14  142.48   26.07
   8  -6 -14   57.37   20.76
  -8   6  14   83.44   20.59
   6  -6 -14   44.68   19.12
   4  -6 -14  450.60   38.44
   2  -6 -14    3.09   17.94
   0  -6 -14   91.72   26.24
  -2  -6 -14  121.51   29.08
  29  -7 -14   26.42   22.49
  27  -7 -14  -10.27   16.92
 -27   7  14  -20.44   18.16
  25  -7 -14  164.67   29.64
 -25   7  14  185.99   34.19
 -23   7  14  132.61   29.85
  23  -7 -14  113.95   26.41
  21  -7 -14   -7.37   13.49
 -21   7  14    6.07   17.55
 -19   7  14  353.02   34.02
  19  -7 -14  247.40   32.78
 -17   7  14  165.92   29.23
  17  -7 -14   98.62   24.96
  15  -7 -14  -17.28   13.30
 -15   7  14    1.54   13.35
 -13   7  14  396.13   33.42
  13  -7 -14  385.36   33.49
 -11   7  14  215.67   31.48
  11  -7 -14  180.89   30.51
   9  -7 -14   34.37   19.46
   7  -7 -14  412.39   37.01
   5  -7 -14  -16.09   15.10
   3  -7 -14  126.68   27.63
   1  -7 -14  245.49   36.08
  -1  -7 -14   22.37   22.50
 -26   8  14  431.30   42.32
  26  -8 -14  536.44   44.75
  24  -8 -14    2.31   16.63
 -24   8  14  -15.19   16.72
 -22   8  14  349.63   42.88
  22  -8 -14  247.05   34.66
  20  -8 -14  433.84   38.14
 -20   8  14  383.36   38.29
  18  -8 -14   23.41   18.80
 -18   8  14   21.66   19.28
  16  -8 -14  904.86   51.37
 -16   8  14  814.49   49.24
 -14   8  14  386.11   33.64
  14  -8 -14  403.03   35.86
  12  -8 -14  280.14   35.77
 -12   8  14  262.18   33.56
  10  -8 -14  639.45   44.35
   8  -8 -14  112.64   28.95
   6  -8 -14  302.24   39.73
   4  -8 -14  887.42   55.56
   2  -8 -14   34.23   23.44
   0  -8 -14  250.58   38.50
  25  -9 -14  -18.34   16.17
 -23   9  14   40.13   22.31
  23  -9 -14   28.07   22.01
 -21   9  14   -8.11   16.18
  21  -9 -14    1.47   18.60
 -19   9  14    7.96   18.48
  19  -9 -14   -4.68   15.66
  17  -9 -14   -5.89   15.20
 -17   9  14   -5.64   16.87
 -15   9  14   20.47   18.34
  15  -9 -14  -13.77   15.08
 -13   9  14   -8.54   14.29
  13  -9 -14    2.84   16.99
  11  -9 -14   29.89   19.84
   9  -9 -14    4.18   17.20
   7  -9 -14   10.54   21.18
   5  -9 -14  -26.09   18.18
   3  -9 -14   -7.77   19.40
   1  -9 -14  -21.10   17.24
  24 -10 -14   -4.81   20.68
  22 -10 -14  421.99   47.05
  20 -10 -14  181.65   34.88
 -20  10  14  194.33   33.91
  18 -10 -14    6.42   18.01
 -18  10  14   13.90   19.77
  16 -10 -14  575.98   45.00
 -16  10  14  554.36   42.25
  14 -10 -14   64.79   24.06
 -14  10  14  142.52   28.39
  12 -10 -14  296.25   41.35
  10 -10 -14  625.09   47.17
   8 -10 -14  164.27   32.66
   6 -10 -14  156.13   34.13
   4 -10 -14  322.65   43.38
   2 -10 -14    8.66   22.79
  21 -11 -14  -17.13   18.39
  19 -11 -14  407.37   47.17
 -17  11  14  216.69   35.31
  17 -11 -14  145.58   33.46
 -15  11  14   27.83   21.15
  15 -11 -14   53.26   24.43
  13 -11 -14  484.20   43.72
  11 -11 -14  223.89   37.59
   9 -11 -14   80.05   27.60
   7 -11 -14  374.74   47.37
   5 -11 -14   88.85   28.90
  18 -12 -14    4.48   20.81
  16 -12 -14  128.23   31.34
  14 -12 -14    7.96   20.47
  12 -12 -14   -4.42   19.61
  10 -12 -14  163.06   34.26
   8 -12 -14    1.84   22.07
 -19 -11  15   -2.15   22.20
 -17 -11  15  370.57   39.38
 -17 -11  15  489.46   45.69
 -15 -11  15  113.27   32.81
 -13 -11  15   52.75   28.77
 -11 -11  15  457.38   54.94
  -9 -11  15   56.72   28.14
 -22 -10  15   -5.05   20.60
 -20 -10  15   37.85   23.92
 -20 -10  15   17.62   22.00
 -18 -10  15   53.04   23.62
 -18 -10  15   47.97   23.08
 -16 -10  15    0.78   21.42
 -14 -10  15  255.79   41.71
 -12 -10  15   90.27   30.58
 -10 -10  15   52.33   26.73
  -8 -10  15  116.54   34.49
  -6 -10  15   50.04   30.24
 -25  -9  15  -15.70   20.41
 -23  -9  15  406.37   41.46
 -21  -9  15  536.14   44.49
 -21  -9  15  445.88   41.06
 -19  -9  15   54.25   25.00
 -19  -9  15   30.60   22.55
 -17  -9  15  951.85   58.38
 -17  -9  15  909.65   56.99
 -15  -9  15   83.43   29.44
 -13  -9  15  372.74   39.68
 -11  -9  15  966.32   59.72
  -9  -9  15  242.42   38.69
  -7  -9  15  366.35   48.61
  -5  -9  15  550.23   51.53
  -3  -9  15   10.62   26.93
 -22  -8  15   28.92   20.67
 -22  -8  15   17.56   22.73
 -20  -8  15   24.49   21.01
 -20  -8  15   23.63   21.04
 -18  -8  15   18.97   20.61
 -18  -8  15   25.63   19.33
 -16  -8  15   -5.49   18.12
 -16  -8  15  -28.98   14.26
 -14  -8  15   60.84   23.28
 -12  -8  15   34.55   23.14
 -10  -8  15    3.23   19.18
  -8  -8  15  129.17   31.30
  -6  -8  15    3.11   21.32
  -4  -8  15   41.92   28.33
  -2  -8  15  120.18   39.43
 -23  -7  15  417.86   39.08
 -21  -7  15   89.00   25.62
 -19  -7  15   63.49   23.14
 -19  -7  15   23.22   22.25
 -17  -7  15  682.78   49.93
 -17  -7  15  809.96   49.00
 -15  -7  15  203.98   34.98
 -15  -7  15  308.31   32.13
 -13  -7  15   60.25   24.00
 -11  -7  15  502.56   40.66
  -9  -7  15  153.14   31.70
  -7  -7  15  340.03   44.41
  -5  -7  15  875.92   59.41
  -3  -7  15   77.06   30.35
  -1  -7  15  361.00   53.34
 -24  -6  15  374.80   38.71
 -22  -6  15   -1.10   17.72
 -20  -6  15  467.83   40.43
 -18  -6  15  145.70   31.78
 -16  -6  15   50.91   22.97
 -14  -6  15  735.63   51.22
 -14  -6  15  798.09   47.39
 -12  -6  15  110.18   25.05
 -10  -6  15  140.37   27.47
  -8  -6  15  675.38   47.77
  -6  -6  15   31.55   22.62
  -4  -6  15  392.55   48.85
  -2  -6  15  485.17   54.49
   0  -6  15  -17.83   24.87
 -25  -5  15  -16.10   16.01
 -23  -5  15   61.25   26.52
 -21  -5  15  108.44   28.44
 -19  -5  15  -11.39   12.74
 -17  -5  15   63.22   23.83
 -15  -5  15   34.84   19.31
 -13  -5  15    5.37   18.30
 -11  -5  15   -0.06   14.76
  -9  -5  15   -0.81   16.58
  -7  -5  15    7.14   18.66
  -5  -5  15  111.58   30.27
  -3  -5  15   -8.62   19.37
  -1  -5  15   11.65   24.68
   1  -5  15    8.21   25.72
 -28  -4  15    3.66   21.21
 -26  -4  15  375.72   37.83
 -24  -4  15  459.77   40.04
 -22  -4  15    4.60   19.41
 -20  -4  15  535.93   42.13
 -18  -4  15  600.76   44.84
 -16  -4  15  125.24   28.53
 -14  -4  15 1385.85   68.82
 -12  -4  15  413.55   38.84
  -6  -4  15  176.92   31.86
  -4  -4  15  378.81   38.26
  -2  -4  15  697.87   51.08
   0  -4  15   -8.67   22.79
   2  -4  15  454.99   44.28
 -29  -3  15  255.38   39.86
 -27  -3  15  193.12   35.72
 -25  -3  15    3.20   16.11
 -23  -3  15  228.12   34.61
 -21  -3  15  122.60   28.79
 -19  -3  15   28.68   18.86
 -17  -3  15  262.31   37.22
 -15  -3  15  179.44   32.08
 -13  -3  15   54.41   23.39
 -11  -3  15  108.02   28.25
   1  -3  15  151.32   33.61
 -30  -2  15  266.92   39.43
 -28  -2  15   -1.57   20.04
 -26  -2  15  236.16   36.46
 -24  -2  15  369.45   36.81
 -22  -2  15   -2.02   17.14
 -20  -2  15  578.56   43.56
 -18  -2  15  118.16   28.09
 -16  -2  15   62.66   22.55
 -14  -2  15  698.03   48.24
 -12  -2  15  174.61   31.65
 -10  -2  15   34.79   20.27
  -8  -2  15 1038.86   59.89
 -31  -1  15  -15.88   18.27
 -29  -1  15  241.05   39.06
 -27  -1  15  223.77   35.80
 -25  -1  15   46.54   22.20
 -23  -1  15  797.82   51.28
 -21  -1  15  424.71   37.61
 -19  -1  15    9.74   15.14
 -17  -1  15 1008.59   56.39
 -15  -1  15  634.33   44.99
 -13  -1  15  398.66   36.86
 -11  -1  15 1307.36   65.02
  -9  -1  15   -5.06   14.79
  -7  -1  15  653.87   47.37
  -5  -1  15  893.31   55.89
 -30   0  15  -11.80   19.22
 -28   0  15   -9.30   16.59
 -26   0  15  -16.06   15.24
 -24   0  15  -13.42   13.98
 -22   0  15  -11.70   15.72
 -20   0  15   -8.92   14.02
 -18   0  15    3.94   14.41
 -16   0  15  -10.66   13.27
 -14   0  15   -4.68   15.18
 -12   0  15  -21.33   12.41
 -10   0  15  -14.67   12.69
  -8   0  15   -8.83   12.82
  -6   0  15  -18.54   15.94
  -4   0  15  -17.60   15.30
  -2   0  15  -10.00   18.45
 -31   1  15  -11.15   20.36
 -29   1  15  202.89   35.69
 -27   1  15  253.15   37.91
 -25   1  15   32.00   20.22
 -23   1  15  714.65   47.74
 -21   1  15  427.48   37.96
 -19   1  15   30.53   18.67
 -17   1  15  943.52   53.84
 -15   1  15  594.78   42.86
 -13   1  15  415.26   36.48
 -11   1  15 1283.15   62.88
  -9   1  15    2.97   15.53
  -7   1  15  644.58   45.36
  -5   1  15  986.90   56.01
  -3   1  15   59.41   24.40
 -30   2  15  252.68   40.58
 -28   2  15  -13.37   17.29
 -26   2  15  275.13   40.89
 -24   2  15  326.44   34.04
 -22   2  15   21.15   18.18
 -20   2  15  582.32   43.24
 -18   2  15  129.81   27.70
 -16   2  15   77.93   21.23
 -14   2  15  617.40   43.40
 -12   2  15  215.96   32.46
 -10   2  15   12.01   16.37
  -8   2  15  944.49   52.89
  -6   2  15  189.71   30.49
  -4   2  15  208.73   32.64
 -31   3  15   -9.20   19.87
 -29   3  15  216.44   38.31
 -27   3  15  169.36   31.74
 -25   3  15  -17.14   15.12
 -23   3  15  223.31   34.08
 -21   3  15  134.05   27.13
 -19   3  15   89.68   23.50
 -17   3  15  274.21   35.97
 -15   3  15  214.08   32.29
 -13   3  15   80.37   23.39
 -11   3  15  249.84   34.04
  -9   3  15   91.92   23.90
  -7   3  15  169.40   29.08
 -30   4  15  368.86   47.37
 -28   4  15  -17.78   15.23
 -26   4  15  353.29   43.24
 -24   4  15  350.51   36.21
 -22   4  15  -11.67   15.08
 -20   4  15  565.00   42.85
 -18   4  15  598.16   43.26
 -16   4  15  183.75   30.31
 -14   4  15 1352.84   63.88
  14  -4 -15 1329.56   55.88
  12  -4 -15  407.21   32.26
 -12   4  15  442.01   36.21
 -10   4  15  407.34   34.98
  10  -4 -15  400.87   33.08
   8  -4 -15 1171.93   53.65
  -8   4  15 1015.22   53.74
   6  -4 -15  135.49   25.87
   4  -4 -15  341.80   32.82
   2  -4 -15  618.47   43.44
   0  -4 -15   -2.28   18.04
 -29   5  15   17.72   21.88
 -27   5  15    2.37   20.11
 -25   5  15  -19.22   15.51
  25  -5 -15   -9.68   16.96
 -23   5  15   74.34   23.78
  23  -5 -15   71.19   21.35
  21  -5 -15   82.73   22.35
 -21   5  15   89.95   25.53
  19  -5 -15   -6.33   14.94
 -19   5  15   -3.29   14.40
 -17   5  15   70.51   24.24
  17  -5 -15   67.88   21.14
  15  -5 -15    3.82   14.39
 -15   5  15   23.09   17.96
 -13   5  15  -12.20   14.42
  13  -5 -15    5.30   15.61
  11  -5 -15   -9.02   13.51
 -11   5  15   -1.99   14.42
   9  -5 -15   -5.46   13.41
  -9   5  15    2.63   15.48
   7  -5 -15    5.21   16.84
   5  -5 -15   95.47   23.87
   3  -5 -15  -34.38   12.60
   1  -5 -15   10.63   19.15
  -1  -5 -15   25.85   23.88
  28  -6 -15  -18.44   16.84
 -28   6  15   -3.22   20.55
 -26   6  15  557.73   46.68
  26  -6 -15  419.64   38.63
  24  -6 -15  295.35   36.64
 -24   6  15  356.25   37.72
  22  -6 -15   -4.80   17.24
 -22   6  15  -15.86   14.83
  20  -6 -15  464.98   37.21
 -20   6  15  490.09   40.38
 -18   6  15  234.75   34.97
  18  -6 -15  197.75   30.79
  16  -6 -15   68.88   22.26
 -16   6  15   67.81   22.94
  14  -6 -15  771.26   45.31
 -14   6  15  768.10   47.75
  12  -6 -15   99.32   25.20
 -12   6  15  152.72   28.34
 -10   6  15  144.94   27.50
  10  -6 -15  107.15   25.97
   8  -6 -15  666.62   44.55
   6  -6 -15   19.26   17.15
   4  -6 -15  326.68   38.95
   2  -6 -15  245.16   36.24
   0  -6 -15   -6.31   18.99
  27  -7 -15  229.49   36.58
 -27   7  15  162.26   35.57
  25  -7 -15   -0.40   17.47
 -25   7  15  -23.02   17.01
 -23   7  15  436.11   40.80
  23  -7 -15  451.68   39.76
  21  -7 -15  141.97   27.65
 -21   7  15  161.13   31.63
 -19   7  15   23.95   18.72
  19  -7 -15   30.87   18.94
  17  -7 -15  688.21   44.89
 -17   7  15  696.74   47.18
 -15   7  15  275.42   36.08
  15  -7 -15  259.23   34.24
  13  -7 -15   17.27   17.68
 -13   7  15   60.34   22.59
 -11   7  15  531.04   39.18
  11  -7 -15  539.48   40.33
   9  -7 -15  142.16   30.54
   7  -7 -15  291.36   37.99
   5  -7 -15  912.66   55.54
   3  -7 -15   35.11   23.26
   1  -7 -15  220.54   37.36
  26  -8 -15   13.16   19.41
 -26   8  15   25.19   21.75
  24  -8 -15   -7.09   19.20
 -24   8  15    4.96   19.89
 -22   8  15   41.30   22.04
  22  -8 -15   21.05   18.01
  20  -8 -15   38.79   21.85
 -20   8  15   32.95   21.12
 -18   8  15   14.23   16.77
  18  -8 -15   16.86   19.91
 -16   8  15   -8.08   16.33
  16  -8 -15   -4.86   17.18
  14  -8 -15   11.32   16.82
 -14   8  15   67.35   23.16
  12  -8 -15    0.91   18.54
 -12   8  15   23.55   19.22
  10  -8 -15   -6.03   18.23
   8  -8 -15   68.61   25.89
   6  -8 -15   -5.84   18.97
   4  -8 -15   16.18   21.83
   2  -8 -15   73.99   24.47
 -25   9  15  -26.54   17.10
  25  -9 -15   12.84   20.57
  23  -9 -15  417.26   45.92
 -23   9  15  397.70   40.83
 -21   9  15  482.95   42.75
  21  -9 -15  461.00   41.87
 -19   9  15   56.64   25.77
  19  -9 -15   31.18   20.62
  17  -9 -15  958.95   56.68
 -17   9  15 1024.20   58.53
 -15   9  15  113.88   29.63
  15  -9 -15   72.76   26.60
  13  -9 -15  411.44   39.51
  11  -9 -15  954.37   57.64
   9  -9 -15  121.85   29.75
   7  -9 -15  299.83   40.05
   5  -9 -15  401.15   48.41
   3  -9 -15   12.42   22.23
  22 -10 -15  -16.92   19.66
 -22  10  15  -10.13   17.93
 -20  10  15   28.10   21.59
  20 -10 -15   47.40   23.08
  18 -10 -15   80.64   27.68
 -18  10  15   74.53   26.08
  16 -10 -15    2.14   19.80
 -16  10  15   39.11   21.79
  14 -10 -15  264.45   40.10
  12 -10 -15   96.80   28.69
  10 -10 -15   12.77   23.56
   8 -10 -15   88.31   28.83
   6 -10 -15   48.84   29.05
 -19  11  15   35.18   23.00
  19 -11 -15   22.98   22.16
  17 -11 -15  452.31   43.04
 -17  11  15  424.00   40.86
  15 -11 -15   92.07   29.21
  13 -11 -15  109.69   31.98
  11 -11 -15  370.80   45.87
   9 -11 -15   86.56   29.91
 -20 -10  16   72.20   29.94
 -20 -10  16  106.31   31.81
 -18 -10  16  441.35   42.98
 -18 -10  16  583.84   48.63
 -16 -10  16  118.46   31.22
 -14 -10  16  161.48   35.89
 -12 -10  16  653.80   54.29
 -10 -10  16   92.03   31.25
 -21  -9  16    9.89   21.18
 -21  -9  16  -38.77   18.88
 -19  -9  16  -11.82   17.33
 -19  -9  16   -5.39   18.78
 -17  -9  16    5.26   19.43
 -17  -9  16  -22.66   16.93
 -15  -9  16    3.21   20.69
 -13  -9  16    2.03   20.28
 -11  -9  16  -15.92   19.65
  -9  -9  16   23.18   23.35
  -7  -9  16   26.97   29.24
 -22  -8  16  276.63   40.88
 -20  -8  16  113.67   31.38
 -18  -8  16  755.27   53.77
 -16  -8  16  148.42   32.45
 -16  -8  16  161.32   32.75
 -14  -8  16  342.47   43.95
 -12  -8  16 1033.81   60.27
 -10  -8  16  121.38   31.34
  -8  -8  16  388.00   41.24
  -6  -8  16  685.58   57.69
 -25  -7  16   99.50   29.86
 -23  -7  16    6.99   20.51
 -21  -7  16   89.00   27.31
 -19  -7  16  170.25   35.32
 -17  -7  16   31.56   22.85
 -15  -7  16  209.12   37.19
 -13  -7  16   11.86   19.03
 -11  -7  16  127.29   30.97
  -9  -7  16  351.23   45.37
  -7  -7  16   -7.65   21.95
  -5  -7  16  150.53   37.01
 -26  -6  16  -20.41   21.22
 -24  -6  16  169.50   33.78
 -22  -6  16  108.46   31.26
 -20  -6  16   -4.08   20.52
 -18  -6  16  254.19   40.73
 -16  -6  16   58.25   24.17
 -14  -6  16    3.21   16.53
  -8  -6  16  142.52   30.90
  -6  -6  16  387.35   49.03
  -4  -6  16   -4.78   25.43
  -2  -6  16  179.99   39.80
 -27  -5  16  612.43   48.55
 -25  -5  16  325.49   43.84
 -23  -5  16   48.18   24.33
 -21  -5  16  552.57   45.42
 -19  -5  16  177.27   33.39
 -17  -5  16  104.72   29.01
 -15  -5  16  918.58   58.13
 -13  -5  16  125.46   31.21
 -28  -4  16  -12.68   19.11
 -26  -4  16   -0.44   19.21
 -24  -4  16  -12.22   17.37
 -22  -4  16    9.74   18.95
 -20  -4  16   -4.21   17.02
 -18  -4  16    4.22   18.59
 -16  -4  16   10.84   19.33
 -14  -4  16    7.75   20.84
 -12  -4  16   45.10   23.30
 -29  -3  16  -25.01   19.05
 -27  -3  16  159.11   34.34
 -25  -3  16  384.75   39.68
 -23  -3  16   21.92   19.25
 -21  -3  16  451.91   40.97
 -19  -3  16  205.13   34.69
 -17  -3  16   66.91   23.59
 -15  -3  16 1046.69   61.52
 -13  -3  16  184.59   34.72
 -11  -3  16  471.04   43.08
  -9  -3  16  820.46   56.75
 -30  -2  16  270.24   41.96
 -28  -2  16  297.85   42.20
 -26  -2  16    2.20   18.96
 -24  -2  16  482.62   42.58
 -22  -2  16  250.84   37.64
 -20  -2  16   15.39   19.04
 -18  -2  16 1005.03   59.12
 -16  -2  16  317.48   41.02
 -14  -2  16  188.18   34.33
 -12  -2  16  385.49   38.42
 -10  -2  16   58.43   24.96
  -8  -2  16   64.80   25.64
 -29  -1  16  -12.34   18.28
 -27  -1  16   20.27   22.77
 -25  -1  16   38.33   21.95
 -23  -1  16    9.88   19.21
 -21  -1  16   29.68   21.08
 -19  -1  16   79.82   25.47
 -17  -1  16   50.82   21.69
 -15  -1  16  212.49   35.33
 -13  -1  16   77.65   25.26
 -11  -1  16    1.70   19.16
  -9  -1  16   -5.05   16.90
  -7  -1  16   27.57   20.77
  -5  -1  16   17.79   21.92
  -3  -1  16  105.14   31.65
 -30   0  16  369.31   46.96
 -28   0  16  339.93   43.57
 -26   0  16    7.80   19.14
 -24   0  16  748.38   51.36
 -22   0  16  507.77   43.53
 -20   0  16  145.44   30.06
 -18   0  16 1014.90   58.97
 -16   0  16  535.04   42.90
 -14   0  16  421.15   39.43
 -12   0  16 1063.57   60.08
 -10   0  16  161.44   33.03
  -8   0  16  894.65   56.46
  -6   0  16 1510.07   73.32
  -4   0  16   41.29   23.67
 -29   1  16   13.69   20.90
 -27   1  16   38.00   20.97
 -25   1  16   43.56   24.07
 -23   1  16   27.06   19.49
 -21   1  16   52.47   24.43
 -19   1  16   28.59   20.33
 -17   1  16   58.73   23.87
 -15   1  16  182.97   32.75
 -13   1  16  104.43   26.79
 -11   1  16   -1.23   14.95
  -9   1  16    4.91   17.96
  -7   1  16   11.31   19.64
  -5   1  16   23.01   18.36
 -30   2  16  206.81   38.52
 -28   2  16  278.87   41.59
 -26   2  16   11.00   18.65
 -24   2  16  465.78   41.64
 -22   2  16  263.52   37.40
 -20   2  16   45.61   20.31
 -18   2  16 1002.65   58.16
 -16   2  16  318.16   38.64
 -14   2  16  152.53   31.01
 -12   2  16  351.75   35.41
 -10   2  16    0.90   17.97
  -8   2  16  122.85   30.08
  -6   2  16  423.64   38.09
 -29   3  16   -6.40   18.14
 -27   3  16  190.58   35.63
 -25   3  16  349.03   37.27
 -23   3  16   -1.56   16.57
 -21   3  16  421.61   39.29
 -19   3  16  202.43   33.88
 -17   3  16  131.94   30.06
 -15   3  16  927.92   54.84
 -13   3  16  296.34   38.22
 -11   3  16  529.89   41.54
  -9   3  16  817.91   50.89
  -7   3  16   63.74   25.44
 -28   4  16  -14.11   19.06
 -26   4  16   -5.24   19.04
 -24   4  16   16.97   19.74
 -22   4  16   -7.42   16.36
 -20   4  16   -0.73   15.77
 -18   4  16    9.96   18.48
 -16   4  16   -0.71   15.99
 -14   4  16   15.46   18.71
 -12   4  16   56.68   23.41
 -10   4  16    4.62   16.59
  -8   4  16  -20.60   14.98
 -29   5  16   -9.82   19.05
 -27   5  16  564.08   48.44
 -25   5  16  173.73   35.20
 -23   5  16   34.55   22.88
 -21   5  16  535.89   43.77
 -19   5  16  295.22   40.02
 -17   5  16  100.12   27.15
 -15   5  16  918.29   53.96
 -13   5  16  134.76   28.30
 -11   5  16  328.37   40.80
 -26   6  16   -2.83   18.79
 -24   6  16  211.52   36.69
  22  -6 -16  128.47   26.85
 -22   6  16  135.25   31.14
  20  -6 -16  -24.82   16.61
 -20   6  16    6.41   18.72
  18  -6 -16  326.74   32.29
 -18   6  16  292.70   38.71
 -16   6  16   72.94   25.43
  16  -6 -16   48.59   19.42
  14  -6 -16    1.74   17.44
 -14   6  16    6.55   16.20
 -12   6  16  213.56   35.06
  12  -6 -16  181.13   31.00
  10  -6 -16   -1.00   16.30
   8  -6 -16  206.81   32.40
   6  -6 -16  335.42   39.33
   4  -6 -16   -5.89   17.07
   2  -6 -16  125.39   32.94
  25  -7 -16   65.22   24.21
 -25   7  16  107.46   31.68
 -23   7  16  -12.79   18.26
  23  -7 -16  -11.50   18.68
  21  -7 -16   91.83   25.73
 -21   7  16  151.28   32.16
  19  -7 -16  240.89   36.04
 -19   7  16  135.61   29.45
 -17   7  16   64.64   25.93
  17  -7 -16   32.87   20.26
  15  -7 -16  164.16   30.07
 -15   7  16  258.43   36.35
 -13   7  16   22.88   19.82
  13  -7 -16   -4.25   17.80
  11  -7 -16   53.14   23.00
   9  -7 -16  242.17   35.48
   7  -7 -16  -11.81   19.13
   5  -7 -16   81.76   28.32
 -24   8  16  544.40   47.44
  24  -8 -16  502.35   43.26
 -22   8  16  228.09   40.45
  22  -8 -16  249.43   38.24
  20  -8 -16  113.61   29.05
 -20   8  16  152.94   33.55
  18  -8 -16  765.79   50.92
 -18   8  16  740.60   50.85
 -16   8  16  148.72   32.29
  16  -8 -16   66.57   24.23
 -14   8  16  231.65   36.12
  14  -8 -16  323.62   42.06
  12  -8 -16  943.08   56.59
  10  -8 -16   74.91   26.45
   8  -8 -16  169.30   34.16
   6  -8 -16  636.95   49.87
 -23   9  16   -8.80   21.05
  23  -9 -16  -12.21   19.68
 -21   9  16   13.23   20.76
  21  -9 -16  -14.10   19.50
  19  -9 -16  -18.08   18.07
 -19   9  16    2.16   20.42
  17  -9 -16    3.26   20.54
 -17   9  16  -24.17   17.84
 -15   9  16  -10.40   16.42
  15  -9 -16   -1.60   19.68
  13  -9 -16  -13.49   19.13
  11  -9 -16   -9.75   18.87
   9  -9 -16  -13.74   20.42
   7  -9 -16   -0.54   21.65
 -20  10  16   83.10   30.78
  20 -10 -16  121.32   29.98
  18 -10 -16  558.88   46.65
 -18  10  16  536.68   45.93
  16 -10 -16   76.52   27.64
  14 -10 -16  126.53   32.11
  12 -10 -16  582.75   47.96
  10 -10 -16   76.11   32.27
 -19  -9  17  484.99   46.60
 -17  -9  17  263.08   43.67
 -15  -9  17  113.69   33.01
 -13  -9  17  621.32   51.94
 -22  -8  17    8.12   22.30
 -20  -8  17  -24.22   18.92
 -18  -8  17   51.78   26.15
 -16  -8  17   34.56   24.57
 -10  -8  17   -3.33   22.22
 -25  -7  17  141.53   35.52
 -23  -7  17  149.63   34.33
 -21  -7  17    8.53   21.82
 -19  -7  17  463.48   53.33
 -17  -7  17   91.40   30.26
 -15  -7  17  146.71   33.67
 -26  -6  17  125.14   32.69
 -24  -6  17   73.90   28.15
 -22  -6  17  311.50   44.73
 -20  -6  17  114.33   32.07
 -18  -6  17  112.04   31.43
 -16  -6  17  408.07   41.87
 -14  -6  17   57.20   24.70
 -27  -5  17  -12.14   20.62
 -25  -5  17   -8.72   20.97
 -23  -5  17  -17.10   16.88
 -21  -5  17   34.07   24.74
 -19  -5  17   16.73   21.62
 -17  -5  17   10.57   20.55
 -15  -5  17  -11.23   17.28
 -13  -5  17   12.78   21.81
 -11  -5  17  -14.27   18.24
 -28  -4  17  442.58   43.59
 -26  -4  17  309.25   44.88
 -24  -4  17   28.20   22.47
 -22  -4  17  636.56   50.25
 -20  -4  17  382.72   46.98
 -18  -4  17  263.46   40.85
 -16  -4  17  824.15   57.46
 -14  -4  17   78.95   28.34
 -12  -4  17  395.23   41.52
 -10  -4  17  673.73   53.77
 -29  -3  17   69.84   28.95
 -27  -3  17   10.68   21.47
 -25  -3  17  209.75   37.95
 -23  -3  17   44.96   26.10
 -21  -3  17  -12.61   17.70
 -19  -3  17  188.47   36.72
 -17  -3  17   10.54   18.56
 -15  -3  17   99.49   29.57
 -13  -3  17  205.28   35.38
 -11  -3  17   20.49   19.34
  -9  -3  17   57.88   27.33
  -7  -3  17  133.72   35.15
 -28  -2  17  178.39   37.21
 -26  -2  17   94.85   29.55
 -24  -2  17   -8.71   18.15
 -22  -2  17  282.54   42.24
 -20  -2  17  131.80   30.38
 -18  -2  17   88.68   29.11
 -16  -2  17  498.00   44.49
 -14  -2  17  104.85   30.08
 -12  -2  17  112.70   29.88
 -10  -2  17  197.50   38.37
  -8  -2  17   18.60   21.30
  -6  -2  17  287.46   44.30
  -4  -2  17  281.83   44.45
 -29  -1  17  306.79   44.53
 -27  -1  17  -11.02   19.45
 -25  -1  17  483.87   44.49
 -23  -1  17  254.06   40.88
 -21  -1  17  152.20   32.80
 -19  -1  17  996.59   61.32
 -17  -1  17  361.23   45.59
 -15  -1  17  248.63   40.69
 -13  -1  17  969.09   61.14
 -11  -1  17   56.91   25.98
  -9  -1  17  530.60   46.29
  -7  -1  17  985.77   63.25
  -5  -1  17    2.46   23.59
  -3  -1  17  309.38   45.47
 -28   0  17  -14.97   17.59
 -26   0  17   -7.05   20.36
 -24   0  17   -9.84   17.82
 -22   0  17  -11.69   18.24
 -20   0  17    5.32   17.29
 -18   0  17  -17.08   16.98
 -16   0  17  -11.93   14.29
 -14   0  17  -11.90   17.64
 -12   0  17   -8.71   16.48
 -10   0  17  -21.91   16.63
  -8   0  17  -12.07   20.08
  -6   0  17    8.61   19.74
  -4   0  17   -5.56   20.54
 -29   1  17  253.46   41.64
 -27   1  17   17.63   20.66
 -25   1  17  579.17   47.24
 -23   1  17  232.78   38.00
 -21   1  17  156.35   34.07
 -19   1  17 1030.76   61.32
 -17   1  17  345.52   45.30
 -15   1  17  252.74   38.55
 -13   1  17  937.89   58.71
 -11   1  17   99.08   27.62
  -9   1  17  538.38   46.31
  -7   1  17  951.59   60.11
 -28   2  17  205.91   37.08
 -26   2  17  111.05   30.98
 -24   2  17   11.40   18.85
 -22   2  17  211.05   37.41
 -20   2  17  105.33   28.36
 -18   2  17  129.08   30.52
 -16   2  17  529.55   43.91
 -14   2  17   70.28   25.56
 -12   2  17  130.06   30.13
 -10   2  17  228.11   37.79
  -8   2  17   -5.17   19.81
 -29   3  17   95.34   30.14
 -27   3  17    1.79   19.35
 -25   3  17  131.85   31.63
 -23   3  17   44.07   23.26
 -21   3  17   27.21   19.43
 -19   3  17  265.43   39.20
 -17   3  17   36.33   21.15
 -15   3  17  110.60   27.22
 -13   3  17  259.32   40.00
 -11   3  17  -15.26   16.76
  -9   3  17   36.75   23.87
 -28   4  17  453.30   44.60
 -26   4  17  297.18   43.17
 -24   4  17    9.34   18.09
 -22   4  17  684.52   50.79
 -20   4  17  254.36   39.68
 -18   4  17  259.28   39.16
 -16   4  17  861.51   55.21
 -14   4  17   90.40   27.02
 -12   4  17  336.69   41.95
 -10   4  17  712.63   48.88
 -27   5  17  -10.51   20.20
 -25   5  17   38.14   23.77
 -23   5  17  -18.30   16.39
 -21   5  17   21.59   21.65
 -19   5  17   37.14   22.70
 -17   5  17    0.29   18.39
 -15   5  17  -19.54   15.55
 -13   5  17    4.59   17.79
 -11   5  17  -15.40   17.37
 -26   6  17  165.23   36.26
 -24   6  17   85.86   29.77
 -22   6  17  399.87   40.40
 -20   6  17  167.62   32.86
 -18   6  17  142.18   31.40
 -16   6  17  404.74   39.42
 -14   6  17   35.63   22.34
 -12   6  17  301.86   38.55
 -25   7  17  249.02   43.09
 -23   7  17  223.59   39.49
 -21   7  17   65.86   26.83
 -19   7  17  375.93   46.07
 -17   7  17  108.85   28.98
  17  -7 -17  102.25   26.89
 -15   7  17  217.64   35.73
  15  -7 -17  192.07   33.70
  13  -7 -17  555.77   44.63
  11  -7 -17   13.16   20.57
   9  -7 -17  141.54   30.98
   7  -7 -17  470.27   43.18
  22  -8 -17    8.13   22.00
 -22   8  17   67.72   27.20
  20  -8 -17   -5.80   19.13
 -20   8  17   -3.38   19.61
  18  -8 -17   79.09   25.58
 -18   8  17   64.46   26.94
  16  -8 -17   12.77   21.52
 -16   8  17   49.39   24.79
  14  -8 -17    4.03   19.00
  12  -8 -17   15.45   22.89
  10  -8 -17   30.52   25.27
 -19   9  17  589.61   48.39
  19  -9 -17  466.84   44.00
 -17   9  17  245.69   39.32
  17  -9 -17  243.09   39.00
  15  -9 -17   74.13   29.73
  13  -9 -17  626.48   50.35
 -21  -7  18    3.98   23.22
 -19  -7  18  101.88   31.78
 -17  -7  18  169.12   37.36
 -15  -7  18   37.77   28.14
 -22  -6  18   40.65   27.26
 -20  -6  18  144.65   34.00
 -18  -6  18  159.80   35.85
 -16  -6  18   58.64   28.80
 -14  -6  18  279.07   46.07
 -12  -6  18    3.22   22.73
 -25  -5  18   59.97   28.61
 -23  -5  18  554.20   48.81
 -21  -5  18  134.50   34.13
 -19  -5  18  208.91   40.59
 -17  -5  18  481.41   46.59
 -15  -5  18   14.18   21.69
 -13  -5  18  312.51   46.89
 -11  -5  18  539.64   50.36
 -26  -4  18   -2.55   23.80
 -24  -4  18  -13.50   21.44
 -22  -4  18   -1.18   19.78
 -20  -4  18    0.43   20.36
 -18  -4  18    5.05   19.32
 -16  -4  18   14.85   22.40
 -14  -4  18    6.28   21.06
 -12  -4  18  -29.54   18.89
 -10  -4  18   38.14   26.45
  -8  -4  18  -26.97   19.57
 -27  -3  18  178.83   37.28
 -25  -3  18   35.23   25.10
 -23  -3  18  445.09   44.89
 -21  -3  18  101.58   31.25
 -19  -3  18  184.38   37.72
 -17  -3  18  580.27   50.58
 -15  -3  18   35.30   23.19
 -13  -3  18  347.77   49.37
 -11  -3  18  380.11   50.76
  -9  -3  18    6.60   24.62
  -7  -3  18  469.47   56.86
 -26  -2  18  227.68   40.28
 -24  -2  18  153.04   35.41
 -22  -2  18   54.10   27.47
 -20  -2  18  407.42   42.71
 -18  -2  18   40.19   25.10
 -16  -2  18  192.62   37.80
 -14  -2  18  472.43   45.97
 -12  -2  18   44.06   27.74
 -10  -2  18  371.26   49.25
  -8  -2  18  352.93   49.34
  -6  -2  18   -9.58   23.73
 -27  -1  18    4.89   19.40
 -25  -1  18   -7.68   19.70
 -23  -1  18   42.53   26.28
 -21  -1  18  -11.45   16.67
 -19  -1  18    7.84   19.95
 -17  -1  18  104.35   31.17
 -15  -1  18   34.71   23.83
 -13  -1  18   24.72   22.76
 -11  -1  18  290.42   43.40
  -9  -1  18   16.52   22.10
  -7  -1  18   66.10   28.13
 -28   0  18   -4.43   21.10
 -26   0  18  542.84   48.88
 -24   0  18  236.00   40.23
 -22   0  18  107.47   32.48
 -20   0  18 1326.23   72.08
 -18   0  18  314.94   45.01
 -16   0  18  254.55   42.54
 -14   0  18  730.48   55.51
 -12   0  18   -6.12   20.05
 -10   0  18  310.72   44.48
  -8   0  18  467.06   45.84
  -6   0  18   21.70   26.76
 -27   1  18  -21.50   19.72
 -25   1  18    9.66   19.89
 -23   1  18   63.34   26.71
 -21   1  18   -7.91   19.09
 -19   1  18    4.72   18.56
 -17   1  18  137.53   32.56
 -15   1  18    4.18   20.98
 -13   1  18   12.67   20.87
 -11   1  18  227.53   39.92
  -9   1  18    2.30   20.97
  -7   1  18  117.63   30.98
 -26   2  18  161.33   36.22
 -24   2  18  125.45   31.19
 -22   2  18   76.64   29.36
 -20   2  18  425.95   43.16
 -18   2  18   41.73   24.68
 -16   2  18  217.95   37.99
 -14   2  18  525.04   46.16
 -12   2  18   51.56   26.22
 -10   2  18  256.80   43.01
  -8   2  18  422.83   43.44
 -27   3  18  300.45   45.52
 -25   3  18   25.28   23.51
 -23   3  18  542.89   47.88
 -21   3  18  107.15   31.56
 -19   3  18  216.19   37.59
 -17   3  18  523.82   47.01
 -15   3  18   37.41   22.59
 -13   3  18  308.17   43.22
 -11   3  18  490.83   45.31
 -26   4  18    4.41   19.75
 -24   4  18   29.67   22.83
 -22   4  18   14.68   22.88
 -20   4  18   10.97   20.45
 -18   4  18  -11.76   19.50
 -16   4  18    8.01   21.16
 -14   4  18   14.90   20.63
 -12   4  18  -12.07   18.73
 -25   5  18   24.03   23.77
 -23   5  18  531.71   46.99
 -21   5  18  150.56   33.45
 -19   5  18  200.40   36.14
 -17   5  18  471.60   43.16
 -15   5  18   16.37   20.98
 -13   5  18  428.45   40.72
 -22   6  18   24.72   21.61
 -20   6  18  156.30   34.76
 -18   6  18  144.67   31.98
 -16   6  18  119.56   31.53
 -14   6  18  318.72   42.78
 -21   7  18   62.13   25.69
 -19   7  18   80.66   29.03
 -17   7  18  264.81   41.11
 -15   7  18   23.43   22.05
 -19  -5  19   12.16   23.37
 -17  -5  19   32.28   26.25
 -22  -4  19   36.46   27.33
 -20  -4  19   75.16   28.83
 -16  -4  19   24.12   24.13
 -14  -4  19  308.07   48.87
 -23  -3  19    4.84   22.66
 -21  -3  19  165.04   36.64
 -19  -3  19  -22.41   23.13
 -17  -3  19   59.84   30.02
 -15  -3  19  148.32   35.58
 -13  -3  19   11.75   24.83
 -24  -2  19  141.86   35.09
 -22  -2  19   -5.61   22.43
 -20  -2  19   87.64   31.03
 -18  -2  19  240.77   45.09
 -16  -2  19   31.85   24.23
 -14  -2  19  241.92   43.90
 -12  -2  19  215.38   41.87
 -25  -1  19  157.69   38.75
 -23  -1  19  202.53   40.73
 -21  -1  19  609.31   52.55
 -19  -1  19  118.38   34.29
 -17  -1  19  296.90   46.38
 -15  -1  19  475.85   47.88
 -13  -1  19   34.11   27.28
 -11  -1  19  320.54   48.83
 -24   0  19   -1.67   21.53
 -22   0  19   -6.66   21.63
 -20   0  19   -7.28   20.46
 -18   0  19  -19.68   19.95
 -16   0  19  -17.73   21.12
 -14   0  19  -28.17   20.45
 -12   0  19  -10.48   20.77
 -25   1  19  137.36   33.62
 -23   1  19  297.26   45.58
 -21   1  19  673.80   55.33
 -19   1  19  135.91   35.08
 -17   1  19  274.97   46.45
 -15   1  19  529.05   49.15
 -13   1  19   29.46   24.06
 -11   1  19  340.34   49.24
 -24   2  19   96.71   31.84
 -22   2  19   61.79   29.74
 -20   2  19   95.25   32.17
 -18   2  19  277.28   44.35
 -16   2  19   48.63   26.34
 -14   2  19  226.47   41.00
 -12   2  19  307.10   47.28
 -23   3  19   -7.32   20.21
 -21   3  19   90.35   31.84
 -19   3  19  -34.26   17.92
 -17   3  19   62.40   29.23
 -15   3  19  136.90   34.89
 -13   3  19   15.00   22.62
 -22   4  19   64.89   28.61
 -20   4  19  104.89   30.72
 -18   4  19  454.71   45.30
 -16   4  19    4.30   22.64
 -14   4  19  409.38   42.88
 -19   5  19    2.48   21.52
 -17   5  19   44.49   23.44
   0   0   0    0.00    0.00
;
_shelx_hkl_checksum              74868
loop_
_space_group_symop_operation_xyz
'x, y, z'
'-x, y, -z+1/2'
'x+1/2, y+1/2, z'
'-x+1/2, y+1/2, -z+1/2'
'-x, -y, -z'
'x, -y, z-1/2'
'-x+1/2, -y+1/2, -z'
'x+1/2, -y+1/2, z-1/2'
loop_
_atom_site_label
_atom_site_type_symbol
_atom_site_fract_x
_atom_site_fract_y
_atom_site_fract_z
_atom_site_U_iso_or_equiv
_atom_site_adp_type
_atom_site_occupancy
_atom_site_site_symmetry_order
_atom_site_calc_flag
_atom_site_refinement_flags_posn
_atom_site_refinement_flags_adp
_atom_site_refinement_flags_occupancy
_atom_site_disorder_assembly
_atom_site_disorder_group
Gd1 Gd 0.16153(2) 0.30721(3) 0.40160(3) 0.02039(14) Uani 1 1 d D U . . .
N1 N 0.1063(11) 0.6100(10) 0.2556(16) 0.075(3) Uani 0.464(10) 1 d D U P A 1
N1' N 0.0940(10) 0.5914(9) 0.2123(11) 0.075(3) Uani 0.536(10) 1 d D . P A 2
O1 O 0.1031(3) 0.2640(5) 0.2224(4) 0.0468(16) Uani 1 1 d . . . . .
O2 O 0.0090(7) 0.2726(16) 0.0548(13) 0.050(4) Uani 0.59(3) 1 d . U P B 1
O2' O 0.0084(12) 0.227(2) 0.0779(19) 0.050(4) Uani 0.41(3) 1 d . . P B 2
O3 O 0.0176(3) 0.1034(5) -0.0419(5) 0.0379(15) Uani 1 1 d . . . . .
O4 O 0.2765(2) 0.3332(3) 0.5837(4) 0.0226(11) Uani 1 1 d . . . . .
O5 O 0.1931(3) 0.4217(4) 0.5513(5) 0.0380(14) Uani 1 1 d . . . . .
O6 O 0.1622(3) 0.1986(4) 0.5247(4) 0.0300(12) Uani 1 1 d . . . . .
O7 O 0.2628(2) 0.1293(4) 0.6331(4) 0.0277(12) Uani 1 1 d . . . . .
O8 O 0.0526(3) 0.3288(6) 0.3653(6) 0.070(2) Uani 1 1 d . U . . .
H8B H 0.0519 0.3028 0.4165 0.105 Uiso 1 1 d DR U . . .
H8C H 0.0442 0.3900 0.3618 0.105 Uiso 1 1 d R U . . .
O9 O 0.1269(9) 0.4685(11) 0.3360(12) 0.0502(17) Uani 0.464(10) 1 d D U P A 1
O9' O 0.1095(7) 0.4578(9) 0.3043(11) 0.0502(17) Uani 0.536(10) 1 d D . P A 2
C1 C 0.0701(4) 0.2454(6) 0.1251(7) 0.0338(19) Uani 1 1 d . . . . .
C2 C 0.1060(4) 0.2090(6) 0.0759(6) 0.0301(18) Uani 1 1 d . . . . .
C3 C 0.0788(4) 0.1385(6) -0.0072(6) 0.0303(18) Uani 1 1 d . . . . .
C4 C 0.1147(4) 0.1047(7) -0.0463(7) 0.042(2) Uani 1 1 d . . . . .
H4 H 0.0968 0.0568 -0.1007 0.050 Uiso 1 1 calc R U . . .
C5 C 0.1773(5) 0.1425(9) -0.0039(9) 0.062(3) Uani 1 1 d . . . . .
H5 H 0.2017 0.1186 -0.0293 0.074 Uiso 1 1 calc R U . . .
C6 C 0.2046(5) 0.2145(10) 0.0749(9) 0.067(4) Uani 1 1 d . . . . .
H6 H 0.2458 0.2419 0.1002 0.081 Uiso 1 1 calc R U . . .
C7 C 0.1690(5) 0.2449(8) 0.1153(8) 0.050(2) Uani 1 1 d . . . . .
H7 H 0.1879 0.2914 0.1712 0.060 Uiso 1 1 calc R U . . .
C8 C 0.2536(4) 0.4037(5) 0.6082(6) 0.0209(15) Uani 1 1 d . . . . .
C9 C 0.2033(4) 0.1417(5) 0.5998(6) 0.0254(16) Uani 1 1 d . . . . .
C10 C 0.3011(3) 0.4674(5) 0.7043(5) 0.0198(15) Uani 1 1 d . . . . .
C11 C 0.2774(3) 0.5235(5) 0.7540(5) 0.0205(15) Uani 1 1 d . . . . .
H11 H 0.2326 0.5206 0.7280 0.025 Uiso 1 1 calc R U . . .
C12 C 0.3212(3) 0.5833(5) 0.8425(6) 0.0199(15) Uani 1 1 d . . . . .
C13 C 0.3873(4) 0.5901(5) 0.8784(6) 0.0216(15) Uani 1 1 d . . . . .
H13 H 0.4160 0.6316 0.9365 0.026 Uiso 1 1 calc R U . . .
C14 C 0.4112(3) 0.5362(5) 0.8290(6) 0.0199(15) Uani 1 1 d . . . . .
C15 C 0.3671(3) 0.4733(5) 0.7425(6) 0.0195(15) Uani 1 1 d . . . . .
H15 H 0.3829 0.4347 0.7103 0.023 Uiso 1 1 calc R U . . .
C16 C -0.0175(4) 0.0422(6) -0.1349(6) 0.0302(18) Uani 1 1 d . . . . .
H16A H 0.0022 -0.0230 -0.1173 0.036 Uiso 1 1 calc R U . . .
H16B H -0.0156 0.0692 -0.1932 0.036 Uiso 1 1 calc R U . . .
C17 C 0.1201(11) 0.5153(12) 0.2599(15) 0.062(3) Uani 0.464(10) 1 d D U P A 1
H17 H 0.1244 0.4858 0.2081 0.074 Uiso 0.464(10) 1 calc R U P A 1
C18 C 0.0682(13) 0.6484(18) 0.296(2) 0.103(5) Uani 0.464(10) 1 d D U P A 1
H18A H 0.0216 0.6485 0.2371 0.154 Uiso 0.464(10) 1 calc R U P A 1
H18B H 0.0824 0.7144 0.3217 0.154 Uiso 0.464(10) 1 calc R U P A 1
H18C H 0.0756 0.6076 0.3541 0.154 Uiso 0.464(10) 1 calc R U P A 1
C19 C 0.1218(15) 0.6746(19) 0.194(2) 0.094(4) Uani 0.464(10) 1 d D U P A 1
H19A H 0.1648 0.6579 0.2111 0.141 Uiso 0.464(10) 1 calc R U P A 1
H19B H 0.1219 0.7419 0.2142 0.141 Uiso 0.464(10) 1 calc R U P A 1
H19C H 0.0886 0.6663 0.1172 0.141 Uiso 0.464(10) 1 calc R U P A 1
C17' C 0.1248(10) 0.5454(10) 0.3088(11) 0.062(3) Uani 0.536(10) 1 d D . P A 2
H17' H 0.1554 0.5770 0.3746 0.074 Uiso 0.536(10) 1 calc R U P A 2
C18' C 0.0870(15) 0.6992(10) 0.2043(19) 0.103(5) Uani 0.536(10) 1 d D . P A 2
H18D H 0.1130 0.7257 0.1804 0.154 Uiso 0.536(10) 1 calc R U P A 2
H18E H 0.1025 0.7260 0.2746 0.154 Uiso 0.536(10) 1 calc R U P A 2
H18F H 0.0410 0.7162 0.1526 0.154 Uiso 0.536(10) 1 calc R U P A 2
C19' C 0.0683(13) 0.5358(15) 0.1117(13) 0.094(4) Uani 0.536(10) 1 d D . P A 2
H19D H 0.0721 0.5750 0.0619 0.141 Uiso 0.536(10) 1 calc R U P A 2
H19E H 0.0224 0.5196 0.0785 0.141 Uiso 0.536(10) 1 calc R U P A 2
H19F H 0.0937 0.4764 0.1285 0.141 Uiso 0.536(10) 1 calc R U P A 2
loop_
_atom_site_aniso_label
_atom_site_aniso_U_11
_atom_site_aniso_U_22
_atom_site_aniso_U_33
_atom_site_aniso_U_23
_atom_site_aniso_U_13
_atom_site_aniso_U_12
Gd1 0.0218(2) 0.0211(2) 0.0152(2) 0.00085(15) 0.00883(17) -0.00065(15)
N1 0.064(4) 0.050(4) 0.050(4) 0.010(4) -0.003(4) 0.000(3)
N1' 0.064(4) 0.050(4) 0.050(4) 0.010(4) -0.003(4) 0.000(3)
O1 0.036(4) 0.068(4) 0.014(3) -0.014(3) 0.002(3) 0.003(3)
O2 0.038(4) 0.065(9) 0.033(6) -0.016(6) 0.012(4) 0.011(6)
O2' 0.038(4) 0.065(9) 0.033(6) -0.016(6) 0.012(4) 0.011(6)
O3 0.024(3) 0.060(4) 0.033(3) -0.024(3) 0.018(3) -0.016(3)
O4 0.024(3) 0.022(3) 0.018(3) -0.008(2) 0.010(2) -0.003(2)
O5 0.019(3) 0.043(3) 0.032(3) -0.022(3) 0.004(3) 0.002(2)
O6 0.024(3) 0.036(3) 0.031(3) 0.020(3) 0.016(3) 0.006(2)
O7 0.019(3) 0.037(3) 0.024(3) 0.010(2) 0.010(2) -0.002(2)
O8 0.043(3) 0.097(4) 0.054(4) 0.032(3) 0.019(3) 0.001(3)
O9 0.048(3) 0.041(3) 0.036(3) 0.010(3) 0.009(2) 0.005(3)
O9' 0.048(3) 0.041(3) 0.036(3) 0.010(3) 0.009(2) 0.005(3)
C1 0.030(5) 0.037(5) 0.025(5) -0.006(4) 0.010(4) 0.003(4)
C2 0.029(4) 0.032(5) 0.023(4) -0.004(3) 0.011(4) -0.006(3)
C3 0.021(4) 0.044(5) 0.020(4) -0.003(4) 0.008(3) -0.004(4)
C4 0.030(5) 0.060(6) 0.038(5) -0.019(4) 0.021(4) -0.012(4)
C5 0.041(6) 0.101(9) 0.057(7) -0.026(7) 0.036(6) -0.021(6)
C6 0.039(6) 0.114(10) 0.055(7) -0.027(7) 0.031(6) -0.040(6)
C7 0.045(6) 0.060(7) 0.039(5) -0.015(5) 0.020(5) -0.022(5)
C8 0.028(4) 0.019(4) 0.018(4) -0.007(3) 0.015(3) -0.005(3)
C9 0.032(4) 0.023(4) 0.022(4) 0.006(3) 0.016(4) 0.000(3)
C10 0.021(4) 0.018(4) 0.014(3) -0.006(3) 0.007(3) -0.001(3)
C11 0.014(3) 0.024(4) 0.015(4) -0.007(3) 0.003(3) 0.000(3)
C12 0.023(4) 0.019(4) 0.020(4) -0.004(3) 0.013(3) 0.005(3)
C13 0.025(4) 0.021(4) 0.015(4) -0.004(3) 0.010(3) -0.004(3)
C14 0.017(4) 0.022(4) 0.017(4) -0.003(3) 0.007(3) -0.002(3)
C15 0.024(4) 0.019(4) 0.018(4) -0.006(3) 0.013(3) 0.000(3)
C16 0.021(4) 0.041(5) 0.029(4) -0.015(4) 0.015(4) -0.008(3)
C17 0.054(3) 0.045(3) 0.042(3) 0.005(3) 0.002(3) 0.003(3)
C18 0.080(6) 0.068(5) 0.073(5) 0.013(5) -0.006(5) 0.002(5)
C19 0.074(5) 0.069(5) 0.067(5) 0.016(5) -0.002(5) 0.005(5)
C17' 0.054(3) 0.045(3) 0.042(3) 0.005(3) 0.002(3) 0.003(3)
C18' 0.080(6) 0.068(5) 0.073(5) 0.013(5) -0.006(5) 0.002(5)
C19' 0.074(5) 0.069(5) 0.067(5) 0.016(5) -0.002(5) 0.005(5)
loop_
_atom_type_symbol
_atom_type_description
_atom_type_scat_dispersion_real
_atom_type_scat_dispersion_imag
_atom_type_scat_source
C C 0.0033 0.0016 'International Tables Vol C Tables 4.2.6.8 and 6.1.1.4'
H H 0.0000 0.0000 'International Tables Vol C Tables 4.2.6.8 and 6.1.1.4'
N N 0.0061 0.0033 'International Tables Vol C Tables 4.2.6.8 and 6.1.1.4'
O O 0.0106 0.0060 'International Tables Vol C Tables 4.2.6.8 and 6.1.1.4'
Gd Gd -0.1653 3.9035 'International Tables Vol C Tables 4.2.6.8 and 6.1.1.4'
loop_
_geom_angle_atom_site_label_1
_geom_angle_atom_site_label_2
_geom_angle_atom_site_label_3
_geom_angle
_geom_angle_site_symmetry_1
_geom_angle_site_symmetry_3
O1 Gd1 O6 118.4(2) . .
O1 Gd1 O9 85.3(4) . .
O6 Gd1 O9 138.6(5) . .
O1 Gd1 O7 83.1(2) . 7_556
O6 Gd1 O7 138.45(17) . 7_556
O9 Gd1 O7 73.1(5) . 7_556
O1 Gd1 O4 80.7(2) . 7_556
O6 Gd1 O4 72.84(17) . 7_556
O9 Gd1 O4 148.0(5) . 7_556
O7 Gd1 O4 76.83(17) 7_556 7_556
O1 Gd1 O9' 75.6(4) . .
O6 Gd1 O9' 140.3(5) . .
O7 Gd1 O9' 76.5(4) 7_556 .
O4 Gd1 O9' 146.1(4) 7_556 .
O1 Gd1 O8 84.2(2) . .
O6 Gd1 O8 76.3(2) . .
O9 Gd1 O8 72.9(5) . .
O7 Gd1 O8 144.4(2) 7_556 .
O4 Gd1 O8 133.2(2) 7_556 .
O9' Gd1 O8 68.1(4) . .
O1 Gd1 O5 153.2(2) . .
O6 Gd1 O5 80.1(2) . .
O9 Gd1 O5 68.8(4) . .
O7 Gd1 O5 95.24(19) 7_556 .
O4 Gd1 O5 125.13(17) 7_556 .
O9' Gd1 O5 78.0(4) . .
O8 Gd1 O5 81.8(2) . .
O1 Gd1 O4 147.73(19) . .
O6 Gd1 O4 75.43(17) . .
O9 Gd1 O4 103.1(4) . .
O7 Gd1 O4 70.14(16) 7_556 .
O4 Gd1 O4 76.04(17) 7_556 .
O9' Gd1 O4 113.5(3) . .
O8 Gd1 O4 128.1(2) . .
O5 Gd1 O4 51.03(16) . .
O1 Gd1 Gd1 117.47(16) . 7_556
O6 Gd1 Gd1 69.79(12) . 7_556
O9 Gd1 Gd1 131.6(4) . 7_556
O7 Gd1 Gd1 68.71(12) 7_556 7_556
O4 Gd1 Gd1 39.95(11) 7_556 7_556
O9' Gd1 Gd1 140.1(3) . 7_556
O8 Gd1 Gd1 145.48(17) . 7_556
O5 Gd1 Gd1 86.16(13) . 7_556
O4 Gd1 Gd1 36.08(10) . 7_556
C17 N1 C18 122.2(14) . .
C17 N1 C19 117.6(17) . .
C18 N1 C19 119.6(14) . .
C17' N1' C19' 120.6(11) . .
C17' N1' C18' 121.4(12) . .
C19' N1' C18' 118.0(11) . .
C1 O1 Gd1 176.7(7) . .
C3 O3 C16 119.9(6) . .
C8 O4 Gd1 161.8(5) . 7_556
C8 O4 Gd1 90.6(4) . .
Gd1 O4 Gd1 103.96(17) 7_556 .
C8 O5 Gd1 97.3(4) . .
C9 O6 Gd1 136.7(5) . .
C9 O7 Gd1 138.3(5) . 7_556
C17 O9 Gd1 133.9(14) . .
C17' O9' Gd1 138.2(11) . .
O1 C1 O2' 117.8(13) . .
O1 C1 O2 125.2(10) . .
O1 C1 C2 118.3(8) . .
O2' C1 C2 120.0(12) . .
O2 C1 C2 115.0(10) . .
C7 C2 C3 117.8(8) . .
C7 C2 C1 119.6(7) . .
C3 C2 C1 122.7(7) . .
O3 C3 C4 123.4(7) . .
O3 C3 C2 116.0(7) . .
C4 C3 C2 120.5(7) . .
C5 C4 C3 119.4(8) . .
C6 C5 C4 121.6(9) . .
C5 C6 C7 118.1(9) . .
C6 C7 C2 122.6(9) . .
O5 C8 O4 120.4(6) . .
O5 C8 C10 120.7(6) . .
O4 C8 C10 118.8(6) . .
O7 C9 O6 126.4(7) . .
O7 C9 C12 116.8(6) . 4_546
O6 C9 C12 116.8(6) . 4_546
C15 C10 C11 119.7(6) . .
C15 C10 C8 120.9(6) . .
C11 C10 C8 119.3(6) . .
C12 C11 C10 119.5(6) . .
C13 C12 C11 120.1(6) . .
C13 C12 C9 119.9(6) . 4_556
C11 C12 C9 120.1(6) . 4_556
C14 C13 C12 121.0(6) . .
C13 C14 C15 118.4(6) . .
C13 C14 C16 122.6(6) . 3_556
C15 C14 C16 119.0(6) . 3_556
C10 C15 C14 121.2(6) . .
O3 C16 C14 108.1(6) . 3_444
O9 C17 N1 116.4(14) . .
O9' C17' N1' 115.1(12) . .
loop_
_geom_bond_atom_site_label_1
_geom_bond_atom_site_label_2
_geom_bond_distance
_geom_bond_site_symmetry_2
Gd1 O1 2.271(5) .
Gd1 O6 2.349(5) .
Gd1 O9 2.350(15) .
Gd1 O7 2.356(5) 7_556
Gd1 O4 2.368(5) 7_556
Gd1 O9' 2.407(12) .
Gd1 O8 2.417(6) .
Gd1 O5 2.455(5) .
Gd1 O4 2.582(5) .
Gd1 Gd1 3.9013(9) 7_556
N1 C17 1.321(9) .
N1 C18 1.461(10) .
N1 C19 1.466(10) .
N1' C17' 1.337(9) .
N1' C19' 1.463(9) .
N1' C18' 1.470(9) .
O1 C1 1.215(10) .
O2 C1 1.295(17) .
O2' C1 1.28(3) .
O3 C3 1.362(9) .
O3 C16 1.410(9) .
O4 C8 1.266(8) .
O4 Gd1 2.368(5) 7_556
O5 C8 1.237(9) .
O6 C9 1.254(9) .
O7 C9 1.251(9) .
O7 Gd1 2.356(5) 7_556
O9 C17 1.226(10) .
O9' C17' 1.237(9) .
C1 C2 1.516(11) .
C2 C7 1.385(12) .
C2 C3 1.397(11) .
C3 C4 1.382(11) .
C4 C5 1.380(12) .
C5 C6 1.372(15) .
C6 C7 1.377(14) .
C8 C10 1.498(9) .
C9 C12 1.524(9) 4_546
C10 C15 1.375(10) .
C10 C11 1.401(9) .
C11 C12 1.389(10) .
C12 C13 1.386(10) .
C12 C9 1.524(9) 4_556
C13 C14 1.385(9) .
C14 C15 1.402(9) .
C14 C16 1.505(10) 3_556
C16 C14 1.505(10) 3_444
