#------------------------------------------------------------------------------
#$Date: 2017-06-03 23:42:47 +0300 (Sat, 03 Jun 2017) $
#$Revision: 197203 $
#$URL: file:///home/coder/svn-repositories/cod/cif/4/51/41/4514135.cif $
#------------------------------------------------------------------------------
#
# This file is available in the Crystallography Open Database (COD),
# http://www.crystallography.net/
#
# All data on this site have been placed in the public domain by the
# contributors.
#
data_4514135
loop_
_publ_author_name
'Yang, Lirong'
'Lian, Chen'
'Li, Xuefei'
'Han, Yuyang'
'Yang, Lele'
'Cai, Ting'
'Shao, Caiyun'
_publ_section_title
;
 Highly Selective Bifunctional Luminescent Sensor toward Nitrobenzene and
 Cu(2+) Ion Based on Microporous Metal-Organic Frameworks: Synthesis,
 Structures, and Properties.
;
_journal_issue                   20
_journal_name_full               'ACS applied materials &amp; interfaces'
_journal_page_first              17208
_journal_page_last               17217
_journal_paper_doi               10.1021/acsami.7b01758
_journal_volume                  9
_journal_year                    2017
_chemical_formula_moiety         'C85 H55 Cd2 N12 O10'
_chemical_formula_sum            'C85 H55 Cd2 N12 O10'
_chemical_formula_weight         1629.23
_space_group_crystal_system      triclinic
_space_group_IT_number           2
_space_group_name_Hall           '-P 1'
_space_group_name_H-M_alt        'P -1'
_symmetry_space_group_name_Hall  '-P 1'
_symmetry_space_group_name_H-M   'P -1'
_atom_sites_solution_hydrogens   mixed
_audit_creation_date             2016-03-08
_audit_creation_method
;
Olex2 1.2-beta
(compiled 2015.08.17 svn.r3210 for OlexSys, GUI svn.r5083)
;
_cell_angle_alpha                85.5670(10)
_cell_angle_beta                 76.2310(10)
_cell_angle_gamma                85.8780(10)
_cell_formula_units_Z            2
_cell_length_a                   10.5207(6)
_cell_length_b                   19.5694(11)
_cell_length_c                   19.8195(12)
_cell_measurement_reflns_used    4637
_cell_measurement_temperature    296.15
_cell_measurement_theta_max      24.37
_cell_measurement_theta_min      2.30
_cell_volume                     3945.4(4)
_computing_molecular_graphics    'Olex2 (Dolomanov et al., 2009)'
_computing_publication_material  'Olex2 (Dolomanov et al., 2009)'
_computing_structure_refinement  'ShelXL (Sheldrick, 2015)'
_diffrn_ambient_temperature      296.15
_diffrn_measured_fraction_theta_full 0.993
_diffrn_measured_fraction_theta_max 0.927
_diffrn_measurement_device_type  'Bruker Smart APEX II CCD area detector'
_diffrn_measurement_method       '\f and \w scans'
_diffrn_radiation_type           MoK\a
_diffrn_radiation_wavelength     0.71073
_diffrn_reflns_av_R_equivalents  0.0277
_diffrn_reflns_av_unetI/netI     0.0740
_diffrn_reflns_Laue_measured_fraction_full 0.993
_diffrn_reflns_Laue_measured_fraction_max 0.927
_diffrn_reflns_limit_h_max       13
_diffrn_reflns_limit_h_min       -13
_diffrn_reflns_limit_k_max       18
_diffrn_reflns_limit_k_min       -26
_diffrn_reflns_limit_l_max       25
_diffrn_reflns_limit_l_min       -24
_diffrn_reflns_number            25242
_diffrn_reflns_point_group_measured_fraction_full 0.993
_diffrn_reflns_point_group_measured_fraction_max 0.927
_diffrn_reflns_theta_full        25.242
_diffrn_reflns_theta_max         28.314
_diffrn_reflns_theta_min         1.060
_diffrn_standards_number         0
_exptl_absorpt_coefficient_mu    0.605
_exptl_absorpt_correction_T_max  0.7457
_exptl_absorpt_correction_T_min  0.6932
_exptl_absorpt_correction_type   multi-scan
_exptl_absorpt_process_details
;
SADABS-2008/1 (Bruker,2008) was used for absorption correction.
wR2(int) was 0.0450 before and 0.0369 after correction.
The Ratio of minimum to maximum transmission is 0.9296.
The \l/2 correction factor is 0.0015.
;
_exptl_crystal_colour            colourless
_exptl_crystal_colour_primary    colourless
_exptl_crystal_density_diffrn    1.371
_exptl_crystal_description       block
_exptl_crystal_F_000             1650
_exptl_crystal_size_max          0.34
_exptl_crystal_size_mid          0.26
_exptl_crystal_size_min          0.22
_refine_diff_density_max         0.581
_refine_diff_density_min         -0.436
_refine_diff_density_rms         0.101
_refine_ls_extinction_method     none
_refine_ls_goodness_of_fit_ref   1.010
_refine_ls_hydrogen_treatment    mixed
_refine_ls_matrix_type           full
_refine_ls_number_parameters     1013
_refine_ls_number_reflns         18194
_refine_ls_number_restraints     75
_refine_ls_restrained_S_all      1.017
_refine_ls_R_factor_all          0.1002
_refine_ls_R_factor_gt           0.0513
_refine_ls_shift/su_max          0.001
_refine_ls_shift/su_mean         0.000
_refine_ls_structure_factor_coef Fsqd
_refine_ls_weighting_details
'w=1/[\s^2^(Fo^2^)+(0.0811P)^2^] where P=(Fo^2^+2Fc^2^)/3'
_refine_ls_weighting_scheme      calc
_refine_ls_wR_factor_gt          0.1329
_refine_ls_wR_factor_ref         0.1720
_reflns_Friedel_coverage         0.000
_reflns_number_gt                10613
_reflns_number_total             18194
_reflns_threshold_expression     'I > 2\s(I)'
_cod_data_source_file            am7b01758_si_003.cif
_cod_data_source_block           8243_sq
_cod_database_code               4514135
_shelx_space_group_comment
;
The symmetry employed for this shelxl refinement is uniquely defined
by the following loop, which should always be used as a source of
symmetry information in preference to the above space-group names.
They are only intended as comments.
;
_olex2_refinement_description
;
1. Fixed Uiso
 At 1.2 times of:
  All C(H) groups, All C(H,H) groups
2. Rigid bond restraints
 C30, C32, C31, C29, N1, N2, C26, C27, C28
 with sigma for 1-2 distances of 0.01 and sigma for 1-3 distances of 0.01
3. Uiso/Uaniso restraints and constraints
Uanis(C30) \\sim Ueq, Uanis(C32) \\sim Ueq, Uanis(C31) \\sim Ueq, Uanis(C29)
\\sim Ueq, Uanis(N1) \\sim Ueq, Uanis(C28) \\sim Ueq, Uanis(C27) \\sim Ueq,
Uanis(C26) \\sim Ueq, Uanis(N2) \\sim Ueq: with sigma of 0.01 and sigma for
terminal atoms of 0.02
4. Others
 Sof(H28)=Sof(N2)=Sof(C31)=Sof(H31)=Sof(C32)=Sof(H32)=1-FVAR(1)
 Sof(N1)=Sof(C29)=Sof(H29)=Sof(C30)=Sof(H30)=Sof(H28A)=FVAR(1)
5.a Aromatic/amide H refined with riding coordinates:
 C70(H70), C78(H78), C77(H77), C72(H72), C73(H73), C75(H75), C76(H76),
 C79(H79), C87(H87), C86(H86), C81(H81), C82(H82), C84(H84), C85(H85), C40(H40),
  C48(H48), C47(H47), C42(H42), C43(H43), C45(H45), C46(H46), C60(H60),
 C59(H59), C62(H62), C61(H61), C56(H56), C69(H69), C66(H66), C65(H65), C68(H68),
  C67(H67), C51(H51), C50(H50), C54(H54), C53(H53), C5(H5), C3(H3), C7(H7),
 C36(H36), C35(H35), C38(H38), C37(H37), C39(H39), C24(H24), C29(H29), C30(H30),
  C27(H27), C28(H28A), C19(H19), C18(H18), C22(H22), C21(H21), C11(H11),
 C13(H13), C16(H16), C31(H31), C32(H32)
;
_shelx_fab_checksum              57551
_shelx_fab_file
;
    1    0    0     69.54      0.00
    2    0    0     39.66      0.00
    3    0    0     14.51      0.00
    4    0    0     -6.74      0.00
    5    0    0      1.81      0.00
    6    0    0     -4.82      0.00
    7    0    0     -5.96      0.00
    8    0    0     -4.22      0.00
    9    0    0     -2.19      0.00
   10    0    0     -1.54      0.00
   11    0    0     -0.62      0.00
   12    0    0     -0.87      0.00
  -12    1    0     -0.11      0.00
  -11    1    0     -0.52      0.00
  -10    1    0     -0.15      0.00
   -9    1    0      1.63      0.00
   -8    1    0     -0.22      0.00
   -7    1    0     -1.81      0.00
   -6    1    0     -2.22      0.00
   -5    1    0     -3.84      0.00
   -4    1    0      1.01      0.00
   -3    1    0     10.77      0.00
   -2    1    0    -28.16      0.00
   -1    1    0    -39.62      0.00
    1    1    0    -46.79      0.00
    2    1    0      1.40      0.00
    3    1    0    -14.39      0.00
    4    1    0     -3.62      0.00
    5    1    0      3.42      0.00
    6    1    0      1.38      0.00
    7    1    0      5.48      0.00
    8    1    0      1.36      0.00
    9    1    0     -0.89      0.00
   10    1    0     -0.55      0.00
   11    1    0      0.34      0.00
   12    1    0      1.09      0.00
  -12    2    0      2.49      0.00
  -11    2    0      1.66      0.00
  -10    2    0      1.86      0.00
   -9    2    0     -0.38      0.00
   -8    2    0     -0.40      0.00
   -7    2    0      3.48      0.00
   -6    2    0      0.58      0.00
   -5    2    0     -8.10      0.00
   -4    2    0    -11.62      0.00
   -3    2    0    -23.80      0.00
   -2    2    0    -19.36      0.00
   -1    2    0      8.58      0.00
    1    2    0      4.23      0.00
    2    2    0     13.46      0.00
    3    2    0     15.55      0.00
    4    2    0     27.57      0.00
    5    2    0      3.39      0.00
    6    2    0     -0.52      0.00
    7    2    0     -2.16      0.00
    8    2    0     -1.44      0.00
    9    2    0      0.76      0.00
   10    2    0     -1.25      0.00
   11    2    0     -1.59      0.00
   12    2    0     -1.12      0.00
  -12    3    0     -1.72      0.00
  -11    3    0     -1.76      0.00
  -10    3    0      0.68      0.00
   -9    3    0      0.01      0.00
   -8    3    0      1.65      0.00
   -7    3    0     -0.79      0.00
   -6    3    0     -2.92      0.00
   -5    3    0      2.87      0.00
   -4    3    0      1.78      0.00
   -3    3    0     -6.33      0.00
   -2    3    0      2.57      0.00
   -1    3    0      0.66      0.00
    0    3    0     11.96      0.00
    1    3    0     23.52      0.00
    2    3    0    -18.91      0.00
    3    3    0    -15.58      0.00
    4    3    0     -9.71      0.00
    5    3    0     -3.83      0.00
    6    3    0      9.82      0.00
    7    3    0      3.80      0.00
    8    3    0      3.53      0.00
    9    3    0      2.61      0.00
   10    3    0      1.49      0.00
   11    3    0      1.27      0.00
   12    3    0     -0.97      0.00
  -12    4    0      0.12      0.00
  -11    4    0      1.12      0.00
  -10    4    0      0.14      0.00
   -9    4    0      0.01      0.00
   -8    4    0      2.77      0.00
   -7    4    0      2.06      0.00
   -6    4    0      6.94      0.00
   -5    4    0      9.86      0.00
   -4    4    0      9.13      0.00
   -3    4    0     20.06      0.00
   -2    4    0     13.38      0.00
   -1    4    0    -17.06      0.00
    0    4    0    -21.32      0.00
    1    4    0    -28.08      0.00
    2    4    0     -7.27      0.00
    3    4    0     11.31      0.00
    4    4    0     -3.65      0.00
    5    4    0      1.53      0.00
    6    4    0     -1.03      0.00
    7    4    0     -1.68      0.00
    8    4    0      1.43      0.00
    9    4    0     -1.98      0.00
   10    4    0      0.10      0.00
   11    4    0      0.88      0.00
   12    4    0      0.84      0.00
  -12    5    0      0.00      0.00
  -11    5    0      1.12      0.00
  -10    5    0     -0.65      0.00
   -9    5    0      0.29      0.00
   -8    5    0     -0.46      0.00
   -7    5    0     -1.29      0.00
   -6    5    0      2.47      0.00
   -5    5    0     -3.82      0.00
   -3    5    0     -5.64      0.00
   -2    5    0     -9.62      0.00
   -1    5    0     15.04      0.00
    0    5    0     19.82      0.00
    1    5    0      1.20      0.00
    2    5    0      1.75      0.00
    3    5    0     -7.54      0.00
    4    5    0     -5.65      0.00
    5    5    0     -0.66      0.00
    6    5    0     -8.14      0.00
    7    5    0     -3.04      0.00
    8    5    0     -1.26      0.00
    9    5    0      0.17      0.00
   10    5    0      1.38      0.00
   11    5    0     -0.74      0.00
   12    5    0      0.18      0.00
  -12    6    0     -0.61      0.00
  -11    6    0     -0.76      0.00
  -10    6    0     -0.28      0.00
   -9    6    0      0.99      0.00
   -8    6    0     -0.92      0.00
   -7    6    0     -0.84      0.00
   -6    6    0     -2.86      0.00
   -5    6    0     -2.18      0.00
   -4    6    0     10.12      0.00
   -3    6    0      6.19      0.00
   -2    6    0      6.47      0.00
   -1    6    0      5.53      0.00
    0    6    0     -6.86      0.00
    1    6    0      8.71      0.00
    2    6    0      0.82      0.00
    3    6    0    -12.74      0.00
    4    6    0     -4.38      0.00
    5    6    0     -3.23      0.00
    6    6    0      1.66      0.00
    7    6    0      4.16      0.00
    8    6    0     -0.83      0.00
    9    6    0      0.25      0.00
   10    6    0     -0.20      0.00
   11    6    0      0.05      0.00
   12    6    0      0.68      0.00
  -12    7    0      0.79      0.00
  -11    7    0     -0.13      0.00
  -10    7    0     -0.41      0.00
   -9    7    0     -1.72      0.00
   -8    7    0     -2.55      0.00
   -7    7    0     -0.55      0.00
   -6    7    0     -3.88      0.00
   -5    7    0     -2.74      0.00
   -4    7    0     -7.52      0.00
   -3    7    0    -10.02      0.00
   -2    7    0      6.12      0.00
   -1    7    0     -1.22      0.00
    0    7    0      0.15      0.00
    1    7    0      9.09      0.00
    2    7    0     10.21      0.00
    3    7    0     24.13      0.00
    4    7    0     16.88      0.00
    5    7    0      2.61      0.00
    6    7    0      0.74      0.00
    7    7    0     -2.25      0.00
    8    7    0     -1.02      0.00
    9    7    0     -0.65      0.00
   10    7    0     -2.18      0.00
   11    7    0     -0.24      0.00
   12    7    0     -0.71      0.00
  -12    8    0     -0.41      0.00
  -11    8    0     -1.31      0.00
  -10    8    0     -0.76      0.00
   -9    8    0      0.15      0.00
   -8    8    0      1.25      0.00
   -7    8    0      1.63      0.00
   -6    8    0      2.04      0.00
   -5    8    0      6.22      0.00
   -4    8    0      0.73      0.00
   -3    8    0      3.00      0.00
   -2    8    0      0.49      0.00
   -1    8    0     -3.23      0.00
    0    8    0     13.15      0.00
    1    8    0     -2.38      0.00
    2    8    0    -11.79      0.00
    3    8    0    -11.34      0.00
    4    8    0    -12.92      0.00
    5    8    0     -2.87      0.00
    6    8    0     -0.27      0.00
    7    8    0     -1.69      0.00
    8    8    0     -0.11      0.00
    9    8    0      0.42      0.00
   10    8    0      1.79      0.00
   11    8    0      0.54      0.00
   12    8    0      0.17      0.00
  -12    9    0      0.25      0.00
  -11    9    0      0.95      0.00
  -10    9    0      1.08      0.00
   -9    9    0      1.29      0.00
   -8    9    0      0.50      0.00
   -7    9    0     -1.22      0.00
   -6    9    0     -2.27      0.00
   -5    9    0     -6.36      0.00
   -4    9    0     -6.78      0.00
   -3    9    0     -1.72      0.00
   -2    9    0    -11.25      0.00
   -1    9    0    -11.04      0.00
    0    9    0    -11.56      0.00
    1    9    0    -10.23      0.00
    2    9    0      8.03      0.00
    3    9    0      5.61      0.00
    4    9    0      5.14      0.00
    5    9    0      7.15      0.00
    7    9    0      4.59      0.00
    8    9    0      2.36      0.00
    9    9    0     -0.47      0.00
   10    9    0     -0.10      0.00
   11    9    0     -0.27      0.00
   12    9    0      0.31      0.00
   13    9    0      0.64      0.00
  -12   10    0     -0.07      0.00
  -11   10    0      0.93      0.00
  -10   10    0      0.47      0.00
   -9   10    0     -0.71      0.00
   -8   10    0     -1.18      0.00
   -7   10    0      0.25      0.00
   -6   10    0      2.77      0.00
   -5   10    0      3.10      0.00
   -4   10    0      4.95      0.00
   -3   10    0      2.06      0.00
   -2   10    0      2.59      0.00
   -1   10    0     11.37      0.00
    0   10    0      1.56      0.00
    1   10    0      0.16      0.00
    2   10    0     -1.84      0.00
    3   10    0     -4.95      0.00
    4   10    0     -0.02      0.00
    5   10    0     -4.48      0.00
    6   10    0     -5.06      0.00
    7   10    0     -3.07      0.00
    8   10    0     -1.77      0.00
    9   10    0      1.01      0.00
   10   10    0     -0.44      0.00
   11   10    0     -0.23      0.00
   12   10    0      0.10      0.00
  -11   11    0     -0.92      0.00
  -10   11    0     -0.29      0.00
   -9   11    0      0.62      0.00
   -8   11    0      2.89      0.00
   -7   11    0      2.57      0.00
   -6   11    0      0.94      0.00
   -5   11    0      1.97      0.00
   -4   11    0      2.87      0.00
   -3   11    0      1.34      0.00
   -2   11    0      2.29      0.00
   -1   11    0     -0.17      0.00
    0   11    0      0.80      0.00
    1   11    0      7.04      0.00
    2   11    0     -1.39      0.00
    3   11    0     -3.12      0.00
    4   11    0     -2.49      0.00
    5   11    0     -1.27      0.00
    6   11    0      3.09      0.00
    7   11    0      1.35      0.00
    8   11    0     -0.57      0.00
    9   11    0     -0.02      0.00
   10   11    0      0.12      0.00
   11   11    0      0.63      0.00
   12   11    0     -0.32      0.00
  -11   12    0     -0.58      0.00
  -10   12    0     -0.12      0.00
   -9   12    0     -1.11      0.00
   -8   12    0     -1.14      0.00
   -7   12    0     -2.02      0.00
   -6   12    0     -0.80      0.00
   -5   12    0     -1.04      0.00
   -4   12    0     -2.58      0.00
   -3   12    0     -0.98      0.00
   -2   12    0      0.32      0.00
   -1   12    0     -3.94      0.00
    0   12    0     -3.58      0.00
    1   12    0     -4.39      0.00
    2   12    0     -0.76      0.00
    3   12    0      5.26      0.00
    4   12    0      1.31      0.00
    5   12    0     -0.13      0.00
    6   12    0     -1.57      0.00
    7   12    0     -1.66      0.00
    8   12    0      0.47      0.00
    9   12    0     -1.09      0.00
   10   12    0     -1.60      0.00
   11   12    0     -0.85      0.00
   12   12    0     -0.50      0.00
   -8   13    0     -0.67      0.00
   -7   13    0     -1.62      0.00
   -6   13    0      0.17      0.00
   -5   13    0     -0.67      0.00
   -4   13    0      0.77      0.00
   -3   13    0      0.52      0.00
   -2   13    0      0.39      0.00
   -1   13    0      4.41      0.00
    0   13    0      7.05      0.00
    1   13    0      2.97      0.00
    2   13    0      2.40      0.00
    3   13    0      0.04      0.00
    4   13    0      0.55      0.00
    5   13    0      2.06      0.00
    6   13    0      0.40      0.00
    7   13    0     -0.37      0.00
    8   13    0      0.46      0.00
    9   13    0      0.80      0.00
   10   13    0      1.36      0.00
   11   13    0      0.20      0.00
   12   13    0     -0.36      0.00
   -8   14    0     -0.09      0.00
   -7   14    0      1.76      0.00
   -6   14    0      0.07      0.00
   -5   14    0     -1.51      0.00
   -4   14    0      0.19      0.00
   -3   14    0     -0.85      0.00
   -2   14    0     -1.64      0.00
   -1   14    0     -3.19      0.00
    0   14    0     -4.97      0.00
    1   14    0     -1.47      0.00
    2   14    0      0.60      0.00
    3   14    0     -1.52      0.00
    4   14    0      0.06      0.00
    5   14    0      0.01      0.00
    6   14    0      1.57      0.00
    7   14    0      2.19      0.00
    8   14    0      0.50      0.00
    9   14    0     -0.62      0.00
   10   14    0      0.21      0.00
   11   14    0      0.61      0.00
   -8   15    0     -1.19      0.00
   -7   15    0     -1.49      0.00
   -6   15    0     -2.03      0.00
   -5   15    0      0.20      0.00
   -4   15    0     -0.80      0.00
   -3   15    0     -1.39      0.00
   -2   15    0      0.75      0.00
   -1   15    0      1.23      0.00
    0   15    0      0.54      0.00
    1   15    0      0.06      0.00
    2   15    0     -1.33      0.00
    3   15    0      1.03      0.00
    4   15    0      1.70      0.00
    5   15    0      0.21      0.00
    6   15    0     -1.07      0.00
    7   15    0     -1.20      0.00
    8   15    0     -0.59      0.00
    9   15    0      0.00      0.00
   10   15    0      0.10      0.00
   11   15    0     -1.10      0.00
   -8   16    0      1.75      0.00
   -7   16    0      1.06      0.00
   -6   16    0      0.31      0.00
   -5   16    0      1.68      0.00
   -4   16    0      0.04      0.00
   -3   16    0      0.68      0.00
   -2   16    0     -0.50      0.00
   -1   16    0     -2.14      0.00
    0   16    0     -0.54      0.00
    1   16    0     -1.17      0.00
    2   16    0     -2.13      0.00
    3   16    0     -1.92      0.00
    4   16    0     -3.17      0.00
    5   16    0     -0.78      0.00
    6   16    0      0.44      0.00
    7   16    0      0.58      0.00
    8   16    0      0.04      0.00
    9   16    0     -0.25      0.00
   10   16    0     -0.36      0.00
   11   16    0     -0.18      0.00
   -8   17    0     -0.86      0.00
   -7   17    0      0.84      0.00
   -6   17    0      1.03      0.00
   -5   17    0     -0.63      0.00
   -4   17    0     -0.88      0.00
   -3   17    0      1.49      0.00
   -2   17    0      1.24      0.00
   -1   17    0      2.02      0.00
    0   17    0      1.71      0.00
    1   17    0      1.13      0.00
    2   17    0      2.55      0.00
    3   17    0      1.44      0.00
    4   17    0      0.73      0.00
    5   17    0     -0.56      0.00
    6   17    0     -0.91      0.00
    7   17    0      0.08      0.00
    8   17    0      0.92      0.00
    9   17    0      1.96      0.00
   10   17    0      0.93      0.00
   -8   18    0      0.59      0.00
   -7   18    0     -1.16      0.00
   -6   18    0     -0.66      0.00
   -5   18    0      0.46      0.00
   -4   18    0      0.66      0.00
   -3   18    0     -0.22      0.00
   -2   18    0     -1.53      0.00
   -1   18    0      0.24      0.00
    0   18    0     -0.86      0.00
    1   18    0     -0.88      0.00
    2   18    0     -1.50      0.00
    3   18    0     -1.65      0.00
    4   18    0      0.30      0.00
    5   18    0      0.46      0.00
    6   18    0      0.60      0.00
    7   18    0     -0.57      0.00
    8   18    0     -0.72      0.00
    9   18    0     -0.53      0.00
   10   18    0     -0.53      0.00
   -8   19    0      1.02      0.00
   -7   19    0      1.75      0.00
   -6   19    0      1.20      0.00
   -5   19    0     -0.29      0.00
   -4   19    0      0.66      0.00
   -3   19    0     -0.30      0.00
   -2   19    0      0.07      0.00
   -1   19    0     -0.16      0.00
    0   19    0     -1.08      0.00
    1   19    0      1.46      0.00
    2   19    0      0.70      0.00
    3   19    0      1.32      0.00
    4   19    0     -0.02      0.00
    5   19    0     -0.43      0.00
    6   19    0     -0.03      0.00
    7   19    0     -0.26      0.00
    8   19    0     -0.59      0.00
    9   19    0     -1.55      0.00
   -8   20    0     -1.23      0.00
   -7   20    0     -1.27      0.00
   -6   20    0      0.56      0.00
   -5   20    0     -0.62      0.00
   -4   20    0     -0.56      0.00
   -3   20    0     -1.37      0.00
   -2   20    0      0.90      0.00
   -1   20    0      0.26      0.00
    0   20    0      0.92      0.00
    1   20    0      0.32      0.00
    2   20    0     -0.28      0.00
    3   20    0      0.71      0.00
    4   20    0     -0.02      0.00
    5   20    0      0.61      0.00
    6   20    0     -0.86      0.00
    7   20    0      0.03      0.00
    8   20    0      0.62      0.00
    9   20    0      0.36      0.00
   -7   21    0     -0.32      0.00
   -6   21    0     -0.91      0.00
   -5   21    0      1.44      0.00
   -4   21    0      1.86      0.00
   -3   21    0      0.89      0.00
   -2   21    0      0.69      0.00
   -1   21    0     -1.49      0.00
    0   21    0      0.55      0.00
    1   21    0     -0.92      0.00
    2   21    0     -0.56      0.00
    3   21    0     -0.92      0.00
    4   21    0     -0.21      0.00
    5   21    0      0.74      0.00
    6   21    0      0.65      0.00
    7   21    0      0.57      0.00
    8   21    0     -0.51      0.00
   -6   22    0     -0.46      0.00
   -5   22    0     -0.83      0.00
   -4   22    0     -1.76      0.00
   -3   22    0      0.42      0.00
   -2   22    0     -0.12      0.00
   -1   22    0      0.19      0.00
    0   22    0      1.00      0.00
    1   22    0      0.39      0.00
    2   22    0      2.04      0.00
    3   22    0      0.76      0.00
    4   22    0      0.23      0.00
    5   22    0     -1.11      0.00
    6   22    0     -0.37      0.00
    7   22    0      0.59      0.00
   -5   23    0      0.69      0.00
   -4   23    0     -0.21      0.00
   -3   23    0      0.74      0.00
   -2   23    0     -0.16      0.00
   -1   23    0      0.76      0.00
    0   23    0     -0.58      0.00
    1   23    0     -1.08      0.00
    2   23    0     -1.23      0.00
    3   23    0     -0.58      0.00
    4   23    0      0.01      0.00
    5   23    0      0.23      0.00
    6   23    0      0.47      0.00
    7   23    0     -0.57      0.00
   -4   24    0     -0.13      0.00
   -3   24    0     -1.04      0.00
   -2   24    0     -1.53      0.00
   -1   24    0     -0.60      0.00
    0   24    0     -1.34      0.00
    1   24    0     -0.06      0.00
    2   24    0     -0.51      0.00
    3   24    0     -0.66      0.00
    4   24    0     -0.47      0.00
    5   24    0     -0.55      0.00
   -3   25    0      0.70      0.00
   -2   25    0      0.76      0.00
   -1   25    0      1.25      0.00
    0   25    0      1.35      0.00
    1   25    0      0.92      0.00
    2   25    0      1.68      0.00
    3   25    0      1.39      0.00
    1   26    0     -0.39      0.00
   -4  -25    1     -0.11      0.00
   -3  -25    1     -0.68      0.00
   -2  -25    1     -0.32      0.00
   -1  -25    1     -0.78      0.00
    0  -25    1     -0.46      0.00
    1  -25    1     -0.78      0.00
    2  -25    1      0.23      0.00
    3  -25    1     -0.17      0.00
   -5  -24    1      0.32      0.00
   -4  -24    1     -0.30      0.00
   -3  -24    1     -0.75      0.00
   -2  -24    1     -1.07      0.00
   -1  -24    1     -0.45      0.00
    0  -24    1     -0.28      0.00
    1  -24    1     -0.42      0.00
    2  -24    1      0.42      0.00
    3  -24    1     -0.65      0.00
    4  -24    1      0.45      0.00
   -6  -23    1     -0.45      0.00
   -5  -23    1     -0.37      0.00
   -4  -23    1      0.13      0.00
   -3  -23    1      1.16      0.00
   -2  -23    1      1.24      0.00
   -1  -23    1      1.60      0.00
    0  -23    1     -0.35      0.00
    1  -23    1      1.48      0.00
    2  -23    1      0.18      0.00
    3  -23    1     -0.13      0.00
    4  -23    1     -0.08      0.00
    5  -23    1     -1.45      0.00
   -7  -22    1      0.14      0.00
   -6  -22    1      1.65      0.00
   -5  -22    1      0.58      0.00
   -4  -22    1      0.19      0.00
   -3  -22    1     -0.33      0.00
   -2  -22    1     -0.16      0.00
   -1  -22    1      0.58      0.00
    0  -22    1     -0.40      0.00
    1  -22    1      0.68      0.00
    2  -22    1     -0.81      0.00
    3  -22    1      1.83      0.00
    4  -22    1      1.80      0.00
    5  -22    1      1.62      0.00
    6  -22    1     -0.19      0.00
   -8  -21    1     -0.29      0.00
   -7  -21    1     -0.62      0.00
   -6  -21    1     -0.84      0.00
   -5  -21    1     -0.54      0.00
   -4  -21    1      0.46      0.00
   -3  -21    1     -0.37      0.00
   -2  -21    1      0.19      0.00
   -1  -21    1     -1.25      0.00
    0  -21    1      0.55      0.00
    1  -21    1      0.17      0.00
    2  -21    1     -0.98      0.00
    3  -21    1     -0.44      0.00
    4  -21    1     -2.20      0.00
    5  -21    1      0.04      0.00
    6  -21    1     -0.10      0.00
    7  -21    1     -0.26      0.00
   -9  -20    1     -0.34      0.00
   -8  -20    1     -0.65      0.00
   -7  -20    1      0.11      0.00
   -6  -20    1     -0.60      0.00
   -5  -20    1     -0.67      0.00
   -4  -20    1     -0.22      0.00
   -3  -20    1      0.43      0.00
   -2  -20    1      1.20      0.00
   -1  -20    1     -0.26      0.00
    0  -20    1      0.57      0.00
    1  -20    1     -0.95      0.00
    2  -20    1      1.06      0.00
    3  -20    1      0.46      0.00
    4  -20    1      0.13      0.00
    5  -20    1      0.42      0.00
    6  -20    1      1.16      0.00
    7  -20    1      2.12      0.00
    8  -20    1      0.65      0.00
   -9  -19    1     -0.62      0.00
   -8  -19    1     -0.15      0.00
   -7  -19    1      0.07      0.00
   -6  -19    1      0.90      0.00
   -5  -19    1      1.17      0.00
   -4  -19    1     -0.59      0.00
   -3  -19    1     -0.69      0.00
   -2  -19    1     -1.54      0.00
   -1  -19    1     -0.18      0.00
    0  -19    1      0.55      0.00
    1  -19    1     -0.99      0.00
    2  -19    1     -0.25      0.00
    3  -19    1     -1.08      0.00
    4  -19    1      0.58      0.00
    5  -19    1      0.03      0.00
    6  -19    1     -1.30      0.00
    7  -19    1     -1.68      0.00
    8  -19    1      0.87      0.00
  -10  -18    1      2.16      0.00
   -9  -18    1      1.68      0.00
   -8  -18    1      1.28      0.00
   -7  -18    1      0.02      0.00
   -6  -18    1     -0.99      0.00
   -5  -18    1     -1.12      0.00
   -4  -18    1      0.31      0.00
   -3  -18    1      0.53      0.00
   -2  -18    1      0.10      0.00
   -1  -18    1      0.57      0.00
    0  -18    1     -0.57      0.00
    1  -18    1      1.13      0.00
    2  -18    1      1.17      0.00
    3  -18    1     -0.07      0.00
    4  -18    1      0.05      0.00
    5  -18    1     -0.55      0.00
    6  -18    1      1.13      0.00
    7  -18    1      0.98      0.00
    8  -18    1     -0.54      0.00
    9  -18    1     -1.03      0.00
  -10  -17    1     -1.40      0.00
   -9  -17    1     -0.88      0.00
   -8  -17    1     -0.18      0.00
   -7  -17    1      0.77      0.00
   -6  -17    1      0.26      0.00
   -5  -17    1     -1.15      0.00
   -4  -17    1     -1.58      0.00
   -3  -17    1     -2.05      0.00
   -2  -17    1     -0.16      0.00
   -1  -17    1     -0.34      0.00
    0  -17    1     -0.70      0.00
    1  -17    1      0.13      0.00
    2  -17    1     -0.18      0.00
    3  -17    1      0.81      0.00
    4  -17    1      1.04      0.00
    5  -17    1     -0.42      0.00
    6  -17    1     -0.05      0.00
    7  -17    1      0.05      0.00
    8  -17    1      0.62      0.00
    9  -17    1      0.18      0.00
  -11  -16    1     -0.09      0.00
  -10  -16    1     -0.84      0.00
   -9  -16    1     -0.12      0.00
   -8  -16    1     -0.68      0.00
   -7  -16    1     -0.70      0.00
   -6  -16    1      0.45      0.00
   -5  -16    1      2.86      0.00
   -4  -16    1      2.45      0.00
   -3  -16    1      1.52      0.00
   -2  -16    1      0.05      0.00
   -1  -16    1     -0.98      0.00
    0  -16    1      0.73      0.00
    1  -16    1     -0.63      0.00
    2  -16    1     -2.44      0.00
    3  -16    1     -1.86      0.00
    4  -16    1     -1.96      0.00
    5  -16    1     -1.19      0.00
    6  -16    1     -0.65      0.00
    7  -16    1     -2.38      0.00
    8  -16    1     -0.66      0.00
    9  -16    1      0.72      0.00
  -11  -15    1      0.32      0.00
  -10  -15    1      0.18      0.00
   -9  -15    1      0.58      0.00
   -8  -15    1      0.91      0.00
   -7  -15    1      1.00      0.00
   -6  -15    1      0.63      0.00
   -5  -15    1     -0.84      0.00
   -4  -15    1     -1.72      0.00
   -3  -15    1      0.29      0.00
   -2  -15    1     -1.29      0.00
   -1  -15    1     -1.20      0.00
    0  -15    1     -2.56      0.00
    1  -15    1     -1.88      0.00
    2  -15    1      1.67      0.00
    3  -15    1      2.03      0.00
    4  -15    1      0.15      0.00
    5  -15    1      1.34      0.00
    6  -15    1      0.67      0.00
    7  -15    1      1.35      0.00
    8  -15    1      0.36      0.00
  -11  -14    1      0.08      0.00
  -10  -14    1      0.95      0.00
   -9  -14    1      0.21      0.00
   -8  -14    1     -0.97      0.00
   -7  -14    1     -0.22      0.00
   -6  -14    1      0.41      0.00
   -5  -14    1      0.52      0.00
   -4  -14    1      1.67      0.00
   -3  -14    1      1.16      0.00
   -2  -14    1      2.80      0.00
   -1  -14    1      6.34      0.00
    0  -14    1      4.84      0.00
    1  -14    1      3.53      0.00
    2  -14    1      0.19      0.00
    3  -14    1     -1.23      0.00
    4  -14    1     -0.56      0.00
    5  -14    1     -0.27      0.00
    6  -14    1     -2.69      0.00
    7  -14    1     -0.93      0.00
    8  -14    1     -0.72      0.00
  -12  -13    1     -0.54      0.00
  -11  -13    1     -1.38      0.00
  -10  -13    1     -1.35      0.00
   -9  -13    1     -0.74      0.00
   -8  -13    1     -0.29      0.00
   -7  -13    1     -0.70      0.00
   -6  -13    1     -2.24      0.00
   -5  -13    1      0.04      0.00
   -4  -13    1      2.29      0.00
   -3  -13    1      0.12      0.00
   -2  -13    1     -0.77      0.00
   -1  -13    1     -6.16      0.00
    0  -13    1     -5.04      0.00
    1  -13    1     -0.66      0.00
    2  -13    1     -1.02      0.00
    3  -13    1      0.06      0.00
    4  -13    1      0.71      0.00
    5  -13    1      0.25      0.00
    6  -13    1      1.11      0.00
    7  -13    1      0.77      0.00
    8  -13    1     -1.21      0.00
  -12  -12    1      0.09      0.00
  -11  -12    1      0.70      0.00
  -10  -12    1      1.07      0.00
   -9  -12    1     -0.52      0.00
   -8  -12    1      0.57      0.00
   -7  -12    1      0.95      0.00
   -6  -12    1      0.37      0.00
   -5  -12    1     -1.38      0.00
   -4  -12    1     -6.29      0.00
   -3  -12    1     -3.14      0.00
   -2  -12    1      1.35      0.00
   -1  -12    1      1.56      0.00
    0  -12    1      3.89      0.00
    1  -12    1     -1.15      0.00
    2  -12    1      1.27      0.00
    3  -12    1      3.80      0.00
    4  -12    1      1.51      0.00
    5  -12    1      0.71      0.00
    6  -12    1      1.91      0.00
    7  -12    1      1.84      0.00
    8  -12    1      2.15      0.00
    9  -12    1      1.07      0.00
   10  -12    1     -0.54      0.00
   11  -12    1     -0.01      0.00
  -12  -11    1     -0.27      0.00
  -11  -11    1     -0.30      0.00
  -10  -11    1     -0.14      0.00
   -9  -11    1     -0.03      0.00
   -8  -11    1     -0.66      0.00
   -7  -11    1     -3.09      0.00
   -6  -11    1     -0.93      0.00
   -5  -11    1     -0.06      0.00
   -4  -11    1      0.84      0.00
   -3  -11    1      2.74      0.00
   -2  -11    1     -3.35      0.00
   -1  -11    1      1.92      0.00
    0  -11    1      5.23      0.00
    1  -11    1      1.05      0.00
    2  -11    1      2.79      0.00
    3  -11    1     -1.78      0.00
    4  -11    1      0.56      0.00
    5  -11    1      3.25      0.00
    6  -11    1      0.79      0.00
    7  -11    1     -0.83      0.00
    8  -11    1     -0.71      0.00
    9  -11    1     -0.37      0.00
   10  -11    1      0.74      0.00
   11  -11    1      0.16      0.00
   12  -11    1      0.13      0.00
  -12  -10    1      0.98      0.00
  -11  -10    1      0.87      0.00
  -10  -10    1     -0.51      0.00
   -9  -10    1      1.15      0.00
   -8  -10    1      2.52      0.00
   -7  -10    1      3.95      0.00
   -6  -10    1      4.02      0.00
   -5  -10    1      1.49      0.00
   -4  -10    1      4.93      0.00
   -3  -10    1      1.43      0.00
   -2  -10    1     -3.96      0.00
   -1  -10    1     -5.90      0.00
    0  -10    1    -17.47      0.00
    1  -10    1     -8.67      0.00
    2  -10    1     -3.39      0.00
    3  -10    1     -6.60      0.00
    4  -10    1     -3.34      0.00
    5  -10    1     -4.97      0.00
    6  -10    1     -3.10      0.00
    7  -10    1     -0.28      0.00
    8  -10    1      0.43      0.00
    9  -10    1      0.43      0.00
   10  -10    1      1.05      0.00
   11  -10    1      0.85      0.00
   12  -10    1      1.15      0.00
  -12   -9    1      0.01      0.00
  -11   -9    1     -0.37      0.00
  -10   -9    1      0.40      0.00
   -9   -9    1     -0.26      0.00
   -8   -9    1     -2.61      0.00
   -7   -9    1     -1.18      0.00
   -6   -9    1     -2.57      0.00
   -5   -9    1     -3.14      0.00
   -4   -9    1     -4.42      0.00
   -3   -9    1     -7.98      0.00
   -2   -9    1      6.28      0.00
   -1   -9    1     12.69      0.00
    0   -9    1     10.72      0.00
    1   -9    1     12.26      0.00
    2   -9    1     -2.45      0.00
    3   -9    1      2.06      0.00
    4   -9    1      4.09      0.00
    5   -9    1     -1.04      0.00
    6   -9    1      1.35      0.00
    7   -9    1     -0.04      0.00
    8   -9    1      0.26      0.00
    9   -9    1     -0.79      0.00
   10   -9    1     -1.99      0.00
   11   -9    1     -1.58      0.00
   12   -9    1     -1.57      0.00
  -12   -8    1     -0.35      0.00
  -11   -8    1     -0.58      0.00
  -10   -8    1     -0.21      0.00
   -9   -8    1     -0.95      0.00
   -8   -8    1      0.66      0.00
   -7   -8    1     -1.05      0.00
   -6   -8    1     -0.44      0.00
   -5   -8    1      7.68      0.00
   -4   -8    1      9.18      0.00
   -3   -8    1     12.29      0.00
   -2   -8    1      5.95      0.00
   -1   -8    1    -12.07      0.00
    0   -8    1     -2.18      0.00
    1   -8    1     -1.74      0.00
    2   -8    1     -5.81      0.00
    3   -8    1      0.11      0.00
    4   -8    1     -6.14      0.00
    5   -8    1     -1.06      0.00
    6   -8    1      1.97      0.00
    7   -8    1     -1.67      0.00
    8   -8    1     -0.98      0.00
    9   -8    1     -0.91      0.00
   10   -8    1      0.58      0.00
   11   -8    1      1.20      0.00
   12   -8    1     -0.09      0.00
  -12   -7    1     -0.53      0.00
  -11   -7    1      0.43      0.00
  -10   -7    1      0.11      0.00
   -9   -7    1     -0.52      0.00
   -8   -7    1      1.03      0.00
   -7   -7    1     -0.05      0.00
   -6   -7    1      0.69      0.00
   -5   -7    1     -6.94      0.00
   -4   -7    1    -13.23      0.00
   -3   -7    1     -5.23      0.00
   -2   -7    1     -2.45      0.00
   -1   -7    1      7.12      0.00
    0   -7    1     12.76      0.00
    1   -7    1      3.72      0.00
    2   -7    1     18.69      0.00
    3   -7    1     15.31      0.00
    4   -7    1      3.60      0.00
    5   -7    1      2.53      0.00
    6   -7    1     -4.70      0.00
    7   -7    1     -2.18      0.00
    8   -7    1      0.18      0.00
    9   -7    1     -0.19      0.00
   10   -7    1      0.24      0.00
   11   -7    1     -1.11      0.00
   12   -7    1      0.09      0.00
  -12   -6    1      0.58      0.00
  -11   -6    1      0.98      0.00
  -10   -6    1     -0.18      0.00
   -9   -6    1      1.49      0.00
   -8   -6    1     -2.13      0.00
   -7   -6    1     -2.78      0.00
   -6   -6    1     -0.34      0.00
   -5   -6    1     -3.46      0.00
   -4   -6    1      3.75      0.00
   -3   -6    1     -3.67      0.00
   -2   -6    1     -7.53      0.00
   -1   -6    1      7.27      0.00
    0   -6    1     -1.18      0.00
    1   -6    1     -7.31      0.00
    2   -6    1    -12.62      0.00
    3   -6    1    -19.22      0.00
    4   -6    1     -3.69      0.00
    5   -6    1      2.37      0.00
    6   -6    1      0.25      0.00
    7   -6    1      3.79      0.00
    8   -6    1      0.46      0.00
    9   -6    1      0.64      0.00
   10   -6    1      1.14      0.00
   11   -6    1      0.08      0.00
   12   -6    1      1.31      0.00
  -12   -5    1      0.92      0.00
  -11   -5    1      0.08      0.00
  -10   -5    1      0.26      0.00
   -9   -5    1      1.28      0.00
   -8   -5    1      0.94      0.00
   -7   -5    1      4.32      0.00
   -6   -5    1     -0.41      0.00
   -5   -5    1      1.80      0.00
   -4   -5    1      5.25      0.00
   -3   -5    1     -5.58      0.00
   -2   -5    1     -6.49      0.00
   -1   -5    1    -28.85      0.00
    0   -5    1    -29.81      0.00
    1   -5    1      4.44      0.00
    2   -5    1     12.14      0.00
    3   -5    1     17.37      0.00
    4   -5    1     15.91      0.00
    5   -5    1      6.09      0.00
    6   -5    1      7.00      0.00
    7   -5    1      4.45      0.00
    8   -5    1     -0.54      0.00
    9   -5    1      1.02      0.00
   10   -5    1     -0.32      0.00
   11   -5    1      0.41      0.00
   12   -5    1      0.41      0.00
  -12   -4    1     -0.91      0.00
  -11   -4    1     -0.96      0.00
  -10   -4    1      1.14      0.00
   -9   -4    1     -0.33      0.00
   -8   -4    1      0.92      0.00
   -7   -4    1      2.93      0.00
   -6   -4    1     -0.18      0.00
   -5   -4    1      3.34      0.00
   -4   -4    1    -11.67      0.00
   -3   -4    1     -5.12      0.00
   -2   -4    1     13.28      0.00
   -1   -4    1     14.08      0.00
    0   -4    1     26.73      0.00
    1   -4    1     -3.64      0.00
    2   -4    1    -14.79      0.00
    3   -4    1     -5.52      0.00
    4   -4    1    -10.20      0.00
    5   -4    1     -8.19      0.00
    6   -4    1     -3.50      0.00
    7   -4    1     -3.78      0.00
    8   -4    1      0.58      0.00
    9   -4    1      1.87      0.00
   10   -4    1     -1.37      0.00
   11   -4    1     -0.60      0.00
   12   -4    1     -1.87      0.00
  -12   -3    1     -1.47      0.00
  -11   -3    1     -0.94      0.00
  -10   -3    1     -0.68      0.00
   -9   -3    1     -0.65      0.00
   -8   -3    1      0.78      0.00
   -7   -3    1     -2.12      0.00
   -6   -3    1      4.12      0.00
   -5   -3    1     13.45      0.00
   -4   -3    1     17.42      0.00
   -3   -3    1     32.19      0.00
   -1   -3    1     -2.54      0.00
    0   -3    1      1.46      0.00
    1   -3    1    -20.77      0.00
    2   -3    1    -10.95      0.00
    4   -3    1    -16.01      0.00
    5   -3    1     -1.01      0.00
    6   -3    1      0.51      0.00
    7   -3    1     -0.28      0.00
    8   -3    1      0.69      0.00
    9   -3    1     -1.23      0.00
   10   -3    1      1.01      0.00
   11   -3    1      2.81      0.00
   12   -3    1      1.03      0.00
  -12   -2    1      1.04      0.00
  -11   -2    1      0.43      0.00
  -10   -2    1     -1.11      0.00
   -9   -2    1     -1.21      0.00
   -8   -2    1     -0.79      0.00
   -7   -2    1     -1.45      0.00
   -6   -2    1     -2.12      0.00
   -5   -2    1    -15.84      0.00
   -4   -2    1    -12.22      0.00
   -3   -2    1    -13.46      0.00
   -2   -2    1    -23.47      0.00
   -1   -2    1     -6.20      0.00
    1   -2    1     -6.86      0.00
    2   -2    1     21.70      0.00
    3   -2    1     12.20      0.00
    4   -2    1     14.02      0.00
    5   -2    1     -1.40      0.00
    6   -2    1     -6.25      0.00
    7   -2    1     -2.59      0.00
    8   -2    1     -0.61      0.00
    9   -2    1     -1.67      0.00
   10   -2    1     -0.36      0.00
   11   -2    1     -1.40      0.00
   12   -2    1     -0.12      0.00
  -12   -1    1      0.40      0.00
  -11   -1    1     -0.38      0.00
  -10   -1    1     -0.85      0.00
   -9   -1    1     -2.14      0.00
   -8   -1    1     -3.43      0.00
   -7   -1    1     -2.49      0.00
   -6   -1    1     -0.89      0.00
   -5   -1    1      0.35      0.00
   -4   -1    1     11.15      0.00
   -3   -1    1      3.95      0.00
   -2   -1    1     44.29      0.00
    0   -1    1     72.97      0.00
    1   -1    1     73.59      0.00
    2   -1    1      6.26      0.00
    3   -1    1     -0.31      0.00
    4   -1    1      2.20      0.00
    5   -1    1     -6.11      0.00
    6   -1    1     -0.32      0.00
    7   -1    1     -2.61      0.00
    8   -1    1     -2.82      0.00
    9   -1    1     -0.92      0.00
   10   -1    1     -0.35      0.00
   11   -1    1     -1.55      0.00
   12   -1    1     -0.57      0.00
  -12    0    1     -0.42      0.00
  -11    0    1      0.74      0.00
  -10    0    1      1.55      0.00
   -9    0    1      2.22      0.00
   -8    0    1      2.79      0.00
   -7    0    1     -1.00      0.00
   -6    0    1     -5.31      0.00
   -5    0    1     -1.80      0.00
   -4    0    1     -7.18      0.00
   -3    0    1    -19.37      0.00
   -2    0    1    -29.70      0.00
   -1    0    1    -84.74      0.00
    0    0    1    -58.98      0.00
    1    0    1    -28.67      0.00
    2    0    1    -14.86      0.00
    3    0    1     17.53      0.00
    4    0    1      3.82      0.00
    5    0    1     10.97      0.00
    6    0    1     12.27      0.00
    7    0    1      5.52      0.00
    8    0    1      2.02      0.00
    9    0    1     -0.67      0.00
   10    0    1     -0.72      0.00
   11    0    1      0.68      0.00
   12    0    1      0.87      0.00
  -12    1    1      1.18      0.00
  -11    1    1      1.80      0.00
  -10    1    1     -0.29      0.00
   -9    1    1      0.37      0.00
   -8    1    1      0.66      0.00
   -7    1    1      2.36      0.00
   -6    1    1      4.17      0.00
   -5    1    1     -0.80      0.00
   -4    1    1    -12.32      0.00
   -3    1    1     -1.75      0.00
   -2    1    1      0.13      0.00
   -1    1    1     -0.92      0.00
    0    1    1     12.44      0.00
    1    1    1    -26.59      0.00
    2    1    1      3.64      0.00
    3    1    1     10.23      0.00
    4    1    1     -4.06      0.00
    5    1    1      1.27      0.00
    6    1    1    -10.00      0.00
    7    1    1     -4.07      0.00
    8    1    1      0.60      0.00
    9    1    1      1.32      0.00
   10    1    1      0.66      0.00
   11    1    1     -1.08      0.00
   12    1    1     -0.99      0.00
  -12    2    1     -1.31      0.00
  -11    2    1     -1.24      0.00
  -10    2    1      0.33      0.00
   -9    2    1      2.26      0.00
   -8    2    1     -0.30      0.00
   -7    2    1      1.28      0.00
   -6    2    1      3.27      0.00
   -5    2    1      3.57      0.00
   -4    2    1      8.18      0.00
   -3    2    1      5.74      0.00
   -2    2    1     -8.13      0.00
   -1    2    1     16.35      0.00
    0    2    1     15.18      0.00
    1    2    1      0.41      0.00
    2    2    1     -4.31      0.00
    3    2    1    -30.62      0.00
    4    2    1     -4.76      0.00
    5    2    1      7.88      0.00
    6    2    1      7.29      0.00
    7    2    1     10.07      0.00
    8    2    1      3.07      0.00
    9    2    1      3.04      0.00
   10    2    1      2.34      0.00
   11    2    1      0.57      0.00
   12    2    1     -0.45      0.00
  -12    3    1      1.11      0.00
  -11    3    1     -0.35      0.00
  -10    3    1      0.66      0.00
   -9    3    1     -0.63      0.00
   -8    3    1     -0.35      0.00
   -7    3    1      2.68      0.00
   -6    3    1     -0.39      0.00
   -5    3    1      4.14      0.00
   -4    3    1     13.13      0.00
   -3    3    1     11.83      0.00
   -1    3    1     -2.45      0.00
    0    3    1    -30.46      0.00
    1    3    1      0.80      0.00
    2    3    1      7.23      0.00
    3    3    1      4.52      0.00
    4    3    1      5.04      0.00
    5    3    1    -12.93      0.00
    6    3    1     -5.88      0.00
    7    3    1     -4.85      0.00
    8    3    1     -4.59      0.00
    9    3    1     -2.01      0.00
   10    3    1     -2.21      0.00
   11    3    1      1.56      0.00
   12    3    1      2.49      0.00
  -12    4    1     -0.02      0.00
  -11    4    1     -0.43      0.00
  -10    4    1     -0.59      0.00
   -9    4    1     -1.95      0.00
   -8    4    1      0.12      0.00
   -7    4    1     -0.45      0.00
   -6    4    1     -1.24      0.00
   -5    4    1      2.21      0.00
   -4    4    1     -6.89      0.00
   -3    4    1     -5.11      0.00
   -2    4    1     10.19      0.00
   -1    4    1     13.19      0.00
    0    4    1     23.81      0.00
    1    4    1      8.27      0.00
    2    4    1    -15.83      0.00
    3    4    1     -1.37      0.00
    4    4    1     -5.06      0.00
    5    4    1     -7.14      0.00
    6    4    1     -1.25      0.00
    7    4    1     -5.16      0.00
    8    4    1      0.68      0.00
    9    4    1      1.51      0.00
   10    4    1      0.12      0.00
   11    4    1     -0.26      0.00
   12    4    1     -1.69      0.00
   13    4    1     -0.35      0.00
  -12    5    1     -1.18      0.00
  -11    5    1     -0.14      0.00
  -10    5    1      0.48      0.00
   -9    5    1      0.82      0.00
   -8    5    1      0.55      0.00
   -7    5    1     -3.89      0.00
   -6    5    1     -2.73      0.00
   -5    5    1     -3.45      0.00
   -4    5    1     -4.68      0.00
   -3    5    1      3.44      0.00
   -2    5    1    -11.05      0.00
   -1    5    1    -13.62      0.00
    0    5    1      3.18      0.00
    1    5    1     -0.71      0.00
    2    5    1      7.64      0.00
    3    5    1      1.52      0.00
    4    5    1     -4.43      0.00
    5    5    1      8.50      0.00
    6    5    1      5.21      0.00
    7    5    1      2.37      0.00
    8    5    1      1.21      0.00
    9    5    1     -2.02      0.00
   10    5    1      0.60      0.00
   11    5    1     -0.16      0.00
   12    5    1     -0.19      0.00
  -12    6    1     -0.08      0.00
  -11    6    1      0.07      0.00
  -10    6    1     -1.60      0.00
   -9    6    1     -2.24      0.00
   -8    6    1     -2.57      0.00
   -7    6    1     -2.19      0.00
   -6    6    1      0.14      0.00
   -5    6    1     -6.69      0.00
   -4    6    1     -2.18      0.00
   -3    6    1      0.89      0.00
   -2    6    1      0.66      0.00
   -1    6    1     16.33      0.00
    0    6    1      1.73      0.00
    1    6    1      6.27      0.00
    2    6    1     25.26      0.00
    3    6    1     18.16      0.00
    4    6    1     13.60      0.00
    5    6    1      3.39      0.00
    6    6    1     -5.44      0.00
    7    6    1     -1.02      0.00
    8    6    1     -0.98      0.00
    9    6    1     -1.49      0.00
   10    6    1     -1.27      0.00
   11    6    1     -1.13      0.00
   12    6    1      0.08      0.00
  -12    7    1      0.40      0.00
  -11    7    1      0.58      0.00
  -10    7    1      0.48      0.00
   -9    7    1      1.45      0.00
   -8    7    1      2.79      0.00
   -7    7    1      4.57      0.00
   -6    7    1      4.74      0.00
   -5    7    1      4.92      0.00
   -4    7    1      6.43      0.00
   -3    7    1     -8.19      0.00
   -2    7    1     -6.40      0.00
   -1    7    1     -4.22      0.00
    0    7    1    -13.29      0.00
    1    7    1     -7.17      0.00
    2    7    1    -26.38      0.00
    3    7    1    -23.70      0.00
    4    7    1     -6.77      0.00
    5    7    1     -3.95      0.00
    6    7    1      2.08      0.00
    7    7    1      1.85      0.00
    8    7    1      0.17      0.00
    9    7    1      2.83      0.00
   10    7    1      1.48      0.00
   11    7    1      1.14      0.00
   12    7    1      0.86      0.00
  -12    8    1      0.17      0.00
  -11    8    1     -0.08      0.00
  -10    8    1      0.82      0.00
   -9    8    1      1.14      0.00
   -8    8    1     -0.15      0.00
   -7    8    1     -1.99      0.00
   -6    8    1     -5.86      0.00
   -5    8    1     -4.08      0.00
   -4    8    1     -4.65      0.00
   -3    8    1     -3.57      0.00
   -2    8    1      2.37      0.00
   -1    8    1    -12.62      0.00
    0    8    1     -4.14      0.00
    1    8    1      7.11      0.00
    2    8    1      6.35      0.00
    3    8    1     13.73      0.00
    4    8    1      5.23      0.00
    5    8    1      3.12      0.00
    6    8    1      5.00      0.00
    7    8    1      1.80      0.00
    8    8    1      0.79      0.00
    9    8    1     -1.46      0.00
   10    8    1     -1.22      0.00
   11    8    1     -0.05      0.00
   12    8    1     -0.44      0.00
  -11    9    1      0.52      0.00
  -10    9    1      0.01      0.00
   -9    9    1     -0.70      0.00
   -8    9    1     -1.08      0.00
   -7    9    1      1.05      0.00
   -6    9    1      4.41      0.00
   -5    9    1      6.69      0.00
   -4    9    1      3.19      0.00
   -3    9    1      6.86      0.00
   -2    9    1      6.79      0.00
   -1    9    1      4.28      0.00
    0    9    1      7.71      0.00
    1    9    1     -9.52      0.00
    2    9    1     -6.43      0.00
    3    9    1     -2.45      0.00
    4    9    1     -7.56      0.00
    5    9    1     -4.47      0.00
    6    9    1     -6.31      0.00
    7    9    1     -3.82      0.00
    8    9    1      0.26      0.00
    9    9    1      0.39      0.00
   10    9    1      0.92      0.00
   11    9    1     -0.52      0.00
   12    9    1      0.01      0.00
  -11   10    1     -0.85      0.00
  -10   10    1     -0.46      0.00
   -9   10    1      1.04      0.00
   -8   10    1      1.57      0.00
   -7   10    1      1.77      0.00
   -6   10    1      0.73      0.00
   -5   10    1     -1.08      0.00
   -4   10    1      0.85      0.00
   -3   10    1      1.70      0.00
   -2   10    1     -3.12      0.00
   -1   10    1      3.49      0.00
    0   10    1      6.23      0.00
    1   10    1      5.06      0.00
    2   10    1      6.41      0.00
    3   10    1     -3.41      0.00
    4   10    1      0.15      0.00
    5   10    1      3.58      0.00
    6   10    1      2.22      0.00
    7   10    1      2.06      0.00
    8   10    1     -1.14      0.00
    9   10    1     -0.82      0.00
   10   10    1      0.43      0.00
   11   10    1     -0.54      0.00
   12   10    1     -0.24      0.00
  -11   11    1      0.24      0.00
  -10   11    1     -0.64      0.00
   -9   11    1     -1.40      0.00
   -8   11    1     -2.26      0.00
   -7   11    1     -2.19      0.00
   -6   11    1     -3.22      0.00
   -5   11    1     -2.76      0.00
   -4   11    1     -1.43      0.00
   -3   11    1     -1.76      0.00
   -2   11    1     -0.50      0.00
   -1   11    1     -1.23      0.00
    0   11    1     -8.54      0.00
    1   11    1     -2.34      0.00
    2   11    1      1.35      0.00
    3   11    1      2.07      0.00
    4   11    1      3.58      0.00
    5   11    1     -2.17      0.00
    6   11    1     -1.61      0.00
    7   11    1      0.06      0.00
    8   11    1     -0.25      0.00
    9   11    1     -0.08      0.00
   10   11    1     -1.81      0.00
   11   11    1     -0.22      0.00
   12   11    1     -0.23      0.00
  -11   12    1      0.25      0.00
  -10   12    1      0.28      0.00
   -9   12    1      0.05      0.00
   -8   12    1      0.29      0.00
   -7   12    1     -0.18      0.00
   -6   12    1      0.25      0.00
   -5   12    1      2.32      0.00
   -4   12    1     -0.17      0.00
   -3   12    1     -0.70      0.00
   -2   12    1      1.24      0.00
   -1   12    1      2.19      0.00
    0   12    1      4.45      0.00
    1   12    1      3.18      0.00
    2   12    1     -2.45      0.00
    3   12    1      0.98      0.00
    4   12    1      1.18      0.00
    5   12    1      1.15      0.00
    6   12    1      1.51      0.00
    7   12    1     -0.29      0.00
    8   12    1      0.47      0.00
    9   12    1      2.40      0.00
   10   12    1      1.30      0.00
   11   12    1      0.67      0.00
   12   12    1      0.09      0.00
   -9   13    1     -0.03      0.00
   -8   13    1      0.80      0.00
   -7   13    1     -0.10      0.00
   -6   13    1     -0.26      0.00
   -5   13    1     -2.04      0.00
   -4   13    1     -2.51      0.00
   -3   13    1     -0.31      0.00
   -2   13    1     -2.78      0.00
   -1   13    1     -4.60      0.00
    0   13    1     -1.40      0.00
    1   13    1     -0.64      0.00
    2   13    1      0.86      0.00
    3   13    1      0.29      0.00
    4   13    1     -2.29      0.00
    5   13    1      0.96      0.00
    6   13    1      2.00      0.00
    7   13    1      1.23      0.00
    8   13    1      0.08      0.00
    9   13    1     -1.55      0.00
   10   13    1     -0.46      0.00
   11   13    1      0.83      0.00
   12   13    1      0.32      0.00
   -8   14    1     -0.88      0.00
   -7   14    1     -1.17      0.00
   -6   14    1      0.93      0.00
   -5   14    1      0.04      0.00
   -4   14    1      2.22      0.00
   -3   14    1      1.71      0.00
   -2   14    1      1.61      0.00
   -1   14    1      3.12      0.00
    0   14    1     -0.53      0.00
    1   14    1     -3.34      0.00
    2   14    1     -1.02      0.00
    3   14    1     -1.09      0.00
    4   14    1      0.17      0.00
    5   14    1     -1.19      0.00
    6   14    1     -2.69      0.00
    7   14    1     -1.89      0.00
    8   14    1      0.35      0.00
    9   14    1      0.41      0.00
   10   14    1     -0.17      0.00
   11   14    1     -0.19      0.00
   12   14    1     -0.18      0.00
   -8   15    1      1.96      0.00
   -7   15    1      2.08      0.00
   -6   15    1      0.82      0.00
   -5   15    1      0.10      0.00
   -4   15    1      0.66      0.00
   -3   15    1     -2.36      0.00
   -2   15    1     -1.99      0.00
   -1   15    1     -1.47      0.00
    0   15    1     -1.23      0.00
    1   15    1      0.86      0.00
    2   15    1     -0.76      0.00
    3   15    1     -2.24      0.00
    4   15    1     -0.76      0.00
    5   15    1     -0.55      0.00
    6   15    1      0.82      0.00
    7   15    1      0.66      0.00
    8   15    1      0.06      0.00
    9   15    1     -0.14      0.00
   10   15    1      0.44      0.00
   11   15    1     -0.15      0.00
   -8   16    1     -0.66      0.00
   -7   16    1      0.46      0.00
   -6   16    1     -0.22      0.00
   -5   16    1      0.06      0.00
   -4   16    1      0.37      0.00
   -3   16    1      1.67      0.00
   -2   16    1      4.07      0.00
   -1   16    1      2.52      0.00
    0   16    1      2.70      0.00
    1   16    1      3.22      0.00
    2   16    1      2.17      0.00
    3   16    1      2.46      0.00
    4   16    1      0.47      0.00
    5   16    1     -0.20      0.00
    6   16    1     -0.54      0.00
    7   16    1      0.33      0.00
    8   16    1      0.27      0.00
    9   16    1      0.14      0.00
   10   16    1      1.18      0.00
   11   16    1      0.09      0.00
   -8   17    1     -0.09      0.00
   -7   17    1     -1.31      0.00
   -6   17    1     -0.45      0.00
   -5   17    1      1.28      0.00
   -4   17    1     -0.57      0.00
   -3   17    1     -0.86      0.00
   -2   17    1     -1.73      0.00
   -1   17    1     -2.36      0.00
    0   17    1     -0.94      0.00
    1   17    1     -2.80      0.00
    2   17    1     -1.83      0.00
    3   17    1     -0.40      0.00
    4   17    1      0.20      0.00
    5   17    1      1.40      0.00
    6   17    1     -0.09      0.00
    7   17    1     -0.67      0.00
    8   17    1     -0.82      0.00
    9   17    1     -0.53      0.00
   10   17    1     -0.45      0.00
   -8   18    1     -0.01      0.00
   -7   18    1      1.71      0.00
   -6   18    1      0.34      0.00
   -5   18    1     -0.10      0.00
   -4   18    1     -0.63      0.00
   -3   18    1      0.37      0.00
   -2   18    1     -0.85      0.00
   -1   18    1     -0.15      0.00
    0   18    1      0.46      0.00
    1   18    1      0.67      0.00
    2   18    1      1.89      0.00
    3   18    1      0.17      0.00
    4   18    1      0.29      0.00
    5   18    1     -0.79      0.00
    6   18    1      0.35      0.00
    7   18    1      0.05      0.00
    8   18    1     -0.92      0.00
    9   18    1     -0.82      0.00
   10   18    1     -2.05      0.00
   -8   19    1     -1.19      0.00
   -7   19    1     -0.82      0.00
   -6   19    1      0.02      0.00
   -5   19    1     -0.24      0.00
   -4   19    1     -0.55      0.00
   -3   19    1      0.62      0.00
   -2   19    1      0.26      0.00
   -1   19    1      1.97      0.00
    0   19    1      0.21      0.00
    1   19    1      0.49      0.00
    2   19    1      0.17      0.00
    3   19    1     -0.18      0.00
    4   19    1      0.70      0.00
    5   19    1     -0.26      0.00
    6   19    1      0.43      0.00
    7   19    1      0.27      0.00
    8   19    1      1.25      0.00
    9   19    1      1.25      0.00
   -8   20    1      0.61      0.00
   -7   20    1     -1.36      0.00
   -6   20    1     -1.09      0.00
   -5   20    1      0.21      0.00
   -4   20    1      1.83      0.00
   -3   20    1      0.24      0.00
   -2   20    1     -0.59      0.00
   -1   20    1     -0.81      0.00
    0   20    1     -1.95      0.00
    1   20    1     -0.34      0.00
    2   20    1     -1.82      0.00
    3   20    1     -0.73      0.00
    4   20    1     -0.94      0.00
    5   20    1      0.28      0.00
    6   20    1      0.37      0.00
    7   20    1     -0.49      0.00
    8   20    1      0.13      0.00
    9   20    1     -0.14      0.00
   -7   21    1      0.76      0.00
   -6   21    1      0.70      0.00
   -5   21    1     -1.54      0.00
   -4   21    1     -0.50      0.00
   -3   21    1     -0.92      0.00
   -2   21    1      0.79      0.00
   -1   21    1      0.47      0.00
    0   21    1      0.84      0.00
    1   21    1      1.58      0.00
    2   21    1      1.18      0.00
    3   21    1      1.41      0.00
    4   21    1     -0.19      0.00
    5   21    1     -0.24      0.00
    6   21    1     -0.80      0.00
    7   21    1      0.77      0.00
    8   21    1      0.32      0.00
   -6   22    1     -0.04      0.00
   -5   22    1      0.78      0.00
   -4   22    1     -0.35      0.00
   -3   22    1     -0.21      0.00
   -2   22    1      1.07      0.00
   -1   22    1     -0.55      0.00
    0   22    1      0.02      0.00
    1   22    1     -1.71      0.00
    2   22    1     -1.20      0.00
    3   22    1     -0.42      0.00
    4   22    1      0.25      0.00
    5   22    1      0.55      0.00
    6   22    1     -0.49      0.00
    7   22    1     -0.42      0.00
    8   22    1     -0.37      0.00
   -5   23    1     -0.23      0.00
   -4   23    1     -0.73      0.00
   -3   23    1     -0.99      0.00
   -2   23    1     -1.65      0.00
   -1   23    1     -1.64      0.00
    0   23    1     -0.16      0.00
    1   23    1     -0.16      0.00
    2   23    1      0.07      0.00
    3   23    1     -0.52      0.00
    4   23    1     -0.23      0.00
    5   23    1     -0.30      0.00
    6   23    1     -0.08      0.00
    7   23    1     -0.28      0.00
   -4   24    1      0.54      0.00
   -3   24    1      1.71      0.00
   -2   24    1      1.32      0.00
   -1   24    1      1.53      0.00
    0   24    1      1.53      0.00
    1   24    1      1.20      0.00
    2   24    1      1.41      0.00
    3   24    1      1.68      0.00
    5   24    1      0.91      0.00
    6   24    1      1.16      0.00
   -3   25    1     -0.63      0.00
   -2   25    1     -0.78      0.00
   -1   25    1     -0.87      0.00
    0   25    1     -1.00      0.00
    1   25    1     -1.08      0.00
    2   25    1     -1.35      0.00
    3   25    1     -1.32      0.00
    0   26    1      0.13      0.00
    1   26    1     -0.80      0.00
    2   26    1      0.55      0.00
   -3  -25    2     -0.25      0.00
   -2  -25    2     -0.37      0.00
   -1  -25    2     -0.32      0.00
    0  -25    2      0.28      0.00
    1  -25    2     -0.89      0.00
    2  -25    2     -0.76      0.00
   -5  -24    2      0.06      0.00
   -4  -24    2      0.78      0.00
   -3  -24    2      0.84      0.00
   -2  -24    2      1.20      0.00
   -1  -24    2      0.41      0.00
    0  -24    2      1.61      0.00
    1  -24    2      0.23      0.00
    2  -24    2      1.52      0.00
    3  -24    2      0.07      0.00
    4  -24    2     -0.37      0.00
   -6  -23    2      0.64      0.00
   -5  -23    2      0.80      0.00
   -4  -23    2      0.04      0.00
   -3  -23    2     -0.18      0.00
   -2  -23    2     -0.23      0.00
   -1  -23    2      0.77      0.00
    0  -23    2     -0.12      0.00
    1  -23    2     -1.02      0.00
    2  -23    2      0.67      0.00
    3  -23    2     -0.14      0.00
    4  -23    2      2.32      0.00
    5  -23    2      0.84      0.00
   -7  -22    2     -1.27      0.00
   -6  -22    2     -0.88      0.00
   -5  -22    2     -0.37      0.00
   -4  -22    2     -0.66      0.00
   -3  -22    2     -0.29      0.00
   -2  -22    2     -1.34      0.00
   -1  -22    2     -0.37      0.00
    0  -22    2     -1.46      0.00
    1  -22    2      0.66      0.00
    2  -22    2     -0.94      0.00
    3  -22    2     -1.66      0.00
    4  -22    2     -1.10      0.00
    5  -22    2     -1.22      0.00
    6  -22    2      0.60      0.00
   -8  -21    2      0.20      0.00
   -7  -21    2      0.08      0.00
   -6  -21    2     -0.06      0.00
   -5  -21    2     -1.06      0.00
   -4  -21    2     -0.31      0.00
   -3  -21    2      0.17      0.00
   -2  -21    2      0.49      0.00
   -1  -21    2      0.69      0.00
    0  -21    2     -0.86      0.00
    1  -21    2      1.22      0.00
    2  -21    2     -0.10      0.00
    3  -21    2      1.20      0.00
    4  -21    2     -0.03      0.00
    5  -21    2      0.16      0.00
    6  -21    2      0.61      0.00
    7  -21    2      1.44      0.00
   -8  -20    2      0.05      0.00
   -7  -20    2      0.80      0.00
   -6  -20    2      1.29      0.00
   -5  -20    2      1.19      0.00
   -4  -20    2      0.31      0.00
   -3  -20    2     -0.94      0.00
   -2  -20    2     -0.21      0.00
   -1  -20    2     -0.67      0.00
    0  -20    2      0.57      0.00
    1  -20    2     -0.67      0.00
    2  -20    2     -1.65      0.00
    3  -20    2      0.01      0.00
    4  -20    2     -0.43      0.00
    5  -20    2     -0.10      0.00
    6  -20    2     -2.01      0.00
    7  -20    2     -1.34      0.00
    8  -20    2      0.02      0.00
   -9  -19    2      1.79      0.00
   -8  -19    2      0.72      0.00
   -7  -19    2     -0.45      0.00
   -6  -19    2     -1.08      0.00
   -5  -19    2     -0.54      0.00
   -4  -19    2     -0.32      0.00
   -3  -19    2     -0.11      0.00
   -2  -19    2     -0.24      0.00
   -1  -19    2     -1.18      0.00
    0  -19    2      0.36      0.00
    1  -19    2      0.17      0.00
    2  -19    2      1.47      0.00
    3  -19    2      0.54      0.00
    4  -19    2     -0.33      0.00
    5  -19    2      0.44      0.00
    6  -19    2      1.42      0.00
    7  -19    2      0.76      0.00
    8  -19    2     -0.76      0.00
   -9  -18    2     -1.57      0.00
   -8  -18    2     -0.35      0.00
   -7  -18    2      0.11      0.00
   -6  -18    2      0.78      0.00
   -5  -18    2     -0.66      0.00
   -4  -18    2     -0.61      0.00
   -3  -18    2      0.90      0.00
   -2  -18    2      0.67      0.00
   -1  -18    2      1.30      0.00
    0  -18    2      0.28      0.00
    1  -18    2     -0.39      0.00
    2  -18    2      0.69      0.00
    3  -18    2     -0.13      0.00
    4  -18    2      0.00      0.00
    5  -18    2     -0.28      0.00
    6  -18    2     -1.54      0.00
    7  -18    2     -0.64      0.00
    8  -18    2     -0.03      0.00
    9  -18    2     -0.53      0.00
  -10  -17    2      0.25      0.00
   -9  -17    2     -0.94      0.00
   -8  -17    2     -0.73      0.00
   -7  -17    2      0.20      0.00
   -6  -17    2      1.55      0.00
   -5  -17    2      2.65      0.00
   -4  -17    2      3.13      0.00
   -3  -17    2      0.14      0.00
   -2  -17    2     -0.81      0.00
   -1  -17    2     -0.79      0.00
    0  -17    2     -1.20      0.00
    1  -17    2     -1.12      0.00
    2  -17    2     -2.61      0.00
    3  -17    2     -2.31      0.00
    4  -17    2     -0.45      0.00
    5  -17    2     -0.54      0.00
    6  -17    2     -0.62      0.00
    7  -17    2     -0.32      0.00
    8  -17    2     -0.17      0.00
    9  -17    2      0.77      0.00
  -10  -16    2      0.14      0.00
   -9  -16    2      1.14      0.00
   -8  -16    2      0.81      0.00
   -7  -16    2      0.04      0.00
   -6  -16    2     -1.92      0.00
   -5  -16    2     -2.20      0.00
   -4  -16    2     -1.51      0.00
   -3  -16    2     -0.83      0.00
   -2  -16    2      1.13      0.00
   -1  -16    2     -0.64      0.00
    0  -16    2      0.10      0.00
    1  -16    2      1.66      0.00
    2  -16    2      2.82      0.00
    3  -16    2      2.86      0.00
    4  -16    2      2.02      0.00
    5  -16    2      0.26      0.00
    6  -16    2      2.22      0.00
    7  -16    2      1.18      0.00
    8  -16    2     -0.31      0.00
    9  -16    2     -0.95      0.00
  -11  -15    2      0.92      0.00
  -10  -15    2      0.01      0.00
   -9  -15    2     -0.32      0.00
   -8  -15    2     -0.71      0.00
   -7  -15    2     -0.57      0.00
   -6  -15    2      0.46      0.00
   -5  -15    2      1.02      0.00
   -4  -15    2      0.11      0.00
   -3  -15    2      2.17      0.00
   -2  -15    2      2.71      0.00
   -1  -15    2      3.52      0.00
    0  -15    2      3.71      0.00
    1  -15    2     -0.30      0.00
    2  -15    2     -1.39      0.00
    3  -15    2     -1.48      0.00
    4  -15    2     -1.58      0.00
    5  -15    2     -1.45      0.00
    6  -15    2     -1.04      0.00
    7  -15    2     -2.57      0.00
    8  -15    2      0.16      0.00
    9  -15    2     -0.02      0.00
  -11  -14    2     -1.53      0.00
  -10  -14    2     -1.07      0.00
   -9  -14    2      0.06      0.00
   -8  -14    2     -0.14      0.00
   -7  -14    2     -0.94      0.00
   -6  -14    2     -0.56      0.00
   -5  -14    2     -0.60      0.00
   -4  -14    2      0.43      0.00
   -3  -14    2     -0.61      0.00
   -2  -14    2     -5.12      0.00
   -1  -14    2     -3.93      0.00
    0  -14    2     -3.67      0.00
    1  -14    2     -0.34      0.00
    2  -14    2      1.61      0.00
    3  -14    2      0.81      0.00
    4  -14    2      1.38      0.00
    5  -14    2      2.84      0.00
    6  -14    2      1.49      0.00
    7  -14    2      1.22      0.00
    8  -14    2      0.99      0.00
    9  -14    2      0.10      0.00
  -11  -13    2      0.81      0.00
  -10  -13    2      0.73      0.00
   -9  -13    2      0.26      0.00
   -8  -13    2      0.08      0.00
   -7  -13    2      1.44      0.00
   -6  -13    2     -0.42      0.00
   -5  -13    2     -3.15      0.00
   -4  -13    2     -3.13      0.00
   -3  -13    2     -2.94      0.00
   -2  -13    2      2.41      0.00
   -1  -13    2      3.83      0.00
    0  -13    2     -0.45      0.00
    1  -13    2      0.89      0.00
    2  -13    2     -0.44      0.00
    3  -13    2      0.79      0.00
    4  -13    2      0.45      0.00
    5  -13    2     -0.36      0.00
    6  -13    2     -0.30      0.00
    7  -13    2      2.19      0.00
    8  -13    2      0.97      0.00
    9  -13    2      0.08      0.00
  -12  -12    2     -0.13      0.00
  -11  -12    2     -0.34      0.00
  -10  -12    2      0.19      0.00
   -9  -12    2     -0.07      0.00
   -8  -12    2     -0.74      0.00
   -7  -12    2     -0.17      0.00
   -6  -12    2      0.15      0.00
   -5  -12    2      3.99      0.00
   -4  -12    2      3.17      0.00
   -3  -12    2      0.41      0.00
   -2  -12    2      1.19      0.00
   -1  -12    2     -1.95      0.00
    0  -12    2      2.54      0.00
    1  -12    2      1.59      0.00
    2  -12    2     -3.60      0.00
    3  -12    2     -0.40      0.00
    4  -12    2     -0.11      0.00
    5  -12    2      0.50      0.00
    6  -12    2      0.59      0.00
    7  -12    2     -1.01      0.00
    8  -12    2     -1.64      0.00
    9  -12    2      0.55      0.00
  -12  -11    2      0.48      0.00
  -11  -11    2      0.56      0.00
  -10  -11    2      0.29      0.00
   -9  -11    2      0.33      0.00
   -8  -11    2      2.67      0.00
   -7  -11    2      1.62      0.00
   -6  -11    2      0.81      0.00
   -5  -11    2      1.08      0.00
   -4  -11    2     -1.50      0.00
   -3  -11    2      1.14      0.00
   -2  -11    2     -4.08      0.00
   -1  -11    2     -9.65      0.00
    0  -11    2     -4.69      0.00
    1  -11    2     -6.25      0.00
    2  -11    2      0.40      0.00
    3  -11    2     -0.67      0.00
    4  -11    2     -5.65      0.00
    5  -11    2     -3.06      0.00
    6  -11    2     -2.41      0.00
    7  -11    2     -1.35      0.00
    8  -11    2     -0.02      0.00
    9  -11    2      0.41      0.00
   10  -11    2      0.23      0.00
   11  -11    2      0.72      0.00
   12  -11    2      0.48      0.00
  -12  -10    2     -0.86      0.00
  -11  -10    2     -0.04      0.00
  -10  -10    2     -0.27      0.00
   -9  -10    2     -1.23      0.00
   -8  -10    2     -2.27      0.00
   -7  -10    2     -2.22      0.00
   -6  -10    2      0.15      0.00
   -5  -10    2     -2.53      0.00
   -4  -10    2     -1.26      0.00
   -3  -10    2      4.24      0.00
   -2  -10    2      7.11      0.00
   -1  -10    2     18.02      0.00
    0  -10    2     12.22      0.00
    1  -10    2      0.99      0.00
    2  -10    2      3.49      0.00
    3  -10    2     -2.02      0.00
    4  -10    2      1.04      0.00
    5  -10    2      1.49      0.00
    6  -10    2     -1.56      0.00
    7  -10    2      0.85      0.00
    8  -10    2      0.19      0.00
    9  -10    2     -1.13      0.00
   10  -10    2     -1.78      0.00
   11  -10    2     -2.22      0.00
   12  -10    2     -0.60      0.00
  -12   -9    2      0.79      0.00
  -11   -9    2      0.12      0.00
  -10   -9    2     -0.68      0.00
   -9   -9    2      0.98      0.00
   -8   -9    2     -0.12      0.00
   -7   -9    2      0.12      0.00
   -6   -9    2      0.40      0.00
   -5   -9    2      1.76      0.00
   -4   -9    2      6.52      0.00
   -3   -9    2     -1.95      0.00
   -2   -9    2     -9.30      0.00
   -1   -9    2     -9.85      0.00
    0   -9    2    -13.29      0.00
    1   -9    2      1.96      0.00
    2   -9    2      2.15      0.00
    3   -9    2     -1.69      0.00
    4   -9    2      5.59      0.00
    5   -9    2      2.39      0.00
    6   -9    2      2.34      0.00
    7   -9    2      0.87      0.00
    9   -9    2      0.22      0.00
   10   -9    2      1.33      0.00
   11   -9    2      1.34      0.00
   12   -9    2      0.51      0.00
  -12   -8    2      0.06      0.00
  -11   -8    2     -0.81      0.00
  -10   -8    2      0.39      0.00
   -9   -8    2     -0.21      0.00
   -8   -8    2      0.24      0.00
   -7   -8    2      1.16      0.00
   -6   -8    2     -3.58      0.00
   -5   -8    2     -4.52      0.00
   -4   -8    2     -7.52      0.00
   -3   -8    2     -4.98      0.00
   -2   -8    2      9.91      0.00
   -1   -8    2      8.86      0.00
    0   -8    2      9.01      0.00
    1   -8    2     15.69      0.00
    2   -8    2      7.17      0.00
    3   -8    2     10.34      0.00
    4   -8    2      2.53      0.00
    5   -8    2     -6.65      0.00
    6   -8    2     -2.25      0.00
    7   -8    2     -3.04      0.00
    8   -8    2      0.04      0.00
    9   -8    2      0.55      0.00
   10   -8    2     -0.86      0.00
   11   -8    2      0.42      0.00
   12   -8    2     -0.18      0.00
  -12   -7    2      0.16      0.00
  -11   -7    2      0.78      0.00
  -10   -7    2      1.50      0.00
   -9   -7    2     -0.30      0.00
   -8   -7    2      0.49      0.00
   -7   -7    2     -1.51      0.00
   -6   -7    2      1.16      0.00
   -5   -7    2      4.85      0.00
   -4   -7    2     -1.62      0.00
   -3   -7    2     -0.60      0.00
   -2   -7    2     -7.10      0.00
   -1   -7    2    -11.87      0.00
    0   -7    2     -5.69      0.00
    1   -7    2    -22.27      0.00
    2   -7    2    -24.29      0.00
    3   -7    2     -9.80      0.00
    4   -7    2     -4.75      0.00
    5   -7    2      5.86      0.00
    6   -7    2      7.38      0.00
    7   -7    2      2.66      0.00
    8   -7    2      3.57      0.00
    9   -7    2      0.39      0.00
   10   -7    2      0.68      0.00
   11   -7    2      0.79      0.00
   12   -7    2     -0.45      0.00
  -12   -6    2     -1.06      0.00
  -11   -6    2      0.48      0.00
  -10   -6    2     -0.35      0.00
   -9   -6    2      0.71      0.00
   -8   -6    2      2.58      0.00
   -7   -6    2      0.50      0.00
   -6   -6    2      3.30      0.00
   -5   -6    2     -0.69      0.00
   -4   -6    2      2.36      0.00
   -3   -6    2      3.45      0.00
   -2   -6    2    -13.31      0.00
   -1   -6    2    -12.64      0.00
    0   -6    2     -8.19      0.00
    1   -6    2      5.64      0.00
    2   -6    2     24.73      0.00
    3   -6    2     13.27      0.00
    4   -6    2      5.23      0.00
    5   -6    2      6.06      0.00
    7   -6    2      0.29      0.00
    8   -6    2     -0.21      0.00
    9   -6    2     -1.76      0.00
   10   -6    2      0.83      0.00
   11   -6    2     -0.95      0.00
   12   -6    2     -0.12      0.00
  -12   -5    2     -0.40      0.00
  -11   -5    2     -1.08      0.00
  -10   -5    2     -1.64      0.00
   -9   -5    2      0.09      0.00
   -8   -5    2     -1.87      0.00
   -7   -5    2      0.87      0.00
   -6   -5    2      1.94      0.00
   -5   -5    2     -3.88      0.00
   -4   -5    2      4.13      0.00
   -3   -5    2      1.10      0.00
   -2   -5    2     19.33      0.00
   -1   -5    2     31.96      0.00
    0   -5    2      5.61      0.00
    1   -5    2     -2.23      0.00
    2   -5    2    -16.95      0.00
    3   -5    2    -18.94      0.00
    4   -5    2     -9.76      0.00
    5   -5    2    -10.82      0.00
    6   -5    2     -8.14      0.00
    7   -5    2      0.19      0.00
    8   -5    2      0.02      0.00
    9   -5    2      1.15      0.00
   10   -5    2      0.38      0.00
   11   -5    2     -1.85      0.00
   12   -5    2      0.54      0.00
  -12   -4    2      0.83      0.00
  -11   -4    2     -0.49      0.00
  -10   -4    2      0.06      0.00
   -9   -4    2      0.45      0.00
   -8   -4    2     -0.70      0.00
   -7   -4    2      1.50      0.00
   -6   -4    2      0.66      0.00
   -5   -4    2     10.45      0.00
   -4   -4    2     14.51      0.00
   -3   -4    2      3.92      0.00
   -2   -4    2      7.50      0.00
   -1   -4    2    -14.42      0.00
    0   -4    2     -3.87      0.00
    1   -4    2      2.13      0.00
    2   -4    2    -17.84      0.00
    3   -4    2     -5.74      0.00
    4   -4    2     -2.86      0.00
    5   -4    2     -1.06      0.00
    6   -4    2      2.69      0.00
    7   -4    2     -0.72      0.00
    8   -4    2     -3.96      0.00
    9   -4    2     -0.23      0.00
   10   -4    2     -0.18      0.00
   11   -4    2      1.80      0.00
   12   -4    2      1.11      0.00
  -12   -3    2      0.03      0.00
  -11   -3    2     -0.32      0.00
  -10   -3    2     -0.55      0.00
   -9   -3    2     -2.47      0.00
   -8   -3    2     -2.11      0.00
   -7   -3    2     -4.00      0.00
   -6   -3    2    -10.77      0.00
   -5   -3    2    -11.13      0.00
   -4   -3    2    -23.29      0.00
   -3   -3    2     -9.44      0.00
   -2   -3    2     -4.92      0.00
   -1   -3    2    -17.28      0.00
    0   -3    2     12.26      0.00
    1   -3    2      7.97      0.00
    2   -3    2     32.69      0.00
    3   -3    2     30.75      0.00
    4   -3    2      4.01      0.00
    5   -3    2      0.30      0.00
    6   -3    2     -3.57      0.00
    7   -3    2     -3.98      0.00
    8   -3    2     -0.62      0.00
    9   -3    2     -0.03      0.00
   10   -3    2     -2.19      0.00
   11   -3    2      0.04      0.00
   12   -3    2     -0.61      0.00
  -12   -2    2      0.28      0.00
  -11   -2    2      1.08      0.00
  -10   -2    2      0.27      0.00
   -9   -2    2      0.12      0.00
   -8   -2    2      0.25      0.00
   -7   -2    2      1.05      0.00
   -6   -2    2      6.15      0.00
   -5   -2    2      6.00      0.00
   -4   -2    2      2.46      0.00
   -3   -2    2     16.57      0.00
   -2   -2    2     11.62      0.00
   -1   -2    2     47.75      0.00
    0   -2    2     45.52      0.00
    1   -2    2      1.63      0.00
    2   -2    2      4.83      0.00
    4   -2    2     -0.62      0.00
    5   -2    2      7.24      0.00
    6   -2    2      1.42      0.00
    7   -2    2      2.23      0.00
    8   -2    2      2.02      0.00
    9   -2    2      0.08      0.00
   10   -2    2     -0.07      0.00
   11   -2    2     -0.86      0.00
   12   -2    2     -1.49      0.00
  -12   -1    2      0.28      0.00
  -11   -1    2      0.87      0.00
  -10   -1    2      2.30      0.00
   -9   -1    2      2.40      0.00
   -8   -1    2      0.94      0.00
   -7   -1    2     -1.17      0.00
   -6   -1    2     -3.87      0.00
   -5   -1    2     -8.92      0.00
   -4   -1    2     -3.56      0.00
   -3   -1    2    -19.88      0.00
   -2   -1    2    -49.66      0.00
   -1   -1    2    -48.08      0.00
    1   -1    2     -9.65      0.00
    2   -1    2     10.65      0.00
    3   -1    2      2.69      0.00
    4   -1    2     20.34      0.00
    5   -1    2      8.65      0.00
    6   -1    2      8.47      0.00
    7   -1    2      5.40      0.00
    8   -1    2     -0.09      0.00
    9   -1    2     -1.87      0.00
   10   -1    2     -0.07      0.00
   11   -1    2      0.59      0.00
   12   -1    2      0.77      0.00
  -12    0    2      0.50      0.00
  -11    0    2     -0.47      0.00
  -10    0    2     -0.50      0.00
   -9    0    2     -1.09      0.00
   -8    0    2      2.28      0.00
   -7    0    2      5.21      0.00
   -6    0    2      5.47      0.00
   -5    0    2      5.30      0.00
   -4    0    2      6.91      0.00
   -3    0    2      0.98      0.00
   -2    0    2     23.16      0.00
   -1    0    2     12.44      0.00
    0    0    2    -17.65      0.00
    1    0    2     -8.75      0.00
    2    0    2    -34.47      0.00
    3    0    2    -10.53      0.00
    4    0    2    -11.91      0.00
    5    0    2    -21.12      0.00
    6    0    2     -6.95      0.00
    7    0    2     -4.61      0.00
    8    0    2      2.22      0.00
    9    0    2      3.91      0.00
   10    0    2      1.85      0.00
   11    0    2      0.24      0.00
   12    0    2      0.03      0.00
   13    0    2     -0.14      0.00
  -12    1    2     -1.62      0.00
  -11    1    2      0.06      0.00
  -10    1    2      0.32      0.00
   -9    1    2      0.98      0.00
   -8    1    2      1.42      0.00
   -7    1    2     -2.03      0.00
   -6    1    2      1.26      0.00
   -5    1    2      5.94      0.00
   -4    1    2      0.99      0.00
   -3    1    2      1.31      0.00
   -2    1    2      9.15      0.00
   -1    1    2      3.72      0.00
    0    1    2     36.81      0.00
    1    1    2     15.12      0.00
    2    1    2    -11.97      0.00
    3    1    2      2.81      0.00
    4    1    2     -3.02      0.00
    5    1    2     14.46      0.00
    6    1    2     12.94      0.00
    7    1    2      4.14      0.00
    8    1    2      2.73      0.00
    9    1    2      0.09      0.00
   10    1    2      0.86      0.00
   11    1    2     -0.23      0.00
   12    1    2     -1.36      0.00
   13    1    2     -1.10      0.00
  -12    2    2      0.15      0.00
  -11    2    2      0.00      0.00
  -10    2    2     -1.43      0.00
   -9    2    2     -0.63      0.00
   -8    2    2     -2.21      0.00
   -7    2    2     -2.78      0.00
   -6    2    2     -0.31      0.00
   -5    2    2     -0.67      0.00
   -4    2    2      7.79      0.00
   -3    2    2     20.47      0.00
   -2    2    2      7.11      0.00
   -1    2    2     -4.31      0.00
    0    2    2     -1.47      0.00
    1    2    2     -6.79      0.00
    2    2    2     25.32      0.00
    3    2    2      6.56      0.00
    4    2    2    -14.23      0.00
    5    2    2     -9.34      0.00
    6    2    2    -17.36      0.00
    7    2    2     -7.52      0.00
    8    2    2     -4.97      0.00
    9    2    2     -4.40      0.00
   10    2    2     -0.71      0.00
   11    2    2      1.04      0.00
   12    2    2      3.42      0.00
   13    2    2      2.32      0.00
  -12    3    2      0.17      0.00
  -11    3    2     -0.95      0.00
  -10    3    2     -1.36      0.00
   -9    3    2     -0.52      0.00
   -8    3    2     -0.90      0.00
   -7    3    2      2.94      0.00
   -6    3    2      1.71      0.00
   -5    3    2     -3.94      0.00
   -4    3    2     -3.42      0.00
   -3    3    2     -9.65      0.00
   -2    3    2     -1.28      0.00
   -1    3    2     21.57      0.00
    0    3    2      4.61      0.00
    2    3    2     -4.92      0.00
    3    3    2    -10.05      0.00
    4    3    2      7.46      0.00
    5    3    2      1.51      0.00
    6    3    2     -1.67      0.00
    7    3    2      3.34      0.00
    8    3    2      0.28      0.00
    9    3    2      2.49      0.00
   10    3    2     -0.05      0.00
   11    3    2     -2.09      0.00
   12    3    2     -1.85      0.00
   13    3    2     -1.51      0.00
  -12    4    2      0.07      0.00
  -11    4    2      0.29      0.00
  -10    4    2      1.88      0.00
   -9    4    2      0.70      0.00
   -8    4    2     -1.22      0.00
   -7    4    2     -2.85      0.00
   -6    4    2     -8.92      0.00
   -5    4    2     -5.36      0.00
   -4    4    2     -6.21      0.00
   -3    4    2    -15.06      0.00
   -2    4    2    -10.17      0.00
   -1    4    2    -17.56      0.00
    0    4    2     -6.60      0.00
    1    4    2     19.37      0.00
    2    4    2      3.71      0.00
    3    4    2      4.57      0.00
    4    4    2     10.29      0.00
    5    4    2      4.60      0.00
    6    4    2      9.74      0.00
    7    4    2      2.26      0.00
    8    4    2     -1.74      0.00
    9    4    2     -0.36      0.00
   10    4    2     -1.01      0.00
   11    4    2      0.98      0.00
   12    4    2     -0.13      0.00
   13    4    2     -0.48      0.00
  -12    5    2      0.37      0.00
  -11    5    2     -0.78      0.00
  -10    5    2     -1.52      0.00
   -9    5    2     -2.01      0.00
   -8    5    2     -0.71      0.00
   -7    5    2      0.23      0.00
   -6    5    2      1.30      0.00
   -5    5    2      5.32      0.00
   -4    5    2      0.11      0.00
   -3    5    2     10.59      0.00
   -2    5    2     14.92      0.00
   -1    5    2      1.17      0.00
    0    5    2      8.92      0.00
    1    5    2      0.44      0.00
    2    5    2      9.55      0.00
    3    5    2     20.05      0.00
    4    5    2      1.10      0.00
    5    5    2     -3.19      0.00
    6    5    2     -1.87      0.00
    7    5    2     -3.26      0.00
    8    5    2      1.43      0.00
    9    5    2     -0.34      0.00
   10    5    2     -0.72      0.00
   11    5    2      0.41      0.00
   12    5    2      0.23      0.00
   13    5    2      0.74      0.00
  -12    6    2      0.64      0.00
  -11    6    2      1.30      0.00
  -10    6    2      1.79      0.00
   -9    6    2      2.53      0.00
   -8    6    2      3.91      0.00
   -7    6    2      4.02      0.00
   -6    6    2      6.43      0.00
   -5    6    2      3.06      0.00
   -3    6    2     -4.51      0.00
   -2    6    2    -20.00      0.00
   -1    6    2    -11.10      0.00
    0    6    2     -8.04      0.00
    1    6    2    -29.13      0.00
    2    6    2    -22.52      0.00
    3    6    2    -22.29      0.00
    4    6    2     -9.89      0.00
    5    6    2      4.72      0.00
    6    6    2      1.64      0.00
    7    6    2      2.19      0.00
    8    6    2      2.16      0.00
    9    6    2      1.46      0.00
   10    6    2      1.95      0.00
   11    6    2     -0.47      0.00
   12    6    2     -0.08      0.00
   13    6    2      0.40      0.00
  -12    7    2     -1.30      0.00
  -11    7    2     -0.26      0.00
  -10    7    2      0.45      0.00
   -9    7    2     -0.26      0.00
   -8    7    2     -1.73      0.00
   -7    7    2     -3.97      0.00
   -6    7    2     -4.49      0.00
   -5    7    2     -5.81      0.00
   -4    7    2      4.33      0.00
   -3    7    2      6.76      0.00
   -2    7    2      2.63      0.00
   -1    7    2     10.46      0.00
    0    7    2     -1.15      0.00
    1    7    2     14.05      0.00
    2    7    2     18.98      0.00
    3    7    2      2.77      0.00
    4    7    2      4.40      0.00
    5    7    2     -0.20      0.00
    6    7    2     -1.19      0.00
    7    7    2      1.05      0.00
    8    7    2     -1.73      0.00
    9    7    2     -1.78      0.00
   10    7    2     -1.20      0.00
   11    7    2      0.06      0.00
   12    7    2      0.26      0.00
   13    7    2      0.29      0.00
  -11    8    2      0.54      0.00
  -10    8    2     -1.08      0.00
   -9    8    2     -1.30      0.00
   -8    8    2      0.53      0.00
   -7    8    2      2.61      0.00
   -6    8    2      4.51      0.00
   -5    8    2      5.35      0.00
   -4    8    2      4.77      0.00
   -3    8    2     -1.53      0.00
   -2    8    2      6.01      0.00
   -1    8    2      3.64      0.00
    0    8    2     -7.70      0.00
    1    8    2     -2.30      0.00
    2    8    2    -10.83      0.00
    3    8    2     -2.16      0.00
    4    8    2     -0.27      0.00
    5    8    2     -7.50      0.00
    6    8    2     -2.96      0.00
    7    8    2     -1.89      0.00
    8    8    2      0.75      0.00
    9    8    2      2.16      0.00
   10    8    2     -0.14      0.00
   11    8    2      0.41      0.00
   12    8    2     -0.86      0.00
  -11    9    2     -0.97      0.00
  -10    9    2      0.10      0.00
   -9    9    2      0.94      0.00
   -8    9    2      0.70      0.00
   -7    9    2     -0.83      0.00
   -6    9    2     -2.26      0.00
   -5    9    2     -1.39      0.00
   -4    9    2     -2.80      0.00
   -3    9    2     -1.31      0.00
   -2    9    2      3.43      0.00
   -1    9    2      1.51      0.00
    0    9    2     14.65      0.00
    1    9    2     12.65      0.00
    2    9    2      1.64      0.00
    3    9    2      4.02      0.00
    4    9    2     -0.31      0.00
    5    9    2      3.73      0.00
    6    9    2      3.54      0.00
    7    9    2     -0.73      0.00
    8    9    2     -1.18      0.00
    9    9    2     -1.74      0.00
   10    9    2      0.02      0.00
   11    9    2     -0.45      0.00
   12    9    2     -0.23      0.00
  -11   10    2     -0.36      0.00
  -10   10    2     -0.40      0.00
   -9   10    2     -1.31      0.00
   -8   10    2     -2.38      0.00
   -7   10    2     -2.37      0.00
   -6   10    2     -1.64      0.00
   -5   10    2     -2.18      0.00
   -4   10    2     -1.41      0.00
   -3   10    2      1.31      0.00
   -2   10    2     -2.84      0.00
   -1   10    2     -7.66      0.00
    0   10    2     -7.31      0.00
    1   10    2    -10.12      0.00
    2   10    2      1.53      0.00
    3   10    2      2.62      0.00
    4   10    2     -1.47      0.00
    5   10    2      0.94      0.00
    7   10    2      0.70      0.00
    8   10    2      1.60      0.00
    9   10    2     -0.87      0.00
   10   10    2      0.16      0.00
   11   10    2     -0.40      0.00
   12   10    2      0.24      0.00
  -11   11    2      1.18      0.00
  -10   11    2      0.59      0.00
   -9   11    2      0.58      0.00
   -8   11    2      0.72      0.00
   -7   11    2      1.77      0.00
   -6   11    2      1.54      0.00
   -5   11    2      0.14      0.00
   -4   11    2      0.23      0.00
   -3   11    2     -2.87      0.00
   -2   11    2     -2.10      0.00
   -1   11    2      4.03      0.00
    0   11    2      2.06      0.00
    1   11    2      0.38      0.00
    2   11    2      1.18      0.00
    3   11    2     -1.52      0.00
    4   11    2      3.19      0.00
    5   11    2      1.43      0.00
    6   11    2     -0.46      0.00
    7   11    2      0.25      0.00
    8   11    2      0.36      0.00
    9   11    2      2.22      0.00
   10   11    2      1.80      0.00
   11   11    2      0.32      0.00
   12   11    2      0.86      0.00
  -11   12    2      0.20      0.00
  -10   12    2     -0.14      0.00
   -9   12    2      0.62      0.00
   -8   12    2      0.30      0.00
   -7   12    2     -0.15      0.00
   -6   12    2     -2.17      0.00
   -5   12    2     -0.88      0.00
   -4   12    2     -0.33      0.00
   -3   12    2     -0.60      0.00
   -2   12    2      0.65      0.00
   -1   12    2     -1.24      0.00
    0   12    2     -0.80      0.00
    1   12    2      3.89      0.00
    2   12    2     -0.29      0.00
    3   12    2     -2.52      0.00
    4   12    2     -1.03      0.00
    5   12    2     -1.25      0.00
    6   12    2      1.96      0.00
    7   12    2      1.53      0.00
    8   12    2     -1.67      0.00
    9   12    2     -1.67      0.00
   10   12    2     -1.10      0.00
   11   12    2      0.40      0.00
   12   12    2      0.18      0.00
  -10   13    2     -0.15      0.00
   -9   13    2      0.34      0.00
   -8   13    2      0.04      0.00
   -7   13    2      0.30      0.00
   -6   13    2      1.48      0.00
   -5   13    2      3.64      0.00
   -4   13    2      1.43      0.00
   -3   13    2      3.27      0.00
   -2   13    2      2.74      0.00
   -1   13    2     -0.93      0.00
    0   13    2     -2.37      0.00
    1   13    2     -5.02      0.00
    2   13    2     -3.99      0.00
    3   13    2      0.91      0.00
    4   13    2     -1.18      0.00
    5   13    2     -2.01      0.00
    6   13    2     -2.53      0.00
    7   13    2     -1.76      0.00
    8   13    2      0.33      0.00
    9   13    2      1.24      0.00
   10   13    2     -0.25      0.00
   11   13    2     -0.09      0.00
   12   13    2      0.26      0.00
   -8   14    2      1.31      0.00
   -7   14    2      0.99      0.00
   -6   14    2      0.79      0.00
   -5   14    2     -1.23      0.00
   -4   14    2     -2.91      0.00
   -3   14    2     -2.01      0.00
   -2   14    2     -3.60      0.00
   -1   14    2     -0.01      0.00
    0   14    2      3.63      0.00
    1   14    2      2.16      0.00
    2   14    2      2.12      0.00
    3   14    2      0.61      0.00
    4   14    2     -0.34      0.00
    5   14    2      1.46      0.00
    6   14    2      1.13      0.00
    7   14    2      0.17      0.00
    8   14    2      0.16      0.00
    9   14    2      0.31      0.00
   10   14    2      0.09      0.00
   11   14    2     -0.07      0.00
   12   14    2     -0.92      0.00
   -8   15    2     -1.09      0.00
   -7   15    2     -0.38      0.00
   -6   15    2      0.24      0.00
   -5   15    2     -0.47      0.00
   -4   15    2      2.86      0.00
   -3   15    2      3.53      0.00
   -2   15    2      3.31      0.00
   -1   15    2      3.76      0.00
    0   15    2      0.84      0.00
    1   15    2      1.65      0.00
    2   15    2      2.23      0.00
    3   15    2     -0.14      0.00
    4   15    2      0.35      0.00
    5   15    2     -0.48      0.00
    6   15    2      0.30      0.00
    7   15    2      0.20      0.00
    8   15    2     -0.13      0.00
    9   15    2     -0.93      0.00
   10   15    2     -0.57      0.00
   11   15    2      0.94      0.00
   -8   16    2     -0.14      0.00
   -7   16    2     -1.09      0.00
   -6   16    2     -0.37      0.00
   -5   16    2     -0.21      0.00
   -4   16    2     -0.45      0.00
   -3   16    2     -3.46      0.00
   -2   16    2     -2.91      0.00
   -1   16    2     -2.85      0.00
    0   16    2     -3.55      0.00
    1   16    2     -1.78      0.00
    2   16    2     -1.55      0.00
    3   16    2      0.72      0.00
    4   16    2      1.89      0.00
    5   16    2      1.13      0.00
    6   16    2     -0.08      0.00
    7   16    2     -0.81      0.00
    8   16    2     -0.11      0.00
    9   16    2     -0.18      0.00
   10   16    2     -0.25      0.00
   11   16    2     -0.78      0.00
   -8   17    2      0.50      0.00
   -7   17    2      0.79      0.00
   -6   17    2      0.08      0.00
   -5   17    2     -0.10      0.00
   -4   17    2     -0.01      0.00
   -3   17    2     -0.42      0.00
   -2   17    2      0.83      0.00
   -1   17    2      0.00      0.00
    0   17    2      1.55      0.00
    1   17    2      1.50      0.00
    2   17    2     -0.27      0.00
    3   17    2     -0.26      0.00
    4   17    2     -1.95      0.00
    5   17    2     -0.54      0.00
    6   17    2     -0.40      0.00
    7   17    2      0.52      0.00
    8   17    2     -0.37      0.00
    9   17    2     -0.99      0.00
   10   17    2     -0.18      0.00
   11   17    2     -1.50      0.00
   -8   18    2     -1.01      0.00
   -7   18    2     -0.89      0.00
   -6   18    2     -0.24      0.00
   -5   18    2     -0.03      0.00
   -4   18    2     -0.22      0.00
   -3   18    2      1.14      0.00
   -2   18    2      1.48      0.00
   -1   18    2      0.35      0.00
    0   18    2      0.85      0.00
    1   18    2     -0.79      0.00
    2   18    2      0.50      0.00
    3   18    2      0.27      0.00
    4   18    2      0.23      0.00
    5   18    2      0.61      0.00
    6   18    2      0.01      0.00
    7   18    2      1.29      0.00
    8   18    2      1.22      0.00
    9   18    2      1.34      0.00
   10   18    2      1.40      0.00
   -8   19    2     -0.23      0.00
   -7   19    2     -0.79      0.00
   -6   19    2     -1.46      0.00
   -5   19    2      0.54      0.00
   -4   19    2      0.12      0.00
   -3   19    2      0.28      0.00
   -2   19    2     -1.06      0.00
   -1   19    2     -1.47      0.00
    0   19    2     -1.08      0.00
    1   19    2     -1.68      0.00
    2   19    2     -0.43      0.00
    3   19    2     -1.36      0.00
    4   19    2     -0.11      0.00
    5   19    2     -0.85      0.00
    6   19    2      0.04      0.00
    7   19    2     -0.88      0.00
    8   19    2     -0.52      0.00
    9   19    2      0.75      0.00
   10   19    2     -0.29      0.00
   -7   20    2      2.11      0.00
   -6   20    2      1.11      0.00
   -5   20    2     -0.55      0.00
   -4   20    2     -0.78      0.00
   -3   20    2      0.34      0.00
   -2   20    2     -0.02      0.00
   -1   20    2      1.74      0.00
    0   20    2      1.11      0.00
    1   20    2      1.52      0.00
    2   20    2      1.43      0.00
    3   20    2      0.77      0.00
    4   20    2      0.95      0.00
    5   20    2     -0.56      0.00
    6   20    2      0.36      0.00
    7   20    2     -0.15      0.00
    8   20    2     -0.16      0.00
    9   20    2     -0.57      0.00
   -7   21    2     -1.15      0.00
   -6   21    2     -0.25      0.00
   -5   21    2     -0.38      0.00
   -4   21    2     -0.34      0.00
   -3   21    2     -0.54      0.00
   -2   21    2     -0.48      0.00
   -1   21    2      0.07      0.00
    0   21    2     -1.46      0.00
    1   21    2     -0.87      0.00
    2   21    2     -1.41      0.00
    3   21    2     -0.21      0.00
    4   21    2      0.03      0.00
    5   21    2      0.67      0.00
    6   21    2     -0.15      0.00
    7   21    2     -0.78      0.00
    8   21    2      0.32      0.00
   -6   22    2      0.24      0.00
   -5   22    2      0.41      0.00
   -4   22    2      0.99      0.00
   -3   22    2     -1.01      0.00
   -2   22    2     -0.91      0.00
   -1   22    2     -0.45      0.00
    0   22    2     -0.18      0.00
    1   22    2      0.97      0.00
    2   22    2      0.12      0.00
    3   22    2      0.02      0.00
    4   22    2     -0.20      0.00
    5   22    2      0.38      0.00
    6   22    2      0.31      0.00
    7   22    2      0.29      0.00
    8   22    2     -0.53      0.00
   -5   23    2      0.12      0.00
   -4   23    2      0.15      0.00
   -3   23    2      1.37      0.00
   -2   23    2      1.95      0.00
   -1   23    2      0.92      0.00
    0   23    2      0.86      0.00
    1   23    2      0.56      0.00
    2   23    2      0.85      0.00
    3   23    2      0.71      0.00
    4   23    2      0.36      0.00
    6   23    2      0.55      0.00
    7   23    2      1.26      0.00
   -4   24    2     -0.30      0.00
   -3   24    2     -0.80      0.00
   -2   24    2     -0.25      0.00
   -1   24    2     -1.23      0.00
    0   24    2     -0.77      0.00
    1   24    2     -0.78      0.00
    2   24    2     -1.70      0.00
    3   24    2     -1.27      0.00
    4   24    2     -1.10      0.00
   -2   25    2     -0.20      0.00
   -1   25    2     -0.05      0.00
    0   25    2      0.47      0.00
    1   25    2      0.01      0.00
    2   25    2      0.02      0.00
    3   25    2      0.73      0.00
    0   26    2      0.87      0.00
    1   26    2      0.29      0.00
    2   26    2      0.64      0.00
   -3  -25    3      0.58      0.00
   -2  -25    3      0.28      0.00
   -1  -25    3      0.26      0.00
    0  -25    3      0.36      0.00
    1  -25    3      1.82      0.00
    2  -25    3     -0.04      0.00
   -5  -24    3     -0.27      0.00
   -4  -24    3     -0.02      0.00
   -3  -24    3     -0.02      0.00
   -2  -24    3     -0.05      0.00
   -1  -24    3     -0.41      0.00
    0  -24    3      0.24      0.00
    1  -24    3     -1.23      0.00
    2  -24    3     -0.62      0.00
    3  -24    3      1.03      0.00
    4  -24    3      0.21      0.00
   -6  -23    3     -0.98      0.00
   -5  -23    3     -0.15      0.00
   -4  -23    3     -0.23      0.00
   -3  -23    3     -0.95      0.00
   -2  -23    3     -0.84      0.00
   -1  -23    3     -1.61      0.00
    0  -23    3      0.50      0.00
    1  -23    3     -1.24      0.00
    2  -23    3      0.20      0.00
    3  -23    3     -1.54      0.00
    4  -23    3     -1.70      0.00
    5  -23    3     -0.55      0.00
   -7  -22    3      0.47      0.00
   -6  -22    3     -0.17      0.00
   -5  -22    3     -0.30      0.00
   -4  -22    3     -0.33      0.00
   -3  -22    3      0.07      0.00
   -2  -22    3      0.32      0.00
   -1  -22    3      0.63      0.00
    0  -22    3     -0.10      0.00
    1  -22    3     -0.11      0.00
    2  -22    3      1.64      0.00
    3  -22    3     -0.19      0.00
    4  -22    3      0.81      0.00
    5  -22    3     -0.44      0.00
    6  -22    3      0.31      0.00
   -7  -21    3      0.58      0.00
   -6  -21    3      1.53      0.00
   -5  -21    3      1.17      0.00
   -4  -21    3      0.30      0.00
   -3  -21    3      0.39      0.00
   -2  -21    3     -0.61      0.00
   -1  -21    3      0.85      0.00
    0  -21    3     -0.49      0.00
    1  -21    3     -0.06      0.00
    2  -21    3     -1.25      0.00
    3  -21    3     -0.51      0.00
    4  -21    3      0.52      0.00
    5  -21    3     -0.60      0.00
    6  -21    3     -1.42      0.00
    7  -21    3     -1.46      0.00
   -8  -20    3      0.12      0.00
   -7  -20    3     -0.49      0.00
   -6  -20    3     -1.24      0.00
   -5  -20    3     -0.30      0.00
   -4  -20    3      0.35      0.00
   -3  -20    3     -0.18      0.00
   -2  -20    3     -0.34      0.00
   -1  -20    3     -0.28      0.00
    0  -20    3     -0.61      0.00
    1  -20    3      1.68      0.00
    2  -20    3      0.70      0.00
    3  -20    3      0.97      0.00
    4  -20    3      0.09      0.00
    5  -20    3      0.72      0.00
    6  -20    3      1.53      0.00
    7  -20    3      1.11      0.00
    8  -20    3     -0.44      0.00
   -9  -19    3     -0.68      0.00
   -8  -19    3     -0.64      0.00
   -7  -19    3      0.14      0.00
   -6  -19    3     -0.19      0.00
   -5  -19    3      0.18      0.00
   -4  -19    3      0.21      0.00
   -3  -19    3      1.43      0.00
   -2  -19    3      2.22      0.00
   -1  -19    3      0.84      0.00
    0  -19    3      0.58      0.00
    1  -19    3     -0.51      0.00
    2  -19    3     -0.38      0.00
    3  -19    3      0.03      0.00
    4  -19    3     -0.56      0.00
    5  -19    3     -0.84      0.00
    6  -19    3     -1.08      0.00
    7  -19    3     -0.91      0.00
    8  -19    3     -0.59      0.00
   -9  -18    3     -0.20      0.00
   -8  -18    3     -0.28      0.00
   -7  -18    3     -0.11      0.00
   -6  -18    3      1.64      0.00
   -5  -18    3      2.12      0.00
   -4  -18    3      0.39      0.00
   -3  -18    3     -0.68      0.00
   -2  -18    3     -2.07      0.00
   -1  -18    3     -1.46      0.00
    0  -18    3     -0.41      0.00
    1  -18    3     -1.48      0.00
    2  -18    3     -1.39      0.00
    3  -18    3     -0.83      0.00
    4  -18    3     -0.11      0.00
    5  -18    3      0.76      0.00
    6  -18    3      0.43      0.00
    7  -18    3      0.06      0.00
    8  -18    3      1.09      0.00
    9  -18    3      1.03      0.00
  -10  -17    3      1.27      0.00
   -9  -17    3      0.98      0.00
   -8  -17    3      0.62      0.00
   -7  -17    3     -1.39      0.00
   -6  -17    3     -2.08      0.00
   -5  -17    3     -3.45      0.00
   -4  -17    3     -1.14      0.00
   -3  -17    3      0.71      0.00
   -2  -17    3      0.91      0.00
   -1  -17    3      1.93      0.00
    0  -17    3      0.82      0.00
    1  -17    3      2.47      0.00
    2  -17    3      3.05      0.00
    3  -17    3      1.91      0.00
    4  -17    3      0.93      0.00
    5  -17    3      1.39      0.00
    6  -17    3      0.36      0.00
    7  -17    3      1.45      0.00
    8  -17    3     -0.25      0.00
    9  -17    3     -0.92      0.00
  -10  -16    3      0.11      0.00
   -9  -16    3     -1.07      0.00
   -8  -16    3     -0.36      0.00
   -7  -16    3      0.81      0.00
   -6  -16    3      0.70      0.00
   -5  -16    3      0.42      0.00
   -4  -16    3      0.64      0.00
   -3  -16    3     -0.26      0.00
   -2  -16    3      1.69      0.00
   -1  -16    3      0.90      0.00
    0  -16    3     -0.22      0.00
    1  -16    3     -1.04      0.00
    2  -16    3     -2.48      0.00
    3  -16    3     -1.56      0.00
    4  -16    3     -0.93      0.00
    5  -16    3     -1.37      0.00
    6  -16    3     -1.78      0.00
    7  -16    3     -0.80      0.00
    8  -16    3     -1.30      0.00
    9  -16    3     -0.14      0.00
  -10  -15    3     -0.71      0.00
   -9  -15    3      0.57      0.00
   -8  -15    3      0.22      0.00
   -7  -15    3     -0.19      0.00
   -6  -15    3     -0.51      0.00
   -5  -15    3      0.75      0.00
   -4  -15    3     -0.51      0.00
   -3  -15    3     -2.38      0.00
   -2  -15    3     -3.06      0.00
   -1  -15    3     -4.12      0.00
    0  -15    3      0.13      0.00
    1  -15    3      0.84      0.00
    2  -15    3      1.28      0.00
    3  -15    3      1.34      0.00
    4  -15    3      1.74      0.00
    5  -15    3      1.06      0.00
    6  -15    3      2.62      0.00
    7  -15    3      1.11      0.00
    8  -15    3      1.11      0.00
    9  -15    3      1.74      0.00
  -11  -14    3      0.85      0.00
  -10  -14    3     -0.07      0.00
   -9  -14    3      0.06      0.00
   -8  -14    3      0.61      0.00
   -7  -14    3      0.19      0.00
   -6  -14    3      0.27      0.00
   -5  -14    3     -1.78      0.00
   -4  -14    3     -2.18      0.00
   -3  -14    3      1.52      0.00
   -2  -14    3      1.70      0.00
   -1  -14    3      2.28      0.00
    0  -14    3      0.18      0.00
    1  -14    3     -2.83      0.00
    2  -14    3     -0.24      0.00
    3  -14    3     -1.25      0.00
    4  -14    3     -1.38      0.00
    5  -14    3     -0.94      0.00
    6  -14    3      0.27      0.00
    7  -14    3     -0.32      0.00
    8  -14    3      1.07      0.00
    9  -14    3     -0.91      0.00
  -11  -13    3      0.03      0.00
  -10  -13    3      0.36      0.00
   -9  -13    3      0.09      0.00
   -8  -13    3     -0.54      0.00
   -7  -13    3      0.31      0.00
   -6  -13    3      2.51      0.00
   -5  -13    3      2.30      0.00
   -4  -13    3      3.49      0.00
   -3  -13    3      0.30      0.00
   -2  -13    3     -2.27      0.00
   -1  -13    3      1.15      0.00
    0  -13    3     -0.83      0.00
    1  -13    3      0.70      0.00
    2  -13    3     -0.38      0.00
    3  -13    3     -1.51      0.00
    4  -13    3      0.91      0.00
    5  -13    3      0.23      0.00
    6  -13    3     -1.34      0.00
    7  -13    3     -1.36      0.00
    8  -13    3     -0.82      0.00
    9  -13    3     -0.56      0.00
  -11  -12    3     -0.21      0.00
  -10  -12    3     -0.11      0.00
   -9  -12    3      0.66      0.00
   -8  -12    3      0.48      0.00
   -7  -12    3      0.59      0.00
   -6  -12    3     -1.66      0.00
   -5  -12    3     -1.15      0.00
   -4  -12    3      0.56      0.00
   -3  -12    3     -1.95      0.00
   -2  -12    3     -0.62      0.00
   -1  -12    3     -3.47      0.00
    0  -12    3     -3.62      0.00
    1  -12    3      3.61      0.00
    2  -12    3      0.03      0.00
    3  -12    3     -0.43      0.00
    4  -12    3     -2.33      0.00
    5  -12    3     -3.73      0.00
    6  -12    3     -1.64      0.00
    7  -12    3     -0.36      0.00
    8  -12    3     -0.44      0.00
    9  -12    3      0.16      0.00
  -12  -11    3     -0.76      0.00
  -11  -11    3     -0.20      0.00
  -10  -11    3      0.23      0.00
   -9  -11    3     -1.38      0.00
   -8  -11    3     -1.67      0.00
   -7  -11    3     -0.48      0.00
   -6  -11    3     -0.86      0.00
   -5  -11    3      1.13      0.00
   -4  -11    3     -0.44      0.00
   -3  -11    3      4.08      0.00
   -2  -11    3     11.15      0.00
   -1  -11    3      7.50      0.00
    0  -11    3      6.79      0.00
    1  -11    3     -1.20      0.00
    2  -11    3     -4.69      0.00
    3  -11    3      2.74      0.00
    4  -11    3      0.27      0.00
    5  -11    3      1.03      0.00
    6  -11    3      1.88      0.00
    7  -11    3      0.32      0.00
    8  -11    3      0.25      0.00
    9  -11    3     -0.51      0.00
   10  -11    3     -1.76      0.00
   11  -11    3     -0.68      0.00
   12  -11    3     -0.82      0.00
  -12  -10    3     -0.06      0.00
  -11  -10    3      0.20      0.00
  -10  -10    3     -0.02      0.00
   -9  -10    3      0.17      0.00
   -8  -10    3      0.90      0.00
   -7  -10    3     -1.04      0.00
   -6  -10    3      0.17      0.00
   -5  -10    3      0.62      0.00
   -4  -10    3     -2.83      0.00
   -3  -10    3     -4.52      0.00
   -2  -10    3    -13.65      0.00
   -1  -10    3    -12.74      0.00
    0  -10    3     -0.76      0.00
    1  -10    3     -0.47      0.00
    2  -10    3      7.45      0.00
    3  -10    3      6.15      0.00
    4  -10    3      3.37      0.00
    5  -10    3      7.08      0.00
    6  -10    3      1.73      0.00
    7  -10    3     -0.28      0.00
    8  -10    3     -0.30      0.00
   10  -10    3      1.64      0.00
   11  -10    3      0.89      0.00
   12  -10    3      0.15      0.00
  -12   -9    3     -0.49      0.00
  -11   -9    3      0.21      0.00
  -10   -9    3     -0.36      0.00
   -9   -9    3      0.58      0.00
   -8   -9    3      0.64      0.00
   -7   -9    3      0.36      0.00
   -6   -9    3     -0.39      0.00
   -5   -9    3     -4.31      0.00
   -4   -9    3      0.13      0.00
   -3   -9    3      4.59      0.00
   -2   -9    3      6.82      0.00
   -1   -9    3     12.71      0.00
    0   -9    3      4.69      0.00
    1   -9    3      2.07      0.00
    2   -9    3      6.17      0.00
    3   -9    3     -4.97      0.00
    4   -9    3     -4.98      0.00
    5   -9    3     -5.37      0.00
    6   -9    3     -6.19      0.00
    7   -9    3      0.41      0.00
    8   -9    3      0.08      0.00
    9   -9    3      0.24      0.00
   10   -9    3     -0.13      0.00
   11   -9    3     -0.62      0.00
   12   -9    3      1.50      0.00
  -12   -8    3      1.34      0.00
  -11   -8    3      0.69      0.00
  -10   -8    3      0.57      0.00
   -9   -8    3      1.09      0.00
   -8   -8    3     -0.95      0.00
   -7   -8    3      1.44      0.00
   -6   -8    3      1.46      0.00
   -5   -8    3      2.04      0.00
   -4   -8    3      1.66      0.00
   -3   -8    3     -8.11      0.00
   -2   -8    3     -7.78      0.00
   -1   -8    3     -9.41      0.00
    0   -8    3    -18.38      0.00
    1   -8    3    -14.98      0.00
    2   -8    3    -17.83      0.00
    3   -8    3     -8.21      0.00
    4   -8    3      7.34      0.00
    5   -8    3      6.07      0.00
    6   -8    3      7.55      0.00
    7   -8    3      5.64      0.00
    8   -8    3      0.83      0.00
    9   -8    3      1.37      0.00
   10   -8    3     -0.23      0.00
   11   -8    3      0.21      0.00
   12   -8    3     -0.44      0.00
  -12   -7    3     -0.84      0.00
  -11   -7    3     -1.62      0.00
  -10   -7    3     -0.26      0.00
   -9   -7    3     -0.63      0.00
   -8   -7    3      0.80      0.00
   -7   -7    3      0.96      0.00
   -6   -7    3     -1.47      0.00
   -5   -7    3      4.04      0.00
   -4   -7    3      1.98      0.00
   -3   -7    3      3.66      0.00
   -2   -7    3      3.33      0.00
   -1   -7    3     -5.65      0.00
    0   -7    3      8.33      0.00
    1   -7    3     18.89      0.00
    2   -7    3     13.05      0.00
    3   -7    3     10.17      0.00
    4   -7    3     -1.77      0.00
    5   -7    3     -6.55      0.00
    6   -7    3     -1.94      0.00
    7   -7    3     -5.11      0.00
    8   -7    3     -2.01      0.00
    9   -7    3     -0.18      0.00
   10   -7    3     -1.14      0.00
   11   -7    3      0.64      0.00
   12   -7    3     -1.70      0.00
  -12   -6    3     -1.03      0.00
  -11   -6    3     -0.55      0.00
  -10   -6    3     -0.27      0.00
   -9   -6    3     -1.51      0.00
   -8   -6    3      0.51      0.00
   -7   -6    3     -0.94      0.00
   -6   -6    3      0.82      0.00
   -5   -6    3      0.54      0.00
   -4   -6    3     -2.81      0.00
   -3   -6    3     11.76      0.00
   -2   -6    3     13.97      0.00
   -1   -6    3     17.51      0.00
    0   -6    3      9.51      0.00
    1   -6    3    -16.63      0.00
    2   -6    3    -12.75      0.00
    3   -6    3    -10.47      0.00
    4   -6    3    -11.68      0.00
    5   -6    3     -4.87      0.00
    6   -6    3     -2.62      0.00
    7   -6    3     -1.39      0.00
    8   -6    3      3.33      0.00
    9   -6    3     -0.18      0.00
   10   -6    3      0.08      0.00
   11   -6    3      0.29      0.00
   12   -6    3      0.08      0.00
  -12   -5    3      1.20      0.00
  -11   -5    3      1.69      0.00
  -10   -5    3     -0.29      0.00
   -9   -5    3      0.03      0.00
   -8   -5    3     -0.32      0.00
   -7   -5    3     -2.12      0.00
   -6   -5    3      2.61      0.00
   -5   -5    3     -0.28      0.00
   -4   -5    3      3.94      0.00
   -3   -5    3     -1.61      0.00
   -2   -5    3    -15.19      0.00
   -1   -5    3      0.08      0.00
    0   -5    3     -3.70      0.00
    1   -5    3      3.85      0.00
    2   -5    3      6.73      0.00
    3   -5    3     -2.55      0.00
    4   -5    3      6.13      0.00
    5   -5    3      5.49      0.00
    6   -5    3     -1.54      0.00
    7   -5    3     -2.41      0.00
    8   -5    3     -3.18      0.00
    9   -5    3     -3.48      0.00
   10   -5    3      1.40      0.00
   11   -5    3     -0.19      0.00
   12   -5    3      0.80      0.00
  -12   -4    3      0.27      0.00
  -11   -4    3     -0.92      0.00
  -10   -4    3     -1.13      0.00
   -9   -4    3     -0.81      0.00
   -8   -4    3     -2.77      0.00
   -7   -4    3     -2.90      0.00
   -6   -4    3     -6.84      0.00
   -5   -4    3    -12.82      0.00
   -4   -4    3     -5.08      0.00
   -3   -4    3    -12.42      0.00
   -2   -4    3      0.96      0.00
   -1   -4    3      1.77      0.00
    0   -4    3     -4.41      0.00
    1   -4    3     30.90      0.00
    2   -4    3     22.00      0.00
    3   -4    3     17.36      0.00
    4   -4    3      8.39      0.00
    5   -4    3     -3.82      0.00
    6   -4    3     -0.81      0.00
    7   -4    3      2.06      0.00
    8   -4    3      0.07      0.00
    9   -4    3      0.80      0.00
   10   -4    3      0.10      0.00
   11   -4    3     -1.40      0.00
   12   -4    3      1.02      0.00
  -12   -3    3      1.00      0.00
  -11   -3    3      1.03      0.00
  -10   -3    3      1.97      0.00
   -9   -3    3      2.20      0.00
   -8   -3    3      2.83      0.00
   -7   -3    3      5.22      0.00
   -6   -3    3      5.01      0.00
   -5   -3    3      7.98      0.00
   -4   -3    3      1.87      0.00
   -3   -3    3     -4.31      0.00
   -2   -3    3     14.23      0.00
   -1   -3    3     -0.01      0.00
    0   -3    3      7.17      0.00
    1   -3    3    -12.53      0.00
    2   -3    3    -30.89      0.00
    3   -3    3      0.31      0.00
    4   -3    3      1.31      0.00
    5   -3    3      7.57      0.00
    6   -3    3      9.29      0.00
    7   -3    3      4.11      0.00
    8   -3    3      1.93      0.00
    9   -3    3      2.43      0.00
   10   -3    3     -0.91      0.00
   11   -3    3     -0.89      0.00
   12   -3    3     -0.87      0.00
  -12   -2    3     -1.02      0.00
  -11   -2    3      0.73      0.00
  -10   -2    3      1.15      0.00
   -9   -2    3      0.50      0.00
   -8   -2    3     -0.75      0.00
   -7   -2    3     -3.32      0.00
   -6   -2    3     -4.09      0.00
   -5   -2    3      0.12      0.00
   -4   -2    3     -6.41      0.00
   -3   -2    3     -3.16      0.00
   -2   -2    3    -24.00      0.00
   -1   -2    3    -42.35      0.00
    0   -2    3     -7.02      0.00
    1   -2    3    -12.92      0.00
    2   -2    3     14.03      0.00
    3   -2    3      9.58      0.00
    4   -2    3     -3.18      0.00
    5   -2    3      7.88      0.00
    6   -2    3     -0.12      0.00
    7   -2    3     -1.30      0.00
    8   -2    3     -1.32      0.00
    9   -2    3     -1.42      0.00
   10   -2    3     -0.63      0.00
   11   -2    3      1.75      0.00
   12   -2    3     -0.09      0.00
   13   -2    3     -0.72      0.00
  -12   -1    3     -0.59      0.00
  -11   -1    3     -1.30      0.00
  -10   -1    3     -1.54      0.00
   -9   -1    3      0.54      0.00
   -8   -1    3      2.17      0.00
   -7   -1    3      6.55      0.00
   -6   -1    3      8.59      0.00
   -5   -1    3      5.90      0.00
   -4   -1    3      7.40      0.00
   -3   -1    3     18.10      0.00
   -2   -1    3      7.97      0.00
   -1   -1    3     17.03      0.00
    0   -1    3    -13.74      0.00
    1   -1    3    -39.70      0.00
    2   -1    3    -14.93      0.00
    3   -1    3    -33.37      0.00
    4   -1    3    -20.21      0.00
    5   -1    3    -14.72      0.00
    6   -1    3    -12.15      0.00
    7   -1    3      1.23      0.00
    8   -1    3      3.93      0.00
    9   -1    3      3.94      0.00
   10   -1    3      2.49      0.00
   11   -1    3      0.85      0.00
   12   -1    3      0.34      0.00
   13   -1    3      0.50      0.00
  -12    0    3      0.09      0.00
  -11    0    3     -0.20      0.00
  -10    0    3      0.63      0.00
   -9    0    3     -0.52      0.00
   -8    0    3     -2.17      0.00
   -7    0    3     -2.60      0.00
   -6    0    3     -4.53      0.00
   -5    0    3     -3.25      0.00
   -4    0    3      1.46      0.00
   -3    0    3     -3.59      0.00
   -2    0    3      5.87      0.00
   -1    0    3     36.00      0.00
    0    0    3     27.06      0.00
    1    0    3     42.28      0.00
    2    0    3     14.88      0.00
    3    0    3      3.94      0.00
    4    0    3     24.87      0.00
    5    0    3      9.82      0.00
    6    0    3      9.44      0.00
    7    0    3      1.79      0.00
    8    0    3     -3.93      0.00
    9    0    3     -2.28      0.00
   10    0    3     -1.57      0.00
   11    0    3     -1.18      0.00
   12    0    3     -1.50      0.00
   13    0    3     -0.55      0.00
  -12    1    3     -0.01      0.00
  -11    1    3     -0.72      0.00
  -10    1    3     -0.87      0.00
   -9    1    3     -2.61      0.00
   -8    1    3     -1.13      0.00
   -7    1    3     -2.52      0.00
   -6    1    3     -3.05      0.00
   -5    1    3      3.51      0.00
   -4    1    3      8.09      0.00
   -3    1    3      8.78      0.00
   -2    1    3     10.58      0.00
   -1    1    3    -14.23      0.00
    0    1    3    -14.41      0.00
    1    1    3     13.82      0.00
    2    1    3      0.45      0.00
    3    1    3      6.04      0.00
    4    1    3    -13.81      0.00
    5    1    3    -22.05      0.00
    6    1    3     -8.44      0.00
    7    1    3     -9.72      0.00
    8    1    3     -3.00      0.00
    9    1    3     -1.76      0.00
   10    1    3     -0.57      0.00
   11    1    3      2.43      0.00
   12    1    3      2.72      0.00
   13    1    3      1.80      0.00
  -12    2    3     -0.25      0.00
  -11    2    3      0.02      0.00
  -10    2    3     -1.10      0.00
   -9    2    3      0.28      0.00
   -8    2    3      2.67      0.00
   -7    2    3      1.22      0.00
   -6    2    3      2.98      0.00
   -5    2    3     -4.22      0.00
   -4    2    3    -16.37      0.00
   -3    2    3    -11.43      0.00
   -2    2    3     -6.07      0.00
    0    2    3      9.35      0.00
    1    2    3    -16.58      0.00
    2    2    3     -8.54      0.00
    3    2    3     13.49      0.00
    4    2    3      5.48      0.00
    5    2    3     13.32      0.00
    6    2    3      6.53      0.00
    7    2    3      2.43      0.00
    8    2    3      4.57      0.00
    9    2    3      0.52      0.00
   10    2    3     -0.37      0.00
   11    2    3     -3.16      0.00
   12    2    3     -2.77      0.00
   13    2    3     -0.95      0.00
  -12    3    3      0.34      0.00
  -11    3    3      1.70      0.00
  -10    3    3      1.77      0.00
   -9    3    3      1.03      0.00
   -8    3    3     -2.77      0.00
   -7    3    3     -5.59      0.00
   -6    3    3     -4.84      0.00
   -5    3    3     -8.25      0.00
   -4    3    3     -3.35      0.00
   -3    3    3     -5.74      0.00
   -2    3    3    -18.88      0.00
   -1    3    3     -5.82      0.00
    0    3    3      1.67      0.00
    1    3    3      4.16      0.00
    2    3    3     13.36      0.00
    3    3    3     -4.05      0.00
    4    3    3      2.97      0.00
    5    3    3     12.07      0.00
    6    3    3      1.25      0.00
    7    3    3      3.11      0.00
    8    3    3     -1.14      0.00
    9    3    3     -1.58      0.00
   10    3    3      1.26      0.00
   11    3    3      0.46      0.00
   12    3    3      1.04      0.00
   13    3    3     -0.45      0.00
  -12    4    3      0.18      0.00
  -11    4    3     -0.88      0.00
  -10    4    3     -1.19      0.00
   -9    4    3     -0.27      0.00
   -8    4    3      1.04      0.00
   -7    4    3      5.37      0.00
   -6    4    3      6.10      0.00
   -5    4    3      6.93      0.00
   -4    4    3     14.86      0.00
   -3    4    3      8.55      0.00
   -2    4    3     12.50      0.00
   -1    4    3      7.12      0.00
    0    4    3    -15.73      0.00
    1    4    3      1.57      0.00
    2    4    3      4.71      0.00
    3    4    3      0.79      0.00
    4    4    3      2.02      0.00
    5    4    3     -8.56      0.00
    6    4    3     -3.89      0.00
    7    4    3      2.29      0.00
    8    4    3      0.68      0.00
    9    4    3      1.93      0.00
   10    4    3      0.14      0.00
   11    4    3      0.97      0.00
   12    4    3      1.53      0.00
   13    4    3      0.85      0.00
  -12    5    3      0.66      0.00
  -11    5    3      1.12      0.00
  -10    5    3      1.33      0.00
   -9    5    3      1.92      0.00
   -8    5    3      2.72      0.00
   -7    5    3      2.99      0.00
   -6    5    3     -0.15      0.00
   -5    5    3      0.68      0.00
   -4    5    3     -7.37      0.00
   -2    5    3     -4.31      0.00
   -1    5    3    -12.60      0.00
    0    5    3     -6.12      0.00
    1    5    3    -11.05      0.00
    2    5    3    -30.89      0.00
    3    5    3    -11.19      0.00
    4    5    3     -2.76      0.00
    5    5    3     -1.13      0.00
    6    5    3      4.79      0.00
    7    5    3     -0.31      0.00
    8    5    3     -0.14      0.00
    9    5    3      0.99      0.00
   10    5    3     -0.83      0.00
   11    5    3     -1.11      0.00
   12    5    3     -1.98      0.00
   13    5    3     -0.99      0.00
  -11    6    3     -1.04      0.00
  -10    6    3     -0.04      0.00
   -9    6    3     -0.69      0.00
   -8    6    3     -3.15      0.00
   -7    6    3     -4.56      0.00
   -6    6    3     -3.65      0.00
   -5    6    3      2.56      0.00
   -4    6    3      5.16      0.00
   -3    6    3     16.99      0.00
   -2    6    3     13.39      0.00
   -1    6    3      2.65      0.00
    0    6    3     18.37      0.00
    1    6    3      9.19      0.00
    2    6    3     12.80      0.00
    3    6    3      6.63      0.00
    4    6    3     -8.32      0.00
    5    6    3     -1.79      0.00
    6    6    3     -2.46      0.00
    7    6    3     -3.01      0.00
    8    6    3     -0.94      0.00
    9    6    3     -1.84      0.00
   10    6    3      0.55      0.00
   11    6    3      1.06      0.00
   12    6    3      1.22      0.00
   13    6    3      0.97      0.00
  -11    7    3     -0.64      0.00
  -10    7    3     -1.23      0.00
   -9    7    3     -0.89      0.00
   -8    7    3      0.92      0.00
   -7    7    3      3.09      0.00
   -6    7    3      4.07      0.00
   -5    7    3     -0.18      0.00
   -4    7    3     -4.23      0.00
   -3    7    3     -2.37      0.00
   -2    7    3     -8.99      0.00
   -1    7    3      0.57      0.00
    0    7    3     -3.52      0.00
    1    7    3    -11.58      0.00
    2    7    3      7.20      0.00
    3    7    3      2.99      0.00
    4    7    3      3.22      0.00
    5    7    3      1.89      0.00
    6    7    3     -3.08      0.00
    7    7    3      1.30      0.00
    8    7    3      1.96      0.00
    9    7    3      1.63      0.00
   10    7    3      0.37      0.00
   11    7    3     -1.20      0.00
   12    7    3     -1.11      0.00
   13    7    3     -2.01      0.00
  -11    8    3      0.94      0.00
  -10    8    3      1.05      0.00
   -9    8    3      0.19      0.00
   -8    8    3     -0.61      0.00
   -7    8    3     -2.12      0.00
   -6    8    3     -3.30      0.00
   -5    8    3     -3.28      0.00
   -4    8    3      1.24      0.00
   -3    8    3      0.26      0.00
   -2    8    3      3.02      0.00
   -1    8    3     15.09      0.00
    0    8    3      9.24      0.00
    1    8    3     13.77      0.00
    2    8    3      2.91      0.00
    3    8    3     -6.61      0.00
    4    8    3      3.72      0.00
    5    8    3      0.50      0.00
    6    8    3      0.77      0.00
    7    8    3     -0.71      0.00
    8    8    3     -3.52      0.00
    9    8    3     -1.26      0.00
   10    8    3     -1.24      0.00
   11    8    3      0.27      0.00
   12    8    3      0.56      0.00
   13    8    3      1.55      0.00
  -11    9    3     -0.53      0.00
  -10    9    3     -1.44      0.00
   -9    9    3     -0.95      0.00
   -8    9    3     -0.56      0.00
   -7    9    3     -1.01      0.00
   -6    9    3     -0.59      0.00
   -5    9    3      0.70      0.00
   -4    9    3     -0.04      0.00
   -3    9    3     -2.93      0.00
   -2    9    3     -4.44      0.00
   -1    9    3    -14.75      0.00
    0    9    3    -17.85      0.00
    1    9    3     -5.86      0.00
    2    9    3     -5.03      0.00
    3    9    3      3.15      0.00
    4    9    3      1.48      0.00
    5    9    3     -1.13      0.00
    6    9    3      3.19      0.00
    7    9    3      1.50      0.00
    8    9    3      1.87      0.00
    9    9    3      0.98      0.00
   10    9    3     -0.05      0.00
   11    9    3      1.47      0.00
   12    9    3     -0.43      0.00
  -11   10    3      0.56      0.00
  -10   10    3      1.48      0.00
   -9   10    3      1.45      0.00
   -8   10    3      1.65      0.00
   -7   10    3      1.37      0.00
   -6   10    3      1.37      0.00
   -5   10    3     -0.36      0.00
   -4   10    3     -3.78      0.00
   -3   10    3     -1.98      0.00
   -2   10    3      0.57      0.00
   -1   10    3      2.43      0.00
    0   10    3      7.61      0.00
    1   10    3      0.76      0.00
    2   10    3     -0.97      0.00
    3   10    3      3.95      0.00
    4   10    3     -0.98      0.00
    5   10    3      0.76      0.00
    6   10    3     -1.16      0.00
    7   10    3     -1.94      0.00
    8   10    3      0.98      0.00
    9   10    3      1.05      0.00
   10   10    3      1.22      0.00
   11   10    3     -0.04      0.00
   12   10    3      0.49      0.00
  -11   11    3     -0.66      0.00
  -10   11    3      0.75      0.00
   -9   11    3     -0.27      0.00
   -8   11    3     -0.75      0.00
   -7   11    3     -0.90      0.00
   -6   11    3     -0.08      0.00
   -5   11    3     -0.16      0.00
   -4   11    3      3.32      0.00
   -3   11    3      4.05      0.00
   -2   11    3      1.16      0.00
   -1   11    3      2.53      0.00
    0   11    3      2.80      0.00
    1   11    3      0.16      0.00
    2   11    3      0.73      0.00
    3   11    3     -4.87      0.00
    4   11    3     -3.62      0.00
    5   11    3      1.46      0.00
    6   11    3      0.78      0.00
    7   11    3      1.22      0.00
    8   11    3     -0.75      0.00
    9   11    3     -2.81      0.00
   10   11    3     -0.32      0.00
   11   11    3     -0.45      0.00
   12   11    3      0.28      0.00
  -11   12    3      0.24      0.00
  -10   12    3     -0.84      0.00
   -9   12    3     -0.39      0.00
   -8   12    3      0.95      0.00
   -7   12    3      2.00      0.00
   -6   12    3      1.90      0.00
   -5   12    3      1.54      0.00
   -4   12    3      2.75      0.00
   -3   12    3     -0.77      0.00
   -2   12    3     -0.19      0.00
   -1   12    3     -2.11      0.00
    0   12    3     -7.68      0.00
    1   12    3     -4.34      0.00
    2   12    3     -0.82      0.00
    3   12    3     -0.66      0.00
    4   12    3      1.45      0.00
    5   12    3     -2.49      0.00
    6   12    3     -2.91      0.00
    7   12    3     -0.91      0.00
    8   12    3      0.44      0.00
    9   12    3      0.90      0.00
   10   12    3      0.02      0.00
   11   12    3     -0.40      0.00
   12   12    3      0.02      0.00
  -11   13    3      0.09      0.00
  -10   13    3     -0.74      0.00
   -9   13    3      0.31      0.00
   -8   13    3      0.43      0.00
   -7   13    3     -0.01      0.00
   -6   13    3     -1.61      0.00
   -5   13    3     -1.51      0.00
   -4   13    3     -3.48      0.00
   -3   13    3     -3.60      0.00
   -2   13    3      0.85      0.00
   -1   13    3      2.55      0.00
    0   13    3      6.52      0.00
    1   13    3      6.89      0.00
    2   13    3      1.65      0.00
    3   13    3      1.85      0.00
    4   13    3      1.96      0.00
    5   13    3      0.77      0.00
    6   13    3      1.50      0.00
    7   13    3      0.72      0.00
    8   13    3     -0.47      0.00
    9   13    3      0.65      0.00
   10   13    3      0.31      0.00
   11   13    3     -0.67      0.00
   12   13    3     -0.55      0.00
   -7   14    3     -1.25      0.00
   -6   14    3     -0.11      0.00
   -5   14    3      2.34      0.00
   -4   14    3      2.03      0.00
   -3   14    3      4.62      0.00
   -2   14    3      2.28      0.00
   -1   14    3     -1.34      0.00
    0   14    3     -0.44      0.00
    1   14    3     -1.78      0.00
    2   14    3     -0.92      0.00
    3   14    3     -0.12      0.00
    4   14    3     -1.79      0.00
    5   14    3      0.06      0.00
    6   14    3      0.64      0.00
    7   14    3      0.57      0.00
    8   14    3     -0.83      0.00
    9   14    3     -1.45      0.00
   10   14    3     -0.85      0.00
   11   14    3      0.35      0.00
   12   14    3      0.74      0.00
   -7   15    3     -0.44      0.00
   -6   15    3     -0.11      0.00
   -5   15    3     -1.27      0.00
   -4   15    3     -2.80      0.00
   -3   15    3     -2.51      0.00
   -2   15    3     -4.33      0.00
   -1   15    3     -2.20      0.00
    0   15    3     -1.83      0.00
    1   15    3     -2.24      0.00
    2   15    3      1.39      0.00
    3   15    3      2.00      0.00
    4   15    3      2.11      0.00
    5   15    3      0.99      0.00
    6   15    3     -0.55      0.00
    7   15    3     -1.09      0.00
    8   15    3      0.53      0.00
    9   15    3      1.11      0.00
   10   15    3     -0.38      0.00
   11   15    3     -0.45      0.00
   -8   16    3      0.56      0.00
   -7   16    3      1.02      0.00
   -6   16    3      0.27      0.00
   -5   16    3     -0.20      0.00
   -4   16    3      1.15      0.00
   -3   16    3      0.67      0.00
   -2   16    3      0.64      0.00
   -1   16    3      2.17      0.00
    0   16    3      0.77      0.00
    1   16    3      0.86      0.00
    2   16    3     -1.58      0.00
    3   16    3     -3.54      0.00
    4   16    3     -2.14      0.00
    5   16    3     -1.92      0.00
    6   16    3      0.43      0.00
    7   16    3      0.11      0.00
    8   16    3      0.09      0.00
    9   16    3      0.15      0.00
   10   16    3     -0.07      0.00
   11   16    3      0.57      0.00
   -8   17    3     -0.42      0.00
   -7   17    3     -1.25      0.00
   -6   17    3     -0.75      0.00
   -5   17    3     -0.68      0.00
   -4   17    3      0.73      0.00
   -3   17    3      0.72      0.00
   -2   17    3      1.12      0.00
   -1   17    3      0.35      0.00
    0   17    3     -0.99      0.00
    1   17    3      0.81      0.00
    2   17    3      0.54      0.00
    3   17    3      1.80      0.00
    4   17    3      1.06      0.00
    5   17    3      0.89      0.00
    6   17    3      0.47      0.00
    7   17    3      0.89      0.00
    8   17    3      1.19      0.00
    9   17    3      0.43      0.00
   10   17    3      1.05      0.00
   11   17    3      1.11      0.00
   -8   18    3      0.38      0.00
   -7   18    3     -0.45      0.00
   -6   18    3     -0.01      0.00
   -5   18    3      0.32      0.00
   -4   18    3      0.09      0.00
   -3   18    3     -0.75      0.00
   -2   18    3     -0.19      0.00
   -1   18    3     -0.85      0.00
    0   18    3     -0.52      0.00
    1   18    3     -0.75      0.00
    2   18    3     -1.19      0.00
    3   18    3      0.19      0.00
    4   18    3     -1.12      0.00
    5   18    3      0.15      0.00
    6   18    3     -1.41      0.00
    7   18    3     -0.84      0.00
    8   18    3     -0.51      0.00
    9   18    3     -0.10      0.00
   10   18    3      0.55      0.00
   -8   19    3      1.31      0.00
   -7   19    3      2.26      0.00
   -6   19    3      1.40      0.00
   -5   19    3      0.09      0.00
   -4   19    3     -0.36      0.00
   -3   19    3     -0.33      0.00
   -2   19    3      0.63      0.00
   -1   19    3      0.67      0.00
    0   19    3      1.75      0.00
    1   19    3      0.75      0.00
    2   19    3      1.04      0.00
    3   19    3      0.65      0.00
    4   19    3      0.74      0.00
    5   19    3      0.63      0.00
    6   19    3     -0.01      0.00
    7   19    3      0.37      0.00
    8   19    3     -1.15      0.00
    9   19    3     -0.85      0.00
   10   19    3     -0.24      0.00
   -7   20    3     -1.60      0.00
   -6   20    3     -1.25      0.00
   -5   20    3     -0.53      0.00
   -4   20    3     -1.34      0.00
   -3   20    3     -0.51      0.00
   -2   20    3     -0.61      0.00
   -1   20    3     -1.52      0.00
    0   20    3     -0.61      0.00
    1   20    3     -1.29      0.00
    2   20    3     -0.22      0.00
    3   20    3     -0.90      0.00
    4   20    3      0.20      0.00
    5   20    3      0.01      0.00
    6   20    3      0.64      0.00
    7   20    3      0.07      0.00
    8   20    3      0.39      0.00
    9   20    3      0.42      0.00
   -7   21    3      1.49      0.00
   -6   21    3      1.30      0.00
   -5   21    3      1.66      0.00
   -4   21    3      1.73      0.00
   -3   21    3      0.93      0.00
   -2   21    3     -0.14      0.00
   -1   21    3      0.61      0.00
    0   21    3      0.97      0.00
    1   21    3      0.71      0.00
    2   21    3      0.50      0.00
    3   21    3     -0.20      0.00
    4   21    3      0.03      0.00
    5   21    3     -0.34      0.00
    6   21    3      0.74      0.00
    7   21    3     -0.07      0.00
    8   21    3     -0.17      0.00
    9   21    3     -0.22      0.00
   -6   22    3     -0.54      0.00
   -5   22    3     -1.22      0.00
   -4   22    3     -0.22      0.00
   -3   22    3      0.71      0.00
   -2   22    3      0.24      0.00
   -1   22    3      0.70      0.00
    0   22    3     -0.59      0.00
    1   22    3     -0.53      0.00
    2   22    3      0.01      0.00
    3   22    3      0.01      0.00
    4   22    3     -0.30      0.00
    6   22    3     -0.17      0.00
    7   22    3      0.53      0.00
    8   22    3      0.80      0.00
   -5   23    3      0.74      0.00
   -4   23    3     -0.20      0.00
   -3   23    3     -0.79      0.00
   -2   23    3     -0.31      0.00
   -1   23    3      0.21      0.00
    0   23    3     -0.55      0.00
    1   23    3     -0.04      0.00
    2   23    3     -0.51      0.00
    3   23    3     -0.93      0.00
    4   23    3     -0.70      0.00
    7   23    3     -0.86      0.00
   -4   24    3      0.08      0.00
   -3   24    3     -0.17      0.00
   -2   24    3     -0.55      0.00
   -1   24    3     -0.15      0.00
    0   24    3     -0.43      0.00
    1   24    3      0.46      0.00
    2   24    3      0.60      0.00
    3   24    3      0.50      0.00
    4   24    3      0.80      0.00
   -2   25    3      0.99      0.00
   -1   25    3     -0.09      0.00
    0   25    3      0.56      0.00
    1   25    3      1.05      0.00
    2   25    3     -0.27      0.00
    3   25    3      0.48      0.00
    4   25    3      0.04      0.00
    0   26    3     -0.22      0.00
    1   26    3     -0.36      0.00
    2   26    3     -0.41      0.00
   -2  -25    4      0.13      0.00
   -1  -25    4      0.34      0.00
    0  -25    4     -1.13      0.00
    1  -25    4      0.12      0.00
    2  -25    4     -0.63      0.00
   -4  -24    4     -0.36      0.00
   -3  -24    4     -0.15      0.00
   -2  -24    4     -0.81      0.00
   -1  -24    4     -0.83      0.00
    0  -24    4     -0.56      0.00
    1  -24    4      0.70      0.00
    2  -24    4     -1.45      0.00
    3  -24    4     -0.20      0.00
    4  -24    4     -1.33      0.00
   -5  -23    4     -0.43      0.00
   -4  -23    4      0.18      0.00
   -3  -23    4      0.12      0.00
   -2  -23    4      0.54      0.00
   -1  -23    4     -0.02      0.00
    0  -23    4      0.67      0.00
    1  -23    4      0.11      0.00
    2  -23    4      0.86      0.00
    3  -23    4      1.37      0.00
    4  -23    4     -0.14      0.00
    5  -23    4      0.48      0.00
   -6  -22    4      0.75      0.00
   -5  -22    4      0.96      0.00
   -4  -22    4      0.69      0.00
   -3  -22    4      0.24      0.00
   -2  -22    4      0.74      0.00
   -1  -22    4      0.09      0.00
    0  -22    4      1.40      0.00
    1  -22    4     -1.28      0.00
    2  -22    4     -0.24      0.00
    3  -22    4     -0.50      0.00
    4  -22    4      0.31      0.00
    5  -22    4      0.07      0.00
    6  -22    4     -0.78      0.00
   -7  -21    4     -0.94      0.00
   -6  -21    4     -0.64      0.00
   -5  -21    4     -0.19      0.00
   -4  -21    4      0.38      0.00
   -3  -21    4      0.11      0.00
   -2  -21    4     -0.22      0.00
   -1  -21    4     -0.38      0.00
    0  -21    4     -0.24      0.00
    1  -21    4      0.64      0.00
    2  -21    4      1.50      0.00
    3  -21    4      0.18      0.00
    4  -21    4      0.53      0.00
    5  -21    4      0.67      0.00
    6  -21    4      1.63      0.00
    7  -21    4      0.75      0.00
   -8  -20    4     -0.22      0.00
   -7  -20    4      0.06      0.00
   -6  -20    4      0.02      0.00
   -5  -20    4     -0.86      0.00
   -4  -20    4      0.34      0.00
   -3  -20    4      1.45      0.00
   -2  -20    4      1.04      0.00
   -1  -20    4      1.37      0.00
    0  -20    4     -0.59      0.00
    1  -20    4     -0.33      0.00
    2  -20    4     -0.68      0.00
    3  -20    4     -0.26      0.00
    4  -20    4     -0.42      0.00
    5  -20    4     -0.67      0.00
    6  -20    4     -1.11      0.00
    7  -20    4     -0.40      0.00
    8  -20    4     -0.18      0.00
   -8  -19    4      0.09      0.00
   -7  -19    4      0.82      0.00
   -6  -19    4     -0.03      0.00
   -5  -19    4      0.83      0.00
   -4  -19    4     -0.97      0.00
   -3  -19    4     -2.73      0.00
   -2  -19    4     -2.01      0.00
   -1  -19    4     -1.24      0.00
    0  -19    4     -0.14      0.00
    1  -19    4      0.00      0.00
    2  -19    4     -1.04      0.00
    3  -19    4     -0.22      0.00
    4  -19    4      0.51      0.00
    5  -19    4      0.45      0.00
    6  -19    4      0.68      0.00
    7  -19    4      0.70      0.00
    8  -19    4      0.65      0.00
   -9  -18    4      1.41      0.00
   -8  -18    4     -0.01      0.00
   -7  -18    4     -1.05      0.00
   -6  -18    4     -2.44      0.00
   -5  -18    4     -1.13      0.00
   -4  -18    4     -0.48      0.00
   -3  -18    4      1.61      0.00
   -2  -18    4      1.97      0.00
   -1  -18    4      0.96      0.00
    0  -18    4      1.47      0.00
    1  -18    4      1.08      0.00
    2  -18    4      1.96      0.00
    3  -18    4      0.85      0.00
    4  -18    4      0.37      0.00
    5  -18    4     -0.05      0.00
    6  -18    4      1.01      0.00
    7  -18    4     -0.29      0.00
    8  -18    4     -0.25      0.00
    9  -18    4     -0.14      0.00
   -9  -17    4     -0.82      0.00
   -8  -17    4      0.44      0.00
   -7  -17    4      0.89      0.00
   -6  -17    4      1.98      0.00
   -5  -17    4      0.51      0.00
   -4  -17    4     -0.78      0.00
   -3  -17    4      0.05      0.00
   -2  -17    4     -1.07      0.00
   -1  -17    4     -0.17      0.00
    0  -17    4     -1.26      0.00
    1  -17    4     -1.95      0.00
    2  -17    4     -1.17      0.00
    3  -17    4     -0.88      0.00
    4  -17    4     -0.99      0.00
    5  -17    4     -0.58      0.00
    6  -17    4     -1.21      0.00
    7  -17    4     -1.50      0.00
    8  -17    4     -0.33      0.00
    9  -17    4     -1.04      0.00
  -10  -16    4      0.70      0.00
   -9  -16    4      0.28      0.00
   -8  -16    4      0.28      0.00
   -7  -16    4     -0.18      0.00
   -6  -16    4      0.57      0.00
   -5  -16    4      0.22      0.00
   -4  -16    4      0.54      0.00
   -3  -16    4     -1.90      0.00
   -2  -16    4     -2.59      0.00
   -1  -16    4     -0.36      0.00
    0  -16    4     -0.22      0.00
    1  -16    4      2.04      0.00
    2  -16    4      0.42      0.00
    3  -16    4      0.28      0.00
    4  -16    4      0.49      0.00
    5  -16    4      1.38      0.00
    6  -16    4      0.20      0.00
    7  -16    4      2.20      0.00
    8  -16    4      1.39      0.00
    9  -16    4      1.32      0.00
  -10  -15    4     -0.58      0.00
   -9  -15    4     -0.71      0.00
   -8  -15    4      0.01      0.00
   -7  -15    4      0.42      0.00
   -6  -15    4     -0.73      0.00
   -5  -15    4     -0.09      0.00
   -4  -15    4      0.51      0.00
   -3  -15    4      1.39      0.00
   -2  -15    4      3.26      0.00
   -1  -15    4     -0.19      0.00
    0  -15    4     -1.31      0.00
    1  -15    4     -1.50      0.00
    2  -15    4     -1.96      0.00
    3  -15    4     -0.64      0.00
    4  -15    4     -1.14      0.00
    5  -15    4     -0.61      0.00
    6  -15    4     -0.22      0.00
    7  -15    4      0.60      0.00
    8  -15    4     -1.11      0.00
    9  -15    4     -0.25      0.00
  -11  -14    4      0.73      0.00
  -10  -14    4      0.45      0.00
   -9  -14    4      0.21      0.00
   -8  -14    4     -0.17      0.00
   -7  -14    4      0.28      0.00
   -6  -14    4      1.12      0.00
   -5  -14    4      2.08      0.00
   -4  -14    4     -0.18      0.00
   -3  -14    4     -0.28      0.00
   -2  -14    4     -0.76      0.00
   -1  -14    4     -1.04      0.00
    0  -14    4      2.44      0.00
    1  -14    4     -0.05      0.00
    2  -14    4      1.01      0.00
    3  -14    4      1.27      0.00
    4  -14    4      0.28      0.00
    5  -14    4     -0.79      0.00
    6  -14    4     -0.98      0.00
    7  -14    4     -2.25      0.00
    8  -14    4     -1.17      0.00
    9  -14    4      0.15      0.00
  -11  -13    4     -0.48      0.00
  -10  -13    4     -0.33      0.00
   -9  -13    4      0.47      0.00
   -8  -13    4      0.16      0.00
   -7  -13    4     -1.70      0.00
   -6  -13    4     -0.71      0.00
   -5  -13    4     -1.53      0.00
   -4  -13    4      0.32      0.00
   -3  -13    4      1.78      0.00
   -2  -13    4     -1.54      0.00
   -1  -13    4      0.58      0.00
    0  -13    4      0.91      0.00
    1  -13    4      0.91      0.00
    2  -13    4      2.91      0.00
    3  -13    4     -2.12      0.00
    4  -13    4     -1.65      0.00
    5  -13    4     -0.93      0.00
    6  -13    4     -0.78      0.00
    7  -13    4     -0.10      0.00
    8  -13    4      1.14      0.00
    9  -13    4     -0.21      0.00
  -11  -12    4     -0.12      0.00
  -10  -12    4     -0.19      0.00
   -9  -12    4     -0.69      0.00
   -8  -12    4     -0.85      0.00
   -7  -12    4      0.15      0.00
   -6  -12    4      0.59      0.00
   -5  -12    4     -1.27      0.00
   -4  -12    4      1.42      0.00
   -3  -12    4      1.60      0.00
   -2  -12    4      4.22      0.00
   -1  -12    4      5.36      0.00
    0  -12    4     -3.37      0.00
    1  -12    4     -2.89      0.00
    2  -12    4     -2.22      0.00
    3  -12    4     -0.38      0.00
    4  -12    4      4.14      0.00
    5  -12    4      1.82      0.00
    6  -12    4      1.85      0.00
    7  -12    4      1.75      0.00
    8  -12    4     -0.15      0.00
    9  -12    4     -1.01      0.00
  -11  -11    4     -0.64      0.00
  -10  -11    4      0.03      0.00
   -9  -11    4      0.68      0.00
   -8  -11    4     -0.07      0.00
   -7  -11    4      0.28      0.00
   -6  -11    4     -1.07      0.00
   -5  -11    4     -0.26      0.00
   -4  -11    4     -2.48      0.00
   -3  -11    4     -8.27      0.00
   -2  -11    4     -6.98      0.00
   -1  -11    4     -6.10      0.00
    0  -11    4      0.60      0.00
    1  -11    4      8.86      0.00
    2  -11    4      3.41      0.00
    3  -11    4      5.88      0.00
    4  -11    4      4.95      0.00
    5  -11    4      1.43      0.00
    6  -11    4      1.97      0.00
    7  -11    4     -0.93      0.00
    8  -11    4     -0.66      0.00
    9  -11    4      1.02      0.00
   10  -11    4      0.83      0.00
   11  -11    4      0.52      0.00
  -12  -10    4     -0.55      0.00
  -11  -10    4      0.21      0.00
  -10  -10    4      0.87      0.00
   -9  -10    4      0.25      0.00
   -8  -10    4      1.35      0.00
   -7  -10    4      0.82      0.00
   -6  -10    4     -0.51      0.00
   -5  -10    4      1.37      0.00
   -4  -10    4      1.21      0.00
   -3  -10    4      7.01      0.00
   -2  -10    4      8.04      0.00
   -1  -10    4      1.03      0.00
    0  -10    4      1.49      0.00
    1  -10    4     -4.35      0.00
    2  -10    4     -7.09      0.00
    3  -10    4     -4.90      0.00
    4  -10    4    -11.10      0.00
    5  -10    4     -6.23      0.00
    6  -10    4     -1.46      0.00
    7  -10    4     -0.92      0.00
    8  -10    4      2.00      0.00
    9  -10    4      0.26      0.00
   10  -10    4     -0.63      0.00
   11  -10    4      0.42      0.00
   12  -10    4      0.36      0.00
  -12   -9    4      0.14      0.00
  -11   -9    4      0.98      0.00
  -10   -9    4      0.28      0.00
   -9   -9    4     -0.53      0.00
   -8   -9    4     -0.10      0.00
   -7   -9    4     -0.35      0.00
   -6   -9    4      2.14      0.00
   -5   -9    4     -0.25      0.00
   -4   -9    4     -3.01      0.00
   -3   -9    4     -3.58      0.00
   -2   -9    4     -8.28      0.00
   -1   -9    4     -5.51      0.00
    0   -9    4     -6.03      0.00
    1   -9    4    -12.99      0.00
    2   -9    4     -2.84      0.00
    3   -9    4      2.17      0.00
    4   -9    4      5.64      0.00
    5   -9    4     10.23      0.00
    6   -9    4      3.82      0.00
    7   -9    4      2.60      0.00
    8   -9    4      1.12      0.00
    9   -9    4     -0.96      0.00
   10   -9    4      0.68      0.00
   11   -9    4     -0.74      0.00
   12   -9    4     -0.45      0.00
  -12   -8    4     -0.81      0.00
  -11   -8    4     -1.21      0.00
  -10   -8    4     -1.99      0.00
   -9   -8    4     -0.18      0.00
   -8   -8    4     -0.56      0.00
   -7   -8    4     -0.04      0.00
   -6   -8    4      0.96      0.00
   -5   -8    4      0.97      0.00
   -4   -8    4      7.53      0.00
   -3   -8    4      4.66      0.00
   -2   -8    4      3.65      0.00
   -1   -8    4      7.94      0.00
    0   -8    4      7.89      0.00
    1   -8    4     15.08      0.00
    2   -8    4     11.04      0.00
    3   -8    4     -4.40      0.00
    4   -8    4     -5.80      0.00
    5   -8    4     -7.85      0.00
    6   -8    4     -9.04      0.00
    7   -8    4     -2.78      0.00
    8   -8    4     -3.03      0.00
    9   -8    4     -0.04      0.00
   10   -8    4      0.51      0.00
   11   -8    4     -1.07      0.00
   12   -8    4      0.48      0.00
  -12   -7    4      0.81      0.00
  -11   -7    4     -0.17      0.00
  -10   -7    4      0.35      0.00
   -9   -7    4      0.75      0.00
   -8   -7    4     -0.65      0.00
   -7   -7    4      1.23      0.00
   -6   -7    4     -2.27      0.00
   -5   -7    4     -1.95      0.00
   -4   -7    4     -0.86      0.00
   -3   -7    4     -0.49      0.00
   -2   -7    4     11.81      0.00
   -1   -7    4      5.74      0.00
    0   -7    4     -2.94      0.00
    1   -7    4     -4.31      0.00
    2   -7    4    -10.05      0.00
    3   -7    4     -1.86      0.00
    4   -7    4      1.46      0.00
    5   -7    4     -1.89      0.00
    6   -7    4      2.15      0.00
    7   -7    4      2.81      0.00
    9   -7    4      1.36      0.00
   10   -7    4     -1.24      0.00
   11   -7    4      0.97      0.00
   12   -7    4      1.21      0.00
  -12   -6    4      1.19      0.00
  -11   -6    4      0.94      0.00
  -10   -6    4      0.63      0.00
   -9   -6    4     -1.40      0.00
   -8   -6    4     -1.30      0.00
   -7   -6    4     -1.65      0.00
   -6   -6    4     -2.29      0.00
   -5   -6    4      2.33      0.00
   -4   -6    4     -5.67      0.00
   -3   -6    4     -5.43      0.00
   -2   -6    4     -7.87      0.00
   -1   -6    4     -9.50      0.00
    0   -6    4      9.99      0.00
    1   -6    4      4.40      0.00
    2   -6    4      4.18      0.00
    3   -6    4      9.10      0.00
    4   -6    4      3.71      0.00
    5   -6    4      3.12      0.00
    6   -6    4      0.81      0.00
    7   -6    4     -5.09      0.00
    8   -6    4     -2.73      0.00
    9   -6    4     -0.83      0.00
   10   -6    4     -1.22      0.00
   11   -6    4      1.52      0.00
   12   -6    4     -1.34      0.00
  -12   -5    4     -1.62      0.00
  -11   -5    4     -0.18      0.00
  -10   -5    4     -0.07      0.00
   -9   -5    4     -0.51      0.00
   -8   -5    4      0.82      0.00
   -7   -5    4     -1.45      0.00
   -6   -5    4     -1.33      0.00
   -5   -5    4     -2.93      0.00
   -4   -5    4     -5.14      0.00
   -3   -5    4      4.12      0.00
   -2   -5    4     -8.25      0.00
   -1   -5    4     -2.62      0.00
    0   -5    4      2.22      0.00
    1   -5    4      2.37      0.00
    2   -5    4     20.59      0.00
    3   -5    4      4.57      0.00
    4   -5    4     -0.36      0.00
    5   -5    4      3.04      0.00
    6   -5    4      2.40      0.00
    7   -5    4      3.41      0.00
    8   -5    4      5.09      0.00
    9   -5    4      0.30      0.00
   10   -5    4      0.42      0.00
   11   -5    4     -0.16      0.00
   12   -5    4     -0.75      0.00
  -12   -4    4      1.11      0.00
  -11   -4    4      1.68      0.00
  -10   -4    4      1.43      0.00
   -9   -4    4      2.92      0.00
   -8   -4    4      3.16      0.00
   -7   -4    4      3.34      0.00
   -6   -4    4      5.38      0.00
   -5   -4    4     -0.68      0.00
   -4   -4    4      1.18      0.00
   -3   -4    4     -3.02      0.00
   -2   -4    4     -5.58      0.00
   -1   -4    4      8.46      0.00
    0   -4    4    -20.88      0.00
    1   -4    4    -20.16      0.00
    2   -4    4    -16.41      0.00
    3   -4    4    -11.22      0.00
    4   -4    4     10.82      0.00
    5   -4    4      6.39      0.00
    7   -4    4      4.38      0.00
    8   -4    4      1.70      0.00
    9   -4    4     -0.68      0.00
   10   -4    4      1.06      0.00
   11   -4    4     -1.93      0.00
   12   -4    4     -0.08      0.00
  -12   -3    4     -0.43      0.00
  -11   -3    4     -1.25      0.00
  -10   -3    4     -0.51      0.00
   -9   -3    4     -1.30      0.00
   -8   -3    4     -2.55      0.00
   -7   -3    4     -2.36      0.00
   -6   -3    4     -1.03      0.00
   -5   -3    4      3.02      0.00
   -4   -3    4     11.03      0.00
   -3   -3    4     -1.62      0.00
   -2   -3    4      1.14      0.00
   -1   -3    4     -7.02      0.00
    0   -3    4     -7.55      0.00
    1   -3    4     21.22      0.00
    2   -3    4     -6.53      0.00
    3   -3    4     -2.89      0.00
    4   -3    4     -4.74      0.00
    5   -3    4    -11.21      0.00
    6   -3    4     -3.59      0.00
    7   -3    4     -4.63      0.00
    8   -3    4     -3.68      0.00
    9   -3    4     -0.20      0.00
   10   -3    4      1.12      0.00
   11   -3    4      0.62      0.00
   12   -3    4      0.88      0.00
   13   -3    4     -1.61      0.00
  -12   -2    4     -0.75      0.00
  -11   -2    4     -1.49      0.00
  -10   -2    4     -0.69      0.00
   -9   -2    4      0.86      0.00
   -8   -2    4      3.75      0.00
   -7   -2    4      4.57      0.00
   -6   -2    4      4.02      0.00
   -5   -2    4      3.83      0.00
   -4   -2    4      0.55      0.00
   -3   -2    4      3.69      0.00
   -2   -2    4     15.28      0.00
   -1   -2    4     -9.38      0.00
    0   -2    4     -5.95      0.00
    1   -2    4    -20.40      0.00
    2   -2    4    -25.74      0.00
    3   -2    4     -4.77      0.00
    4   -2    4    -21.53      0.00
    5   -2    4     -9.64      0.00
    6   -2    4     -1.44      0.00
    7   -2    4      0.38      0.00
    8   -2    4      4.19      0.00
    9   -2    4      3.44      0.00
   10   -2    4      0.52      0.00
   11   -2    4      0.57      0.00
   12   -2    4      0.69      0.00
   13   -2    4      0.23      0.00
  -12   -1    4     -0.03      0.00
  -11   -1    4      0.85      0.00
  -10   -1    4     -0.81      0.00
   -9   -1    4     -1.72      0.00
   -8   -1    4     -4.19      0.00
   -7   -1    4     -6.44      0.00
   -6   -1    4     -5.39      0.00
   -5   -1    4     -5.01      0.00
   -4   -1    4     -6.09      0.00
   -3   -1    4      6.25      0.00
   -2   -1    4     12.12      0.00
   -1   -1    4     29.79      0.00
    0   -1    4     56.25      0.00
    1   -1    4     24.73      0.00
    2   -1    4     32.56      0.00
    3   -1    4     22.16      0.00
    4   -1    4     13.79      0.00
    5   -1    4     19.09      0.00
    6   -1    4     -0.48      0.00
    7   -1    4     -3.30      0.00
    8   -1    4     -5.17      0.00
    9   -1    4     -4.78      0.00
   10   -1    4     -2.30      0.00
   11   -1    4     -1.14      0.00
   12   -1    4     -0.95      0.00
   13   -1    4      0.31      0.00
  -12    0    4      0.19      0.00
  -11    0    4     -0.39      0.00
  -10    0    4     -0.45      0.00
   -9    0    4     -0.28      0.00
   -8    0    4     -1.59      0.00
   -7    0    4      1.43      0.00
   -6    0    4      1.02      0.00
   -5    0    4      1.74      0.00
   -4    0    4      7.13      0.00
   -3    0    4      2.52      0.00
   -2    0    4    -17.47      0.00
   -1    0    4    -18.35      0.00
    0    0    4    -27.69      0.00
    1    0    4    -11.23      0.00
    2    0    4     10.68      0.00
    3    0    4    -16.50      0.00
    4    0    4     -8.94      0.00
    5    0    4    -10.13      0.00
    6    0    4     -9.44      0.00
    7    0    4      1.43      0.00
    8    0    4     -0.63      0.00
    9    0    4      0.74      0.00
   10    0    4      1.18      0.00
   11    0    4      2.08      0.00
   12    0    4      1.93      0.00
   13    0    4      0.34      0.00
  -12    1    4      0.78      0.00
  -11    1    4     -0.06      0.00
  -10    1    4      0.65      0.00
   -9    1    4      1.00      0.00
   -8    1    4      2.28      0.00
   -7    1    4      3.48      0.00
   -6    1    4     -2.38      0.00
   -5    1    4     -7.10      0.00
   -4    1    4    -13.99      0.00
   -3    1    4    -19.04      0.00
   -2    1    4     -2.97      0.00
   -1    1    4      5.33      0.00
    0    1    4     -9.77      0.00
    1    1    4      0.80      0.00
    2    1    4     -5.79      0.00
    3    1    4      9.11      0.00
    4    1    4     22.07      0.00
    5    1    4      5.33      0.00
    6    1    4     10.03      0.00
    7    1    4      4.58      0.00
    8    1    4      0.88      0.00
    9    1    4      1.32      0.00
   10    1    4     -2.45      0.00
   11    1    4     -2.76      0.00
   12    1    4     -2.83      0.00
   13    1    4     -0.21      0.00
  -12    2    4      0.32      0.00
  -11    2    4      1.50      0.00
  -10    2    4      1.69      0.00
   -9    2    4     -0.70      0.00
   -8    2    4     -1.66      0.00
   -7    2    4     -4.91      0.00
   -6    2    4     -3.73      0.00
   -5    2    4      3.65      0.00
   -4    2    4      1.09      0.00
   -3    2    4      1.12      0.00
   -2    2    4     -1.43      0.00
   -1    2    4    -12.07      0.00
    0    2    4      4.68      0.00
    1    2    4      4.10      0.00
    2    2    4    -14.06      0.00
    3    2    4     -2.84      0.00
    4    2    4     -4.24      0.00
    5    2    4      1.34      0.00
    6    2    4      6.53      0.00
    7    2    4     -2.37      0.00
    8    2    4      0.88      0.00
    9    2    4      0.71      0.00
   10    2    4      1.61      0.00
   11    2    4      2.52      0.00
   12    2    4      0.58      0.00
   13    2    4      0.11      0.00
  -12    3    4     -0.52      0.00
  -11    3    4     -1.03      0.00
  -10    3    4     -0.80      0.00
   -9    3    4      1.35      0.00
   -8    3    4      4.00      0.00
   -7    3    4      5.04      0.00
   -6    3    4      9.67      0.00
   -5    3    4      8.33      0.00
   -4    3    4      7.86      0.00
   -3    3    4     15.81      0.00
   -2    3    4      2.02      0.00
   -1    3    4     -3.39      0.00
    0    3    4     -2.88      0.00
    1    3    4    -11.68      0.00
    2    3    4     10.01      0.00
    3    3    4      4.18      0.00
    4    3    4    -11.28      0.00
    5    3    4     -3.38      0.00
    6    3    4     -4.44      0.00
    7    3    4      0.10      0.00
    8    3    4      3.72      0.00
    9    3    4      0.23      0.00
   10    3    4      0.98      0.00
   11    3    4      0.11      0.00
   12    3    4      1.36      0.00
   13    3    4      1.14      0.00
  -11    4    4      0.52      0.00
  -10    4    4      0.22      0.00
   -9    4    4     -0.18      0.00
   -8    4    4     -0.66      0.00
   -7    4    4     -1.13      0.00
   -6    4    4     -1.71      0.00
   -5    4    4     -8.12      0.00
   -4    4    4     -5.99      0.00
   -3    4    4     -6.98      0.00
   -2    4    4     -5.16      0.00
   -1    4    4     15.08      0.00
    0    4    4     -0.44      0.00
    1    4    4     -8.70      0.00
    2    4    4     -9.30      0.00
    3    4    4    -15.16      0.00
    4    4    4      1.21      0.00
    5    4    4      1.64      0.00
    6    4    4     -4.03      0.00
    7    4    4     -0.02      0.00
    8    4    4     -2.64      0.00
    9    4    4     -1.86      0.00
   10    4    4     -1.44      0.00
   11    4    4     -2.93      0.00
   12    4    4     -1.96      0.00
   13    4    4     -1.66      0.00
  -11    5    4      0.07      0.00
  -10    5    4     -0.09      0.00
   -9    5    4     -1.15      0.00
   -8    5    4     -2.47      0.00
   -7    5    4     -2.34      0.00
   -6    5    4     -1.34      0.00
   -5    5    4      4.24      0.00
   -4    5    4     13.96      0.00
   -3    5    4      7.54      0.00
   -2    5    4     10.69      0.00
   -1    5    4      4.50      0.00
    0    5    4     -2.42      0.00
    1    5    4     18.94      0.00
    2    5    4      3.19      0.00
    3    5    4     -2.23      0.00
    4    5    4     -0.40      0.00
    5    5    4     -6.45      0.00
    6    5    4     -0.97      0.00
    7    5    4     -1.03      0.00
    8    5    4     -1.75      0.00
    9    5    4      0.76      0.00
   10    5    4      1.53      0.00
   11    5    4      3.04      0.00
   12    5    4      1.91      0.00
   13    5    4      1.02      0.00
  -11    6    4     -1.24      0.00
  -10    6    4     -2.11      0.00
   -9    6    4      0.05      0.00
   -8    6    4      1.75      0.00
   -7    6    4      1.57      0.00
   -6    6    4     -1.02      0.00
   -5    6    4     -3.92      0.00
   -4    6    4    -11.81      0.00
   -3    6    4    -13.13      0.00
   -2    6    4     -2.14      0.00
   -1    6    4     -9.65      0.00
    0    6    4      2.25      0.00
    1    6    4      5.82      0.00
    2    6    4      5.51      0.00
    3    6    4     21.29      0.00
    4    6    4      7.65      0.00
    5    6    4      2.43      0.00
    6    6    4      3.69      0.00
    7    6    4      0.31      0.00
    8    6    4      2.49      0.00
    9    6    4      0.93      0.00
   10    6    4     -0.85      0.00
   11    6    4     -1.63      0.00
   12    6    4     -2.15      0.00
   13    6    4     -1.81      0.00
  -11    7    4      1.49      0.00
  -10    7    4      2.41      0.00
   -9    7    4      0.63      0.00
   -8    7    4     -1.86      0.00
   -7    7    4     -1.97      0.00
   -6    7    4     -0.87      0.00
   -5    7    4      1.64      0.00
   -4    7    4      2.22      0.00
   -3    7    4      8.35      0.00
   -2    7    4      6.92      0.00
   -1    7    4      6.96      0.00
    0    7    4     15.11      0.00
    1    7    4     -5.69      0.00
    2    7    4     -7.33      0.00
    3    7    4     -8.40      0.00
    4    7    4     -7.84      0.00
    5    7    4      2.78      0.00
    6    7    4     -1.88      0.00
    7    7    4     -2.36      0.00
    8    7    4     -2.35      0.00
    9    7    4     -2.57      0.00
   10    7    4     -0.01      0.00
   11    7    4     -0.30      0.00
   12    7    4      2.03      0.00
   13    7    4      1.92      0.00
  -11    8    4     -1.49      0.00
  -10    8    4     -1.17      0.00
   -9    8    4     -0.79      0.00
   -8    8    4      0.10      0.00
   -7    8    4      1.28      0.00
   -6    8    4      0.80      0.00
   -5    8    4     -0.78      0.00
   -4    8    4     -0.92      0.00
   -3    8    4     -4.26      0.00
   -2    8    4    -15.02      0.00
   -1    8    4    -15.43      0.00
    0    8    4    -18.09      0.00
    1    8    4    -10.34      0.00
    2    8    4      6.76      0.00
    3    8    4      0.10      0.00
    4    8    4      3.63      0.00
    5    8    4      3.90      0.00
    6    8    4      1.86      0.00
    7    8    4      4.53      0.00
    8    8    4      1.89      0.00
    9    8    4      1.49      0.00
   10    8    4      1.27      0.00
   11    8    4      0.87      0.00
   12    8    4      0.21      0.00
   13    8    4     -0.96      0.00
  -11    9    4      1.81      0.00
  -10    9    4      0.87      0.00
   -9    9    4      1.64      0.00
   -8    9    4      2.12      0.00
   -7    9    4      1.35      0.00
   -6    9    4     -0.64      0.00
   -5    9    4     -1.36      0.00
   -4    9    4     -1.49      0.00
   -3    9    4     -1.41      0.00
   -2    9    4      5.89      0.00
   -1    9    4     11.20      0.00
    0    9    4      4.75      0.00
    1    9    4      5.57      0.00
    2    9    4     -1.19      0.00
    3    9    4     -2.34      0.00
    4    9    4      1.41      0.00
    5    9    4     -5.72      0.00
    6    9    4     -2.61      0.00
    7    9    4     -1.53      0.00
    8    9    4     -0.91      0.00
    9    9    4      1.43      0.00
   10    9    4     -0.92      0.00
   11    9    4      0.02      0.00
   12    9    4     -0.33      0.00
   13    9    4      0.13      0.00
  -11   10    4     -0.64      0.00
  -10   10    4     -0.67      0.00
   -9   10    4     -0.21      0.00
   -8   10    4     -1.39      0.00
   -7   10    4     -1.27      0.00
   -6   10    4      1.07      0.00
   -5   10    4      4.47      0.00
   -4   10    4      4.18      0.00
   -3   10    4      5.22      0.00
   -2   10    4      4.03      0.00
   -1   10    4     -0.03      0.00
    0   10    4      2.66      0.00
    1   10    4      2.20      0.00
    2   10    4     -5.18      0.00
    3   10    4     -1.92      0.00
    4   10    4     -1.86      0.00
    5   10    4      0.89      0.00
    6   10    4      3.72      0.00
    7   10    4      0.40      0.00
    8   10    4     -0.85      0.00
    9   10    4     -1.30      0.00
   10   10    4     -0.87      0.00
   11   10    4      0.53      0.00
   12   10    4     -0.30      0.00
  -11   11    4     -1.16      0.00
  -10   11    4     -0.42      0.00
   -9   11    4     -0.24      0.00
   -8   11    4      0.85      0.00
   -7   11    4      1.45      0.00
   -6   11    4      1.35      0.00
   -5   11    4     -0.79      0.00
   -4   11    4     -2.72      0.00
   -3   11    4     -1.10      0.00
   -2   11    4     -4.85      0.00
   -1   11    4     -5.64      0.00
    0   11    4     -4.12      0.00
    1   11    4     -4.47      0.00
    2   11    4      2.36      0.00
    3   11    4      3.82      0.00
    4   11    4     -2.22      0.00
    5   11    4     -1.01      0.00
    6   11    4     -2.98      0.00
    7   11    4     -1.95      0.00
    8   11    4      1.04      0.00
    9   11    4      0.21      0.00
   10   11    4     -0.15      0.00
   11   11    4     -0.62      0.00
   12   11    4     -0.79      0.00
  -10   12    4      0.99      0.00
   -9   12    4     -0.77      0.00
   -8   12    4     -0.48      0.00
   -7   12    4     -0.64      0.00
   -6   12    4     -1.22      0.00
   -5   12    4     -3.00      0.00
   -4   12    4     -0.67      0.00
   -3   12    4     -0.43      0.00
   -2   12    4      1.73      0.00
   -1   12    4      8.33      0.00
    0   12    4      6.93      0.00
    1   12    4      4.48      0.00
    2   12    4      3.28      0.00
    3   12    4     -0.09      0.00
    4   12    4      1.95      0.00
    5   12    4      2.44      0.00
    6   12    4      0.59      0.00
    8   12    4      0.50      0.00
    9   12    4      0.08      0.00
   10   12    4      0.69      0.00
   11   12    4     -0.49      0.00
   12   12    4     -0.07      0.00
  -10   13    4     -0.02      0.00
   -9   13    4     -0.67      0.00
   -8   13    4     -0.94      0.00
   -7   13    4     -1.25      0.00
   -6   13    4     -0.27      0.00
   -5   13    4      1.80      0.00
   -4   13    4      3.93      0.00
   -3   13    4     -0.03      0.00
   -2   13    4     -0.52      0.00
   -1   13    4     -4.13      0.00
    0   13    4     -6.35      0.00
    1   13    4     -1.48      0.00
    2   13    4     -1.96      0.00
    3   13    4     -2.33      0.00
    4   13    4      0.26      0.00
    5   13    4     -0.42      0.00
    6   13    4      0.79      0.00
    7   13    4      0.80      0.00
    8   13    4     -0.90      0.00
    9   13    4     -1.60      0.00
   10   13    4     -0.46      0.00
   11   13    4      0.44      0.00
   12   13    4      0.47      0.00
   -8   14    4      0.52      0.00
   -7   14    4      0.06      0.00
   -6   14    4     -0.63      0.00
   -5   14    4     -1.08      0.00
   -4   14    4     -2.93      0.00
   -3   14    4     -2.62      0.00
   -2   14    4      0.02      0.00
   -1   14    4     -1.25      0.00
    0   14    4      0.55      0.00
    1   14    4      0.71      0.00
    2   14    4      0.79      0.00
    3   14    4      3.27      0.00
    4   14    4      1.37      0.00
    5   14    4     -0.52      0.00
    6   14    4     -1.38      0.00
    7   14    4     -0.69      0.00
    8   14    4      0.51      0.00
    9   14    4      1.53      0.00
   10   14    4      0.48      0.00
   11   14    4     -0.89      0.00
   12   14    4     -0.11      0.00
   -7   15    4      0.64      0.00
   -6   15    4      0.74      0.00
   -5   15    4      1.23      0.00
   -4   15    4      0.27      0.00
   -3   15    4      1.81      0.00
   -2   15    4      0.90      0.00
   -1   15    4      0.42      0.00
    0   15    4      1.73      0.00
    1   15    4     -2.12      0.00
    2   15    4     -3.24      0.00
    3   15    4     -3.72      0.00
    4   15    4     -3.17      0.00
    5   15    4     -0.40      0.00
    6   15    4      0.58      0.00
    7   15    4      0.85      0.00
    8   15    4      0.02      0.00
    9   15    4      0.38      0.00
   10   15    4      1.08      0.00
   11   15    4      0.61      0.00
   -7   16    4     -1.09      0.00
   -6   16    4     -1.27      0.00
   -5   16    4     -1.09      0.00
   -4   16    4     -0.09      0.00
   -3   16    4      1.17      0.00
   -2   16    4      0.05      0.00
   -1   16    4      0.27      0.00
    0   16    4      0.01      0.00
    1   16    4      0.98      0.00
    2   16    4      3.78      0.00
    3   16    4      2.16      0.00
    4   16    4      2.25      0.00
    5   16    4      0.67      0.00
    6   16    4      0.59      0.00
    7   16    4      0.11      0.00
    8   16    4      0.21      0.00
    9   16    4     -0.22      0.00
   10   16    4     -0.58      0.00
   11   16    4      0.89      0.00
   -7   17    4      1.33      0.00
   -6   17    4      1.03      0.00
   -5   17    4      0.67      0.00
   -4   17    4      0.12      0.00
   -3   17    4     -0.32      0.00
   -2   17    4     -0.15      0.00
   -1   17    4      0.60      0.00
    0   17    4     -0.58      0.00
    1   17    4     -0.61      0.00
    2   17    4     -1.41      0.00
    3   17    4     -1.07      0.00
    4   17    4      0.16      0.00
    5   17    4     -1.04      0.00
    6   17    4     -0.33      0.00
    7   17    4     -1.51      0.00
    8   17    4     -0.25      0.00
    9   17    4      0.40      0.00
   10   17    4     -0.55      0.00
   11   17    4     -0.16      0.00
   -7   18    4      1.31      0.00
   -6   18    4      0.92      0.00
   -5   18    4      0.20      0.00
   -4   18    4     -0.05      0.00
   -3   18    4     -0.86      0.00
   -2   18    4     -0.93      0.00
   -1   18    4      0.57      0.00
    0   18    4      0.44      0.00
    1   18    4      1.33      0.00
    2   18    4     -0.18      0.00
    3   18    4      0.67      0.00
    4   18    4      0.36      0.00
    5   18    4      0.78      0.00
    6   18    4      0.45      0.00
    7   18    4      0.08      0.00
    8   18    4     -0.75      0.00
    9   18    4     -1.29      0.00
   10   18    4      0.00      0.00
   -7   19    4     -2.22      0.00
   -6   19    4     -1.42      0.00
   -5   19    4     -1.15      0.00
   -4   19    4     -0.87      0.00
   -3   19    4     -0.51      0.00
   -2   19    4     -0.58      0.00
   -1   19    4     -0.87      0.00
    0   19    4     -1.24      0.00
    1   19    4     -0.22      0.00
    2   19    4     -0.29      0.00
    3   19    4      0.03      0.00
    4   19    4     -1.29      0.00
    5   19    4      0.51      0.00
    6   19    4     -0.05      0.00
    7   19    4      1.27      0.00
    8   19    4      0.99      0.00
    9   19    4     -0.16      0.00
   10   19    4     -0.34      0.00
   -7   20    4      1.61      0.00
   -6   20    4      1.95      0.00
   -5   20    4      2.43      0.00
   -4   20    4      2.19      0.00
   -3   20    4      1.39      0.00
   -2   20    4      1.89      0.00
   -1   20    4      1.00      0.00
    0   20    4      1.03      0.00
    1   20    4      0.64      0.00
    2   20    4     -0.05      0.00
    3   20    4     -0.16      0.00
    4   20    4     -0.45      0.00
    5   20    4     -0.47      0.00
    6   20    4     -0.44      0.00
    7   20    4     -0.07      0.00
    8   20    4     -0.50      0.00
    9   20    4      0.58      0.00
   -6   21    4     -1.42      0.00
   -5   21    4     -1.83      0.00
   -4   21    4     -1.19      0.00
   -3   21    4     -0.35      0.00
   -2   21    4     -0.52      0.00
   -1   21    4     -1.71      0.00
    0   21    4     -0.62      0.00
    1   21    4     -1.11      0.00
    2   21    4     -0.29      0.00
    3   21    4     -0.04      0.00
    4   21    4      0.15      0.00
    5   21    4     -0.54      0.00
    6   21    4     -0.40      0.00
    7   21    4     -0.03      0.00
    8   21    4      0.38      0.00
    9   21    4      0.34      0.00
   -6   22    4      0.14      0.00
   -5   22    4      0.16      0.00
   -4   22    4     -0.08      0.00
   -3   22    4     -0.39      0.00
   -2   22    4      0.13      0.00
   -1   22    4      0.56      0.00
    0   22    4      1.42      0.00
    1   22    4      0.28      0.00
    2   22    4      0.24      0.00
    3   22    4      0.12      0.00
    4   22    4     -0.18      0.00
    5   22    4     -0.28      0.00
    7   22    4     -0.79      0.00
    8   22    4     -0.11      0.00
   -5   23    4      0.23      0.00
   -4   23    4      0.58      0.00
   -3   23    4     -0.24      0.00
   -2   23    4     -1.00      0.00
   -1   23    4     -0.28      0.00
    0   23    4     -0.68      0.00
    1   23    4     -0.54      0.00
    2   23    4      0.94      0.00
    3   23    4      0.60      0.00
    4   23    4      0.67      0.00
   -4   24    4     -0.70      0.00
   -3   24    4      1.16      0.00
   -2   24    4      1.00      0.00
   -1   24    4      0.92      0.00
    0   24    4      0.21      0.00
    1   24    4      0.28      0.00
    2   24    4      0.36      0.00
    3   24    4     -0.46      0.00
    4   24    4      0.41      0.00
   -2   25    4     -0.44      0.00
   -1   25    4      0.09      0.00
    0   25    4     -0.85      0.00
    1   25    4      0.12      0.00
    2   25    4     -0.18      0.00
    3   25    4     -0.32      0.00
    4   25    4      0.35      0.00
    1   26    4      0.14      0.00
    2   26    4     -0.78      0.00
   -1  -25    5     -0.38      0.00
    0  -25    5     -0.56      0.00
    1  -25    5     -0.24      0.00
   -4  -24    5     -0.01      0.00
   -3  -24    5      0.46      0.00
   -2  -24    5      0.48      0.00
   -1  -24    5      0.80      0.00
    0  -24    5     -0.44      0.00
    1  -24    5      1.52      0.00
    2  -24    5      0.73      0.00
    3  -24    5      0.89      0.00
   -5  -23    5      0.25      0.00
   -4  -23    5      0.12      0.00
   -3  -23    5      0.80      0.00
   -2  -23    5      0.17      0.00
   -1  -23    5      0.77      0.00
    0  -23    5      0.36      0.00
    1  -23    5     -0.03      0.00
    2  -23    5     -1.89      0.00
    3  -23    5     -0.10      0.00
    4  -23    5     -0.16      0.00
    5  -23    5      0.22      0.00
   -6  -22    5     -0.98      0.00
   -5  -22    5      0.16      0.00
   -4  -22    5      0.32      0.00
   -3  -22    5     -0.29      0.00
   -2  -22    5     -0.16      0.00
   -1  -22    5     -1.06      0.00
    0  -22    5     -0.19      0.00
    1  -22    5      0.29      0.00
    2  -22    5      1.16      0.00
    3  -22    5      0.68      0.00
    4  -22    5      0.10      0.00
    5  -22    5      0.70      0.00
    6  -22    5      0.82      0.00
   -7  -21    5      0.24      0.00
   -6  -21    5      0.20      0.00
   -5  -21    5     -0.71      0.00
   -4  -21    5     -0.35      0.00
   -3  -21    5      0.44      0.00
   -2  -21    5      1.04      0.00
   -1  -21    5      0.18      0.00
    0  -21    5      0.34      0.00
    1  -21    5     -1.24      0.00
    2  -21    5     -0.20      0.00
    3  -21    5     -0.54      0.00
    4  -21    5     -0.37      0.00
    5  -21    5     -0.79      0.00
    6  -21    5     -0.47      0.00
    7  -21    5     -0.42      0.00
   -8  -20    5      0.66      0.00
   -7  -20    5     -0.22      0.00
   -6  -20    5      0.58      0.00
   -5  -20    5     -1.04      0.00
   -4  -20    5     -1.80      0.00
   -3  -20    5     -2.69      0.00
   -2  -20    5     -2.15      0.00
   -1  -20    5     -0.47      0.00
    0  -20    5      0.21      0.00
    1  -20    5      0.38      0.00
    2  -20    5     -0.74      0.00
    3  -20    5     -0.42      0.00
    4  -20    5      0.01      0.00
    5  -20    5      0.44      0.00
    6  -20    5      0.02      0.00
    7  -20    5      0.12      0.00
    8  -20    5      0.40      0.00
   -8  -19    5     -0.20      0.00
   -7  -19    5     -0.33      0.00
   -6  -19    5     -0.45      0.00
   -5  -19    5     -0.10      0.00
   -4  -19    5      2.33      0.00
   -3  -19    5      2.16      0.00
   -2  -19    5      1.59      0.00
   -1  -19    5      0.90      0.00
    0  -19    5     -0.30      0.00
    1  -19    5      1.12      0.00
    2  -19    5      0.91      0.00
    3  -19    5      0.81      0.00
    4  -19    5     -0.12      0.00
    5  -19    5      0.28      0.00
    6  -19    5     -0.36      0.00
    7  -19    5      0.29      0.00
    8  -19    5     -0.69      0.00
   -9  -18    5     -0.30      0.00
   -8  -18    5      0.30      0.00
   -7  -18    5      2.01      0.00
   -6  -18    5      0.69      0.00
   -5  -18    5      1.01      0.00
   -4  -18    5     -0.85      0.00
   -3  -18    5     -1.17      0.00
   -2  -18    5     -0.14      0.00
   -1  -18    5     -1.38      0.00
    0  -18    5     -0.42      0.00
    1  -18    5     -1.36      0.00
    2  -18    5     -0.97      0.00
    3  -18    5     -0.32      0.00
    4  -18    5     -0.23      0.00
    5  -18    5     -0.98      0.00
    6  -18    5     -0.24      0.00
    7  -18    5     -0.49      0.00
    8  -18    5     -0.88      0.00
    9  -18    5     -0.30      0.00
   -9  -17    5      0.79      0.00
   -8  -17    5     -0.49      0.00
   -7  -17    5     -0.43      0.00
   -6  -17    5     -0.32      0.00
   -5  -17    5      0.93      0.00
   -4  -17    5     -0.32      0.00
   -3  -17    5     -0.66      0.00
   -2  -17    5     -1.31      0.00
   -1  -17    5     -0.38      0.00
    0  -17    5      1.51      0.00
    1  -17    5      0.15      0.00
    2  -17    5      0.49      0.00
    3  -17    5     -0.53      0.00
    4  -17    5      0.32      0.00
    5  -17    5     -0.10      0.00
    6  -17    5      1.27      0.00
    7  -17    5      0.31      0.00
    8  -17    5      2.00      0.00
    9  -17    5      1.36      0.00
  -10  -16    5     -0.73      0.00
   -9  -16    5     -1.09      0.00
   -8  -16    5     -0.24      0.00
   -7  -16    5     -0.66      0.00
   -6  -16    5      0.29      0.00
   -5  -16    5     -0.37      0.00
   -4  -16    5      1.43      0.00
   -3  -16    5      2.84      0.00
   -2  -16    5      0.84      0.00
   -1  -16    5      0.84      0.00
    0  -16    5     -1.94      0.00
    1  -16    5     -1.20      0.00
    2  -16    5      0.02      0.00
    3  -16    5     -0.50      0.00
    4  -16    5     -0.31      0.00
    5  -16    5      0.46      0.00
    6  -16    5      0.14      0.00
    7  -16    5     -0.41      0.00
    8  -16    5      0.04      0.00
    9  -16    5     -0.89      0.00
   10  -16    5      0.54      0.00
  -10  -15    5      1.32      0.00
   -9  -15    5      0.03      0.00
   -8  -15    5      0.09      0.00
   -7  -15    5      0.28      0.00
   -6  -15    5     -0.06      0.00
   -5  -15    5     -0.48      0.00
   -4  -15    5     -0.61      0.00
   -3  -15    5     -1.96      0.00
   -2  -15    5      0.02      0.00
   -1  -15    5      1.41      0.00
    0  -15    5      0.40      0.00
    1  -15    5      2.44      0.00
    2  -15    5      0.75      0.00
    3  -15    5      1.63      0.00
    4  -15    5      0.39      0.00
    5  -15    5     -0.89      0.00
    6  -15    5     -2.29      0.00
    7  -15    5     -1.04      0.00
    8  -15    5     -1.76      0.00
    9  -15    5     -0.86      0.00
  -10  -14    5     -0.17      0.00
   -9  -14    5      0.59      0.00
   -8  -14    5     -0.07      0.00
   -7  -14    5     -0.68      0.00
   -6  -14    5     -1.60      0.00
   -5  -14    5      0.91      0.00
   -4  -14    5      0.58      0.00
   -3  -14    5      0.75      0.00
   -2  -14    5      1.23      0.00
   -1  -14    5     -1.19      0.00
    0  -14    5      1.59      0.00
    1  -14    5      1.15      0.00
    2  -14    5     -1.19      0.00
    3  -14    5     -0.46      0.00
    4  -14    5     -1.26      0.00
    5  -14    5      0.42      0.00
    6  -14    5      0.75      0.00
    7  -14    5      1.18      0.00
    8  -14    5      0.72      0.00
    9  -14    5      1.24      0.00
  -11  -13    5      0.13      0.00
  -10  -13    5     -0.93      0.00
   -9  -13    5     -0.89      0.00
   -8  -13    5      0.20      0.00
   -7  -13    5      0.33      0.00
   -6  -13    5      0.20      0.00
   -5  -13    5     -0.27      0.00
   -4  -13    5     -1.80      0.00
   -3  -13    5      1.27      0.00
   -2  -13    5      0.76      0.00
   -1  -13    5     -1.15      0.00
    0  -13    5     -1.53      0.00
    1  -13    5     -5.31      0.00
    2  -13    5     -0.34      0.00
    3  -13    5      1.93      0.00
    4  -13    5      1.63      0.00
    5  -13    5      3.17      0.00
    6  -13    5      2.10      0.00
    7  -13    5      0.55      0.00
    8  -13    5     -0.03      0.00
    9  -13    5     -0.58      0.00
  -11  -12    5     -0.13      0.00
  -10  -12    5      0.18      0.00
   -9  -12    5      0.75      0.00
   -8  -12    5      0.47      0.00
   -7  -12    5     -0.35      0.00
   -6  -12    5      1.03      0.00
   -5  -12    5     -1.39      0.00
   -4  -12    5     -1.53      0.00
   -3  -12    5     -3.33      0.00
   -2  -12    5     -5.06      0.00
   -1  -12    5      1.66      0.00
    0  -12    5      3.86      0.00
    1  -12    5      4.53      0.00
    2  -12    5      5.58      0.00
    3  -12    5     -0.07      0.00
    4  -12    5      1.52      0.00
    5  -12    5      0.26      0.00
    6  -12    5     -2.21      0.00
    7  -12    5     -0.43      0.00
    8  -12    5      0.12      0.00
    9  -12    5      0.11      0.00
  -11  -11    5      0.43      0.00
  -10  -11    5      0.45      0.00
   -9  -11    5      0.95      0.00
   -8  -11    5      0.65      0.00
   -7  -11    5      0.74      0.00
   -6  -11    5      0.50      0.00
   -5  -11    5      0.74      0.00
   -4  -11    5      4.36      0.00
   -3  -11    5      3.14      0.00
   -2  -11    5      2.64      0.00
   -1  -11    5     -0.78      0.00
    0  -11    5     -7.46      0.00
    1  -11    5     -4.29      0.00
    2  -11    5     -7.05      0.00
    3  -11    5     -9.31      0.00
    4  -11    5     -5.11      0.00
    5  -11    5     -5.31      0.00
    6  -11    5     -0.33      0.00
    7  -11    5      2.21      0.00
    8  -11    5      0.65      0.00
    9  -11    5      0.77      0.00
   10  -11    5      0.07      0.00
  -11  -10    5     -0.57      0.00
  -10  -10    5     -0.26      0.00
   -9  -10    5     -1.01      0.00
   -8  -10    5     -1.48      0.00
   -7  -10    5      0.07      0.00
   -6  -10    5     -0.63      0.00
   -5  -10    5      0.00      0.00
   -4  -10    5     -2.88      0.00
   -3  -10    5     -3.19      0.00
   -2  -10    5      1.04      0.00
   -1  -10    5     -0.35      0.00
    0  -10    5      0.01      0.00
    1  -10    5      1.20      0.00
    2  -10    5     -0.22      0.00
    3  -10    5      8.48      0.00
    4  -10    5      7.83      0.00
    5  -10    5      3.04      0.00
    6  -10    5      3.46      0.00
    7  -10    5     -1.37      0.00
    8  -10    5     -1.44      0.00
    9  -10    5     -0.24      0.00
   10  -10    5     -0.53      0.00
   11  -10    5      0.46      0.00
   12  -10    5     -1.07      0.00
  -12   -9    5     -0.74      0.00
  -11   -9    5     -0.99      0.00
  -10   -9    5     -0.53      0.00
   -9   -9    5     -0.76      0.00
   -8   -9    5      0.45      0.00
   -7   -9    5     -0.28      0.00
   -6   -9    5      1.17      0.00
   -5   -9    5      3.62      0.00
   -4   -9    5      2.80      0.00
   -3   -9    5      5.45      0.00
   -2   -9    5      1.34      0.00
   -1   -9    5      1.83      0.00
    0   -9    5      9.06      0.00
    1   -9    5      5.16      0.00
    2   -9    5      0.93      0.00
    3   -9    5     -3.44      0.00
    4   -9    5    -10.30      0.00
    5   -9    5     -6.21      0.00
    6   -9    5     -4.42      0.00
    7   -9    5     -4.65      0.00
    8   -9    5      0.94      0.00
    9   -9    5     -0.17      0.00
   10   -9    5      0.11      0.00
   11   -9    5      0.08      0.00
   12   -9    5     -0.38      0.00
  -12   -8    5      0.21      0.00
  -11   -8    5      1.33      0.00
  -10   -8    5      0.69      0.00
   -9   -8    5      0.30      0.00
   -8   -8    5      0.61      0.00
   -7   -8    5     -1.19      0.00
   -6   -8    5     -1.45      0.00
   -5   -8    5     -5.79      0.00
   -4   -8    5     -3.52      0.00
   -3   -8    5     -0.07      0.00
   -2   -8    5      0.14      0.00
   -1   -8    5      4.30      0.00
    0   -8    5     -2.28      0.00
    1   -8    5     -3.36      0.00
    2   -8    5      5.15      0.00
    3   -8    5      3.66      0.00
    4   -8    5      4.79      0.00
    5   -8    5      6.35      0.00
    6   -8    5      2.16      0.00
    7   -8    5      2.58      0.00
    8   -8    5      0.71      0.00
    9   -8    5     -2.37      0.00
   10   -8    5      0.53      0.00
   11   -8    5     -0.52      0.00
   12   -8    5      1.60      0.00
  -12   -7    5      1.00      0.00
  -11   -7    5      0.52      0.00
  -10   -7    5     -0.52      0.00
   -9   -7    5     -0.37      0.00
   -8   -7    5     -2.08      0.00
   -7   -7    5     -0.90      0.00
   -6   -7    5      0.17      0.00
   -5   -7    5     -0.86      0.00
   -4   -7    5      1.51      0.00
   -3   -7    5     -7.58      0.00
   -2   -7    5     -4.90      0.00
   -1   -7    5     -1.13      0.00
    0   -7    5     -2.68      0.00
    1   -7    5      5.17      0.00
    2   -7    5     -0.38      0.00
    3   -7    5      0.38      0.00
    4   -7    5      5.06      0.00
    5   -7    5      0.54      0.00
    6   -7    5     -2.31      0.00
    7   -7    5     -0.03      0.00
    8   -7    5     -2.27      0.00
    9   -7    5      0.63      0.00
   10   -7    5      0.95      0.00
   11   -7    5     -0.92      0.00
   12   -7    5      0.59      0.00
  -12   -6    5     -0.71      0.00
  -11   -6    5     -0.88      0.00
  -10   -6    5      0.89      0.00
   -9   -6    5      1.59      0.00
   -8   -6    5      1.18      0.00
   -7   -6    5      2.65      0.00
   -6   -6    5     -0.23      0.00
   -5   -6    5      1.87      0.00
   -4   -6    5      0.98      0.00
   -3   -6    5     -3.22      0.00
   -2   -6    5      0.05      0.00
   -1   -6    5    -13.09      0.00
    0   -6    5     -4.13      0.00
    1   -6    5      4.20      0.00
    2   -6    5     -1.30      0.00
    3   -6    5      4.40      0.00
    4   -6    5     -1.36      0.00
    5   -6    5      0.80      0.00
    6   -6    5      5.96      0.00
    7   -6    5      5.20      0.00
    8   -6    5      2.08      0.00
    9   -6    5      3.09      0.00
   10   -6    5     -1.55      0.00
   11   -6    5     -0.12      0.00
   12   -6    5     -0.84      0.00
  -12   -5    5      0.16      0.00
  -11   -5    5      0.91      0.00
  -10   -5    5      1.15      0.00
   -9   -5    5      0.88      0.00
   -8   -5    5      1.71      0.00
   -7   -5    5      1.07      0.00
   -6   -5    5     -0.42      0.00
   -5   -5    5      0.90      0.00
   -4   -5    5     -5.15      0.00
   -3   -5    5      3.71      0.00
   -2   -5    5      5.26      0.00
   -1   -5    5     -1.30      0.00
    0   -5    5      0.88      0.00
    1   -5    5    -22.91      0.00
    2   -5    5    -10.37      0.00
    3   -5    5      0.47      0.00
    4   -5    5     -1.42      0.00
    5   -5    5      4.54      0.00
    6   -5    5      0.88      0.00
    7   -5    5     -1.35      0.00
    8   -5    5      0.29      0.00
    9   -5    5     -0.12      0.00
   10   -5    5     -1.30      0.00
   11   -5    5      1.36      0.00
   12   -5    5     -1.01      0.00
  -12   -4    5     -1.66      0.00
  -11   -4    5     -0.82      0.00
  -10   -4    5     -1.82      0.00
   -9   -4    5     -2.19      0.00
   -8   -4    5     -1.86      0.00
   -7   -4    5     -1.24      0.00
   -6   -4    5      3.30      0.00
   -5   -4    5      7.60      0.00
   -4   -4    5      9.26      0.00
   -3   -4    5     12.39      0.00
   -2   -4    5     -3.80      0.00
   -1   -4    5      7.02      0.00
    0   -4    5      9.02      0.00
    1   -4    5      0.72      0.00
    2   -4    5      6.97      0.00
    3   -4    5    -17.66      0.00
    4   -4    5    -11.34      0.00
    5   -4    5     -8.23      0.00
    6   -4    5    -10.36      0.00
    7   -4    5     -4.89      0.00
    8   -4    5     -1.10      0.00
    9   -4    5     -0.93      0.00
   10   -4    5      1.94      0.00
   11   -4    5      1.29      0.00
   12   -4    5     -0.51      0.00
   13   -4    5     -0.37      0.00
  -12   -3    5      0.65      0.00
  -11   -3    5     -0.46      0.00
  -10   -3    5     -0.23      0.00
   -9   -3    5      1.51      0.00
   -8   -3    5      2.14      0.00
   -7   -3    5      1.96      0.00
   -6   -3    5     -1.31      0.00
   -5   -3    5     -7.23      0.00
   -4   -3    5     -4.47      0.00
   -3   -3    5     -5.16      0.00
   -2   -3    5     -3.42      0.00
   -1   -3    5      5.54      0.00
    0   -3    5    -16.51      0.00
    1   -3    5      2.72      0.00
    2   -3    5      2.66      0.00
    3   -3    5     -5.85      0.00
    4   -3    5      4.59      0.00
    5   -3    5     -5.20      0.00
    6   -3    5      2.23      0.00
    7   -3    5      4.24      0.00
    8   -3    5      1.25      0.00
    9   -3    5     -0.18      0.00
   10   -3    5      0.44      0.00
   11   -3    5     -1.17      0.00
   12   -3    5      0.93      0.00
   13   -3    5      0.64      0.00
  -12   -2    5      0.89      0.00
  -11   -2    5     -0.21      0.00
  -10   -2    5     -0.78      0.00
   -9   -2    5     -3.10      0.00
   -8   -2    5     -3.84      0.00
   -7   -2    5     -5.11      0.00
   -6   -2    5     -4.55      0.00
   -5   -2    5     -1.74      0.00
   -4   -2    5      1.90      0.00
   -3   -2    5      2.47      0.00
   -2   -2    5     22.38      0.00
   -1   -2    5     27.63      0.00
    0   -2    5     28.00      0.00
    1   -2    5     35.28      0.00
    2   -2    5      6.50      0.00
    3   -2    5     23.03      0.00
    4   -2    5     17.58      0.00
    5   -2    5      3.35      0.00
    6   -2    5      3.54      0.00
    7   -2    5     -6.43      0.00
    8   -2    5     -5.28      0.00
    9   -2    5     -2.47      0.00
   10   -2    5     -1.45      0.00
   11   -2    5     -0.90      0.00
   12   -2    5      0.41      0.00
   13   -2    5      0.70      0.00
  -12   -1    5     -0.24      0.00
  -11   -1    5      0.51      0.00
  -10   -1    5      1.08      0.00
   -9   -1    5      1.06      0.00
   -8   -1    5      2.08      0.00
   -7   -1    5      1.11      0.00
   -6   -1    5      3.55      0.00
   -5   -1    5      3.27      0.00
   -4   -1    5     -2.68      0.00
   -3   -1    5    -10.78      0.00
   -2   -1    5    -24.88      0.00
   -1   -1    5    -45.03      0.00
    0   -1    5    -23.00      0.00
    1   -1    5    -16.62      0.00
    2   -1    5     -9.86      0.00
    3   -1    5      1.25      0.00
    4   -1    5    -14.53      0.00
    5   -1    5      0.86      0.00
    6   -1    5      3.07      0.00
    7   -1    5      1.99      0.00
    8   -1    5      5.37      0.00
    9   -1    5      2.04      0.00
   10   -1    5      1.10      0.00
   11   -1    5      1.13      0.00
   12   -1    5      0.65      0.00
   13   -1    5     -1.11      0.00
  -11    0    5      0.87      0.00
  -10    0    5      0.23      0.00
   -9    0    5      1.84      0.00
   -8    0    5      1.24      0.00
   -7    0    5      0.55      0.00
   -6    0    5     -0.75      0.00
   -5    0    5     -8.65      0.00
   -4    0    5     -9.97      0.00
   -3    0    5     -1.29      0.00
   -2    0    5      3.12      0.00
   -1    0    5     12.66      0.00
    0    0    5      8.49      0.00
    1    0    5    -13.52      0.00
    2    0    5      7.82      0.00
    3    0    5      4.61      0.00
    4    0    5      3.22      0.00
    5    0    5      9.75      0.00
    6    0    5     -1.89      0.00
    7    0    5      3.03      0.00
    8    0    5      0.44      0.00
    9    0    5     -1.87      0.00
   10    0    5     -1.71      0.00
   11    0    5     -2.82      0.00
   12    0    5     -1.09      0.00
   13    0    5      0.14      0.00
  -11    1    5      0.52      0.00
  -10    1    5      0.49      0.00
   -9    1    5     -0.55      0.00
   -8    1    5     -2.67      0.00
   -7    1    5      0.02      0.00
   -6    1    5      0.80      0.00
   -5    1    5      6.02      0.00
   -4    1    5     12.66      0.00
   -3    1    5      3.09      0.00
   -2    1    5     -3.33      0.00
   -1    1    5     -0.19      0.00
    0    1    5    -10.13      0.00
    1    1    5     -5.27      0.00
    2    1    5    -11.32      0.00
    3    1    5    -20.73      0.00
    4    1    5      1.79      0.00
    5    1    5      1.17      0.00
    6    1    5     -0.29      0.00
    7    1    5      3.82      0.00
    8    1    5     -0.77      0.00
    9    1    5      2.98      0.00
   10    1    5      3.29      0.00
   11    1    5      2.90      0.00
   12    1    5      1.00      0.00
   13    1    5     -0.58      0.00
  -11    2    5     -1.45      0.00
  -10    2    5     -0.28      0.00
   -9    2    5      1.43      0.00
   -8    2    5      3.56      0.00
   -7    2    5      5.40      0.00
   -6    2    5      2.86      0.00
   -5    2    5      5.80      0.00
   -4    2    5      4.81      0.00
   -3    2    5      2.12      0.00
   -2    2    5      8.56      0.00
   -1    2    5     -3.92      0.00
    0    2    5     -2.53      0.00
    1    2    5     15.41      0.00
    2    2    5      6.63      0.00
    3    2    5      6.64      0.00
    4    2    5     -3.97      0.00
    5    2    5    -13.55      0.00
    6    2    5     -1.28      0.00
    7    2    5     -1.86      0.00
    8    2    5     -0.68      0.00
    9    2    5      0.70      0.00
   10    2    5     -1.92      0.00
   11    2    5     -0.10      0.00
   12    2    5     -0.42      0.00
   13    2    5      0.77      0.00
  -11    3    5     -0.11      0.00
  -10    3    5     -0.81      0.00
   -9    3    5     -2.07      0.00
   -8    3    5     -2.35      0.00
   -7    3    5     -4.37      0.00
   -6    3    5     -4.54      0.00
   -5    3    5     -3.88      0.00
   -4    3    5     -9.44      0.00
   -3    3    5      2.01      0.00
   -2    3    5     11.23      0.00
   -1    3    5      9.74      0.00
    0    3    5     16.92      0.00
    1    3    5     -8.73      0.00
    2    3    5    -13.38      0.00
    3    3    5      0.97      0.00
    4    3    5     -3.74      0.00
    5    3    5      0.09      0.00
    6    3    5     -0.57      0.00
    7    3    5     -5.44      0.00
    8    3    5     -1.48      0.00
    9    3    5     -2.41      0.00
   10    3    5     -2.12      0.00
   11    3    5     -1.81      0.00
   12    3    5     -1.97      0.00
   13    3    5     -0.53      0.00
  -11    4    5      0.48      0.00
  -10    4    5      1.07      0.00
   -9    4    5     -0.06      0.00
   -8    4    5     -1.14      0.00
   -7    4    5     -1.11      0.00
   -6    4    5      2.36      0.00
   -5    4    5      3.78      0.00
   -4    4    5      5.52      0.00
   -3    4    5      6.57      0.00
   -2    4    5    -12.32      0.00
   -1    4    5     -7.21      0.00
    0    4    5     -0.67      0.00
    1    4    5     -2.80      0.00
    2    4    5     12.29      0.00
    3    4    5     -2.49      0.00
    4    4    5     -1.98      0.00
    5    4    5      5.68      0.00
    6    4    5     -1.22      0.00
    7    4    5      0.87      0.00
    8    4    5      1.26      0.00
    9    4    5      0.81      0.00
   10    4    5      3.35      0.00
   11    4    5      2.68      0.00
   12    4    5      2.39      0.00
   13    4    5      0.45      0.00
  -11    5    5     -1.47      0.00
  -10    5    5     -1.59      0.00
   -9    5    5     -0.11      0.00
   -8    5    5      1.52      0.00
   -7    5    5      0.46      0.00
   -6    5    5     -3.25      0.00
   -5    5    5    -10.22      0.00
   -4    5    5     -9.57      0.00
   -3    5    5     -9.98      0.00
   -2    5    5     -5.54      0.00
   -1    5    5      9.96      0.00
    0    5    5     -0.55      0.00
    1    5    5     13.91      0.00
    2    5    5     21.20      0.00
    3    5    5     11.85      0.00
    4    5    5     13.97      0.00
    5    5    5      2.35      0.00
    6    5    5      0.97      0.00
    7    5    5      3.52      0.00
    8    5    5      0.30      0.00
    9    5    5      0.06      0.00
   10    5    5     -1.85      0.00
   11    5    5     -2.18      0.00
   12    5    5     -1.68      0.00
   13    5    5     -1.00      0.00
  -11    6    5      3.14      0.00
  -10    6    5      2.12      0.00
   -9    6    5      0.46      0.00
   -8    6    5     -0.32      0.00
   -7    6    5     -0.02      0.00
   -6    6    5      2.36      0.00
   -5    6    5      6.46      0.00
   -4    6    5      9.44      0.00
   -3    6    5      4.26      0.00
   -2    6    5      9.05      0.00
   -1    6    5      2.32      0.00
    0    6    5     -8.94      0.00
    1    6    5     -8.38      0.00
    2    6    5    -28.19      0.00
    3    6    5    -16.20      0.00
    4    6    5     -4.61      0.00
    5    6    5     -4.86      0.00
    6    6    5      1.27      0.00
    7    6    5     -2.27      0.00
    8    6    5     -2.14      0.00
    9    6    5     -0.79      0.00
   10    6    5     -0.40      0.00
   11    6    5      1.24      0.00
   12    6    5      1.23      0.00
   13    6    5      2.21      0.00
  -11    7    5     -2.34      0.00
  -10    7    5     -1.78      0.00
   -9    7    5      0.05      0.00
   -8    7    5      0.54      0.00
   -7    7    5      0.08      0.00
   -6    7    5      0.07      0.00
   -5    7    5     -1.29      0.00
   -4    7    5     -5.22      0.00
   -3    7    5     -7.60      0.00
   -2    7    5    -10.54      0.00
   -1    7    5    -19.62      0.00
    0    7    5     -5.37      0.00
    1    7    5      2.43      0.00
    2    7    5      5.99      0.00
    3    7    5     12.47      0.00
    4    7    5      0.25      0.00
    5    7    5      3.98      0.00
    6    7    5      4.43      0.00
    7    7    5      1.39      0.00
    8    7    5      3.10      0.00
    9    7    5      0.86      0.00
   10    7    5      1.56      0.00
   11    7    5      0.47      0.00
   12    7    5     -0.46      0.00
   13    7    5     -0.87      0.00
  -11    8    5      0.57      0.00
  -10    8    5      1.70      0.00
   -9    8    5      1.08      0.00
   -8    8    5      1.19      0.00
   -7    8    5      1.16      0.00
   -6    8    5      0.06      0.00
   -5    8    5     -1.27      0.00
   -4    8    5      0.23      0.00
   -3    8    5      6.10      0.00
   -2    8    5      9.26      0.00
   -1    8    5     12.59      0.00
    0    8    5     10.75      0.00
    1    8    5     -4.36      0.00
    2    8    5     -1.06      0.00
    3    8    5     -4.14      0.00
    4    8    5     -7.46      0.00
    5    8    5     -3.47      0.00
    6    8    5     -6.45      0.00
    7    8    5     -1.43      0.00
    8    8    5      0.32      0.00
    9    8    5     -0.37      0.00
   10    8    5     -0.09      0.00
   11    8    5     -1.52      0.00
   12    8    5      0.58      0.00
   13    8    5     -0.53      0.00
  -11    9    5     -0.07      0.00
  -10    9    5     -0.43      0.00
   -9    9    5     -1.71      0.00
   -8    9    5     -1.74      0.00
   -7    9    5     -0.08      0.00
   -6    9    5      1.71      0.00
   -5    9    5      4.01      0.00
   -4    9    5      6.20      0.00
   -3    9    5      2.04      0.00
   -2    9    5     -0.42      0.00
   -1    9    5      1.87      0.00
    0    9    5     -0.49      0.00
    1    9    5      1.44      0.00
    2    9    5      1.76      0.00
    3    9    5     -3.54      0.00
    4    9    5      4.87      0.00
    5    9    5      4.18      0.00
    6    9    5      2.00      0.00
    7    9    5      1.94      0.00
    8    9    5     -1.71      0.00
    9    9    5     -0.93      0.00
   10    9    5     -0.13      0.00
   11    9    5     -0.03      0.00
   12    9    5      0.39      0.00
   13    9    5      0.43      0.00
  -11   10    5      0.03      0.00
  -10   10    5     -1.90      0.00
   -9   10    5      0.28      0.00
   -8   10    5      0.93      0.00
   -7   10    5      0.07      0.00
   -6   10    5     -1.95      0.00
   -5   10    5     -2.56      0.00
   -4   10    5     -4.47      0.00
   -3   10    5     -5.54      0.00
   -2   10    5     -2.87      0.00
   -1   10    5     -5.90      0.00
    0   10    5     -4.97      0.00
    1   10    5      2.89      0.00
    2   10    5      2.19      0.00
    3   10    5      2.02      0.00
    4   10    5     -0.18      0.00
    5   10    5     -5.72      0.00
    6   10    5     -1.88      0.00
    7   10    5     -1.46      0.00
    8   10    5     -0.57      0.00
    9   10    5      0.85      0.00
   10   10    5     -0.99      0.00
   11   10    5     -0.06      0.00
   12   10    5     -1.36      0.00
  -10   11    5      0.56      0.00
   -9   11    5      0.91      0.00
   -8   11    5     -0.87      0.00
   -7   11    5     -0.95      0.00
   -6   11    5     -0.35      0.00
   -5   11    5      0.48      0.00
   -4   11    5     -0.79      0.00
   -3   11    5      3.57      0.00
   -2   11    5      4.96      0.00
   -1   11    5      5.08      0.00
    0   11    5      7.08      0.00
    1   11    5      0.58      0.00
    2   11    5     -2.25      0.00
    3   11    5      2.60      0.00
    4   11    5      1.28      0.00
    5   11    5      2.31      0.00
    6   11    5      2.49      0.00
    7   11    5      0.36      0.00
    8   11    5      0.55      0.00
    9   11    5      0.85      0.00
   10   11    5      0.11      0.00
   11   11    5      0.30      0.00
   12   11    5      0.36      0.00
  -10   12    5      0.59      0.00
   -9   12    5     -0.59      0.00
   -8   12    5     -1.62      0.00
   -7   12    5     -1.16      0.00
   -6   12    5      0.20      0.00
   -5   12    5      0.69      0.00
   -4   12    5      0.31      0.00
   -3   12    5      0.01      0.00
   -2   12    5     -6.37      0.00
   -1   12    5     -5.79      0.00
    0   12    5     -4.41      0.00
    1   12    5     -3.73      0.00
    2   12    5      0.63      0.00
    3   12    5     -0.59      0.00
    4   12    5     -1.44      0.00
    5   12    5      2.00      0.00
    6   12    5      0.39      0.00
    7   12    5     -0.05      0.00
    8   12    5     -0.15      0.00
    9   12    5     -1.18      0.00
   10   12    5      0.16      0.00
   11   12    5      0.73      0.00
   12   12    5     -0.01      0.00
  -10   13    5      0.32      0.00
   -9   13    5     -0.11      0.00
   -8   13    5      1.38      0.00
   -7   13    5      1.56      0.00
   -6   13    5     -0.17      0.00
   -5   13    5     -2.04      0.00
   -4   13    5      0.02      0.00
   -3   13    5      0.03      0.00
   -2   13    5      1.57      0.00
   -1   13    5      4.23      0.00
    0   13    5      0.18      0.00
    1   13    5      1.12      0.00
    2   13    5      1.81      0.00
    3   13    5     -0.21      0.00
    4   13    5     -0.05      0.00
    5   13    5     -1.71      0.00
    6   13    5     -2.25      0.00
    7   13    5     -0.76      0.00
    8   13    5      0.92      0.00
    9   13    5      0.93      0.00
   10   13    5      0.16      0.00
   11   13    5     -0.39      0.00
   12   13    5     -0.30      0.00
   -9   14    5      0.47      0.00
   -8   14    5      0.89      0.00
   -7   14    5      0.48      0.00
   -6   14    5      0.55      0.00
   -5   14    5      1.06      0.00
   -4   14    5      1.24      0.00
   -3   14    5     -1.16      0.00
   -2   14    5      0.59      0.00
   -1   14    5     -0.35      0.00
    0   14    5     -1.34      0.00
    1   14    5     -0.82      0.00
    2   14    5     -4.64      0.00
    3   14    5     -2.94      0.00
    4   14    5     -0.16      0.00
    5   14    5      0.50      0.00
    6   14    5      1.74      0.00
    7   14    5      1.38      0.00
    8   14    5      0.02      0.00
    9   14    5      0.33      0.00
   10   14    5      1.06      0.00
   11   14    5      0.82      0.00
   12   14    5      0.50      0.00
   -7   15    5     -1.59      0.00
   -6   15    5     -1.37      0.00
   -5   15    5     -0.75      0.00
   -4   15    5     -0.57      0.00
   -3   15    5      0.41      0.00
   -2   15    5      1.28      0.00
   -1   15    5     -0.11      0.00
    0   15    5      1.89      0.00
    1   15    5      2.99      0.00
    2   15    5      3.77      0.00
    3   15    5      3.84      0.00
    5   15    5      0.27      0.00
    6   15    5     -0.73      0.00
    7   15    5     -0.27      0.00
    8   15    5     -0.85      0.00
    9   15    5     -1.29      0.00
   10   15    5     -0.85      0.00
   11   15    5     -0.50      0.00
   12   15    5      0.63      0.00
   -7   16    5      1.92      0.00
   -6   16    5      2.26      0.00
   -5   16    5      1.22      0.00
   -4   16    5     -0.11      0.00
   -3   16    5      0.31      0.00
   -2   16    5      0.00      0.00
   -1   16    5     -0.32      0.00
    0   16    5     -0.06      0.00
    1   16    5     -2.80      0.00
    2   16    5     -1.57      0.00
    3   16    5     -1.30      0.00
    4   16    5     -0.71      0.00
    5   16    5      0.28      0.00
    6   16    5     -0.52      0.00
    7   16    5     -0.44      0.00
    8   16    5      0.01      0.00
    9   16    5      0.56      0.00
   10   16    5      0.06      0.00
   11   16    5     -1.09      0.00
   -7   17    5      0.23      0.00
   -6   17    5      0.05      0.00
   -5   17    5      0.09      0.00
   -4   17    5     -0.16      0.00
   -3   17    5     -1.36      0.00
   -2   17    5     -1.41      0.00
   -1   17    5     -0.62      0.00
    0   17    5      0.79      0.00
    1   17    5      0.92      0.00
    2   17    5      0.98      0.00
    3   17    5     -0.90      0.00
    4   17    5      0.73      0.00
    5   17    5     -0.10      0.00
    6   17    5      0.73      0.00
    7   17    5     -0.09      0.00
    8   17    5     -0.65      0.00
    9   17    5     -0.53      0.00
   10   17    5     -0.31      0.00
   11   17    5      0.69      0.00
   -7   18    5     -1.85      0.00
   -6   18    5     -1.87      0.00
   -5   18    5     -1.31      0.00
   -4   18    5     -0.40      0.00
   -3   18    5      0.52      0.00
   -2   18    5      0.06      0.00
   -1   18    5     -0.63      0.00
    0   18    5     -0.81      0.00
    1   18    5     -0.30      0.00
    2   18    5      0.29      0.00
    3   18    5     -0.28      0.00
    4   18    5     -0.36      0.00
    5   18    5     -1.15      0.00
    6   18    5      0.65      0.00
    7   18    5      0.72      0.00
    8   18    5      1.49      0.00
    9   18    5      0.21      0.00
   10   18    5     -1.06      0.00
   -7   19    5      1.56      0.00
   -6   19    5      1.82      0.00
   -5   19    5      2.32      0.00
   -4   19    5      1.98      0.00
   -3   19    5      1.88      0.00
   -2   19    5      1.43      0.00
   -1   19    5      2.16      0.00
    0   19    5      0.44      0.00
    1   19    5      0.00      0.00
    2   19    5     -0.59      0.00
    3   19    5      0.11      0.00
    4   19    5     -0.19      0.00
    5   19    5     -0.37      0.00
    6   19    5     -0.76      0.00
    7   19    5     -0.88      0.00
    8   19    5     -0.20      0.00
    9   19    5      0.53      0.00
   10   19    5      1.20      0.00
   -7   20    5     -1.61      0.00
   -6   20    5     -1.80      0.00
   -5   20    5     -1.52      0.00
   -4   20    5     -1.47      0.00
   -3   20    5     -1.38      0.00
   -2   20    5     -2.00      0.00
   -1   20    5     -1.23      0.00
    0   20    5     -1.85      0.00
    1   20    5      0.00      0.00
    2   20    5      0.25      0.00
    3   20    5      0.54      0.00
    4   20    5      0.29      0.00
    5   20    5      0.57      0.00
    6   20    5     -0.69      0.00
    7   20    5      0.12      0.00
    8   20    5     -0.12      0.00
    9   20    5     -0.08      0.00
   -6   21    5      0.11      0.00
   -5   21    5     -0.24      0.00
   -4   21    5     -0.88      0.00
   -3   21    5     -0.06      0.00
   -2   21    5      1.21      0.00
   -1   21    5      0.90      0.00
    0   21    5      1.10      0.00
    1   21    5      1.29      0.00
    2   21    5     -0.26      0.00
    3   21    5      0.15      0.00
    4   21    5      0.18      0.00
    5   21    5      0.31      0.00
    8   21    5     -0.41      0.00
    9   21    5     -0.09      0.00
   -5   22    5      0.53      0.00
   -4   22    5      1.05      0.00
   -3   22    5      0.12      0.00
   -2   22    5     -0.51      0.00
   -1   22    5     -1.30      0.00
    0   22    5     -0.34      0.00
    1   22    5     -0.25      0.00
    2   22    5     -0.11      0.00
    3   22    5      0.74      0.00
    4   22    5      0.56      0.00
    5   22    5      0.43      0.00
   -4   23    5      0.12      0.00
   -3   23    5      0.75      0.00
   -2   23    5      1.21      0.00
   -1   23    5      0.72      0.00
    0   23    5      1.00      0.00
    1   23    5     -0.66      0.00
    2   23    5     -0.45      0.00
    3   23    5      0.05      0.00
    4   23    5     -0.43      0.00
    5   23    5      0.43      0.00
   -3   24    5     -1.58      0.00
   -2   24    5     -0.81      0.00
   -1   24    5     -0.26      0.00
    0   24    5     -0.31      0.00
    1   24    5     -0.52      0.00
    2   24    5      0.37      0.00
    3   24    5     -0.41      0.00
    4   24    5     -0.69      0.00
   -2   25    5     -0.35      0.00
   -1   25    5      0.03      0.00
    0   25    5      0.02      0.00
    1   25    5     -0.05      0.00
    2   25    5      0.33      0.00
    3   25    5     -0.73      0.00
    4   25    5      0.15      0.00
   -3  -24    6     -0.29      0.00
   -2  -24    6      0.29      0.00
   -1  -24    6      0.29      0.00
    0  -24    6     -0.06      0.00
    1  -24    6     -0.93      0.00
    2  -24    6     -1.49      0.00
    3  -24    6     -1.49      0.00
   -4  -23    6      0.13      0.00
   -3  -23    6      0.02      0.00
   -2  -23    6     -0.63      0.00
   -1  -23    6     -0.54      0.00
    0  -23    6     -0.98      0.00
    1  -23    6      1.40      0.00
    2  -23    6      1.01      0.00
    3  -23    6      1.04      0.00
    4  -23    6      0.28      0.00
    5  -23    6      0.11      0.00
   -6  -22    6      0.33      0.00
   -5  -22    6     -0.42      0.00
   -4  -22    6     -0.53      0.00
   -3  -22    6      0.37      0.00
   -2  -22    6     -0.02      0.00
   -1  -22    6      0.69      0.00
    0  -22    6     -0.09      0.00
    1  -22    6     -0.66      0.00
    2  -22    6     -0.87      0.00
    3  -22    6     -0.36      0.00
    4  -22    6     -0.74      0.00
    5  -22    6     -0.51      0.00
    6  -22    6     -0.44      0.00
   -6  -21    6     -1.02      0.00
   -5  -21    6     -0.17      0.00
   -4  -21    6     -2.02      0.00
   -3  -21    6     -2.33      0.00
   -2  -21    6     -1.09      0.00
   -1  -21    6     -0.52      0.00
    0  -21    6      0.87      0.00
    1  -21    6     -0.11      0.00
    2  -21    6     -0.36      0.00
    3  -21    6     -0.98      0.00
    4  -21    6      0.28      0.00
    5  -21    6     -0.13      0.00
    6  -21    6      0.00      0.00
    7  -21    6     -0.32      0.00
   -7  -20    6     -0.10      0.00
   -6  -20    6      1.21      0.00
   -5  -20    6      1.85      0.00
   -4  -20    6      3.05      0.00
   -3  -20    6      2.88      0.00
   -2  -20    6      1.32      0.00
   -1  -20    6      0.00      0.00
    0  -20    6     -0.25      0.00
    1  -20    6      0.49      0.00
    2  -20    6      1.89      0.00
    3  -20    6      0.95      0.00
    4  -20    6      0.42      0.00
    5  -20    6      0.01      0.00
    6  -20    6      0.39      0.00
    7  -20    6     -0.47      0.00
   -8  -19    6      0.81      0.00
   -7  -19    6      0.25      0.00
   -6  -19    6      1.54      0.00
   -5  -19    6     -1.06      0.00
   -4  -19    6     -0.90      0.00
   -3  -19    6     -0.76      0.00
   -2  -19    6     -0.54      0.00
   -1  -19    6      0.20      0.00
    0  -19    6     -1.20      0.00
    1  -19    6     -0.73      0.00
    2  -19    6     -1.58      0.00
    3  -19    6     -0.28      0.00
    4  -19    6     -0.65      0.00
    5  -19    6      0.10      0.00
    6  -19    6     -0.45      0.00
    7  -19    6      0.45      0.00
    8  -19    6      0.13      0.00
   -8  -18    6     -0.75      0.00
   -7  -18    6     -0.91      0.00
   -6  -18    6     -1.10      0.00
   -5  -18    6     -0.49      0.00
   -4  -18    6      0.24      0.00
   -3  -18    6     -1.36      0.00
   -2  -18    6     -0.45      0.00
   -1  -18    6      0.02      0.00
    0  -18    6      0.54      0.00
    1  -18    6      1.51      0.00
    2  -18    6     -0.38      0.00
    3  -18    6      0.02      0.00
    4  -18    6      0.06      0.00
    5  -18    6      0.53      0.00
    6  -18    6     -0.39      0.00
    7  -18    6      1.24      0.00
    8  -18    6      0.57      0.00
    9  -18    6      0.95      0.00
   -9  -17    6     -0.25      0.00
   -8  -17    6     -0.66      0.00
   -7  -17    6      0.36      0.00
   -6  -17    6     -0.52      0.00
   -5  -17    6      0.97      0.00
   -4  -17    6      1.06      0.00
   -3  -17    6      2.05      0.00
   -2  -17    6      1.73      0.00
   -1  -17    6     -1.19      0.00
    0  -17    6      0.11      0.00
    1  -17    6     -0.98      0.00
    2  -17    6      0.29      0.00
    3  -17    6      0.55      0.00
    4  -17    6      0.33      0.00
    5  -17    6      0.01      0.00
    6  -17    6      0.71      0.00
    7  -17    6     -0.41      0.00
    8  -17    6     -0.97      0.00
    9  -17    6      0.33      0.00
   -9  -16    6      0.71      0.00
   -8  -16    6      0.03      0.00
   -7  -16    6     -0.03      0.00
   -6  -16    6     -0.30      0.00
   -5  -16    6     -1.10      0.00
   -4  -16    6     -1.94      0.00
   -3  -16    6     -0.74      0.00
   -2  -16    6      0.00      0.00
   -1  -16    6      1.48      0.00
    0  -16    6      1.80      0.00
    1  -16    6      0.06      0.00
    2  -16    6      1.61      0.00
    3  -16    6      0.65      0.00
    4  -16    6      0.17      0.00
    5  -16    6     -1.57      0.00
    6  -16    6     -0.97      0.00
    7  -16    6     -2.06      0.00
    8  -16    6     -0.86      0.00
    9  -16    6     -1.53      0.00
   10  -16    6     -1.19      0.00
  -10  -15    6      0.47      0.00
   -9  -15    6      0.64      0.00
   -8  -15    6      0.56      0.00
   -7  -15    6     -0.34      0.00
   -6  -15    6      0.51      0.00
   -5  -15    6     -0.15      0.00
   -4  -15    6      1.70      0.00
   -3  -15    6      0.30      0.00
   -2  -15    6     -1.48      0.00
   -1  -15    6      0.50      0.00
    0  -15    6     -1.07      0.00
    1  -15    6      0.06      0.00
    2  -15    6     -1.01      0.00
    3  -15    6     -2.02      0.00
    4  -15    6      0.35      0.00
    5  -15    6      1.19      0.00
    6  -15    6      1.22      0.00
    7  -15    6      1.36      0.00
    8  -15    6      1.84      0.00
    9  -15    6      0.63      0.00
   10  -15    6      0.59      0.00
  -10  -14    6     -1.06      0.00
   -9  -14    6     -1.60      0.00
   -8  -14    6     -0.09      0.00
   -7  -14    6      0.86      0.00
   -6  -14    6     -0.37      0.00
   -5  -14    6     -0.38      0.00
   -4  -14    6     -0.65      0.00
   -3  -14    6     -1.13      0.00
   -2  -14    6      0.64      0.00
   -1  -14    6     -1.31      0.00
    0  -14    6     -3.10      0.00
    1  -14    6     -0.56      0.00
    2  -14    6     -0.87      0.00
    3  -14    6      1.77      0.00
    4  -14    6      1.37      0.00
    5  -14    6      1.11      0.00
    6  -14    6      1.63      0.00
    7  -14    6      0.75      0.00
    8  -14    6     -1.01      0.00
    9  -14    6     -0.18      0.00
   10  -14    6      0.38      0.00
  -10  -13    6      0.97      0.00
   -9  -13    6      0.85      0.00
   -8  -13    6      0.15      0.00
   -7  -13    6      0.68      0.00
   -6  -13    6     -0.19      0.00
   -5  -13    6      0.95      0.00
   -4  -13    6     -1.65      0.00
   -3  -13    6     -1.29      0.00
   -2  -13    6      0.37      0.00
   -1  -13    6      0.83      0.00
    0  -13    6      5.00      0.00
    1  -13    6      2.81      0.00
    2  -13    6      0.19      0.00
    3  -13    6      0.87      0.00
    4  -13    6     -2.44      0.00
    5  -13    6     -2.05      0.00
    6  -13    6     -2.10      0.00
    7  -13    6     -1.44      0.00
    8  -13    6      0.46      0.00
    9  -13    6      0.85      0.00
   10  -13    6     -0.63      0.00
  -11  -12    6      0.66      0.00
  -10  -12    6      0.00      0.00
   -9  -12    6      0.19      0.00
   -8  -12    6      0.71      0.00
   -7  -12    6     -0.39      0.00
   -6  -12    6      0.41      0.00
   -5  -12    6      1.30      0.00
   -4  -12    6      1.61      0.00
   -3  -12    6      2.79      0.00
   -2  -12    6     -1.55      0.00
   -1  -12    6     -4.05      0.00
    0  -12    6     -3.78      0.00
    1  -12    6     -6.07      0.00
    2  -12    6     -2.92      0.00
    3  -12    6     -4.36      0.00
    4  -12    6     -4.40      0.00
    5  -12    6      0.79      0.00
    6  -12    6      0.57      0.00
    7  -12    6      1.28      0.00
    8  -12    6      1.64      0.00
    9  -12    6      0.00      0.00
   10  -12    6      0.22      0.00
  -11  -11    6     -0.69      0.00
  -10  -11    6     -1.27      0.00
   -9  -11    6     -1.45      0.00
   -8  -11    6     -1.22      0.00
   -7  -11    6     -1.01      0.00
   -6  -11    6      0.02      0.00
   -5  -11    6     -1.71      0.00
   -4  -11    6     -0.10      0.00
   -3  -11    6      0.30      0.00
   -2  -11    6      2.80      0.00
   -1  -11    6      6.20      0.00
    0  -11    6      2.47      0.00
    1  -11    6      2.57      0.00
    2  -11    6      6.39      0.00
    3  -11    6      4.61      0.00
    4  -11    6      6.19      0.00
    5  -11    6      1.91      0.00
    6  -11    6     -2.62      0.00
    7  -11    6     -1.16      0.00
    8  -11    6     -2.71      0.00
    9  -11    6     -1.41      0.00
  -11  -10    6     -0.15      0.00
  -10  -10    6      0.06      0.00
   -9  -10    6      1.19      0.00
   -8  -10    6      0.23      0.00
   -7  -10    6      0.73      0.00
   -6  -10    6      0.90      0.00
   -5  -10    6      1.91      0.00
   -4  -10    6      1.98      0.00
   -3  -10    6     -1.81      0.00
   -2  -10    6     -1.60      0.00
   -1  -10    6     -1.51      0.00
    0  -10    6      0.45      0.00
    1  -10    6      3.19      0.00
    2  -10    6     -3.45      0.00
    3  -10    6     -6.08      0.00
    4  -10    6     -3.02      0.00
    5  -10    6     -4.55      0.00
    6  -10    6     -1.17      0.00
    7  -10    6      0.83      0.00
    8  -10    6     -0.22      0.00
    9  -10    6      1.53      0.00
   10  -10    6     -0.67      0.00
   11  -10    6     -0.46      0.00
   12  -10    6      0.15      0.00
  -11   -9    6      0.50      0.00
  -10   -9    6      0.63      0.00
   -9   -9    6     -0.04      0.00
   -8   -9    6     -0.34      0.00
   -7   -9    6     -0.85      0.00
   -6   -9    6     -3.56      0.00
   -5   -9    6     -3.11      0.00
   -4   -9    6     -4.59      0.00
   -3   -9    6      0.39      0.00
   -2   -9    6      3.01      0.00
   -1   -9    6     -0.05      0.00
    0   -9    6      2.10      0.00
    1   -9    6      2.84      0.00
    2   -9    6      4.62      0.00
    3   -9    6      8.88      0.00
    4   -9    6      4.97      0.00
    5   -9    6      3.37      0.00
    6   -9    6      5.16      0.00
    7   -9    6      0.02      0.00
    8   -9    6     -0.91      0.00
    9   -9    6     -0.88      0.00
   10   -9    6     -1.62      0.00
   11   -9    6      0.93      0.00
   12   -9    6     -0.55      0.00
  -11   -8    6      0.25      0.00
  -10   -8    6      0.44      0.00
   -9   -8    6     -0.62      0.00
   -8   -8    6     -0.07      0.00
   -7   -8    6     -0.31      0.00
   -6   -8    6      2.18      0.00
   -5   -8    6      2.37      0.00
   -4   -8    6     -0.54      0.00
   -3   -8    6     -0.03      0.00
   -2   -8    6     -6.69      0.00
   -1   -8    6     -3.60      0.00
    0   -8    6     -3.25      0.00
    1   -8    6     -8.86      0.00
    2   -8    6     -3.55      0.00
    3   -8    6     -2.21      0.00
    4   -8    6     -1.33      0.00
    5   -8    6      1.10      0.00
    6   -8    6     -0.39      0.00
    7   -8    6     -1.19      0.00
    8   -8    6      3.35      0.00
    9   -8    6      0.73      0.00
   10   -8    6      1.56      0.00
   11   -8    6      0.49      0.00
   12   -8    6     -0.68      0.00
  -12   -7    6     -0.69      0.00
  -11   -7    6      0.03      0.00
  -10   -7    6      0.47      0.00
   -9   -7    6      1.51      0.00
   -8   -7    6      2.24      0.00
   -7   -7    6      1.28      0.00
   -6   -7    6      2.29      0.00
   -5   -7    6     -0.60      0.00
   -4   -7    6      1.94      0.00
   -3   -7    6     -0.96      0.00
   -2   -7    6     -6.25      0.00
   -1   -7    6     -1.60      0.00
    0   -7    6     -5.60      0.00
    1   -7    6      2.52      0.00
    2   -7    6      3.24      0.00
    3   -7    6     -4.60      0.00
    4   -7    6      0.19      0.00
    5   -7    6      1.20      0.00
    6   -7    6      1.62      0.00
    7   -7    6      3.21      0.00
    8   -7    6      1.78      0.00
    9   -7    6     -1.29      0.00
   10   -7    6      0.66      0.00
   11   -7    6     -2.47      0.00
   12   -7    6     -0.23      0.00
  -12   -6    6      0.51      0.00
  -11   -6    6     -0.61      0.00
  -10   -6    6     -0.63      0.00
   -9   -6    6     -0.02      0.00
   -8   -6    6     -0.71      0.00
   -7   -6    6     -0.35      0.00
   -6   -6    6     -1.49      0.00
   -5   -6    6     -2.56      0.00
   -3   -6    6      2.45      0.00
   -2   -6    6     13.55      0.00
   -1   -6    6      9.42      0.00
    0   -6    6     -4.71      0.00
    1   -6    6     -1.82      0.00
    2   -6    6    -10.68      0.00
    3   -6    6     -1.23      0.00
    4   -6    6      0.82      0.00
    5   -6    6     -4.14      0.00
    6   -6    6     -2.10      0.00
    7   -6    6     -1.12      0.00
    8   -6    6     -2.99      0.00
    9   -6    6      0.21      0.00
   10   -6    6      0.97      0.00
   11   -6    6      0.24      0.00
   12   -6    6      2.11      0.00
  -12   -5    6     -0.77      0.00
  -11   -5    6     -1.31      0.00
  -10   -5    6     -0.62      0.00
   -9   -5    6     -1.32      0.00
   -8   -5    6     -1.32      0.00
   -7   -5    6      1.05      0.00
   -6   -5    6      3.02      0.00
   -5   -5    6      8.07      0.00
   -4   -5    6      6.60      0.00
   -3   -5    6      0.55      0.00
   -2   -5    6      2.42      0.00
   -1   -5    6     -5.65      0.00
    0   -5    6      9.90      0.00
    1   -5    6      6.45      0.00
    2   -5    6     -7.78      0.00
    3   -5    6     -1.64      0.00
    4   -5    6    -12.01      0.00
    5   -5    6     -6.95      0.00
    6   -5    6     -4.87      0.00
    7   -5    6     -4.55      0.00
    8   -5    6     -1.53      0.00
    9   -5    6      2.21      0.00
   10   -5    6     -0.70      0.00
   11   -5    6      1.05      0.00
   12   -5    6     -0.42      0.00
  -12   -4    6      0.48      0.00
  -11   -4    6      0.97      0.00
  -10   -4    6      0.26      0.00
   -9   -4    6      0.42      0.00
   -8   -4    6      0.58      0.00
   -7   -4    6     -1.54      0.00
   -6   -4    6     -5.60      0.00
   -5   -4    6     -8.89      0.00
   -4   -4    6    -12.79      0.00
   -3   -4    6     -3.57      0.00
   -2   -4    6     -2.91      0.00
   -1   -4    6     -3.95      0.00
    0   -4    6      9.35      0.00
    1   -4    6     -0.05      0.00
    2   -4    6     17.80      0.00
    3   -4    6     11.31      0.00
    4   -4    6      0.68      0.00
    5   -4    6      8.76      0.00
    6   -4    6      2.89      0.00
    7   -4    6      2.65      0.00
    8   -4    6      1.04      0.00
    9   -4    6     -1.91      0.00
   10   -4    6     -2.32      0.00
   11   -4    6      0.75      0.00
   12   -4    6     -0.28      0.00
   13   -4    6      1.35      0.00
  -11   -3    6      0.36      0.00
  -10   -3    6     -1.33      0.00
   -9   -3    6     -1.83      0.00
   -8   -3    6     -2.47      0.00
   -7   -3    6     -1.11      0.00
   -6   -3    6      0.65      0.00
   -5   -3    6      2.50      0.00
   -4   -3    6      4.86      0.00
   -3   -3    6     10.32      0.00
   -2   -3    6      7.90      0.00
   -1   -3    6     20.10      0.00
    0   -3    6      9.58      0.00
    1   -3    6     -2.02      0.00
    2   -3    6     11.07      0.00
    3   -3    6      0.05      0.00
    4   -3    6     13.02      0.00
    5   -3    6      5.86      0.00
    6   -3    6     -3.44      0.00
    7   -3    6     -0.62      0.00
    8   -3    6     -1.94      0.00
    9   -3    6     -1.34      0.00
   10   -3    6      0.86      0.00
   11   -3    6      0.25      0.00
   12   -3    6     -0.27      0.00
   13   -3    6      1.15      0.00
  -11   -2    6      0.64      0.00
  -10   -2    6      2.07      0.00
   -9   -2    6      2.36      0.00
   -8   -2    6      1.87      0.00
   -7   -2    6      2.45      0.00
   -6   -2    6      0.61      0.00
   -5   -2    6     -0.26      0.00
   -4   -2    6     -4.75      0.00
   -3   -2    6    -20.39      0.00
   -2   -2    6    -31.50      0.00
   -1   -2    6    -29.73      0.00
    0   -2    6    -30.32      0.00
    1   -2    6     -0.80      0.00
    2   -2    6     -5.01      0.00
    3   -2    6     -8.93      0.00
    4   -2    6      4.99      0.00
    5   -2    6     -2.55      0.00
    6   -2    6      7.17      0.00
    7   -2    6      6.24      0.00
    8   -2    6      2.93      0.00
    9   -2    6      2.72      0.00
   10   -2    6      0.95      0.00
   11   -2    6     -0.74      0.00
   12   -2    6     -0.82      0.00
   13   -2    6     -1.17      0.00
  -11   -1    6     -0.18      0.00
  -10   -1    6      0.30      0.00
   -9   -1    6      0.11      0.00
   -8   -1    6      1.50      0.00
   -7   -1    6     -0.50      0.00
   -6   -1    6     -1.43      0.00
   -5   -1    6     -1.15      0.00
   -4   -1    6      0.13      0.00
   -3   -1    6      9.81      0.00
   -2   -1    6     24.13      0.00
   -1   -1    6     15.46      0.00
    0   -1    6      5.15      0.00
    1   -1    6      0.16      0.00
    2   -1    6    -14.69      0.00
    3   -1    6      1.72      0.00
    4   -1    6     -7.20      0.00
    5   -1    6     -9.58      0.00
    6   -1    6      0.69      0.00
    7   -1    6     -4.84      0.00
    8   -1    6     -0.90      0.00
    9   -1    6     -1.15      0.00
   10   -1    6     -2.04      0.00
   11   -1    6     -1.28      0.00
   12   -1    6      0.06      0.00
   13   -1    6      1.00      0.00
  -11    0    6     -0.10      0.00
  -10    0    6     -0.37      0.00
   -9    0    6     -1.08      0.00
   -8    0    6     -0.26      0.00
   -7    0    6     -0.56      0.00
   -6    0    6      5.09      0.00
   -5    0    6      6.97      0.00
   -4    0    6      5.71      0.00
   -3    0    6      4.04      0.00
   -2    0    6     -6.89      0.00
   -1    0    6     -9.78      0.00
    0    0    6      0.64      0.00
    1    0    6    -12.43      0.00
    2    0    6     -9.72      0.00
    3    0    6     -0.57      0.00
    4    0    6     -3.06      0.00
    5    0    6      9.36      0.00
    6    0    6      2.35      0.00
    7    0    6     -0.34      0.00
    8    0    6      3.80      0.00
    9    0    6      1.92      0.00
   10    0    6      3.86      0.00
   11    0    6      2.39      0.00
   12    0    6      1.01      0.00
   13    0    6     -1.05      0.00
  -11    1    6     -0.80      0.00
  -10    1    6     -0.65      0.00
   -9    1    6      1.25      0.00
   -8    1    6      0.90      0.00
   -7    1    6      1.16      0.00
   -6    1    6      0.90      0.00
   -5    1    6     -3.36      0.00
   -4    1    6      1.54      0.00
   -3    1    6      3.83      0.00
   -2    1    6      0.63      0.00
   -1    1    6     10.80      0.00
    0    1    6     10.30      0.00
    1    1    6     15.47      0.00
    2    1    6     24.57      0.00
    3    1    6     -0.87      0.00
    4    1    6     -8.64      0.00
    5    1    6     -6.84      0.00
    6    1    6    -10.84      0.00
    7    1    6     -1.26      0.00
    8    1    6     -2.82      0.00
    9    1    6     -3.41      0.00
   10    1    6     -1.90      0.00
   11    1    6     -2.29      0.00
   12    1    6     -0.09      0.00
   13    1    6     -0.66      0.00
  -11    2    6      0.38      0.00
  -10    2    6     -0.82      0.00
   -9    2    6     -1.90      0.00
   -8    2    6     -3.20      0.00
   -7    2    6     -2.00      0.00
   -6    2    6     -4.24      0.00
   -5    2    6     -3.88      0.00
   -4    2    6     -0.03      0.00
   -3    2    6     -1.24      0.00
   -2    2    6     12.48      0.00
   -1    2    6     14.13      0.00
    0    2    6     -4.62      0.00
    1    2    6     -3.95      0.00
    2    2    6    -12.17      0.00
    3    2    6     -4.00      0.00
    4    2    6      9.23      0.00
    5    2    6     -0.43      0.00
    6    2    6     -0.04      0.00
    7    2    6      0.99      0.00
    8    2    6     -3.06      0.00
    9    2    6      0.10      0.00
   10    2    6     -0.91      0.00
   11    2    6     -0.46      0.00
   12    2    6     -0.45      0.00
   13    2    6      0.08      0.00
  -11    3    6      0.96      0.00
  -10    3    6      1.21      0.00
   -9    3    6      1.01      0.00
   -8    3    6      0.46      0.00
   -7    3    6      0.42      0.00
   -6    3    6     -0.25      0.00
   -5    3    6      3.54      0.00
   -4    3    6     -1.04      0.00
   -3    3    6    -11.00      0.00
   -2    3    6    -12.67      0.00
   -1    3    6    -23.65      0.00
    0    3    6     -5.10      0.00
    1    3    6      7.79      0.00
    2    3    6     -1.73      0.00
    3    3    6      8.31      0.00
    4    3    6      3.97      0.00
    5    3    6      3.50      0.00
    6    3    6      6.86      0.00
    7    3    6      0.03      0.00
    8    3    6      1.39      0.00
    9    3    6      2.59      0.00
   10    3    6      1.80      0.00
   11    3    6      2.78      0.00
   12    3    6      0.67      0.00
   13    3    6      0.29      0.00
  -11    4    6     -2.10      0.00
  -10    4    6     -1.26      0.00
   -9    4    6      0.49      0.00
   -8    4    6      1.18      0.00
   -7    4    6     -0.50      0.00
   -6    4    6     -2.64      0.00
   -5    4    6     -5.36      0.00
   -4    4    6     -8.62      0.00
   -3    4    6      3.24      0.00
   -2    4    6      7.32      0.00
   -1    4    6      6.26      0.00
    0    4    6     17.91      0.00
    1    4    6      5.59      0.00
    2    4    6     15.47      0.00
    3    4    6     13.91      0.00
    4    4    6     -2.22      0.00
    5    4    6      2.44      0.00
    6    4    6      0.67      0.00
    7    4    6      0.30      0.00
    8    4    6      1.94      0.00
    9    4    6     -1.40      0.00
   10    4    6     -1.92      0.00
   11    4    6     -1.90      0.00
   12    4    6     -0.76      0.00
   13    4    6      0.27      0.00
  -11    5    6      2.32      0.00
  -10    5    6      2.52      0.00
   -9    5    6      0.05      0.00
   -8    5    6     -0.28      0.00
   -7    5    6      2.38      0.00
   -6    5    6      5.54      0.00
   -5    5    6      7.11      0.00
   -4    5    6      7.60      0.00
   -3    5    6      6.47      0.00
   -2    5    6     -5.45      0.00
   -1    5    6     -3.21      0.00
    0    5    6    -15.83      0.00
    1    5    6    -31.07      0.00
    2    5    6    -20.48      0.00
    3    5    6    -22.15      0.00
    4    5    6     -5.08      0.00
    5    5    6      1.46      0.00
    6    5    6     -3.26      0.00
    7    5    6      0.96      0.00
    8    5    6     -1.02      0.00
    9    5    6     -0.33      0.00
   10    5    6      0.84      0.00
   11    5    6      0.62      0.00
   12    5    6      1.25      0.00
   13    5    6      0.56      0.00
  -11    6    6     -1.83      0.00
  -10    6    6     -1.85      0.00
   -9    6    6     -0.61      0.00
   -8    6    6      0.10      0.00
   -7    6    6     -0.74      0.00
   -6    6    6     -2.52      0.00
   -5    6    6     -3.74      0.00
   -4    6    6     -2.88      0.00
   -3    6    6     -6.86      0.00
   -2    6    6     -7.95      0.00
   -1    6    6     -0.17      0.00
    0    6    6     -0.08      0.00
    1    6    6     19.09      0.00
    2    6    6     17.10      0.00
    3    6    6      4.53      0.00
    4    6    6      6.38      0.00
    5    6    6     -1.83      0.00
    6    6    6      1.27      0.00
    7    6    6      1.59      0.00
    8    6    6     -0.43      0.00
    9    6    6      1.29      0.00
   10    6    6      0.23      0.00
   11    6    6      0.59      0.00
   12    6    6     -1.03      0.00
   13    6    6     -0.71      0.00
  -11    7    6      0.94      0.00
  -10    7    6      0.03      0.00
   -9    7    6      1.05      0.00
   -8    7    6      1.48      0.00
   -7    7    6      0.32      0.00
   -6    7    6      0.32      0.00
   -5    7    6      1.19      0.00
   -4    7    6      2.22      0.00
   -3    7    6      5.61      0.00
   -2    7    6     13.36      0.00
   -1    7    6      8.41      0.00
    0    7    6      0.92      0.00
    1    7    6     -1.65      0.00
    2    7    6    -12.28      0.00
    3    7    6     -3.23      0.00
    4    7    6     -5.30      0.00
    5    7    6     -8.27      0.00
    6    7    6     -1.17      0.00
    7    7    6     -2.21      0.00
    8    7    6      1.02      0.00
    9    7    6      0.81      0.00
   10    7    6     -0.73      0.00
   11    7    6     -0.01      0.00
   12    7    6     -0.36      0.00
   13    7    6      0.66      0.00
  -11    8    6     -0.32      0.00
  -10    8    6      0.13      0.00
   -9    8    6     -1.41      0.00
   -8    8    6     -2.28      0.00
   -7    8    6     -0.96      0.00
   -6    8    6      2.37      0.00
   -5    8    6      2.85      0.00
   -4    8    6      1.44      0.00
   -3    8    6      0.65      0.00
   -2    8    6     -2.83      0.00
   -1    8    6     -2.69      0.00
    0    8    6      5.71      0.00
    1    8    6      2.81      0.00
    2    8    6      3.16      0.00
    3    8    6      7.95      0.00
    4    8    6      3.84      0.00
    5    8    6      8.08      0.00
    6    8    6      2.61      0.00
    7    8    6     -1.49      0.00
    8    8    6     -0.83      0.00
    9    8    6     -2.22      0.00
   10    8    6     -0.08      0.00
   11    8    6     -0.83      0.00
   12    8    6     -0.05      0.00
   13    8    6      0.37      0.00
  -10    9    6      0.09      0.00
   -9    9    6     -0.68      0.00
   -8    9    6      0.37      0.00
   -7    9    6     -0.52      0.00
   -6    9    6     -2.76      0.00
   -5    9    6     -5.11      0.00
   -4    9    6     -3.58      0.00
   -3    9    6     -3.28      0.00
   -2    9    6     -5.03      0.00
   -1    9    6     -3.00      0.00
    0    9    6     -2.97      0.00
    1    9    6     -1.26      0.00
    2    9    6      4.91      0.00
    3    9    6     -2.43      0.00
    4    9    6     -5.48      0.00
    5    9    6     -2.70      0.00
    6    9    6     -4.25      0.00
    7    9    6      0.00      0.00
    8    9    6      0.45      0.00
    9    9    6     -0.25      0.00
   10    9    6      0.58      0.00
   11    9    6     -0.50      0.00
   12    9    6     -0.03      0.00
   13    9    6     -1.58      0.00
  -10   10    6      1.00      0.00
   -9   10    6      0.48      0.00
   -8   10    6      0.81      0.00
   -7   10    6      0.55      0.00
   -6   10    6      0.14      0.00
   -5   10    6      1.14      0.00
   -4   10    6      3.23      0.00
   -3   10    6      1.02      0.00
   -2   10    6      5.02      0.00
   -1   10    6      5.05      0.00
    0   10    6     -0.98      0.00
    1   10    6     -1.43      0.00
    2   10    6     -2.66      0.00
    3   10    6     -0.80      0.00
    4   10    6      6.00      0.00
    5   10    6      2.27      0.00
    6   10    6      1.94      0.00
    7   10    6      2.27      0.00
    8   10    6      0.18      0.00
    9   10    6      0.81      0.00
   10   10    6      0.15      0.00
   11   10    6     -0.06      0.00
   12   10    6      1.02      0.00
  -10   11    6     -1.25      0.00
   -9   11    6     -0.04      0.00
   -8   11    6     -1.18      0.00
   -7   11    6     -1.72      0.00
   -6   11    6     -0.59      0.00
   -5   11    6      0.81      0.00
   -4   11    6     -1.49      0.00
   -3   11    6     -3.59      0.00
   -2   11    6     -3.03      0.00
   -1   11    6     -6.67      0.00
    0   11    6     -1.78      0.00
    1   11    6      2.10      0.00
    2   11    6     -0.81      0.00
    3   11    6      0.65      0.00
    4   11    6      0.70      0.00
    5   11    6     -0.65      0.00
    6   11    6      1.52      0.00
    7   11    6     -0.32      0.00
    8   11    6     -0.81      0.00
    9   11    6      0.31      0.00
   10   11    6      0.46      0.00
   11   11    6      1.13      0.00
   12   11    6     -0.27      0.00
  -10   12    6      0.13      0.00
   -9   12    6      1.59      0.00
   -8   12    6      1.54      0.00
   -7   12    6      1.84      0.00
   -6   12    6      0.96      0.00
   -5   12    6      0.10      0.00
   -4   12    6     -0.42      0.00
   -3   12    6      4.26      0.00
   -2   12    6      3.58      0.00
   -1   12    6      2.27      0.00
    0   12    6      2.88      0.00
    1   12    6     -1.95      0.00
    2   12    6     -0.89      0.00
    3   12    6     -0.48      0.00
    4   12    6     -4.32      0.00
    5   12    6     -2.70      0.00
    6   12    6     -1.58      0.00
    7   12    6     -1.07      0.00
    8   12    6      0.57      0.00
    9   12    6      0.33      0.00
   10   12    6     -0.73      0.00
   11   12    6     -0.30      0.00
   12   12    6      0.00      0.00
  -10   13    6      0.42      0.00
   -9   13    6      0.13      0.00
   -8   13    6     -0.24      0.00
   -7   13    6      0.50      0.00
   -6   13    6      0.68      0.00
   -5   13    6     -0.02      0.00
   -4   13    6     -0.77      0.00
   -3   13    6     -0.77      0.00
   -2   13    6     -3.28      0.00
   -1   13    6      0.08      0.00
    0   13    6     -0.35      0.00
    1   13    6     -2.22      0.00
    2   13    6     -0.54      0.00
    3   13    6     -0.74      0.00
    4   13    6      1.66      0.00
    5   13    6      3.40      0.00
    6   13    6      1.72      0.00
    7   13    6      1.06      0.00
    8   13    6      0.58      0.00
    9   13    6     -0.01      0.00
   10   13    6      0.66      0.00
   11   13    6      0.43      0.00
   12   13    6      0.14      0.00
  -10   14    6     -0.23      0.00
   -9   14    6     -0.50      0.00
   -8   14    6     -0.70      0.00
   -7   14    6     -0.73      0.00
   -6   14    6     -1.38      0.00
   -5   14    6     -0.79      0.00
   -4   14    6      1.02      0.00
   -3   14    6      0.38      0.00
   -2   14    6      1.17      0.00
   -1   14    6      2.35      0.00
    0   14    6      0.79      0.00
    1   14    6      4.45      0.00
    2   14    6      3.68      0.00
    3   14    6      1.00      0.00
    4   14    6      0.19      0.00
    5   14    6     -1.83      0.00
    6   14    6     -1.62      0.00
    7   14    6     -1.04      0.00
    8   14    6     -0.99      0.00
    9   14    6     -1.35      0.00
   10   14    6     -1.06      0.00
   11   14    6     -0.09      0.00
   12   14    6     -0.24      0.00
   -7   15    6      1.81      0.00
   -6   15    6      1.90      0.00
   -5   15    6      1.45      0.00
   -4   15    6      0.44      0.00
   -3   15    6     -0.70      0.00
   -2   15    6     -0.31      0.00
   -1   15    6     -1.34      0.00
    0   15    6     -2.17      0.00
    1   15    6     -1.91      0.00
    2   15    6     -3.35      0.00
    3   15    6     -0.14      0.00
    4   15    6      0.19      0.00
    5   15    6      0.20      0.00
    6   15    6      0.60      0.00
    7   15    6      0.34      0.00
    8   15    6      0.29      0.00
    9   15    6      0.90      0.00
   10   15    6      0.02      0.00
   11   15    6     -0.91      0.00
   12   15    6     -0.90      0.00
   -7   16    6     -1.20      0.00
   -6   16    6     -0.46      0.00
   -5   16    6      0.10      0.00
   -4   16    6     -0.61      0.00
   -3   16    6     -0.94      0.00
   -2   16    6     -1.05      0.00
   -1   16    6     -0.32      0.00
    0   16    6      1.34      0.00
    1   16    6      1.29      0.00
    2   16    6      0.42      0.00
    3   16    6      0.11      0.00
    4   16    6     -1.29      0.00
    5   16    6      0.37      0.00
    6   16    6     -0.25      0.00
    7   16    6      0.20      0.00
    8   16    6     -0.55      0.00
    9   16    6     -0.37      0.00
   10   16    6      0.65      0.00
   11   16    6      0.47      0.00
   -7   17    6     -1.74      0.00
   -6   17    6     -1.64      0.00
   -5   17    6     -1.64      0.00
   -4   17    6      0.00      0.00
   -3   17    6      1.15      0.00
   -2   17    6      0.97      0.00
   -1   17    6     -0.49      0.00
    0   17    6     -0.90      0.00
    1   17    6     -1.01      0.00
    2   17    6      1.00      0.00
    3   17    6      0.29      0.00
    4   17    6     -0.60      0.00
    5   17    6     -0.21      0.00
    6   17    6     -0.41      0.00
    7   17    6      0.92      0.00
    8   17    6      1.06      0.00
    9   17    6      0.18      0.00
   10   17    6     -0.60      0.00
   11   17    6     -0.79      0.00
   -7   18    6      1.39      0.00
   -6   18    6      1.77      0.00
   -5   18    6      1.56      0.00
   -4   18    6      1.54      0.00
   -3   18    6      0.81      0.00
   -2   18    6      1.86      0.00
   -1   18    6      0.70      0.00
    0   18    6      1.05      0.00
    1   18    6     -0.49      0.00
    2   18    6     -0.68      0.00
    3   18    6     -0.28      0.00
    4   18    6      1.36      0.00
    5   18    6      0.04      0.00
    6   18    6     -0.20      0.00
    7   18    6     -1.27      0.00
    8   18    6     -0.52      0.00
    9   18    6      1.01      0.00
   10   18    6      0.81      0.00
   -7   19    6     -0.83      0.00
   -6   19    6     -1.28      0.00
   -5   19    6     -1.24      0.00
   -4   19    6     -1.05      0.00
   -3   19    6     -1.79      0.00
   -2   19    6     -2.21      0.00
   -1   19    6     -1.57      0.00
    0   19    6      0.02      0.00
    1   19    6      0.01      0.00
    2   19    6      1.05      0.00
    3   19    6      0.36      0.00
    4   19    6      0.54      0.00
    5   19    6     -0.07      0.00
    6   19    6      0.42      0.00
    7   19    6     -0.22      0.00
    8   19    6     -0.05      0.00
    9   19    6     -0.47      0.00
   10   19    6      0.01      0.00
   -7   20    6      0.60      0.00
   -6   20    6     -0.63      0.00
   -5   20    6     -0.84      0.00
   -4   20    6     -0.99      0.00
   -3   20    6      0.32      0.00
   -2   20    6      0.70      0.00
   -1   20    6      1.65      0.00
    0   20    6      0.24      0.00
    1   20    6     -0.47      0.00
    2   20    6     -0.11      0.00
    3   20    6     -0.49      0.00
    4   20    6     -0.20      0.00
    5   20    6      0.46      0.00
    8   20    6     -0.01      0.00
    9   20    6     -0.73      0.00
   -6   21    6      1.38      0.00
   -5   21    6      2.26      0.00
   -4   21    6      0.96      0.00
   -3   21    6      0.40      0.00
   -2   21    6     -0.29      0.00
   -1   21    6     -0.02      0.00
    0   21    6     -1.05      0.00
    1   21    6      0.86      0.00
    2   21    6      0.55      0.00
    3   21    6     -0.16      0.00
    4   21    6      0.47      0.00
    5   21    6      0.60      0.00
   -5   22    6     -0.91      0.00
   -4   22    6     -0.55      0.00
   -3   22    6      1.05      0.00
   -2   22    6      0.80      0.00
   -1   22    6      0.24      0.00
    0   22    6     -0.01      0.00
    1   22    6     -0.06      0.00
    2   22    6     -1.46      0.00
    3   22    6     -0.71      0.00
    4   22    6     -0.57      0.00
    5   22    6     -1.04      0.00
   -4   23    6     -0.63      0.00
   -3   23    6     -1.75      0.00
   -2   23    6     -1.44      0.00
   -1   23    6     -0.70      0.00
    0   23    6      0.26      0.00
    1   23    6      0.36      0.00
    2   23    6     -0.36      0.00
    3   23    6      0.60      0.00
    4   23    6     -0.05      0.00
    5   23    6     -0.44      0.00
   -3   24    6      0.52      0.00
   -2   24    6      0.32      0.00
   -1   24    6      0.02      0.00
    0   24    6      0.19      0.00
    1   24    6     -0.16      0.00
    2   24    6      0.38      0.00
    3   24    6      0.29      0.00
    4   24    6     -0.71      0.00
    5   24    6      0.13      0.00
   -1   25    6     -0.35      0.00
    0   25    6     -0.18      0.00
    1   25    6     -0.38      0.00
    2   25    6      0.04      0.00
    3   25    6     -0.03      0.00
    4   25    6     -0.19      0.00
   -2  -24    7      0.07      0.00
   -1  -24    7     -0.59      0.00
    0  -24    7      0.08      0.00
    1  -24    7      0.92      0.00
    2  -24    7      2.18      0.00
   -4  -23    7     -0.40      0.00
   -3  -23    7     -0.16      0.00
   -2  -23    7      0.21      0.00
   -1  -23    7      0.17      0.00
    0  -23    7     -0.20      0.00
    1  -23    7     -0.64      0.00
    2  -23    7     -1.08      0.00
    3  -23    7     -0.46      0.00
    4  -23    7     -0.65      0.00
   -5  -22    7     -0.65      0.00
   -4  -22    7     -0.85      0.00
   -3  -22    7     -0.89      0.00
   -2  -22    7     -0.75      0.00
   -1  -22    7      0.22      0.00
    0  -22    7      0.23      0.00
    1  -22    7      0.59      0.00
    2  -22    7     -0.98      0.00
    3  -22    7     -0.11      0.00
    4  -22    7     -0.04      0.00
    5  -22    7      0.54      0.00
    6  -22    7     -0.26      0.00
   -6  -21    7      0.76      0.00
   -5  -21    7      2.51      0.00
   -4  -21    7      3.15      0.00
   -3  -21    7      2.42      0.00
   -2  -21    7      0.48      0.00
   -1  -21    7     -0.28      0.00
    0  -21    7     -0.16      0.00
    1  -21    7      0.71      0.00
    2  -21    7      2.21      0.00
    3  -21    7      1.27      0.00
    4  -21    7      0.48      0.00
    5  -21    7      0.23      0.00
    6  -21    7      0.18      0.00
    7  -21    7      0.14      0.00
   -7  -20    7      0.30      0.00
   -6  -20    7     -0.80      0.00
   -5  -20    7     -0.54      0.00
   -4  -20    7     -2.30      0.00
   -3  -20    7     -0.76      0.00
   -2  -20    7      0.36      0.00
   -1  -20    7     -0.20      0.00
    0  -20    7     -0.24      0.00
    1  -20    7     -2.58      0.00
    2  -20    7     -1.40      0.00
    3  -20    7     -1.22      0.00
    4  -20    7      0.12      0.00
    5  -20    7     -0.74      0.00
    6  -20    7      0.64      0.00
    7  -20    7      0.19      0.00
   -7  -19    7     -1.71      0.00
   -6  -19    7     -1.00      0.00
   -5  -19    7     -0.86      0.00
   -4  -19    7     -0.50      0.00
   -3  -19    7     -0.77      0.00
   -2  -19    7     -0.89      0.00
   -1  -19    7      0.75      0.00
    0  -19    7      0.97      0.00
    1  -19    7      1.47      0.00
    2  -19    7      1.05      0.00
    3  -19    7     -0.34      0.00
    4  -19    7      0.13      0.00
    5  -19    7      0.24      0.00
    6  -19    7      0.08      0.00
    7  -19    7     -0.57      0.00
    8  -19    7      0.96      0.00
   -8  -18    7      0.62      0.00
   -7  -18    7     -0.01      0.00
   -6  -18    7      1.44      0.00
   -5  -18    7     -0.04      0.00
   -4  -18    7      1.59      0.00
   -3  -18    7      1.47      0.00
   -2  -18    7      0.31      0.00
   -1  -18    7      0.19      0.00
    0  -18    7     -1.73      0.00
    1  -18    7      0.40      0.00
    2  -18    7      0.06      0.00
    3  -18    7      0.70      0.00
    4  -18    7     -0.05      0.00
    5  -18    7      0.68      0.00
    6  -18    7     -0.53      0.00
    7  -18    7     -0.30      0.00
    8  -18    7     -0.96      0.00
    9  -18    7     -0.63      0.00
   -9  -17    7      0.25      0.00
   -8  -17    7      0.06      0.00
   -7  -17    7      0.21      0.00
   -6  -17    7     -0.58      0.00
   -5  -17    7     -0.44      0.00
   -4  -17    7     -1.16      0.00
   -3  -17    7     -1.01      0.00
   -2  -17    7      1.57      0.00
   -1  -17    7      0.96      0.00
    0  -17    7      0.82      0.00
    1  -17    7      0.86      0.00
    2  -17    7     -0.72      0.00
    3  -17    7      0.45      0.00
    4  -17    7     -0.33      0.00
    5  -17    7     -0.87      0.00
    6  -17    7     -1.43      0.00
    7  -17    7      0.11      0.00
    8  -17    7     -1.27      0.00
    9  -17    7     -1.00      0.00
   -9  -16    7      1.35      0.00
   -8  -16    7      0.52      0.00
   -7  -16    7      0.79      0.00
   -6  -16    7     -0.02      0.00
   -5  -16    7      0.81      0.00
   -4  -16    7      0.03      0.00
   -3  -16    7     -0.31      0.00
   -2  -16    7     -1.52      0.00
   -1  -16    7     -2.32      0.00
    0  -16    7      0.53      0.00
    1  -16    7     -1.38      0.00
    2  -16    7     -1.20      0.00
    3  -16    7     -0.84      0.00
    4  -16    7      0.23      0.00
    5  -16    7      1.33      0.00
    6  -16    7      1.53      0.00
    7  -16    7      1.11      0.00
    8  -16    7      1.38      0.00
    9  -16    7      1.52      0.00
   10  -16    7      0.07      0.00
   -9  -15    7     -1.61      0.00
   -8  -15    7     -0.78      0.00
   -7  -15    7     -0.30      0.00
   -6  -15    7      0.59      0.00
   -5  -15    7     -0.59      0.00
   -4  -15    7     -0.36      0.00
   -3  -15    7      0.38      0.00
   -2  -15    7     -0.44      0.00
   -1  -15    7     -0.19      0.00
    0  -15    7     -0.88      0.00
    1  -15    7     -0.90      0.00
    2  -15    7      1.59      0.00
    3  -15    7      0.23      0.00
    4  -15    7      0.14      0.00
    5  -15    7      0.06      0.00
    6  -15    7      0.87      0.00
    7  -15    7      0.01      0.00
    8  -15    7     -0.12      0.00
    9  -15    7     -0.41      0.00
   10  -15    7      0.85      0.00
  -10  -14    7      1.76      0.00
   -9  -14    7      0.83      0.00
   -8  -14    7     -0.01      0.00
   -7  -14    7      0.10      0.00
   -6  -14    7      0.76      0.00
   -5  -14    7     -0.60      0.00
   -4  -14    7      0.56      0.00
   -3  -14    7     -0.77      0.00
   -2  -14    7      0.40      0.00
   -1  -14    7      3.10      0.00
    0  -14    7      1.09      0.00
    1  -14    7      1.89      0.00
    2  -14    7      0.02      0.00
    3  -14    7     -1.41      0.00
    4  -14    7     -0.58      0.00
    5  -14    7     -3.07      0.00
    6  -14    7     -2.36      0.00
    7  -14    7     -0.36      0.00
    8  -14    7      0.41      0.00
    9  -14    7      0.17      0.00
   10  -14    7      0.02      0.00
  -10  -13    7     -0.17      0.00
   -9  -13    7      0.10      0.00
   -8  -13    7      0.06      0.00
   -7  -13    7     -0.02      0.00
   -6  -13    7     -0.70      0.00
   -5  -13    7      1.09      0.00
   -4  -13    7      1.23      0.00
   -3  -13    7      0.24      0.00
   -2  -13    7     -0.79      0.00
   -1  -13    7     -3.63      0.00
    0  -13    7     -2.96      0.00
    1  -13    7     -0.82      0.00
    2  -13    7     -2.54      0.00
    3  -13    7     -0.46      0.00
    4  -13    7      0.19      0.00
    5  -13    7      1.01      0.00
    6  -13    7      2.58      0.00
    7  -13    7      0.29      0.00
    8  -13    7     -0.58      0.00
    9  -13    7      0.51      0.00
   10  -13    7     -0.07      0.00
  -10  -12    7     -0.97      0.00
   -9  -12    7     -1.69      0.00
   -8  -12    7     -1.09      0.00
   -7  -12    7     -0.16      0.00
   -6  -12    7     -1.00      0.00
   -5  -12    7      0.15      0.00
   -4  -12    7     -0.56      0.00
   -3  -12    7      2.27      0.00
   -2  -12    7      4.08      0.00
   -1  -12    7      3.45      0.00
    0  -12    7      3.81      0.00
    1  -12    7      1.64      0.00
    2  -12    7      3.12      0.00
    3  -12    7      5.46      0.00
    4  -12    7      0.73      0.00
    5  -12    7     -0.19      0.00
    6  -12    7     -1.70      0.00
    7  -12    7     -3.27      0.00
    8  -12    7     -1.12      0.00
    9  -12    7     -0.73      0.00
   10  -12    7     -0.31      0.00
  -11  -11    7      0.86      0.00
  -10  -11    7      1.15      0.00
   -9  -11    7      1.24      0.00
   -8  -11    7      1.27      0.00
   -7  -11    7      0.25      0.00
   -6  -11    7      1.03      0.00
   -5  -11    7     -0.14      0.00
   -4  -11    7     -1.13      0.00
   -3  -11    7     -3.14      0.00
   -2  -11    7     -5.55      0.00
   -1  -11    7     -2.29      0.00
    0  -11    7      0.10      0.00
    1  -11    7     -1.41      0.00
    2  -11    7     -1.43      0.00
    3  -11    7     -3.71      0.00
    4  -11    7     -2.31      0.00
    5  -11    7      1.99      0.00
    6  -11    7      0.37      0.00
    7  -11    7      1.86      0.00
    8  -11    7      2.54      0.00
    9  -11    7     -0.67      0.00
   10  -11    7     -0.61      0.00
  -11  -10    7      0.27      0.00
  -10  -10    7     -0.58      0.00
   -9  -10    7     -0.44      0.00
   -8  -10    7     -0.08      0.00
   -7  -10    7     -1.06      0.00
   -6  -10    7     -1.87      0.00
   -5  -10    7     -2.58      0.00
   -4  -10    7      0.59      0.00
   -3  -10    7      1.37      0.00
   -2  -10    7      4.25      0.00
   -1  -10    7      2.78      0.00
    0  -10    7     -0.18      0.00
    1  -10    7      3.48      0.00
    2  -10    7      5.02      0.00
    3  -10    7      2.65      0.00
    4  -10    7      3.70      0.00
    5  -10    7      2.00      0.00
    6  -10    7      0.51      0.00
    7  -10    7      1.55      0.00
    8  -10    7     -2.07      0.00
    9  -10    7     -0.96      0.00
   10  -10    7      0.54      0.00
   11  -10    7     -0.50      0.00
  -11   -9    7      0.04      0.00
  -10   -9    7      0.59      0.00
   -9   -9    7      1.00      0.00
   -8   -9    7     -0.21      0.00
   -7   -9    7      1.44      0.00
   -6   -9    7      1.81      0.00
   -5   -9    7      2.96      0.00
   -4   -9    7      0.52      0.00
   -3   -9    7     -3.56      0.00
   -2   -9    7     -3.24      0.00
   -1   -9    7     -7.48      0.00
    0   -9    7     -7.22      0.00
    1   -9    7     -7.84      0.00
    2   -9    7     -8.46      0.00
    3   -9    7     -2.07      0.00
    4   -9    7      0.18      0.00
    5   -9    7     -1.44      0.00
    6   -9    7      0.28      0.00
    7   -9    7      2.07      0.00
    8   -9    7      1.42      0.00
    9   -9    7      3.95      0.00
   10   -9    7      0.79      0.00
   11   -9    7      1.08      0.00
   12   -9    7      0.12      0.00
  -11   -8    7     -0.33      0.00
  -10   -8    7      0.05      0.00
   -9   -8    7      0.69      0.00
   -8   -8    7      0.91      0.00
   -7   -8    7      0.72      0.00
   -6   -8    7     -0.19      0.00
   -5   -8    7      1.13      0.00
   -4   -8    7     -1.48      0.00
   -3   -8    7      1.73      0.00
   -2   -8    7      0.06      0.00
   -1   -8    7     -0.18      0.00
    0   -8    7      7.51      0.00
    1   -8    7      3.31      0.00
    2   -8    7      1.91      0.00
    3   -8    7     -0.95      0.00
    4   -8    7     -4.63      0.00
    5   -8    7     -1.09      0.00
    6   -8    7      0.33      0.00
    7   -8    7     -1.93      0.00
    8   -8    7     -0.89      0.00
    9   -8    7     -0.98      0.00
   10   -8    7     -2.64      0.00
   11   -8    7     -0.08      0.00
   12   -8    7     -1.89      0.00
  -11   -7    7     -0.62      0.00
  -10   -7    7     -1.46      0.00
   -9   -7    7     -1.71      0.00
   -8   -7    7     -0.39      0.00
   -7   -7    7     -1.16      0.00
   -6   -7    7     -0.65      0.00
   -5   -7    7     -0.73      0.00
   -4   -7    7      1.28      0.00
   -3   -7    7      9.32      0.00
   -2   -7    7      7.10      0.00
   -1   -7    7      9.18      0.00
    0   -7    7     -0.02      0.00
    1   -7    7     -7.26      0.00
    2   -7    7      1.27      0.00
    3   -7    7     -3.43      0.00
    4   -7    7     -1.11      0.00
    5   -7    7     -1.13      0.00
    6   -7    7     -2.73      0.00
    7   -7    7     -2.27      0.00
    8   -7    7      0.45      0.00
    9   -7    7     -1.41      0.00
   10   -7    7      2.17      0.00
   11   -7    7      2.04      0.00
   12   -7    7      0.98      0.00
  -11   -6    7      0.08      0.00
  -10   -6    7      0.20      0.00
   -9   -6    7      0.03      0.00
   -8   -6    7     -0.26      0.00
   -7   -6    7      0.20      0.00
   -6   -6    7      2.90      0.00
   -5   -6    7      1.97      0.00
   -4   -6    7      2.11      0.00
   -3   -6    7     -5.01      0.00
   -2   -6    7     -9.23      0.00
   -1   -6    7      1.17      0.00
    0   -6    7     -0.68      0.00
    1   -6    7      8.09      0.00
    2   -6    7      2.31      0.00
    3   -6    7     -4.64      0.00
    4   -6    7      2.21      0.00
    5   -6    7     -4.34      0.00
    6   -6    7     -3.07      0.00
    7   -6    7     -1.11      0.00
    8   -6    7     -0.34      0.00
    9   -6    7     -0.74      0.00
   10   -6    7      1.16      0.00
   11   -6    7     -2.34      0.00
   12   -6    7      0.10      0.00
  -12   -5    7      1.50      0.00
  -11   -5    7      0.14      0.00
  -10   -5    7      0.14      0.00
   -9   -5    7     -0.11      0.00
   -8   -5    7     -0.97      0.00
   -7   -5    7     -2.44      0.00
   -6   -5    7     -5.47      0.00
   -5   -5    7     -8.28      0.00
   -4   -5    7     -5.55      0.00
   -3   -5    7     -5.35      0.00
   -2   -5    7      3.95      0.00
   -1   -5    7      1.43      0.00
    0   -5    7      0.45      0.00
    1   -5    7     15.39      0.00
    2   -5    7      5.23      0.00
    3   -5    7     11.88      0.00
    4   -5    7      6.79      0.00
    5   -5    7      2.81      0.00
    6   -5    7      7.34      0.00
    7   -5    7      2.58      0.00
    8   -5    7     -1.55      0.00
    9   -5    7     -0.86      0.00
   10   -5    7     -1.28      0.00
   11   -5    7     -0.91      0.00
   12   -5    7      1.92      0.00
  -12   -4    7     -0.45      0.00
  -11   -4    7     -0.30      0.00
  -10   -4    7      0.22      0.00
   -9   -4    7     -0.48      0.00
   -8   -4    7      0.26      0.00
   -7   -4    7      1.66      0.00
   -6   -4    7      3.77      0.00
   -5   -4    7      5.66      0.00
   -4   -4    7      4.75      0.00
   -3   -4    7      3.97      0.00
   -2   -4    7      6.62      0.00
   -1   -4    7     -4.40      0.00
    0   -4    7     -2.36      0.00
    1   -4    7    -12.34      0.00
    2   -4    7    -11.61      0.00
    3   -4    7      8.27      0.00
    4   -4    7     -0.46      0.00
    5   -4    7      5.10      0.00
    6   -4    7      1.19      0.00
    7   -4    7     -1.36      0.00
    8   -4    7      1.66      0.00
    9   -4    7      2.27      0.00
   10   -4    7     -0.36      0.00
   11   -4    7      0.94      0.00
   12   -4    7     -0.22      0.00
   13   -4    7     -0.51      0.00
  -11   -3    7      1.43      0.00
  -10   -3    7      1.58      0.00
   -9   -3    7      1.94      0.00
   -8   -3    7      0.86      0.00
   -7   -3    7     -0.04      0.00
   -6   -3    7     -0.50      0.00
   -5   -3    7     -2.60      0.00
   -4   -3    7     -7.56      0.00
   -3   -3    7    -12.96      0.00
   -2   -3    7    -22.48      0.00
    1   -3    7     -3.66      0.00
    2   -3    7      6.85      0.00
    3   -3    7     -4.17      0.00
    4   -3    7     -6.04      0.00
    5   -3    7      5.87      0.00
    6   -3    7     -0.70      0.00
    7   -3    7      3.59      0.00
    8   -3    7      2.89      0.00
    9   -3    7      0.19      0.00
   10   -3    7     -0.34      0.00
   11   -3    7     -0.20      0.00
   12   -3    7     -1.95      0.00
   13   -3    7     -1.06      0.00
  -11   -2    7     -0.22      0.00
  -10   -2    7     -1.13      0.00
   -9   -2    7      0.09      0.00
   -8   -2    7      0.16      0.00
   -7   -2    7      1.66      0.00
   -6   -2    7      0.33      0.00
   -5   -2    7      2.14      0.00
   -4   -2    7      9.45      0.00
   -3   -2    7     18.45      0.00
   -2   -2    7     21.34      0.00
   -1   -2    7     18.47      0.00
    0   -2    7     -4.19      0.00
    1   -2    7    -13.31      0.00
    2   -2    7     -6.99      0.00
    3   -2    7    -19.68      0.00
    4   -2    7     -8.61      0.00
    5   -2    7    -10.90      0.00
    6   -2    7     -8.45      0.00
    7   -2    7     -0.35      0.00
    8   -2    7     -3.34      0.00
    9   -2    7     -1.40      0.00
   10   -2    7      0.10      0.00
   11   -2    7      0.27      0.00
   12   -2    7      0.31      0.00
   13   -2    7      1.18      0.00
  -11   -1    7     -0.90      0.00
  -10   -1    7     -0.34      0.00
   -9   -1    7     -0.99      0.00
   -8   -1    7     -0.60      0.00
   -7   -1    7      1.25      0.00
   -6   -1    7      0.79      0.00
   -5   -1    7      3.90      0.00
   -4   -1    7      0.24      0.00
   -3   -1    7     -8.12      0.00
   -2   -1    7     -6.71      0.00
   -1   -1    7     -4.14      0.00
    0   -1    7     -1.57      0.00
    1   -1    7      9.79      0.00
    2   -1    7      1.03      0.00
    3   -1    7      8.84      0.00
    4   -1    7     17.40      0.00
    5   -1    7      3.82      0.00
    6   -1    7      6.36      0.00
    7   -1    7      0.65      0.00
    8   -1    7     -0.18      0.00
    9   -1    7      3.41      0.00
   10   -1    7      1.91      0.00
   11   -1    7      1.43      0.00
   12   -1    7     -0.16      0.00
   13   -1    7     -0.15      0.00
  -11    0    7     -0.78      0.00
  -10    0    7     -0.06      0.00
   -9    0    7     -0.28      0.00
   -8    0    7      0.16      0.00
   -7    0    7     -2.55      0.00
   -6    0    7     -2.52      0.00
   -5    0    7     -1.70      0.00
   -4    0    7     -2.68      0.00
   -3    0    7      4.27      0.00
   -2    0    7      7.85      0.00
   -1    0    7      5.46      0.00
    0    0    7     17.80      0.00
    1    0    7     18.21      0.00
    2    0    7      6.86      0.00
    3    0    7      2.63      0.00
    4    0    7    -14.81      0.00
    5    0    7    -11.65      0.00
    6    0    7     -3.26      0.00
    7    0    7     -7.02      0.00
    8    0    7     -1.59      0.00
    9    0    7     -3.32      0.00
   10    0    7     -3.37      0.00
   11    0    7     -1.50      0.00
   12    0    7     -0.57      0.00
   13    0    7      0.11      0.00
  -11    1    7      0.96      0.00
  -10    1    7      0.32      0.00
   -9    1    7     -0.80      0.00
   -8    1    7     -0.48      0.00
   -7    1    7     -1.60      0.00
   -6    1    7      0.63      0.00
   -5    1    7     -2.45      0.00
   -4    1    7     -2.73      0.00
   -3    1    7      4.08      0.00
   -2    1    7     -0.05      0.00
   -1    1    7      0.96      0.00
    0    1    7     -6.81      0.00
    1    1    7    -21.40      0.00
    2    1    7     -3.67      0.00
    3    1    7      4.83      0.00
    4    1    7      6.09      0.00
    5    1    7     11.24      0.00
    6    1    7      2.40      0.00
    7    1    7      1.86      0.00
    8    1    7      2.87      0.00
    9    1    7     -0.70      0.00
   10    1    7      1.28      0.00
   11    1    7      0.07      0.00
   12    1    7      0.89      0.00
   13    1    7      0.35      0.00
  -11    2    7      0.74      0.00
  -10    2    7      0.70      0.00
   -9    2    7      1.04      0.00
   -8    2    7      0.33      0.00
   -7    2    7      0.53      0.00
   -6    2    7      0.19      0.00
   -5    2    7     -2.52      0.00
   -4    2    7     -2.16      0.00
   -3    2    7    -12.87      0.00
   -2    2    7    -21.93      0.00
   -1    2    7     -8.89      0.00
    0    2    7     -6.97      0.00
    1    2    7      6.62      0.00
    2    2    7      9.07      0.00
    3    2    7     -3.30      0.00
    4    2    7      7.17      0.00
    5    2    7      5.61      0.00
    6    2    7      0.25      0.00
    7    2    7      3.59      0.00
    8    2    7     -0.23      0.00
    9    2    7      1.13      0.00
   10    2    7      2.32      0.00
   11    2    7      0.57      0.00
   12    2    7      0.77      0.00
   13    2    7     -0.81      0.00
  -11    3    7     -1.35      0.00
  -10    3    7     -1.50      0.00
   -9    3    7      0.41      0.00
   -8    3    7      1.11      0.00
   -7    3    7      1.22      0.00
   -6    3    7     -0.95      0.00
   -5    3    7     -0.53      0.00
   -4    3    7      3.87      0.00
   -3    3    7      5.91      0.00
   -2    3    7     17.71      0.00
   -1    3    7     12.89      0.00
    0    3    7      2.59      0.00
    1    3    7     12.44      0.00
    2    3    7     -0.49      0.00
    3    3    7     -0.20      0.00
    4    3    7     -2.16      0.00
    5    3    7     -8.03      0.00
    6    3    7      1.31      0.00
    7    3    7      1.55      0.00
    8    3    7     -0.41      0.00
    9    3    7      0.39      0.00
   10    3    7     -1.92      0.00
   11    3    7     -0.94      0.00
   12    3    7     -0.13      0.00
   13    3    7      0.79      0.00
  -11    4    7      1.84      0.00
  -10    4    7      1.11      0.00
   -9    4    7     -0.06      0.00
   -8    4    7     -0.31      0.00
   -7    4    7      1.40      0.00
   -6    4    7      3.89      0.00
   -5    4    7      6.36      0.00
   -4    4    7      2.06      0.00
   -3    4    7     -2.87      0.00
   -2    4    7     -2.92      0.00
   -1    4    7    -16.58      0.00
    0    4    7    -14.51      0.00
    1    4    7    -22.20      0.00
    2    4    7    -25.68      0.00
    3    4    7     -3.11      0.00
    4    4    7     -3.48      0.00
    5    4    7      0.39      0.00
    6    4    7      1.30      0.00
    7    4    7     -2.87      0.00
    8    4    7      0.60      0.00
    9    4    7      0.15      0.00
   10    4    7      0.14      0.00
   11    4    7      0.54      0.00
   12    4    7     -0.22      0.00
   13    4    7      0.04      0.00
  -11    5    7     -1.94      0.00
  -10    5    7     -0.83      0.00
   -9    5    7     -0.31      0.00
   -8    5    7     -1.01      0.00
   -7    5    7     -1.81      0.00
   -6    5    7     -2.29      0.00
   -5    5    7     -2.80      0.00
   -4    5    7     -2.66      0.00
   -3    5    7      2.00      0.00
   -2    5    7     -0.08      0.00
   -1    5    7      4.83      0.00
    0    5    7     21.45      0.00
    1    5    7     16.24      0.00
    2    5    7     19.49      0.00
    3    5    7      5.84      0.00
    4    5    7     -6.11      0.00
    5    5    7      1.04      0.00
    6    5    7     -3.69      0.00
    7    5    7     -1.44      0.00
    8    5    7     -0.05      0.00
    9    5    7     -0.98      0.00
   10    5    7      0.66      0.00
   11    5    7      0.03      0.00
   12    5    7      0.09      0.00
   13    5    7     -0.83      0.00
  -11    6    7      0.18      0.00
  -10    6    7      0.27      0.00
   -9    6    7     -0.01      0.00
   -8    6    7      0.74      0.00
   -7    6    7      1.36      0.00
   -6    6    7     -0.27      0.00
   -5    6    7     -0.33      0.00
   -4    6    7      1.66      0.00
   -3    6    7      4.26      0.00
   -2    6    7      3.43      0.00
   -1    6    7      4.96      0.00
    0    6    7     -6.87      0.00
    1    6    7    -12.01      0.00
    2    6    7     -2.44      0.00
    3    6    7     -6.94      0.00
    4    6    7      0.62      0.00
    5    6    7     -0.97      0.00
    6    6    7     -2.26      0.00
    7    6    7      3.34      0.00
    8    6    7      0.66      0.00
    9    6    7      1.36      0.00
   10    6    7     -0.01      0.00
   11    6    7     -0.23      0.00
   12    6    7      0.25      0.00
   13    6    7     -0.13      0.00
  -10    7    7     -0.21      0.00
   -9    7    7     -0.84      0.00
   -8    7    7     -1.72      0.00
   -7    7    7     -0.88      0.00
   -6    7    7      0.26      0.00
   -5    7    7      2.00      0.00
   -4    7    7      0.81      0.00
   -3    7    7     -3.19      0.00
   -2    7    7     -1.72      0.00
   -1    7    7      2.08      0.00
    0    7    7      2.78      0.00
    1    7    7     10.40      0.00
    2    7    7      5.43      0.00
    3    7    7      5.49      0.00
    4    7    7     11.23      0.00
    5    7    7      2.47      0.00
    6    7    7      2.16      0.00
    7    7    7     -2.02      0.00
    8    7    7     -4.06      0.00
    9    7    7     -1.57      0.00
   10    7    7     -1.91      0.00
   11    7    7     -0.54      0.00
   12    7    7     -1.25      0.00
   13    7    7      0.36      0.00
  -10    8    7     -0.55      0.00
   -9    8    7      1.05      0.00
   -8    8    7      0.49      0.00
   -7    8    7     -1.32      0.00
   -6    8    7     -2.06      0.00
   -5    8    7     -2.72      0.00
   -4    8    7     -4.00      0.00
   -3    8    7     -1.60      0.00
   -2    8    7     -2.34      0.00
   -1    8    7     -7.16      0.00
    0    8    7     -3.95      0.00
    1    8    7     -1.29      0.00
    2    8    7     -4.86      0.00
    3    8    7     -2.59      0.00
    4    8    7     -7.88      0.00
    5    8    7     -5.09      0.00
    6    8    7      1.22      0.00
    7    8    7     -0.43      0.00
    8    8    7      2.15      0.00
    9    8    7      1.35      0.00
   10    8    7      0.93      0.00
   11    8    7      1.43      0.00
   12    8    7     -0.35      0.00
   13    8    7     -0.14      0.00
  -10    9    7      1.67      0.00
   -9    9    7      0.81      0.00
   -8    9    7      0.85      0.00
   -7    9    7      1.27      0.00
   -6    9    7      1.72      0.00
   -5    9    7      0.64      0.00
   -4    9    7      0.93      0.00
   -3    9    7      3.22      0.00
   -2    9    7      0.93      0.00
   -1    9    7      2.64      0.00
    0    9    7      0.60      0.00
    1    9    7     -6.26      0.00
    2    9    7     -1.30      0.00
    3    9    7      3.72      0.00
    4    9    7      2.42      0.00
    5    9    7      5.33      0.00
    6    9    7      1.19      0.00
    7    9    7      0.92      0.00
    8    9    7      1.64      0.00
    9    9    7     -0.31      0.00
   10    9    7     -0.04      0.00
   11    9    7     -0.81      0.00
   12    9    7      0.77      0.00
  -10   10    7     -0.04      0.00
   -9   10    7     -1.83      0.00
   -8   10    7     -0.88      0.00
   -7   10    7     -0.54      0.00
   -6   10    7     -0.21      0.00
   -5   10    7     -0.53      0.00
   -4   10    7      0.53      0.00
   -3   10    7     -2.14      0.00
   -2   10    7     -3.27      0.00
   -1   10    7      0.76      0.00
    0   10    7      0.31      0.00
    1   10    7      3.11      0.00
    2   10    7      3.35      0.00
    3   10    7     -2.42      0.00
    4   10    7     -0.12      0.00
    5   10    7      1.05      0.00
    6   10    7     -1.55      0.00
    7   10    7      0.15      0.00
    8   10    7     -0.57      0.00
    9   10    7     -0.03      0.00
   10   10    7      1.72      0.00
   11   10    7      0.68      0.00
   12   10    7      0.35      0.00
  -10   11    7      0.39      0.00
   -9   11    7      1.10      0.00
   -8   11    7      2.59      0.00
   -7   11    7      1.78      0.00
   -6   11    7      0.40      0.00
   -5   11    7      0.68      0.00
   -4   11    7      2.46      0.00
   -3   11    7      0.98      0.00
   -2   11    7      4.45      0.00
   -1   11    7      1.15      0.00
    0   11    7     -2.61      0.00
    1   11    7     -0.26      0.00
    2   11    7     -3.16      0.00
    3   11    7     -3.94      0.00
    4   11    7     -2.87      0.00
    5   11    7     -4.91      0.00
    6   11    7     -1.28      0.00
    7   11    7      0.17      0.00
    8   11    7     -0.50      0.00
    9   11    7     -0.28      0.00
   10   11    7     -1.23      0.00
   11   11    7     -0.56      0.00
   12   11    7      0.42      0.00
  -10   12    7     -1.06      0.00
   -9   12    7     -0.11      0.00
   -8   12    7     -0.63      0.00
   -7   12    7     -0.96      0.00
   -6   12    7      0.18      0.00
   -5   12    7      0.02      0.00
   -4   12    7     -2.40      0.00
   -3   12    7     -2.65      0.00
   -2   12    7     -0.49      0.00
   -1   12    7     -1.62      0.00
    0   12    7      2.44      0.00
    1   12    7      1.24      0.00
    2   12    7     -0.14      0.00
    3   12    7      4.07      0.00
    4   12    7      4.05      0.00
    6   12    7      2.55      0.00
    7   12    7      0.28      0.00
    8   12    7      0.04      0.00
    9   12    7      0.52      0.00
   10   12    7     -0.21      0.00
   11   12    7     -0.34      0.00
   12   12    7     -0.17      0.00
   -9   13    7     -0.49      0.00
   -8   13    7     -1.02      0.00
   -7   13    7     -0.80      0.00
   -6   13    7     -0.01      0.00
   -5   13    7      0.40      0.00
   -4   13    7      0.59      0.00
   -3   13    7      2.74      0.00
   -2   13    7      0.73      0.00
   -1   13    7      0.41      0.00
    0   13    7      2.27      0.00
    1   13    7      0.61      0.00
    2   13    7      2.55      0.00
    3   13    7     -0.27      0.00
    4   13    7     -3.11      0.00
    5   13    7     -1.55      0.00
    6   13    7     -1.88      0.00
    7   13    7     -1.54      0.00
    8   13    7     -0.39      0.00
    9   13    7     -0.81      0.00
   10   13    7     -0.05      0.00
   11   13    7      0.54      0.00
   12   13    7     -0.10      0.00
   -9   14    7     -0.20      0.00
   -8   14    7      0.10      0.00
   -7   14    7      1.28      0.00
   -6   14    7      1.01      0.00
   -5   14    7      0.17      0.00
   -4   14    7      0.09      0.00
   -3   14    7     -0.62      0.00
   -2   14    7     -2.44      0.00
   -1   14    7     -1.17      0.00
    0   14    7     -2.44      0.00
    1   14    7     -2.60      0.00
    2   14    7     -0.30      0.00
    3   14    7     -0.49      0.00
    4   14    7      1.50      0.00
    5   14    7      1.29      0.00
    6   14    7      0.53      0.00
    7   14    7      0.63      0.00
    8   14    7      0.79      0.00
    9   14    7      0.13      0.00
   10   14    7     -0.21      0.00
   11   14    7     -0.87      0.00
   -6   15    7     -1.27      0.00
   -5   15    7     -0.10      0.00
   -4   15    7      0.14      0.00
   -3   15    7     -0.67      0.00
   -2   15    7      0.46      0.00
   -1   15    7      1.08      0.00
    0   15    7      0.52      0.00
    1   15    7      1.92      0.00
    2   15    7     -0.78      0.00
    3   15    7     -1.39      0.00
    4   15    7     -0.10      0.00
    5   15    7     -1.15      0.00
    6   15    7     -0.01      0.00
    7   15    7      0.10      0.00
    8   15    7     -0.23      0.00
    9   15    7      0.16      0.00
   10   15    7      0.61      0.00
   11   15    7      1.13      0.00
   12   15    7      0.72      0.00
   -6   16    7     -1.64      0.00
   -5   16    7     -1.07      0.00
   -4   16    7     -0.27      0.00
   -3   16    7      1.26      0.00
   -2   16    7      0.71      0.00
   -1   16    7     -0.25      0.00
    0   16    7     -1.41      0.00
    1   16    7     -0.44      0.00
    2   16    7      0.25      0.00
    3   16    7      2.02      0.00
    4   16    7      0.02      0.00
    5   16    7     -0.45      0.00
    6   16    7      0.20      0.00
    7   16    7      0.45      0.00
    8   16    7      0.39      0.00
    9   16    7      0.07      0.00
   10   16    7     -0.60      0.00
   11   16    7     -0.63      0.00
   -7   17    7      1.42      0.00
   -6   17    7      1.79      0.00
   -5   17    7      1.34      0.00
   -4   17    7      0.09      0.00
   -3   17    7      0.46      0.00
   -2   17    7      0.16      0.00
   -1   17    7      1.13      0.00
    0   17    7      0.52      0.00
    1   17    7     -0.17      0.00
    2   17    7     -0.94      0.00
    3   17    7      0.30      0.00
    4   17    7      0.60      0.00
    5   17    7      1.78      0.00
    6   17    7     -0.27      0.00
    7   17    7     -0.87      0.00
    8   17    7     -0.72      0.00
    9   17    7      0.59      0.00
   10   17    7      1.30      0.00
   11   17    7      0.36      0.00
   -7   18    7     -0.38      0.00
   -6   18    7     -0.39      0.00
   -5   18    7     -0.76      0.00
   -4   18    7     -0.62      0.00
   -3   18    7     -1.55      0.00
   -2   18    7     -1.18      0.00
   -1   18    7     -0.87      0.00
    0   18    7      0.19      0.00
    1   18    7      1.26      0.00
    2   18    7      0.62      0.00
    3   18    7     -0.49      0.00
    4   18    7     -0.92      0.00
    5   18    7     -0.01      0.00
    6   18    7     -0.09      0.00
    7   18    7      0.62      0.00
    8   18    7     -0.22      0.00
    9   18    7     -0.61      0.00
   10   18    7     -0.39      0.00
   -7   19    7      0.10      0.00
   -6   19    7     -0.46      0.00
   -5   19    7     -1.54      0.00
   -4   19    7     -0.31      0.00
   -3   19    7      0.16      0.00
   -2   19    7      1.21      0.00
   -1   19    7     -0.47      0.00
    0   19    7      0.20      0.00
    1   19    7     -1.42      0.00
    2   19    7     -1.22      0.00
    3   19    7      0.09      0.00
    4   19    7     -0.02      0.00
    5   19    7     -0.32      0.00
    6   19    7      0.57      0.00
    8   19    7      0.20      0.00
    9   19    7     -0.24      0.00
   10   19    7     -1.13      0.00
   -6   20    7      2.11      0.00
   -5   20    7      2.13      0.00
   -4   20    7      1.74      0.00
   -3   20    7      0.09      0.00
   -2   20    7      0.02      0.00
   -1   20    7      0.29      0.00
    0   20    7      1.21      0.00
    1   20    7      0.44      0.00
    2   20    7      1.33      0.00
    3   20    7      0.26      0.00
    4   20    7      0.16      0.00
    5   20    7      0.37      0.00
    6   20    7      0.64      0.00
   -6   21    7     -1.67      0.00
   -5   21    7     -0.72      0.00
   -4   21    7     -0.10      0.00
   -3   21    7      0.20      0.00
   -2   21    7     -0.05      0.00
   -1   21    7      0.17      0.00
    0   21    7     -1.02      0.00
    1   21    7     -1.51      0.00
    2   21    7     -0.30      0.00
    3   21    7     -1.56      0.00
    4   21    7     -1.57      0.00
    5   21    7     -1.48      0.00
   -5   22    7      0.33      0.00
   -4   22    7     -1.68      0.00
   -3   22    7     -1.39      0.00
   -2   22    7     -0.86      0.00
   -1   22    7     -0.37      0.00
    0   22    7     -0.04      0.00
    1   22    7      1.31      0.00
    2   22    7      0.78      0.00
    3   22    7      0.56      0.00
    4   22    7      1.88      0.00
    5   22    7      1.27      0.00
   -4   23    7      1.07      0.00
   -3   23    7      1.90      0.00
   -2   23    7      0.42      0.00
   -1   23    7     -0.11      0.00
    0   23    7     -0.20      0.00
    1   23    7      0.40      0.00
    2   23    7     -0.16      0.00
    3   23    7     -0.44      0.00
    4   23    7     -0.46      0.00
    5   23    7     -0.95      0.00
   -3   24    7      0.39      0.00
   -2   24    7      0.10      0.00
   -1   24    7      0.41      0.00
    0   24    7      0.04      0.00
    1   24    7     -0.51      0.00
    2   24    7     -0.63      0.00
    3   24    7      0.86      0.00
    4   24    7      0.56      0.00
    5   24    7      0.10      0.00
   -1   25    7      0.64      0.00
    0   25    7      0.18      0.00
    1   25    7      0.38      0.00
    2   25    7      0.59      0.00
    3   25    7      0.51      0.00
    4   25    7      0.22      0.00
   -1  -24    8      0.08      0.00
    0  -24    8     -0.18      0.00
    1  -24    8     -1.28      0.00
   -3  -23    8     -0.25      0.00
   -2  -23    8      0.72      0.00
   -1  -23    8      0.01      0.00
    0  -23    8      0.31      0.00
    1  -23    8      0.19      0.00
    2  -23    8     -0.31      0.00
    3  -23    8     -0.38      0.00
    4  -23    8      0.74      0.00
   -4  -22    8      2.10      0.00
   -3  -22    8      1.14      0.00
   -2  -22    8     -0.14      0.00
   -1  -22    8     -0.66      0.00
    0  -22    8     -0.48      0.00
    1  -22    8      1.32      0.00
    2  -22    8      1.18      0.00
    3  -22    8      1.34      0.00
    4  -22    8     -0.32      0.00
    5  -22    8      0.18      0.00
   -5  -21    8     -2.07      0.00
   -4  -21    8     -1.86      0.00
   -3  -21    8     -0.44      0.00
   -2  -21    8      0.46      0.00
   -1  -21    8      0.47      0.00
    0  -21    8     -0.89      0.00
    1  -21    8     -1.76      0.00
    2  -21    8     -2.50      0.00
    3  -21    8     -0.24      0.00
    4  -21    8     -0.38      0.00
    5  -21    8      0.04      0.00
    6  -21    8     -0.37      0.00
   -6  -20    8     -1.80      0.00
   -5  -20    8      0.24      0.00
   -4  -20    8     -0.12      0.00
   -3  -20    8     -0.83      0.00
   -2  -20    8     -0.39      0.00
   -1  -20    8      0.38      0.00
    0  -20    8      2.20      0.00
    1  -20    8      1.55      0.00
    2  -20    8      0.92      0.00
    3  -20    8     -0.57      0.00
    4  -20    8     -0.04      0.00
    5  -20    8     -0.10      0.00
    6  -20    8     -0.23      0.00
    7  -20    8     -0.31      0.00
   -7  -19    8      1.23      0.00
   -6  -19    8      0.58      0.00
   -5  -19    8      1.17      0.00
   -4  -19    8      0.40      0.00
   -3  -19    8      1.07      0.00
   -2  -19    8     -0.14      0.00
   -1  -19    8     -1.13      0.00
    0  -19    8     -0.29      0.00
    1  -19    8     -1.40      0.00
    2  -19    8      1.40      0.00
    3  -19    8      0.80      0.00
    4  -19    8      0.43      0.00
    5  -19    8     -0.51      0.00
    6  -19    8      0.62      0.00
    7  -19    8     -1.21      0.00
    8  -19    8     -0.97      0.00
   -8  -18    8      0.27      0.00
   -7  -18    8     -0.48      0.00
   -6  -18    8      0.65      0.00
   -5  -18    8     -0.13      0.00
   -4  -18    8     -0.36      0.00
   -3  -18    8      0.10      0.00
   -2  -18    8      0.90      0.00
   -1  -18    8      1.96      0.00
    0  -18    8     -0.17      0.00
    1  -18    8     -0.47      0.00
    2  -18    8     -0.45      0.00
    3  -18    8     -1.04      0.00
    4  -18    8     -0.40      0.00
    5  -18    8     -0.42      0.00
    6  -18    8     -0.04      0.00
    7  -18    8      0.07      0.00
    8  -18    8      0.99      0.00
    9  -18    8     -0.72      0.00
   -8  -17    8      1.08      0.00
   -7  -17    8      0.12      0.00
   -6  -17    8      0.12      0.00
   -5  -17    8     -0.87      0.00
   -4  -17    8      0.15      0.00
   -3  -17    8     -1.36      0.00
   -2  -17    8     -2.32      0.00
   -1  -17    8     -1.04      0.00
    0  -17    8     -1.43      0.00
    1  -17    8      0.78      0.00
    2  -17    8     -0.78      0.00
    3  -17    8     -0.60      0.00
    4  -17    8      0.56      0.00
    5  -17    8      1.62      0.00
    6  -17    8      0.52      0.00
    7  -17    8      0.84      0.00
    8  -17    8      1.00      0.00
    9  -17    8      0.93      0.00
   -9  -16    8     -1.59      0.00
   -8  -16    8     -1.29      0.00
   -7  -16    8     -0.39      0.00
   -6  -16    8     -0.29      0.00
   -5  -16    8      0.84      0.00
   -4  -16    8     -0.31      0.00
   -3  -16    8      0.35      0.00
   -2  -16    8      1.18      0.00
   -1  -16    8     -0.86      0.00
    0  -16    8      0.05      0.00
    1  -16    8      0.75      0.00
    2  -16    8      0.22      0.00
    3  -16    8      0.89      0.00
    4  -16    8     -0.88      0.00
    5  -16    8     -0.67      0.00
    6  -16    8     -0.10      0.00
    7  -16    8      0.50      0.00
    8  -16    8     -0.47      0.00
    9  -16    8      0.47      0.00
   10  -16    8      0.75      0.00
   -9  -15    8      1.15      0.00
   -8  -15    8     -0.10      0.00
   -7  -15    8      0.10      0.00
   -6  -15    8      0.04      0.00
   -5  -15    8      0.52      0.00
   -4  -15    8     -0.17      0.00
   -3  -15    8      0.45      0.00
   -2  -15    8      0.95      0.00
   -1  -15    8      1.26      0.00
    0  -15    8      2.12      0.00
    1  -15    8     -0.49      0.00
    2  -15    8      0.14      0.00
    3  -15    8      0.31      0.00
    4  -15    8     -0.75      0.00
    5  -15    8     -1.05      0.00
    6  -15    8     -1.76      0.00
    7  -15    8     -0.40      0.00
    8  -15    8      0.63      0.00
    9  -15    8     -0.31      0.00
   10  -15    8     -0.95      0.00
   -9  -14    8      0.67      0.00
   -8  -14    8      0.64      0.00
   -7  -14    8     -0.72      0.00
   -6  -14    8      0.16      0.00
   -5  -14    8     -0.52      0.00
   -4  -14    8      0.94      0.00
   -3  -14    8      0.54      0.00
   -2  -14    8     -1.52      0.00
   -1  -14    8     -1.33      0.00
    0  -14    8     -1.49      0.00
    1  -14    8     -0.75      0.00
    2  -14    8      0.45      0.00
    3  -14    8     -0.55      0.00
    4  -14    8      1.61      0.00
    5  -14    8      2.33      0.00
    6  -14    8      0.76      0.00
    7  -14    8     -0.63      0.00
    8  -14    8     -1.53      0.00
    9  -14    8     -1.06      0.00
   10  -14    8      0.58      0.00
  -10  -13    8     -0.61      0.00
   -9  -13    8     -1.35      0.00
   -8  -13    8     -0.94      0.00
   -7  -13    8      0.02      0.00
   -6  -13    8      0.14      0.00
   -5  -13    8     -0.48      0.00
   -4  -13    8      0.64      0.00
   -3  -13    8      0.68      0.00
   -2  -13    8      2.38      0.00
   -1  -13    8      2.30      0.00
    0  -13    8     -0.02      0.00
    1  -13    8      1.63      0.00
    2  -13    8      1.41      0.00
    3  -13    8      0.75      0.00
    4  -13    8      0.82      0.00
    5  -13    8     -2.51      0.00
    6  -13    8     -1.12      0.00
    7  -13    8      0.16      0.00
    8  -13    8     -0.76      0.00
    9  -13    8      0.28      0.00
   10  -13    8      0.34      0.00
  -10  -12    8      1.50      0.00
   -9  -12    8      1.62      0.00
   -8  -12    8      0.34      0.00
   -7  -12    8      0.79      0.00
   -6  -12    8     -0.06      0.00
   -5  -12    8     -0.44      0.00
   -4  -12    8     -2.59      0.00
   -3  -12    8     -3.33      0.00
   -2  -12    8     -3.39      0.00
   -1  -12    8     -1.82      0.00
    0  -12    8      1.02      0.00
    1  -12    8      0.18      0.00
    2  -12    8     -2.37      0.00
    3  -12    8     -0.44      0.00
    4  -12    8      0.54      0.00
    5  -12    8      1.17      0.00
    6  -12    8      3.11      0.00
    7  -12    8      1.47      0.00
    8  -12    8      1.03      0.00
    9  -12    8      0.46      0.00
   10  -12    8     -1.88      0.00
  -10  -11    8     -0.64      0.00
   -9  -11    8     -0.79      0.00
   -8  -11    8      0.33      0.00
   -7  -11    8     -0.10      0.00
   -6  -11    8     -0.88      0.00
   -5  -11    8      0.30      0.00
   -4  -11    8      1.51      0.00
   -3  -11    8      4.44      0.00
   -2  -11    8      2.91      0.00
   -1  -11    8      0.93      0.00
    0  -11    8     -0.44      0.00
    1  -11    8     -0.62      0.00
    2  -11    8      1.23      0.00
    3  -11    8      1.05      0.00
    4  -11    8     -1.70      0.00
    5  -11    8      0.42      0.00
    6  -11    8      0.53      0.00
    7  -11    8     -1.69      0.00
    8  -11    8      0.24      0.00
    9  -11    8      0.02      0.00
   10  -11    8      0.89      0.00
  -11  -10    8      0.11      0.00
  -10  -10    8      0.90      0.00
   -9  -10    8      0.12      0.00
   -8  -10    8      0.44      0.00
   -7  -10    8      0.56      0.00
   -6  -10    8      1.88      0.00
   -5  -10    8      0.57      0.00
   -4  -10    8     -0.01      0.00
   -3  -10    8     -3.80      0.00
   -2  -10    8     -5.44      0.00
   -1  -10    8     -3.53      0.00
    0  -10    8     -6.23      0.00
    1  -10    8     -5.39      0.00
    2  -10    8     -2.75      0.00
    3  -10    8     -1.34      0.00
    4  -10    8      0.63      0.00
    5  -10    8      0.43      0.00
    6  -10    8     -1.16      0.00
    7  -10    8      1.31      0.00
    8  -10    8      3.20      0.00
    9  -10    8      0.91      0.00
   10  -10    8      2.13      0.00
  -11   -9    8     -0.38      0.00
  -10   -9    8     -0.78      0.00
   -9   -9    8      0.05      0.00
   -8   -9    8      0.09      0.00
   -7   -9    8     -0.63      0.00
   -6   -9    8     -0.62      0.00
   -5   -9    8     -0.54      0.00
   -4   -9    8      1.69      0.00
   -3   -9    8      0.87      0.00
   -2   -9    8      5.26      0.00
   -1   -9    8      5.90      0.00
    0   -9    8      6.96      0.00
    1   -9    8      8.00      0.00
    2   -9    8     -0.28      0.00
    3   -9    8     -3.49      0.00
    4   -9    8     -3.19      0.00
    5   -9    8     -3.51      0.00
    6   -9    8     -2.69      0.00
    7   -9    8     -1.70      0.00
    8   -9    8     -3.89      0.00
    9   -9    8     -2.11      0.00
   10   -9    8     -1.32      0.00
   11   -9    8     -1.70      0.00
   12   -9    8      0.32      0.00
  -11   -8    8     -0.62      0.00
  -10   -8    8     -1.43      0.00
   -9   -8    8     -1.22      0.00
   -8   -8    8     -0.86      0.00
   -7   -8    8      0.55      0.00
   -6   -8    8     -0.60      0.00
   -5   -8    8      0.82      0.00
   -4   -8    8      1.47      0.00
   -3   -8    8      3.26      0.00
   -2   -8    8      6.49      0.00
   -1   -8    8     -1.59      0.00
    0   -8    8     -1.75      0.00
    1   -8    8     -2.84      0.00
    2   -8    8     -1.32      0.00
    3   -8    8      4.53      0.00
    4   -8    8      0.24      0.00
    5   -8    8      0.78      0.00
    6   -8    8      0.88      0.00
    7   -8    8      0.42      0.00
    8   -8    8     -0.93      0.00
    9   -8    8      2.08      0.00
   10   -8    8      0.10      0.00
   11   -8    8      2.09      0.00
   12   -8    8      0.82      0.00
  -11   -7    8      1.06      0.00
  -10   -7    8      1.36      0.00
   -9   -7    8      0.73      0.00
   -8   -7    8     -0.56      0.00
   -7   -7    8     -0.37      0.00
   -6   -7    8     -0.18      0.00
   -5   -7    8      0.33      0.00
   -4   -7    8     -4.45      0.00
   -3   -7    8     -5.49      0.00
   -2   -7    8     -8.00      0.00
   -1   -7    8     -3.45      0.00
    0   -7    8      7.71      0.00
    1   -7    8      1.66      0.00
    2   -7    8      5.40      0.00
    3   -7    8      3.09      0.00
    4   -7    8     -0.47      0.00
    5   -7    8      1.99      0.00
    6   -7    8     -1.69      0.00
    7   -7    8     -1.31      0.00
    8   -7    8      0.86      0.00
    9   -7    8     -0.12      0.00
   10   -7    8     -2.20      0.00
   11   -7    8      0.07      0.00
   12   -7    8     -1.94      0.00
  -11   -6    8      0.43      0.00
  -10   -6    8     -0.75      0.00
   -9   -6    8     -0.55      0.00
   -8   -6    8     -0.22      0.00
   -7   -6    8     -1.73      0.00
   -6   -6    8     -2.59      0.00
   -5   -6    8     -3.17      0.00
   -4   -6    8     -2.01      0.00
   -3   -6    8      3.74      0.00
   -2   -6    8      0.56      0.00
   -1   -6    8      3.48      0.00
    0   -6    8     -0.23      0.00
    1   -6    8     -0.36      0.00
    2   -6    8      8.31      0.00
    3   -6    8     -1.94      0.00
    4   -6    8      4.71      0.00
    5   -6    8      4.68      0.00
    6   -6    8      3.36      0.00
    7   -6    8      3.12      0.00
    8   -6    8      0.68      0.00
    9   -6    8     -2.51      0.00
   10   -6    8      0.67      0.00
   11   -6    8      0.31      0.00
   12   -6    8      0.04      0.00
  -11   -5    8     -0.05      0.00
  -10   -5    8      0.65      0.00
   -9   -5    8      0.96      0.00
   -8   -5    8      1.67      0.00
   -7   -5    8      2.61      0.00
   -6   -5    8      3.73      0.00
   -5   -5    8      3.43      0.00
   -4   -5    8      3.03      0.00
   -3   -5    8     -0.87      0.00
   -2   -5    8     -3.96      0.00
   -1   -5    8     -3.28      0.00
    0   -5    8    -15.82      0.00
    1   -5    8     -9.10      0.00
    2   -5    8     -7.42      0.00
    3   -5    8     -3.00      0.00
    4   -5    8      7.42      0.00
    5   -5    8     -2.09      0.00
    6   -5    8      1.36      0.00
    7   -5    8      1.48      0.00
    8   -5    8      1.28      0.00
    9   -5    8      1.74      0.00
   10   -5    8      2.12      0.00
   11   -5    8     -1.59      0.00
   12   -5    8     -0.06      0.00
  -11   -4    8     -0.01      0.00
  -10   -4    8      1.09      0.00
   -9   -4    8      0.61      0.00
   -8   -4    8     -0.41      0.00
   -7   -4    8     -1.71      0.00
   -6   -4    8     -1.51      0.00
   -5   -4    8     -1.68      0.00
   -4   -4    8     -2.61      0.00
   -3   -4    8     -6.72      0.00
   -2   -4    8     -3.65      0.00
   -1   -4    8     -0.10      0.00
    0   -4    8      7.72      0.00
    1   -4    8     14.94      0.00
    2   -4    8     -4.53      0.00
    3   -4    8     -1.13      0.00
    4   -4    8     -6.46      0.00
    5   -4    8     -6.28      0.00
    6   -4    8      1.13      0.00
    7   -4    8     -2.31      0.00
    8   -4    8     -0.57      0.00
    9   -4    8      0.95      0.00
   10   -4    8     -0.86      0.00
   11   -4    8     -1.38      0.00
   12   -4    8      0.20      0.00
   13   -4    8     -1.12      0.00
  -11   -3    8     -0.74      0.00
  -10   -3    8     -0.80      0.00
   -9   -3    8     -0.49      0.00
   -8   -3    8      1.14      0.00
   -7   -3    8      1.25      0.00
   -6   -3    8      2.78      0.00
   -5   -3    8      3.31      0.00
   -4   -3    8      7.95      0.00
   -3   -3    8     15.19      0.00
   -2   -3    8     14.87      0.00
   -1   -3    8     -0.03      0.00
    1   -3    8    -17.90      0.00
    2   -3    8    -14.59      0.00
    3   -3    8     -5.26      0.00
    4   -3    8    -15.22      0.00
    5   -3    8     -3.49      0.00
    6   -3    8     -3.53      0.00
    7   -3    8     -3.24      0.00
    8   -3    8      0.23      0.00
    9   -3    8     -1.03      0.00
   10   -3    8     -0.20      0.00
   11   -3    8      1.86      0.00
   12   -3    8      1.20      0.00
   13   -3    8     -0.18      0.00
  -11   -2    8      0.02      0.00
  -10   -2    8     -0.67      0.00
   -9   -2    8     -0.73      0.00
   -8   -2    8     -1.38      0.00
   -7   -2    8     -0.43      0.00
   -6   -2    8     -0.13      0.00
   -5   -2    8     -2.72      0.00
   -4   -2    8     -4.68      0.00
   -3   -2    8     -8.26      0.00
   -2   -2    8     -7.94      0.00
   -1   -2    8      5.52      0.00
    0   -2    8     15.62      0.00
    1   -2    8     12.89      0.00
    2   -2    8     22.63      0.00
    3   -2    8     16.42      0.00
    4   -2    8     15.04      0.00
    5   -2    8     12.80      0.00
    6   -2    8     -1.76      0.00
    7   -2    8      1.19      0.00
    8   -2    8     -0.10      0.00
    9   -2    8     -0.40      0.00
   10   -2    8      1.05      0.00
   11   -2    8      0.27      0.00
   12   -2    8     -0.46      0.00
   13   -2    8     -0.24      0.00
  -11   -1    8     -0.03      0.00
  -10   -1    8     -0.51      0.00
   -9   -1    8      0.37      0.00
   -8   -1    8     -1.38      0.00
   -7   -1    8     -1.11      0.00
   -6   -1    8     -3.30      0.00
   -5   -1    8     -1.52      0.00
   -4   -1    8      2.06      0.00
   -3   -1    8      1.43      0.00
   -2   -1    8      4.03      0.00
   -1   -1    8      5.41      0.00
    0   -1    8      2.11      0.00
    1   -1    8      6.85      0.00
    2   -1    8     -0.77      0.00
    3   -1    8    -15.98      0.00
    4   -1    8     -8.46      0.00
    5   -1    8     -9.51      0.00
    6   -1    8     -3.86      0.00
    7   -1    8      1.69      0.00
    8   -1    8     -3.26      0.00
    9   -1    8     -0.95      0.00
   10   -1    8     -1.44      0.00
   11   -1    8     -0.92      0.00
   12   -1    8     -0.40      0.00
   13   -1    8      0.31      0.00
  -11    0    8      0.80      0.00
  -10    0    8      1.20      0.00
   -9    0    8      0.50      0.00
   -8    0    8      0.92      0.00
   -7    0    8      1.52      0.00
   -6    0    8     -0.66      0.00
   -5    0    8      0.63      0.00
   -4    0    8     -2.64      0.00
   -3    0    8     -3.43      0.00
   -2    0    8      0.76      0.00
   -1    0    8    -10.82      0.00
    0    0    8    -15.16      0.00
    1    0    8    -10.27      0.00
    2    0    8     -6.28      0.00
    3    0    8     12.91      0.00
    4    0    8     13.91      0.00
    5    0    8      5.27      0.00
    6    0    8      8.56      0.00
    7    0    8      1.91      0.00
    8    0    8      1.24      0.00
    9    0    8      2.38      0.00
   10    0    8     -0.57      0.00
   11    0    8      0.83      0.00
   12    0    8      0.00      0.00
   13    0    8      1.18      0.00
  -11    1    8     -0.57      0.00
  -10    1    8      0.17      0.00
   -9    1    8     -0.20      0.00
   -8    1    8      0.45      0.00
   -7    1    8     -0.76      0.00
   -6    1    8      0.20      0.00
   -5    1    8     -0.07      0.00
   -4    1    8     -5.45      0.00
   -3    1    8     -6.84      0.00
   -2    1    8    -11.05      0.00
   -1    1    8     -7.83      0.00
    0    1    8      9.86      0.00
    1    1    8      3.28      0.00
    2    1    8      0.00      0.00
    3    1    8      0.71      0.00
    4    1    8     -5.43      0.00
    5    1    8      1.75      0.00
    6    1    8      1.10      0.00
    7    1    8     -2.79      0.00
    8    1    8      2.12      0.00
    9    1    8      0.35      0.00
   10    1    8      1.09      0.00
   11    1    8      1.21      0.00
   12    1    8     -0.06      0.00
   13    1    8      0.17      0.00
  -11    2    8     -1.13      0.00
  -10    2    8     -0.77      0.00
   -9    2    8     -0.35      0.00
   -8    2    8      1.02      0.00
   -7    2    8      0.97      0.00
   -6    2    8      2.86      0.00
   -5    2    8      1.93      0.00
   -4    2    8      6.15      0.00
   -3    2    8     14.75      0.00
   -2    2    8      9.92      0.00
   -1    2    8     10.95      0.00
    0    2    8      2.26      0.00
    1    2    8     -6.23      0.00
    2    2    8      3.45      0.00
    3    2    8     -9.33      0.00
    4    2    8     -9.10      0.00
    5    2    8     -2.15      0.00
    6    2    8     -3.15      0.00
    7    2    8      2.23      0.00
    8    2    8      1.44      0.00
    9    2    8     -1.61      0.00
   10    2    8     -0.15      0.00
   11    2    8     -1.14      0.00
   12    2    8      0.16      0.00
   13    2    8     -0.11      0.00
  -11    3    8      1.49      0.00
  -10    3    8      0.62      0.00
   -9    3    8     -0.66      0.00
   -8    3    8     -1.01      0.00
   -7    3    8      0.13      0.00
   -6    3    8      0.74      0.00
   -5    3    8      0.30      0.00
   -4    3    8      0.26      0.00
   -3    3    8     -6.37      0.00
   -2    3    8     -8.70      0.00
   -1    3    8     -3.37      0.00
    0    3    8    -15.66      0.00
    1    3    8     -9.15      0.00
    2    3    8     -4.94      0.00
    3    3    8     -2.85      0.00
    4    3    8      9.41      0.00
    5    3    8     -0.65      0.00
    6    3    8     -2.76      0.00
    7    3    8     -0.37      0.00
    8    3    8     -2.95      0.00
    9    3    8      0.00      0.00
   10    3    8      0.08      0.00
   11    3    8     -0.79      0.00
   12    3    8     -0.24      0.00
   13    3    8     -0.51      0.00
  -10    4    8     -0.60      0.00
   -9    4    8      0.54      0.00
   -8    4    8     -0.11      0.00
   -7    4    8     -1.51      0.00
   -6    4    8     -1.87      0.00
   -5    4    8     -0.31      0.00
   -4    4    8      1.97      0.00
   -3    4    8      1.40      0.00
   -2    4    8      7.62      0.00
   -1    4    8      8.76      0.00
    0    4    8     14.17      0.00
    1    4    8     23.31      0.00
    2    4    8      3.69      0.00
    3    4    8     -0.12      0.00
    4    4    8     -4.56      0.00
    5    4    8     -6.94      0.00
    6    4    8      0.51      0.00
    7    4    8     -2.90      0.00
    8    4    8     -1.04      0.00
    9    4    8      0.70      0.00
   10    4    8      0.28      0.00
   11    4    8      0.94      0.00
   12    4    8      0.32      0.00
   13    4    8      0.13      0.00
  -10    5    8     -0.38      0.00
   -9    5    8     -0.12      0.00
   -8    5    8      0.32      0.00
   -7    5    8     -0.23      0.00
   -6    5    8     -0.55      0.00
   -5    5    8     -2.02      0.00
   -4    5    8     -3.41      0.00
   -3    5    8     -0.95      0.00
   -2    5    8      0.74      0.00
   -1    5    8     -7.68      0.00
    0    5    8     -6.31      0.00
    1    5    8     -9.28      0.00
    2    5    8     -4.27      0.00
    3    5    8      9.37      0.00
    4    5    8      1.37      0.00
    5    5    8      5.22      0.00
    6    5    8      4.40      0.00
    7    5    8      1.48      0.00
    8    5    8      3.85      0.00
    9    5    8      0.11      0.00
   10    5    8     -0.49      0.00
   11    5    8     -0.98      0.00
   12    5    8     -0.43      0.00
   13    5    8     -0.24      0.00
  -10    6    8      1.14      0.00
   -9    6    8     -0.37      0.00
   -8    6    8     -1.22      0.00
   -7    6    8     -0.02      0.00
   -6    6    8      1.24      0.00
   -5    6    8      1.24      0.00
   -4    6    8      1.46      0.00
   -3    6    8      0.80      0.00
   -2    6    8     -1.24      0.00
   -1    6    8      4.06      0.00
    0    6    8      8.53      0.00
    1    6    8      1.98      0.00
    2    6    8      6.57      0.00
    3    6    8      2.93      0.00
    4    6    8      1.88      0.00
    5    6    8      4.52      0.00
    6    6    8     -4.40      0.00
    7    6    8     -2.72      0.00
    8    6    8     -3.56      0.00
    9    6    8     -3.27      0.00
   10    6    8     -0.75      0.00
   11    6    8     -1.01      0.00
   12    6    8      0.17      0.00
   13    6    8     -0.50      0.00
  -10    7    8      0.09      0.00
   -9    7    8      0.85      0.00
   -8    7    8      1.18      0.00
   -7    7    8      0.51      0.00
   -6    7    8     -1.97      0.00
   -5    7    8     -1.89      0.00
   -4    7    8     -1.20      0.00
   -3    7    8     -3.15      0.00
   -2    7    8     -4.60      0.00
   -1    7    8     -5.94      0.00
    0    7    8     -9.05      0.00
    1    7    8     -4.58      0.00
    2    7    8     -3.13      0.00
    3    7    8    -10.37      0.00
    4    7    8     -4.00      0.00
    5    7    8     -2.51      0.00
    6    7    8      0.97      0.00
    7    7    8      4.96      0.00
    8    7    8      2.00      0.00
    9    7    8      3.27      0.00
   10    7    8      2.12      0.00
   11    7    8      1.95      0.00
   12    7    8      0.54      0.00
   13    7    8     -0.72      0.00
  -10    8    8     -0.47      0.00
   -9    8    8      0.86      0.00
   -8    8    8      0.62      0.00
   -7    8    8      0.84      0.00
   -6    8    8      0.42      0.00
   -5    8    8      1.36      0.00
   -4    8    8      0.25      0.00
   -3    8    8      0.31      0.00
   -2    8    8      4.44      0.00
   -1    8    8      2.23      0.00
    0    8    8     -0.14      0.00
    1    8    8      0.21      0.00
    2    8    8     -1.79      0.00
    3    8    8      4.10      0.00
    4    8    8      5.70      0.00
    5    8    8     -0.80      0.00
    6    8    8      1.79      0.00
    7    8    8     -0.25      0.00
    8    8    8     -0.45      0.00
    9    8    8      0.20      0.00
   10    8    8     -1.83      0.00
   11    8    8     -0.52      0.00
   12    8    8     -0.27      0.00
  -10    9    8     -1.10      0.00
   -9    9    8     -0.47      0.00
   -8    9    8     -1.22      0.00
   -7    9    8     -0.33      0.00
   -6    9    8      1.57      0.00
   -5    9    8      1.57      0.00
   -4    9    8     -0.30      0.00
   -3    9    8      1.96      0.00
   -2    9    8      0.08      0.00
   -1    9    8      0.04      0.00
    0    9    8      5.64      0.00
    1    9    8      3.03      0.00
    2    9    8      0.13      0.00
    3    9    8      0.74      0.00
    4    9    8     -2.61      0.00
    5    9    8      0.00      0.00
    6    9    8      0.21      0.00
    7    9    8     -2.28      0.00
    8    9    8     -0.06      0.00
    9    9    8      0.18      0.00
   10    9    8      1.40      0.00
   11    9    8      1.47      0.00
   12    9    8     -0.17      0.00
  -10   10    8      1.35      0.00
   -9   10    8      0.79      0.00
   -8   10    8      1.05      0.00
   -7   10    8      1.05      0.00
   -6   10    8     -0.01      0.00
   -5   10    8     -0.77      0.00
   -4   10    8      0.40      0.00
   -3   10    8      1.99      0.00
   -2   10    8     -1.94      0.00
   -1   10    8     -0.29      0.00
    0   10    8     -2.52      0.00
    1   10    8     -4.38      0.00
    2   10    8     -0.31      0.00
    3   10    8     -3.34      0.00
    4   10    8     -5.43      0.00
    5   10    8     -1.57      0.00
    6   10    8     -2.05      0.00
    7   10    8      0.22      0.00
    8   10    8      0.33      0.00
    9   10    8     -1.43      0.00
   10   10    8     -0.99      0.00
   11   10    8     -0.86      0.00
   12   10    8      0.21      0.00
   -9   11    8     -1.71      0.00
   -8   11    8     -0.93      0.00
   -7   11    8     -0.59      0.00
   -6   11    8     -0.75      0.00
   -5   11    8     -1.05      0.00
   -4   11    8     -0.57      0.00
   -3   11    8     -2.31      0.00
   -2   11    8     -0.34      0.00
   -1   11    8      3.77      0.00
    0   11    8      1.42      0.00
    1   11    8      3.45      0.00
    2   11    8      3.56      0.00
    3   11    8      3.34      0.00
    4   11    8      6.31      0.00
    5   11    8      3.17      0.00
    6   11    8      0.18      0.00
    7   11    8      0.78      0.00
    8   11    8     -0.42      0.00
    9   11    8      0.07      0.00
   10   11    8     -0.21      0.00
   11   11    8     -1.53      0.00
   12   11    8     -0.43      0.00
   -9   12    8     -0.90      0.00
   -8   12    8     -0.26      0.00
   -7   12    8     -0.53      0.00
   -6   12    8      0.09      0.00
   -5   12    8      1.55      0.00
   -4   12    8      2.09      0.00
   -3   12    8      0.16      0.00
   -2   12    8      1.47      0.00
   -1   12    8     -2.06      0.00
    0   12    8     -2.17      0.00
    1   12    8      1.16      0.00
    2   12    8     -1.90      0.00
    3   12    8     -1.79      0.00
    4   12    8     -1.95      0.00
    5   12    8     -2.85      0.00
    6   12    8     -0.25      0.00
    7   12    8     -0.42      0.00
    8   12    8     -0.71      0.00
    9   12    8      0.72      0.00
   10   12    8      0.96      0.00
   11   12    8      1.39      0.00
   12   12    8      0.35      0.00
   -9   13    8      0.52      0.00
   -8   13    8      0.39      0.00
   -7   13    8     -0.31      0.00
   -6   13    8      0.03      0.00
   -5   13    8     -0.69      0.00
   -4   13    8     -1.49      0.00
   -3   13    8     -0.96      0.00
   -2   13    8     -0.97      0.00
   -1   13    8     -2.15      0.00
    0   13    8      0.32      0.00
    1   13    8     -1.21      0.00
    2   13    8     -0.14      0.00
    3   13    8      2.45      0.00
    4   13    8      0.58      0.00
    5   13    8      1.02      0.00
    6   13    8      1.26      0.00
    7   13    8     -0.12      0.00
    8   13    8      0.24      0.00
    9   13    8     -0.10      0.00
   10   13    8     -1.34      0.00
   11   13    8     -0.99      0.00
   12   13    8     -0.31      0.00
   -9   14    8      0.27      0.00
   -8   14    8     -0.16      0.00
   -7   14    8     -0.99      0.00
   -6   14    8     -0.31      0.00
   -5   14    8     -0.33      0.00
   -4   14    8      0.10      0.00
   -3   14    8      1.27      0.00
   -2   14    8      0.78      0.00
   -1   14    8      1.18      0.00
    0   14    8      1.05      0.00
    1   14    8     -1.63      0.00
    2   14    8     -0.76      0.00
    3   14    8     -2.40      0.00
    4   14    8     -1.40      0.00
    5   14    8      0.56      0.00
    6   14    8     -0.59      0.00
    7   14    8     -0.07      0.00
    8   14    8      0.90      0.00
    9   14    8      0.20      0.00
   10   14    8      0.91      0.00
   11   14    8      0.77      0.00
   -8   15    8      0.10      0.00
   -7   15    8      0.16      0.00
   -6   15    8     -0.74      0.00
   -5   15    8     -1.07      0.00
   -4   15    8      0.34      0.00
   -3   15    8      0.06      0.00
   -2   15    8      0.19      0.00
   -1   15    8     -0.12      0.00
    0   15    8     -1.02      0.00
    1   15    8      0.18      0.00
    2   15    8      2.26      0.00
    3   15    8      1.11      0.00
    4   15    8      1.48      0.00
    5   15    8     -0.04      0.00
    6   15    8     -0.24      0.00
    7   15    8      0.33      0.00
    8   15    8      0.08      0.00
    9   15    8     -0.69      0.00
   10   15    8     -0.29      0.00
   11   15    8     -0.29      0.00
   -6   16    8      1.32      0.00
   -5   16    8      1.02      0.00
   -4   16    8     -0.25      0.00
   -3   16    8     -0.88      0.00
   -2   16    8      0.04      0.00
   -1   16    8      0.33      0.00
    0   16    8      0.89      0.00
    1   16    8      0.38      0.00
    2   16    8     -1.61      0.00
    3   16    8     -0.57      0.00
    4   16    8      1.36      0.00
    5   16    8      0.22      0.00
    6   16    8      0.56      0.00
    7   16    8     -0.65      0.00
    8   16    8     -0.59      0.00
    9   16    8      0.70      0.00
   10   16    8      0.78      0.00
   11   16    8      0.83      0.00
   -6   17    8     -0.32      0.00
   -5   17    8      0.37      0.00
   -4   17    8     -0.48      0.00
   -3   17    8      0.00      0.00
   -2   17    8     -0.80      0.00
   -1   17    8      0.39      0.00
    0   17    8      0.13      0.00
    1   17    8      0.76      0.00
    2   17    8      0.32      0.00
    3   17    8     -1.04      0.00
    4   17    8     -2.02      0.00
    5   17    8     -1.04      0.00
    6   17    8      0.48      0.00
    7   17    8      0.59      0.00
    8   17    8      0.00      0.00
    9   17    8     -0.80      0.00
   10   17    8     -0.79      0.00
   11   17    8     -0.51      0.00
   -6   18    8     -0.65      0.00
   -5   18    8     -0.58      0.00
   -4   18    8     -0.54      0.00
   -3   18    8      0.82      0.00
   -2   18    8     -0.18      0.00
   -1   18    8      0.01      0.00
    0   18    8     -1.68      0.00
    1   18    8     -0.87      0.00
    2   18    8     -0.34      0.00
    3   18    8      0.72      0.00
    4   18    8      0.22      0.00
    5   18    8      0.05      0.00
    6   18    8     -0.57      0.00
    9   18    8     -0.09      0.00
   10   18    8     -0.14      0.00
   -6   19    8      1.94      0.00
   -5   19    8      1.65      0.00
   -4   19    8      0.77      0.00
   -3   19    8      0.08      0.00
   -2   19    8      0.57      0.00
   -1   19    8      0.40      0.00
    0   19    8      1.26      0.00
    1   19    8      2.25      0.00
    2   19    8      0.01      0.00
    3   19    8      0.43      0.00
    4   19    8      0.69      0.00
    5   19    8      0.76      0.00
    6   19    8      0.01      0.00
   10   19    8      0.52      0.00
   -6   20    8     -1.39      0.00
   -5   20    8     -1.32      0.00
   -4   20    8      0.58      0.00
   -3   20    8      0.05      0.00
   -2   20    8     -0.45      0.00
   -1   20    8     -1.34      0.00
    0   20    8     -0.60      0.00
    1   20    8     -1.79      0.00
    2   20    8     -1.27      0.00
    3   20    8     -0.20      0.00
    4   20    8     -2.04      0.00
    5   20    8     -2.04      0.00
    6   20    8     -1.05      0.00
   -5   21    8     -0.76      0.00
   -4   21    8     -0.62      0.00
   -3   21    8     -1.32      0.00
   -2   21    8     -0.33      0.00
   -1   21    8      0.47      0.00
    0   21    8      1.05      0.00
    1   21    8      0.38      0.00
    2   21    8      1.56      0.00
    3   21    8      1.85      0.00
    4   21    8      2.03      0.00
    5   21    8      2.44      0.00
    6   21    8      1.59      0.00
   -4   22    8      1.31      0.00
   -3   22    8      0.93      0.00
   -2   22    8      1.08      0.00
   -1   22    8     -0.03      0.00
    0   22    8     -1.00      0.00
    1   22    8     -0.43      0.00
    2   22    8      0.25      0.00
    3   22    8     -1.85      0.00
    4   22    8     -1.66      0.00
    5   22    8     -0.60      0.00
    6   22    8     -0.83      0.00
   -3   23    8      0.23      0.00
   -2   23    8      0.49      0.00
   -1   23    8      0.19      0.00
    0   23    8      0.54      0.00
    1   23    8     -0.03      0.00
    2   23    8     -0.19      0.00
    3   23    8      0.64      0.00
    4   23    8      1.36      0.00
    5   23    8      0.39      0.00
   -2   24    8     -0.56      0.00
   -1   24    8      0.16      0.00
    0   24    8      0.40      0.00
    1   24    8      0.38      0.00
    2   24    8     -0.03      0.00
    3   24    8     -0.28      0.00
    4   24    8      0.50      0.00
    5   24    8     -0.05      0.00
    0   25    8     -0.55      0.00
    1   25    8     -0.54      0.00
    2   25    8     -0.27      0.00
    3   25    8     -0.70      0.00
    4   25    8     -1.22      0.00
   -2  -23    9     -0.77      0.00
   -1  -23    9     -0.46      0.00
    0  -23    9     -0.05      0.00
    1  -23    9      0.21      0.00
    2  -23    9      1.42      0.00
    3  -23    9     -0.28      0.00
   -4  -22    9     -1.71      0.00
   -3  -22    9     -0.14      0.00
   -2  -22    9      1.51      0.00
   -1  -22    9      0.57      0.00
    0  -22    9     -0.51      0.00
    1  -22    9     -1.25      0.00
    2  -22    9     -1.11      0.00
    3  -22    9     -0.05      0.00
    4  -22    9      0.36      0.00
    5  -22    9     -0.42      0.00
   -5  -21    9     -0.02      0.00
   -4  -21    9      0.74      0.00
   -3  -21    9     -0.55      0.00
   -2  -21    9     -0.52      0.00
   -1  -21    9      0.58      0.00
    0  -21    9      0.98      0.00
    1  -21    9      2.28      0.00
    2  -21    9     -0.39      0.00
    3  -21    9     -0.86      0.00
    4  -21    9     -0.89      0.00
    5  -21    9      0.56      0.00
    6  -21    9     -0.49      0.00
   -6  -20    9      0.95      0.00
   -5  -20    9     -0.21      0.00
   -4  -20    9      0.58      0.00
   -3  -20    9      0.43      0.00
   -2  -20    9     -0.74      0.00
   -1  -20    9     -1.21      0.00
    0  -20    9     -0.88      0.00
    1  -20    9      0.48      0.00
    2  -20    9      0.82      0.00
    3  -20    9      2.17      0.00
    4  -20    9      0.61      0.00
    5  -20    9      0.25      0.00
    6  -20    9     -0.17      0.00
    7  -20    9      0.37      0.00
   -7  -19    9      0.68      0.00
   -6  -19    9     -0.21      0.00
   -5  -19    9      1.17      0.00
   -4  -19    9     -0.33      0.00
   -3  -19    9      0.19      0.00
   -2  -19    9      1.51      0.00
   -1  -19    9      0.36      0.00
    0  -19    9      0.44      0.00
    1  -19    9     -1.85      0.00
    2  -19    9     -1.88      0.00
    3  -19    9     -1.01      0.00
    4  -19    9     -0.32      0.00
    5  -19    9     -0.68      0.00
    6  -19    9      0.28      0.00
    7  -19    9      1.25      0.00
    8  -19    9      0.75      0.00
   -7  -18    9     -0.07      0.00
   -6  -18    9     -1.30      0.00
   -5  -18    9     -0.85      0.00
   -4  -18    9     -0.65      0.00
   -3  -18    9     -0.95      0.00
   -2  -18    9     -2.07      0.00
   -1  -18    9     -1.07      0.00
    0  -18    9      0.79      0.00
    1  -18    9     -0.23      0.00
    2  -18    9      1.25      0.00
    3  -18    9     -0.06      0.00
    4  -18    9      0.24      0.00
    5  -18    9      0.85      0.00
    6  -18    9      1.10      0.00
    7  -18    9     -0.62      0.00
    8  -18    9      0.39      0.00
   -8  -17    9     -0.83      0.00
   -7  -17    9     -0.89      0.00
   -6  -17    9      0.97      0.00
   -5  -17    9      0.20      0.00
   -4  -17    9      0.43      0.00
   -3  -17    9      0.63      0.00
   -2  -17    9      0.33      0.00
   -1  -17    9      0.50      0.00
    0  -17    9     -0.89      0.00
    1  -17    9      0.50      0.00
    2  -17    9      1.29      0.00
    3  -17    9     -0.12      0.00
    4  -17    9     -0.61      0.00
    5  -17    9     -1.07      0.00
    6  -17    9     -0.21      0.00
    7  -17    9     -0.23      0.00
    8  -17    9      0.17      0.00
    9  -17    9     -0.03      0.00
   -8  -16    9      0.44      0.00
   -7  -16    9      0.28      0.00
   -6  -16    9      0.12      0.00
   -5  -16    9      0.30      0.00
   -4  -16    9      0.87      0.00
   -3  -16    9      0.28      0.00
   -2  -16    9      1.22      0.00
   -1  -16    9      1.94      0.00
    0  -16    9      0.18      0.00
    1  -16    9      0.58      0.00
    2  -16    9     -0.64      0.00
    3  -16    9      0.17      0.00
    4  -16    9      1.03      0.00
    5  -16    9     -0.29      0.00
    6  -16    9     -0.92      0.00
    7  -16    9     -0.36      0.00
    8  -16    9     -0.12      0.00
    9  -16    9     -0.83      0.00
   10  -16    9     -1.42      0.00
   -9  -15    9      0.91      0.00
   -8  -15    9      1.01      0.00
   -7  -15    9      0.08      0.00
   -6  -15    9     -1.17      0.00
   -5  -15    9     -0.08      0.00
   -4  -15    9     -0.31      0.00
   -3  -15    9      0.42      0.00
   -2  -15    9     -0.48      0.00
   -1  -15    9     -1.88      0.00
    0  -15    9     -0.12      0.00
    1  -15    9     -0.27      0.00
    2  -15    9     -0.62      0.00
    3  -15    9      0.64      0.00
    4  -15    9      0.32      0.00
    5  -15    9      1.41      0.00
    6  -15    9      0.29      0.00
    7  -15    9     -1.92      0.00
    8  -15    9     -1.93      0.00
    9  -15    9     -0.45      0.00
   10  -15    9     -0.05      0.00
   -9  -14    9     -1.23      0.00
   -8  -14    9     -0.55      0.00
   -7  -14    9      0.13      0.00
   -6  -14    9      0.47      0.00
   -5  -14    9      0.44      0.00
   -4  -14    9     -0.44      0.00
   -3  -14    9     -0.25      0.00
   -2  -14    9      0.40      0.00
   -1  -14    9      0.08      0.00
    0  -14    9      0.02      0.00
    1  -14    9     -0.45      0.00
    2  -14    9      0.65      0.00
    3  -14    9     -0.19      0.00
    4  -14    9     -2.00      0.00
    5  -14    9     -0.59      0.00
    6  -14    9     -0.04      0.00
    7  -14    9      1.89      0.00
    8  -14    9      2.26      0.00
    9  -14    9      0.17      0.00
   10  -14    9     -0.01      0.00
   -9  -13    9      1.29      0.00
   -8  -13    9      0.12      0.00
   -7  -13    9     -0.45      0.00
   -6  -13    9      0.50      0.00
   -5  -13    9     -1.25      0.00
   -4  -13    9     -1.24      0.00
   -3  -13    9     -2.05      0.00
   -2  -13    9     -1.10      0.00
   -1  -13    9      1.10      0.00
    0  -13    9      1.21      0.00
    1  -13    9      0.58      0.00
    2  -13    9      0.03      0.00
    3  -13    9     -0.26      0.00
    4  -13    9      2.02      0.00
    5  -13    9      1.91      0.00
    6  -13    9      0.48      0.00
    7  -13    9      1.39      0.00
    8  -13    9      0.35      0.00
    9  -13    9     -0.67      0.00
   10  -13    9     -0.11      0.00
  -10  -12    9     -0.93      0.00
   -9  -12    9      0.00      0.00
   -8  -12    9      0.44      0.00
   -7  -12    9      0.27      0.00
   -6  -12    9      0.06      0.00
   -5  -12    9      1.09      0.00
   -4  -12    9      2.26      0.00
   -3  -12    9      2.90      0.00
   -2  -12    9      1.86      0.00
   -1  -12    9     -1.98      0.00
    0  -12    9     -2.88      0.00
    1  -12    9     -1.53      0.00
    2  -12    9     -1.63      0.00
    3  -12    9     -2.05      0.00
    4  -12    9     -1.22      0.00
    5  -12    9     -1.93      0.00
    6  -12    9     -0.39      0.00
    7  -12    9     -0.25      0.00
    8  -12    9     -1.35      0.00
    9  -12    9      1.76      0.00
   10  -12    9      1.77      0.00
  -10  -11    9      0.22      0.00
   -9  -11    9     -0.20      0.00
   -8  -11    9     -0.96      0.00
   -7  -11    9      0.69      0.00
   -6  -11    9      0.36      0.00
   -5  -11    9      0.22      0.00
   -4  -11    9     -1.95      0.00
   -3  -11    9     -2.36      0.00
   -2  -11    9     -3.25      0.00
   -1  -11    9     -1.40      0.00
    0  -11    9      0.31      0.00
    1  -11    9     -0.85      0.00
    2  -11    9      0.86      0.00
    3  -11    9      2.48      0.00
    4  -11    9      0.94      0.00
    5  -11    9     -0.64      0.00
    6  -11    9     -0.19      0.00
    7  -11    9      0.10      0.00
    8  -11    9      1.06      0.00
    9  -11    9      1.27      0.00
   10  -11    9     -0.62      0.00
  -10  -10    9     -0.30      0.00
   -9  -10    9     -0.23      0.00
   -8  -10    9     -0.19      0.00
   -7  -10    9     -1.11      0.00
   -6  -10    9     -0.88      0.00
   -5  -10    9     -0.38      0.00
   -4  -10    9      0.92      0.00
   -3  -10    9      3.86      0.00
   -2  -10    9      3.32      0.00
   -1  -10    9      6.55      0.00
    0  -10    9      5.48      0.00
    1  -10    9      2.51      0.00
    2  -10    9     -0.47      0.00
    3  -10    9     -4.36      0.00
    4  -10    9     -3.89      0.00
    5  -10    9     -1.81      0.00
    6  -10    9     -1.81      0.00
    7  -10    9     -3.43      0.00
    8  -10    9     -1.97      0.00
    9  -10    9     -2.98      0.00
   10  -10    9     -1.26      0.00
  -10   -9    9     -0.49      0.00
   -9   -9    9     -1.30      0.00
   -8   -9    9      0.60      0.00
   -7   -9    9      0.71      0.00
   -6   -9    9      0.91      0.00
   -5   -9    9     -0.12      0.00
   -4   -9    9      1.26      0.00
   -3   -9    9      0.08      0.00
   -2   -9    9     -0.85      0.00
   -1   -9    9     -1.70      0.00
    0   -9    9     -6.30      0.00
    1   -9    9      0.35      0.00
    2   -9    9      3.60      0.00
    3   -9    9      3.95      0.00
    4   -9    9      5.49      0.00
    5   -9    9      2.59      0.00
    6   -9    9      2.44      0.00
    7   -9    9      1.77      0.00
    8   -9    9      1.29      0.00
    9   -9    9     -0.46      0.00
   10   -9    9      1.60      0.00
   11   -9    9     -0.93      0.00
   12   -9    9      0.29      0.00
  -11   -8    9      1.09      0.00
  -10   -8    9      1.73      0.00
   -9   -8    9      0.96      0.00
   -8   -8    9     -0.82      0.00
   -7   -8    9     -1.45      0.00
   -6   -8    9     -1.05      0.00
   -5   -8    9     -2.01      0.00
   -4   -8    9     -2.67      0.00
   -3   -8    9     -6.69      0.00
   -2   -8    9     -2.86      0.00
   -1   -8    9      0.11      0.00
    0   -8    9      3.19      0.00
    1   -8    9      5.35      0.00
    2   -8    9     -1.43      0.00
    3   -8    9      2.40      0.00
    4   -8    9      1.11      0.00
    5   -8    9     -1.35      0.00
    6   -8    9     -0.16      0.00
    7   -8    9      0.17      0.00
    8   -8    9     -0.15      0.00
    9   -8    9      0.95      0.00
   10   -8    9     -0.42      0.00
   11   -8    9     -1.29      0.00
   12   -8    9      0.84      0.00
  -11   -7    9     -0.28      0.00
  -10   -7    9     -0.70      0.00
   -9   -7    9      0.15      0.00
   -8   -7    9      0.28      0.00
   -7   -7    9      0.41      0.00
   -6   -7    9     -0.32      0.00
   -5   -7    9      0.76      0.00
   -4   -7    9      1.86      0.00
   -3   -7    9      2.99      0.00
   -2   -7    9      4.22      0.00
   -1   -7    9     -4.21      0.00
    0   -7    9     -1.85      0.00
    1   -7    9     -3.42      0.00
    2   -7    9     -4.03      0.00
    3   -7    9      1.46      0.00
    4   -7    9     -2.96      0.00
    5   -7    9      3.86      0.00
    6   -7    9      3.45      0.00
    7   -7    9      1.55      0.00
    8   -7    9     -0.32      0.00
    9   -7    9      0.74      0.00
   10   -7    9     -1.47      0.00
   11   -7    9      1.12      0.00
   12   -7    9      0.07      0.00
  -11   -6    9      0.39      0.00
  -10   -6    9      0.63      0.00
   -9   -6    9      0.71      0.00
   -8   -6    9      1.16      0.00
   -7   -6    9      2.32      0.00
   -6   -6    9      1.66      0.00
   -5   -6    9      1.40      0.00
   -4   -6    9     -1.02      0.00
   -3   -6    9     -1.82      0.00
   -2   -6    9     -4.37      0.00
   -1   -6    9     -6.09      0.00
    0   -6    9     -3.52      0.00
    1   -6    9     -9.74      0.00
    2   -6    9      0.99      0.00
    3   -6    9      0.76      0.00
    4   -6    9     -1.21      0.00
    5   -6    9      2.25      0.00
    6   -6    9     -3.06      0.00
    7   -6    9      0.11      0.00
    8   -6    9      2.30      0.00
    9   -6    9      1.14      0.00
   10   -6    9      0.11      0.00
   11   -6    9      1.15      0.00
   12   -6    9     -2.03      0.00
  -11   -5    9     -0.01      0.00
  -10   -5    9     -0.50      0.00
   -9   -5    9     -0.19      0.00
   -8   -5    9     -0.95      0.00
   -7   -5    9     -1.49      0.00
   -6   -5    9     -1.17      0.00
   -5   -5    9      0.46      0.00
   -4   -5    9      1.09      0.00
   -3   -5    9      2.96      0.00
   -2   -5    9      2.84      0.00
   -1   -5    9     10.98      0.00
    0   -5    9     11.97      0.00
    1   -5    9      6.16      0.00
    2   -5    9      2.64      0.00
    3   -5    9    -12.40      0.00
    4   -5    9     -4.50      0.00
    5   -5    9     -6.24      0.00
    6   -5    9     -5.23      0.00
    7   -5    9     -1.05      0.00
    8   -5    9     -1.65      0.00
    9   -5    9     -1.51      0.00
   10   -5    9      0.91      0.00
   11   -5    9     -0.38      0.00
   12   -5    9     -0.65      0.00
  -11   -4    9     -0.69      0.00
  -10   -4    9     -0.55      0.00
   -9   -4    9     -0.02      0.00
   -8   -4    9      1.19      0.00
   -7   -4    9      1.38      0.00
   -6   -4    9      0.90      0.00
   -5   -4    9      1.98      0.00
   -4   -4    9      3.27      0.00
   -3   -4    9      4.97      0.00
   -2   -4    9      2.15      0.00
   -1   -4    9     -6.43      0.00
    0   -4    9    -18.25      0.00
    1   -4    9     -9.76      0.00
    2   -4    9     -6.59      0.00
    3   -4    9     -3.16      0.00
    4   -4    9      3.53      0.00
    5   -4    9     -3.65      0.00
    6   -4    9      3.01      0.00
    7   -4    9      0.56      0.00
    8   -4    9     -1.62      0.00
    9   -4    9      0.02      0.00
   10   -4    9      1.06      0.00
   11   -4    9      0.32      0.00
   12   -4    9      1.41      0.00
  -11   -3    9     -0.42      0.00
  -10   -3    9      0.09      0.00
   -9   -3    9     -1.30      0.00
   -8   -3    9     -1.45      0.00
   -7   -3    9     -1.96      0.00
   -6   -3    9     -1.33      0.00
   -5   -3    9     -2.61      0.00
   -4   -3    9     -5.76      0.00
   -3   -3    9     -5.73      0.00
   -2   -3    9      1.14      0.00
   -1   -3    9     11.52      0.00
    0   -3    9     21.39      0.00
    1   -3    9     23.82      0.00
    2   -3    9     14.69      0.00
    3   -3    9     20.89      0.00
    4   -3    9     10.02      0.00
    5   -3    9      3.36      0.00
    6   -3    9      2.42      0.00
    7   -3    9     -4.15      0.00
    8   -3    9     -0.28      0.00
    9   -3    9      0.20      0.00
   10   -3    9     -1.46      0.00
   11   -3    9     -0.89      0.00
   12   -3    9      0.62      0.00
   13   -3    9      0.14      0.00
  -11   -2    9      0.12      0.00
  -10   -2    9      0.03      0.00
   -9   -2    9      0.34      0.00
   -8   -2    9      0.29      0.00
   -7   -2    9     -1.41      0.00
   -6   -2    9      0.20      0.00
   -5   -2    9     -0.91      0.00
   -4   -2    9      0.65      0.00
   -3   -2    9      1.84      0.00
   -2   -2    9     -4.03      0.00
   -1   -2    9     -6.79      0.00
    0   -2    9     -5.81      0.00
    1   -2    9    -10.99      0.00
    2   -2    9    -11.88      0.00
    3   -2    9    -12.47      0.00
    4   -2    9    -13.78      0.00
    5   -2    9      1.46      0.00
    6   -2    9      1.26      0.00
    7   -2    9      2.11      0.00
    8   -2    9      3.47      0.00
   10   -2    9      0.28      0.00
   11   -2    9      0.22      0.00
   12   -2    9      0.10      0.00
   13   -2    9     -0.67      0.00
  -10   -1    9      0.72      0.00
   -9   -1    9      0.97      0.00
   -8   -1    9      0.95      0.00
   -7   -1    9      1.73      0.00
   -6   -1    9      0.76      0.00
   -5   -1    9     -1.79      0.00
   -4   -1    9     -0.18      0.00
   -3   -1    9     -1.50      0.00
   -2   -1    9     -3.91      0.00
   -1   -1    9     -4.32      0.00
    0   -1    9    -12.36      0.00
    1   -1    9     -7.27      0.00
    2   -1    9      8.54      0.00
    3   -1    9      8.54      0.00
    4   -1    9     10.93      0.00
    5   -1    9      6.47      0.00
    6   -1    9     -1.41      0.00
    7   -1    9      2.93      0.00
    8   -1    9     -0.53      0.00
    9   -1    9     -0.84      0.00
   10   -1    9      0.51      0.00
   11   -1    9     -0.64      0.00
   12   -1    9      0.11      0.00
   13   -1    9     -0.01      0.00
  -10    0    9     -1.15      0.00
   -9    0    9     -0.09      0.00
   -8    0    9     -1.00      0.00
   -7    0    9      0.70      0.00
   -6    0    9     -0.19      0.00
   -5    0    9      1.20      0.00
   -4    0    9      0.38      0.00
   -3    0    9     -5.82      0.00
   -2    0    9     -1.43      0.00
   -1    0    9      3.42      0.00
    0    0    9      4.90      0.00
    1    0    9      7.33      0.00
    2    0    9     -7.20      0.00
    3    0    9    -10.11      0.00
    4    0    9     -2.56      0.00
    5    0    9     -5.89      0.00
    6    0    9     -1.24      0.00
    7    0    9      0.64      0.00
    8    0    9     -1.69      0.00
    9    0    9      3.03      0.00
   10    0    9      1.35      0.00
   11    0    9      0.98      0.00
   12    0    9      0.54      0.00
   13    0    9      0.43      0.00
  -10    1    9     -0.50      0.00
   -9    1    9     -0.42      0.00
   -8    1    9      0.00      0.00
   -7    1    9      0.74      0.00
   -6    1    9      0.85      0.00
   -5    1    9      3.92      0.00
   -4    1    9      4.62      0.00
   -3    1    9      8.35      0.00
   -2    1    9     11.40      0.00
   -1    1    9     -1.31      0.00
    0    1    9     -0.32      0.00
    1    1    9     -0.73      0.00
    2    1    9     -6.26      0.00
    3    1    9     -0.02      0.00
    4    1    9     -7.08      0.00
    5    1    9     -4.02      0.00
    6    1    9      2.71      0.00
    7    1    9     -1.17      0.00
    8    1    9      0.60      0.00
    9    1    9     -0.30      0.00
   10    1    9     -2.73      0.00
   11    1    9     -0.46      0.00
   12    1    9     -1.35      0.00
   13    1    9     -0.53      0.00
  -10    2    9      1.31      0.00
   -9    2    9     -0.28      0.00
   -8    2    9     -0.64      0.00
   -7    2    9     -1.26      0.00
   -6    2    9     -0.72      0.00
   -5    2    9     -1.18      0.00
   -4    2    9     -3.79      0.00
   -3    2    9     -2.35      0.00
   -2    2    9     -3.98      0.00
   -1    2    9     -3.22      0.00
    0    2    9      2.88      0.00
    1    2    9     -5.74      0.00
    2    2    9      5.17      0.00
    3    2    9     10.32      0.00
    4    2    9      2.76      0.00
    5    2    9      3.38      0.00
    6    2    9     -4.00      0.00
    7    2    9     -4.35      0.00
    8    2    9     -0.48      0.00
    9    2    9     -2.17      0.00
   10    2    9     -0.28      0.00
   11    2    9      0.23      0.00
   12    2    9     -0.29      0.00
   13    2    9      0.44      0.00
  -10    3    9      0.53      0.00
   -9    3    9      0.66      0.00
   -8    3    9      0.64      0.00
   -7    3    9     -0.18      0.00
   -6    3    9     -0.19      0.00
   -5    3    9     -0.52      0.00
   -4    3    9      1.72      0.00
   -3    3    9      3.35      0.00
   -2    3    9     -0.54      0.00
   -1    3    9      7.50      0.00
    0    3    9      8.59      0.00
    1    3    9      4.69      0.00
    2    3    9      4.54      0.00
    3    3    9    -11.75      0.00
    4    3    9     -4.89      0.00
    5    3    9     -0.26      0.00
    6    3    9     -2.30      0.00
    7    3    9      2.32      0.00
    8    3    9     -0.08      0.00
    9    3    9      0.72      0.00
   10    3    9      2.25      0.00
   11    3    9      0.80      0.00
   12    3    9      0.39      0.00
   13    3    9     -0.28      0.00
  -10    4    9     -0.95      0.00
   -9    4    9     -0.90      0.00
   -8    4    9     -0.10      0.00
   -7    4    9     -0.33      0.00
   -6    4    9     -2.22      0.00
   -5    4    9     -3.33      0.00
   -4    4    9     -3.64      0.00
   -3    4    9     -4.48      0.00
   -2    4    9     -2.63      0.00
   -1    4    9     -2.74      0.00
    0    4    9    -10.57      0.00
    1    4    9      0.18      0.00
    2    4    9      5.60      0.00
    3    4    9      7.39      0.00
    4    4    9     13.12      0.00
    5    4    9      3.33      0.00
    6    4    9      5.77      0.00
    7    4    9      4.38      0.00
    8    4    9      0.12      0.00
    9    4    9      0.66      0.00
   10    4    9     -2.09      0.00
   11    4    9     -2.07      0.00
   12    4    9     -1.21      0.00
   13    4    9     -0.28      0.00
  -10    5    9      0.72      0.00
   -9    5    9      0.83      0.00
   -8    5    9      0.26      0.00
   -7    5    9      0.35      0.00
   -6    5    9      2.58      0.00
   -5    5    9      3.82      0.00
   -4    5    9      3.10      0.00
   -3    5    9      1.74      0.00
   -2    5    9      3.44      0.00
   -1    5    9      2.33      0.00
    0    5    9      2.89      0.00
    1    5    9      2.07      0.00
    2    5    9     -7.60      0.00
    3    5    9     -0.76      0.00
    4    5    9     -2.51      0.00
    5    5    9     -5.12      0.00
    6    5    9     -1.77      0.00
    7    5    9     -6.12      0.00
    8    5    9     -2.36      0.00
    9    5    9     -1.11      0.00
   10    5    9      0.09      0.00
   11    5    9      1.09      0.00
   12    5    9      0.86      0.00
   13    5    9      0.89      0.00
  -10    6    9      0.21      0.00
   -9    6    9      0.66      0.00
   -8    6    9      1.24      0.00
   -7    6    9      0.05      0.00
   -6    6    9     -0.17      0.00
   -5    6    9     -2.30      0.00
   -4    6    9     -2.91      0.00
   -3    6    9     -2.21      0.00
   -2    6    9     -5.93      0.00
   -1    6    9     -8.45      0.00
    0    6    9     -4.00      0.00
    1    6    9     -4.81      0.00
    2    6    9     -3.98      0.00
    3    6    9     -2.68      0.00
    4    6    9     -6.71      0.00
    5    6    9      3.10      0.00
    6    6    9      3.75      0.00
    7    6    9      3.47      0.00
    8    6    9      5.57      0.00
    9    6    9      2.11      0.00
   10    6    9      2.70      0.00
   11    6    9      1.08      0.00
   12    6    9      0.62      0.00
   13    6    9     -0.63      0.00
  -10    7    9     -0.36      0.00
   -9    7    9     -1.23      0.00
   -8    7    9     -0.55      0.00
   -7    7    9      0.32      0.00
   -6    7    9      0.10      0.00
   -5    7    9     -0.03      0.00
   -4    7    9      1.99      0.00
   -3    7    9      2.31      0.00
   -2    7    9      3.65      0.00
   -1    7    9      6.83      0.00
    0    7    9      2.30      0.00
    1    7    9     -0.79      0.00
    2    7    9      4.31      0.00
    3    7    9      2.13      0.00
    4    7    9      1.52      0.00
    5    7    9      0.37      0.00
    6    7    9     -4.42      0.00
    7    7    9     -0.49      0.00
    8    7    9     -1.78      0.00
    9    7    9     -1.95      0.00
   10    7    9     -1.58      0.00
   11    7    9     -1.65      0.00
   12    7    9      0.82      0.00
  -10    8    9     -0.73      0.00
   -9    8    9     -0.48      0.00
   -8    8    9     -0.14      0.00
   -7    8    9      0.74      0.00
   -6    8    9      1.10      0.00
   -5    8    9      2.22      0.00
   -4    8    9      2.23      0.00
   -3    8    9     -0.32      0.00
   -2    8    9      1.71      0.00
   -1    8    9      1.61      0.00
    0    8    9      1.59      0.00
    1    8    9      4.70      0.00
    2    8    9      0.44      0.00
    3    8    9     -2.35      0.00
    4    8    9      2.17      0.00
    5    8    9     -0.63      0.00
    6    8    9     -0.27      0.00
    7    8    9     -0.09      0.00
    8    8    9     -1.74      0.00
    9    8    9      0.96      0.00
   10    8    9      1.00      0.00
   11    8    9      1.29      0.00
   12    8    9      0.17      0.00
   -9    9    9      1.09      0.00
   -8    9    9     -0.02      0.00
   -7    9    9     -1.06      0.00
   -6    9    9     -1.81      0.00
   -5    9    9     -1.08      0.00
   -4    9    9     -1.89      0.00
   -3    9    9     -1.77      0.00
   -2    9    9     -0.55      0.00
   -1    9    9     -4.83      0.00
    0    9    9     -2.44      0.00
    1    9    9     -0.93      0.00
    2    9    9     -2.84      0.00
    3    9    9     -0.87      0.00
    4    9    9     -3.15      0.00
    5    9    9     -3.62      0.00
    6    9    9      1.01      0.00
    7    9    9     -0.46      0.00
    8    9    9      0.06      0.00
    9    9    9     -0.50      0.00
   10    9    9     -1.78      0.00
   11    9    9     -0.35      0.00
   12    9    9     -0.84      0.00
   -9   10    9     -0.46      0.00
   -8   10    9     -1.33      0.00
   -7   10    9     -0.52      0.00
   -6   10    9      0.50      0.00
   -5   10    9     -0.23      0.00
   -4   10    9     -1.21      0.00
   -3   10    9      1.75      0.00
   -2   10    9      0.97      0.00
   -1   10    9      2.69      0.00
    0   10    9      5.05      0.00
    1   10    9      0.63      0.00
    2   10    9      3.19      0.00
    3   10    9      5.85      0.00
    4   10    9      3.46      0.00
    5   10    9      3.51      0.00
    6   10    9      0.36      0.00
    7   10    9     -0.92      0.00
    8   10    9      0.68      0.00
    9   10    9     -0.41      0.00
   10   10    9     -0.61      0.00
   11   10    9     -1.25      0.00
   12   10    9     -1.19      0.00
   -9   11    9     -0.39      0.00
   -8   11    9     -0.39      0.00
   -7   11    9      0.55      0.00
   -6   11    9      0.51      0.00
   -5   11    9      0.87      0.00
   -4   11    9      1.24      0.00
   -3   11    9      0.62      0.00
   -2   11    9     -3.44      0.00
   -1   11    9     -2.22      0.00
    0   11    9     -3.73      0.00
    1   11    9     -2.84      0.00
    2   11    9     -0.22      0.00
    3   11    9     -3.68      0.00
    4   11    9     -2.20      0.00
    5   11    9      0.47      0.00
    6   11    9     -0.70      0.00
    7   11    9      1.02      0.00
    8   11    9      0.41      0.00
    9   11    9      0.36      0.00
   10   11    9      2.42      0.00
   11   11    9      1.80      0.00
   12   11    9      0.51      0.00
   -9   12    9      1.08      0.00
   -8   12    9      0.55      0.00
   -7   12    9     -0.07      0.00
   -6   12    9     -1.69      0.00
   -5   12    9     -1.51      0.00
   -4   12    9     -0.57      0.00
   -3   12    9     -1.23      0.00
   -2   12    9      0.54      0.00
   -1   12    9      1.93      0.00
    0   12    9     -0.28      0.00
    1   12    9      1.81      0.00
    2   12    9      0.56      0.00
    3   12    9      0.41      0.00
    4   12    9      1.65      0.00
    5   12    9     -0.75      0.00
    6   12    9     -0.20      0.00
    7   12    9      0.58      0.00
    8   12    9     -1.05      0.00
    9   12    9     -0.62      0.00
   10   12    9     -1.40      0.00
   11   12    9     -1.46      0.00
   12   12    9      0.20      0.00
   -9   13    9     -0.10      0.00
   -8   13    9      0.43      0.00
   -7   13    9     -0.10      0.00
   -6   13    9      0.17      0.00
   -5   13    9      0.81      0.00
   -4   13    9      0.29      0.00
   -3   13    9      0.48      0.00
   -2   13    9      1.85      0.00
   -1   13    9     -0.43      0.00
    0   13    9     -0.88      0.00
    1   13    9     -1.21      0.00
    2   13    9     -4.13      0.00
    3   13    9     -1.21      0.00
    4   13    9     -0.50      0.00
    5   13    9     -0.63      0.00
    6   13    9      0.93      0.00
    7   13    9      0.15      0.00
    8   13    9      0.35      0.00
    9   13    9      1.62      0.00
   10   13    9      0.41      0.00
   11   13    9      0.30      0.00
   12   13    9      0.11      0.00
   -9   14    9     -0.18      0.00
   -8   14    9      0.72      0.00
   -7   14    9      0.48      0.00
   -6   14    9      0.51      0.00
   -5   14    9     -0.30      0.00
   -4   14    9     -0.49      0.00
   -3   14    9      0.23      0.00
   -2   14    9     -0.49      0.00
   -1   14    9     -0.15      0.00
    0   14    9      1.39      0.00
    1   14    9      1.19      0.00
    2   14    9      3.08      0.00
    3   14    9      2.89      0.00
    4   14    9     -0.37      0.00
    6   14    9      0.36      0.00
    7   14    9     -0.71      0.00
    8   14    9     -0.29      0.00
    9   14    9     -0.56      0.00
   10   14    9     -0.31      0.00
   11   14    9      0.49      0.00
   12   14    9      0.01      0.00
   -8   15    9      0.52      0.00
   -7   15    9      0.48      0.00
   -6   15    9      1.11      0.00
   -5   15    9      0.00      0.00
   -4   15    9     -0.16      0.00
   -3   15    9     -0.64      0.00
   -2   15    9     -0.65      0.00
   -1   15    9      0.45      0.00
    0   15    9      0.82      0.00
    1   15    9     -0.69      0.00
    2   15    9     -0.82      0.00
    3   15    9     -1.68      0.00
    4   15    9     -0.23      0.00
    5   15    9      1.01      0.00
    6   15    9     -0.80      0.00
    7   15    9     -0.34      0.00
    8   15    9      0.57      0.00
    9   15    9      0.24      0.00
   10   15    9      0.75      0.00
   -6   16    9     -0.04      0.00
   -5   16    9      0.28      0.00
   -4   16    9      1.12      0.00
   -3   16    9     -0.22      0.00
   -2   16    9      0.83      0.00
   -1   16    9     -0.28      0.00
    0   16    9     -0.13      0.00
    1   16    9      0.35      0.00
    2   16    9      0.13      0.00
    3   16    9     -1.46      0.00
    4   16    9     -1.14      0.00
    5   16    9     -1.07      0.00
    6   16    9     -0.02      0.00
    7   16    9      0.88      0.00
    8   16    9     -0.12      0.00
    9   16    9     -1.14      0.00
   10   16    9     -1.14      0.00
   11   16    9     -0.87      0.00
   -6   17    9     -0.65      0.00
   -5   17    9     -0.35      0.00
   -4   17    9      0.06      0.00
   -3   17    9      0.03      0.00
   -2   17    9     -0.14      0.00
   -1   17    9     -0.88      0.00
    0   17    9     -0.43      0.00
    1   17    9     -0.90      0.00
    2   17    9      0.82      0.00
    3   17    9      1.81      0.00
    4   17    9      1.13      0.00
    5   17    9     -0.87      0.00
    6   17    9     -0.14      0.00
    7   17    9     -0.22      0.00
    9   17    9      0.63      0.00
   10   17    9      0.17      0.00
   11   17    9      0.58      0.00
   -6   18    9      0.60      0.00
   -5   18    9      0.89      0.00
   -4   18    9     -0.46      0.00
   -3   18    9      0.22      0.00
   -2   18    9     -0.06      0.00
   -1   18    9      1.16      0.00
    0   18    9      0.63      0.00
    1   18    9      0.82      0.00
    2   18    9      0.48      0.00
    3   18    9     -0.81      0.00
    4   18    9      1.11      0.00
    5   18    9      1.33      0.00
    6   18    9      0.30      0.00
   -6   19    9     -1.35      0.00
   -5   19    9      0.03      0.00
   -4   19    9      0.03      0.00
   -3   19    9      0.44      0.00
   -2   19    9     -0.76      0.00
   -1   19    9     -0.71      0.00
    0   19    9     -1.95      0.00
    1   19    9     -0.42      0.00
    2   19    9     -0.46      0.00
    3   19    9     -0.98      0.00
    4   19    9     -1.27      0.00
    5   19    9     -1.39      0.00
    6   19    9     -0.65      0.00
   -6   20    9      0.48      0.00
   -5   20    9     -0.70      0.00
   -4   20    9     -1.19      0.00
   -3   20    9     -0.02      0.00
   -2   20    9      0.50      0.00
   -1   20    9      0.49      0.00
    0   20    9      1.32      0.00
    1   20    9      1.33      0.00
    2   20    9     -0.40      0.00
    3   20    9      2.03      0.00
    4   20    9      2.25      0.00
    5   20    9      1.29      0.00
    6   20    9      0.90      0.00
   -5   21    9      0.20      0.00
   -4   21    9      1.18      0.00
   -3   21    9      0.81      0.00
   -2   21    9      0.06      0.00
   -1   21    9     -0.39      0.00
    0   21    9     -0.68      0.00
    1   21    9     -1.08      0.00
    2   21    9     -0.97      0.00
    3   21    9     -1.03      0.00
    4   21    9     -2.19      0.00
    5   21    9     -0.86      0.00
    6   21    9      0.22      0.00
   -4   22    9      0.23      0.00
   -3   22    9     -0.80      0.00
   -2   22    9     -0.02      0.00
   -1   22    9      1.20      0.00
    0   22    9      0.85      0.00
    1   22    9      0.14      0.00
    2   22    9      0.95      0.00
    3   22    9      1.32      0.00
    4   22    9      0.46      0.00
    5   22    9      0.38      0.00
    6   22    9     -0.20      0.00
   -3   23    9     -0.88      0.00
   -2   23    9      0.22      0.00
   -1   23    9     -0.73      0.00
    0   23    9     -0.47      0.00
    1   23    9      0.28      0.00
    2   23    9     -0.50      0.00
    3   23    9     -1.17      0.00
    4   23    9     -0.22      0.00
    5   23    9      0.47      0.00
    6   23    9     -0.61      0.00
   -2   24    9     -0.46      0.00
   -1   24    9     -1.10      0.00
    0   24    9     -0.25      0.00
    1   24    9     -0.46      0.00
    2   24    9     -0.13      0.00
    3   24    9     -0.28      0.00
    4   24    9     -0.94      0.00
    5   24    9     -0.58      0.00
    1   25    9      0.12      0.00
    2   25    9      0.46      0.00
    3   25    9      0.80      0.00
   -1  -23   10      0.91      0.00
    0  -23   10      0.15      0.00
    1  -23   10     -0.85      0.00
    2  -23   10      0.22      0.00
   -3  -22   10     -0.69      0.00
   -2  -22   10     -0.63      0.00
   -1  -22   10     -0.02      0.00
    0  -22   10      0.61      0.00
    1  -22   10      0.17      0.00
    2  -22   10      0.09      0.00
    3  -22   10     -1.79      0.00
    4  -22   10     -0.29      0.00
   -4  -21   10     -0.15      0.00
   -3  -21   10      0.06      0.00
   -2  -21   10     -0.50      0.00
   -1  -21   10     -0.95      0.00
    0  -21   10     -0.62      0.00
    1  -21   10      0.77      0.00
    2  -21   10      2.24      0.00
    3  -21   10      2.01      0.00
    4  -21   10      0.87      0.00
    5  -21   10      0.49      0.00
    6  -21   10      0.76      0.00
   -5  -20   10     -0.09      0.00
   -4  -20   10     -0.11      0.00
   -3  -20   10      0.08      0.00
   -2  -20   10      1.07      0.00
   -1  -20   10      0.48      0.00
    0  -20   10     -1.73      0.00
    1  -20   10     -1.28      0.00
    2  -20   10     -3.02      0.00
    3  -20   10     -1.71      0.00
    4  -20   10     -0.58      0.00
    5  -20   10     -0.25      0.00
    6  -20   10     -0.99      0.00
    7  -20   10      0.65      0.00
   -6  -19   10     -1.40      0.00
   -5  -19   10     -1.06      0.00
   -4  -19   10      0.32      0.00
   -3  -19   10     -0.41      0.00
   -2  -19   10     -1.07      0.00
   -1  -19   10     -0.13      0.00
    0  -19   10      1.20      0.00
    1  -19   10      1.92      0.00
    2  -19   10      0.34      0.00
    3  -19   10      0.56      0.00
    4  -19   10      0.35      0.00
    5  -19   10      0.77      0.00
    6  -19   10      0.13      0.00
    7  -19   10      0.08      0.00
   -7  -18   10      0.43      0.00
   -6  -18   10      0.35      0.00
   -5  -18   10      1.19      0.00
   -4  -18   10     -0.30      0.00
   -3  -18   10      0.48      0.00
   -2  -18   10      0.61      0.00
   -1  -18   10     -0.94      0.00
    0  -18   10      0.32      0.00
    1  -18   10     -0.37      0.00
    2  -18   10      0.66      0.00
    3  -18   10      1.23      0.00
    4  -18   10     -0.71      0.00
    5  -18   10     -1.40      0.00
    6  -18   10     -0.38      0.00
    7  -18   10      0.13      0.00
    8  -18   10     -0.77      0.00
   -7  -17   10      0.41      0.00
   -6  -17   10      0.20      0.00
   -5  -17   10      0.46      0.00
   -4  -17   10      0.64      0.00
   -3  -17   10      0.61      0.00
   -2  -17   10      1.16      0.00
   -1  -17   10      1.67      0.00
    0  -17   10      0.70      0.00
    1  -17   10     -1.25      0.00
    2  -17   10     -0.19      0.00
    3  -17   10     -0.20      0.00
    4  -17   10      0.54      0.00
    5  -17   10      0.64      0.00
    6  -17   10     -0.40      0.00
    7  -17   10     -0.78      0.00
    8  -17   10     -0.45      0.00
    9  -17   10     -1.12      0.00
   -8  -16   10      0.75      0.00
   -7  -16   10     -0.22      0.00
   -6  -16   10     -0.39      0.00
   -5  -16   10     -1.56      0.00
   -4  -16   10     -0.07      0.00
   -3  -16   10      0.22      0.00
   -2  -16   10     -1.05      0.00
   -1  -16   10     -0.76      0.00
    0  -16   10     -0.80      0.00
    1  -16   10      0.37      0.00
    2  -16   10      0.23      0.00
    3  -16   10     -0.95      0.00
    4  -16   10      0.25      0.00
    5  -16   10      0.26      0.00
    6  -16   10      0.17      0.00
    7  -16   10     -1.18      0.00
    8  -16   10     -1.17      0.00
    9  -16   10      0.28      0.00
   -8  -15   10     -0.47      0.00
   -7  -15   10      0.60      0.00
   -6  -15   10      0.52      0.00
   -5  -15   10      0.55      0.00
   -4  -15   10     -0.67      0.00
   -3  -15   10     -1.34      0.00
   -2  -15   10     -0.71      0.00
   -1  -15   10     -0.46      0.00
    0  -15   10     -0.76      0.00
    1  -15   10      0.17      0.00
    2  -15   10     -0.48      0.00
    3  -15   10     -0.75      0.00
    4  -15   10     -0.64      0.00
    5  -15   10     -1.06      0.00
    6  -15   10      1.75      0.00
    7  -15   10      2.89      0.00
    8  -15   10      2.39      0.00
    9  -15   10      1.09      0.00
   10  -15   10     -0.53      0.00
   -9  -14   10      0.53      0.00
   -8  -14   10     -0.31      0.00
   -7  -14   10     -0.47      0.00
   -6  -14   10     -0.57      0.00
   -5  -14   10      0.00      0.00
   -4  -14   10     -0.30      0.00
   -3  -14   10      0.10      0.00
   -2  -14   10      0.61      0.00
   -1  -14   10      1.82      0.00
    0  -14   10      2.04      0.00
    1  -14   10      0.24      0.00
    2  -14   10      0.38      0.00
    3  -14   10      1.97      0.00
    4  -14   10      1.25      0.00
    5  -14   10      1.17      0.00
    6  -14   10      0.07      0.00
    7  -14   10     -1.05      0.00
    8  -14   10      0.28      0.00
    9  -14   10      0.26      0.00
   10  -14   10     -0.12      0.00
   -9  -13   10      0.17      0.00
   -8  -13   10      1.19      0.00
   -7  -13   10     -0.11      0.00
   -6  -13   10      0.06      0.00
   -5  -13   10      0.78      0.00
   -4  -13   10      1.49      0.00
   -3  -13   10      1.03      0.00
   -2  -13   10     -0.28      0.00
   -1  -13   10     -2.86      0.00
    0  -13   10     -3.43      0.00
    1  -13   10     -1.97      0.00
    2  -13   10     -1.70      0.00
    3  -13   10     -2.35      0.00
    4  -13   10     -2.58      0.00
    5  -13   10     -0.43      0.00
    6  -13   10     -0.99      0.00
    7  -13   10     -1.35      0.00
    8  -13   10     -0.20      0.00
    9  -13   10      0.02      0.00
   10  -13   10      1.67      0.00
   11  -13   10      0.83      0.00
   -9  -12   10     -0.86      0.00
   -8  -12   10     -0.82      0.00
   -7  -12   10      0.04      0.00
   -6  -12   10      0.58      0.00
   -5  -12   10     -0.55      0.00
   -4  -12   10     -0.76      0.00
   -3  -12   10     -1.90      0.00
   -2  -12   10      0.36      0.00
   -1  -12   10      1.76      0.00
    0  -12   10      2.55      0.00
    1  -12   10      3.14      0.00
    2  -12   10      2.88      0.00
    3  -12   10      2.52      0.00
    4  -12   10      1.54      0.00
    5  -12   10     -0.72      0.00
    6  -12   10     -1.44      0.00
    7  -12   10      0.59      0.00
    8  -12   10      0.23      0.00
    9  -12   10     -1.06      0.00
   10  -12   10     -0.64      0.00
  -10  -11   10     -0.07      0.00
   -9  -11   10      0.72      0.00
   -8  -11   10     -0.68      0.00
   -7  -11   10     -1.14      0.00
   -6  -11   10     -0.97      0.00
   -5  -11   10     -0.23      0.00
   -4  -11   10      0.22      0.00
   -3  -11   10      2.03      0.00
   -2  -11   10      2.74      0.00
   -1  -11   10      1.13      0.00
    0  -11   10      2.11      0.00
    1  -11   10     -1.17      0.00
    2  -11   10     -3.26      0.00
    3  -11   10     -2.91      0.00
    4  -11   10     -1.83      0.00
    5  -11   10     -0.38      0.00
    6  -11   10     -0.24      0.00
    7  -11   10     -0.88      0.00
    8  -11   10     -2.69      0.00
    9  -11   10     -0.65      0.00
   10  -11   10     -1.02      0.00
  -10  -10   10     -0.42      0.00
   -9  -10   10     -0.07      0.00
   -8  -10   10      0.65      0.00
   -7  -10   10      1.90      0.00
   -6  -10   10      0.71      0.00
   -5  -10   10      0.78      0.00
   -4  -10   10     -0.56      0.00
   -3  -10   10     -0.13      0.00
   -2  -10   10     -2.36      0.00
   -1  -10   10     -3.25      0.00
    0  -10   10     -1.47      0.00
    1  -10   10      0.29      0.00
    2  -10   10      5.84      0.00
    3  -10   10      5.30      0.00
    4  -10   10      3.58      0.00
    5  -10   10      3.83      0.00
    6  -10   10      2.27      0.00
    7  -10   10      1.77      0.00
    8  -10   10      0.76      0.00
    9  -10   10      0.59      0.00
   10  -10   10     -1.19      0.00
  -10   -9   10      1.47      0.00
   -9   -9   10      0.53      0.00
   -8   -9   10     -0.91      0.00
   -7   -9   10     -1.51      0.00
   -6   -9   10     -1.22      0.00
   -5   -9   10     -1.52      0.00
   -4   -9   10     -2.32      0.00
   -3   -9   10     -2.02      0.00
   -2   -9   10     -2.88      0.00
   -1   -9   10      2.76      0.00
    0   -9   10      1.37      0.00
    1   -9   10     -1.23      0.00
    2   -9   10     -1.17      0.00
    3   -9   10     -3.57      0.00
    4   -9   10     -0.47      0.00
    5   -9   10     -1.57      0.00
    6   -9   10     -1.31      0.00
    7   -9   10      0.37      0.00
    8   -9   10      2.30      0.00
    9   -9   10      0.73      0.00
   10   -9   10      1.60      0.00
   11   -9   10      1.07      0.00
  -10   -8   10     -0.31      0.00
   -9   -8   10      0.23      0.00
   -8   -8   10      1.65      0.00
   -7   -8   10      0.56      0.00
   -6   -8   10      1.19      0.00
   -5   -8   10      1.46      0.00
   -4   -8   10      2.72      0.00
   -3   -8   10      2.73      0.00
   -2   -8   10      0.35      0.00
   -1   -8   10     -1.58      0.00
    0   -8   10     -6.59      0.00
    1   -8   10     -1.36      0.00
    2   -8   10     -3.11      0.00
    3   -8   10     -3.38      0.00
    4   -8   10      1.53      0.00
    5   -8   10     -0.63      0.00
    6   -8   10      2.61      0.00
    7   -8   10      0.51      0.00
    8   -8   10     -0.88      0.00
    9   -8   10     -1.48      0.00
   10   -8   10      0.74      0.00
   11   -8   10     -1.54      0.00
   12   -8   10      0.45      0.00
  -10   -7   10      0.22      0.00
   -9   -7   10     -0.39      0.00
   -8   -7   10      0.16      0.00
   -7   -7   10      0.79      0.00
   -6   -7   10      0.87      0.00
   -5   -7   10     -0.50      0.00
   -4   -7   10     -0.48      0.00
   -3   -7   10     -2.55      0.00
   -2   -7   10     -0.49      0.00
   -1   -7   10     -0.74      0.00
    0   -7   10     -1.25      0.00
    1   -7   10      2.56      0.00
    2   -7   10     -1.40      0.00
    3   -7   10      3.78      0.00
    4   -7   10     -1.09      0.00
    5   -7   10     -3.40      0.00
    6   -7   10     -0.90      0.00
    7   -7   10     -1.50      0.00
    8   -7   10      0.28      0.00
    9   -7   10      2.15      0.00
   10   -7   10      0.50      0.00
   11   -7   10     -0.56      0.00
   12   -7   10      0.65      0.00
  -11   -6   10     -0.60      0.00
  -10   -6   10     -0.59      0.00
   -9   -6   10     -0.19      0.00
   -8   -6   10     -1.07      0.00
   -7   -6   10     -0.77      0.00
   -6   -6   10      0.24      0.00
   -5   -6   10      0.95      0.00
   -4   -6   10      2.78      0.00
   -3   -6   10      3.62      0.00
   -2   -6   10      6.93      0.00
   -1   -6   10      6.39      0.00
    0   -6   10      9.54      0.00
    1   -6   10      1.88      0.00
    2   -6   10     -5.60      0.00
    3   -6   10     -3.22      0.00
    4   -6   10     -8.98      0.00
    5   -6   10     -1.41      0.00
    6   -6   10     -2.94      0.00
    7   -6   10     -2.68      0.00
    8   -6   10     -1.00      0.00
    9   -6   10     -0.11      0.00
   10   -6   10     -1.41      0.00
   11   -6   10      1.23      0.00
   12   -6   10      0.45      0.00
  -11   -5   10      0.07      0.00
  -10   -5   10     -0.17      0.00
   -9   -5   10      0.21      0.00
   -8   -5   10      0.50      0.00
   -7   -5   10      0.62      0.00
   -6   -5   10     -0.91      0.00
   -5   -5   10     -1.33      0.00
   -4   -5   10     -0.96      0.00
   -3   -5   10     -1.33      0.00
   -2   -5   10     -4.45      0.00
   -1   -5   10    -10.46      0.00
    0   -5   10     -9.48      0.00
    1   -5   10     -7.39      0.00
    2   -5   10      6.21      0.00
    3   -5   10      5.16      0.00
    4   -5   10      4.60      0.00
    5   -5   10      7.65      0.00
    6   -5   10      0.84      0.00
    7   -5   10      2.33      0.00
    8   -5   10      0.26      0.00
    9   -5   10     -1.75      0.00
   10   -5   10      0.04      0.00
   11   -5   10      1.63      0.00
   12   -5   10     -0.64      0.00
  -10   -4   10     -0.40      0.00
   -9   -4   10     -1.00      0.00
   -8   -4   10     -1.65      0.00
   -7   -4   10     -0.86      0.00
   -6   -4   10     -1.49      0.00
   -5   -4   10     -0.88      0.00
   -4   -4   10     -1.90      0.00
   -3   -4   10     -1.56      0.00
   -2   -4   10      4.41      0.00
   -1   -4   10     14.73      0.00
    0   -4   10     17.84      0.00
    1   -4   10     14.57      0.00
    2   -4   10     12.86      0.00
    3   -4   10      3.32      0.00
    4   -4   10      6.86      0.00
    5   -4   10     -1.59      0.00
    6   -4   10     -2.82      0.00
    7   -4   10      0.15      0.00
    8   -4   10     -1.46      0.00
    9   -4   10     -0.23      0.00
   10   -4   10     -0.13      0.00
   11   -4   10     -1.32      0.00
   12   -4   10     -0.43      0.00
  -10   -3   10      0.26      0.00
   -9   -3   10      0.91      0.00
   -8   -3   10      1.08      0.00
   -7   -3   10      0.27      0.00
   -6   -3   10     -0.22      0.00
   -5   -3   10      0.94      0.00
   -4   -3   10     -1.17      0.00
   -3   -3   10     -3.01      0.00
   -2   -3   10     -6.96      0.00
   -1   -3   10    -13.41      0.00
    0   -3   10    -14.97      0.00
    1   -3   10    -11.69      0.00
    2   -3   10    -15.32      0.00
    3   -3   10    -10.77      0.00
    4   -3   10     -1.75      0.00
    5   -3   10     -0.55      0.00
    6   -3   10      7.87      0.00
    7   -3   10      4.12      0.00
    8   -3   10      1.85      0.00
    9   -3   10      2.57      0.00
   10   -3   10      0.42      0.00
   11   -3   10     -0.16      0.00
   12   -3   10     -0.08      0.00
  -10   -2   10      1.07      0.00
   -9   -2   10     -0.15      0.00
   -8   -2   10      0.89      0.00
   -7   -2   10      0.36      0.00
   -6   -2   10      0.64      0.00
   -5   -2   10      0.28      0.00
   -4   -2   10     -0.11      0.00
   -3   -2   10      3.10      0.00
   -2   -2   10      2.05      0.00
   -1   -2   10     -2.07      0.00
    0   -2   10     -1.90      0.00
    1   -2   10     -0.13      0.00
    2   -2   10      5.29      0.00
    3   -2   10     11.22      0.00
    4   -2   10      0.17      0.00
    5   -2   10     -1.75      0.00
    6   -2   10     -1.97      0.00
    7   -2   10     -5.35      0.00
    8   -2   10     -0.32      0.00
    9   -2   10     -1.53      0.00
   10   -2   10     -1.43      0.00
   11   -2   10      0.15      0.00
   12   -2   10      0.09      0.00
   13   -2   10     -0.26      0.00
  -10   -1   10     -0.79      0.00
   -9   -1   10     -0.64      0.00
   -8   -1   10     -0.26      0.00
   -7   -1   10     -0.31      0.00
   -6   -1   10      2.32      0.00
   -5   -1   10      0.89      0.00
   -4   -1   10      0.50      0.00
   -3   -1   10     -0.12      0.00
   -2   -1   10     -2.28      0.00
   -1   -1   10      6.13      0.00
    0   -1   10      7.00      0.00
    1   -1   10     -2.30      0.00
    2   -1   10     -5.17      0.00
    3   -1   10     -9.64      0.00
    4   -1   10     -6.83      0.00
    5   -1   10      0.84      0.00
    6   -1   10     -2.51      0.00
    7   -1   10      0.53      0.00
    8   -1   10      2.61      0.00
    9   -1   10      0.48      0.00
   10   -1   10      2.94      0.00
   11   -1   10      0.89      0.00
   12   -1   10      0.80      0.00
   13   -1   10      0.21      0.00
  -10    0   10     -0.60      0.00
   -9    0   10     -0.35      0.00
   -8    0   10     -0.58      0.00
   -7    0   10     -0.48      0.00
   -6    0   10     -0.36      0.00
   -5    0   10     -0.10      0.00
   -4    0   10      3.76      0.00
   -3    0   10      4.38      0.00
   -2    0   10      2.93      0.00
   -1    0   10      2.62      0.00
    0    0   10     -4.31      0.00
    1    0   10      2.53      0.00
    2    0   10      4.38      0.00
    3    0   10     -3.26      0.00
    4    0   10      1.78      0.00
    5    0   10     -0.81      0.00
    6    0   10     -1.38      0.00
    7    0   10      1.99      0.00
    8    0   10     -2.79      0.00
    9    0   10     -2.26      0.00
   10    0   10     -1.62      0.00
   11    0   10     -2.83      0.00
   12    0   10     -1.32      0.00
   13    0   10     -1.79      0.00
  -10    1   10      1.11      0.00
   -9    1   10      1.53      0.00
   -8    1   10      0.03      0.00
   -7    1   10      0.19      0.00
   -6    1   10     -1.42      0.00
   -5    1   10     -0.59      0.00
   -4    1   10     -0.76      0.00
   -3    1   10     -2.91      0.00
   -2    1   10      2.29      0.00
   -1    1   10      1.79      0.00
    0    1   10     -0.37      0.00
    1    1   10      5.83      0.00
    2    1   10      2.20      0.00
    3    1   10      9.16      0.00
    4    1   10      6.76      0.00
    5    1   10     -3.41      0.00
    6    1   10     -0.94      0.00
    7    1   10     -2.64      0.00
    8    1   10     -2.62      0.00
    9    1   10      1.36      0.00
   10    1   10     -0.37      0.00
   11    1   10      0.90      0.00
   12    1   10      1.49      0.00
   13    1   10      0.98      0.00
  -10    2   10     -0.10      0.00
   -9    2   10      0.68      0.00
   -8    2   10      0.28      0.00
   -7    2   10      0.02      0.00
   -6    2   10     -0.31      0.00
   -5    2   10     -0.40      0.00
   -4    2   10     -2.15      0.00
   -3    2   10     -2.23      0.00
   -2    2   10     -1.58      0.00
   -1    2   10     -4.54      0.00
    0    2   10      3.68      0.00
    1    2   10     -0.10      0.00
    2    2   10     -9.03      0.00
    3    2   10     -3.59      0.00
    4    2   10     -6.66      0.00
    5    2   10      2.33      0.00
    6    2   10      4.43      0.00
    7    2   10      0.28      0.00
    8    2   10      3.43      0.00
    9    2   10      1.75      0.00
   10    2   10      0.81      0.00
   11    2   10      1.21      0.00
   12    2   10     -0.72      0.00
   13    2   10     -0.68      0.00
  -10    3   10     -0.81      0.00
   -9    3   10     -1.43      0.00
   -8    3   10     -0.56      0.00
   -7    3   10     -0.18      0.00
   -6    3   10     -0.91      0.00
   -5    3   10     -2.20      0.00
   -4    3   10     -2.41      0.00
   -3    3   10      0.22      0.00
   -2    3   10     -0.47      0.00
   -1    3   10     -1.35      0.00
    0    3   10      1.06      0.00
    1    3   10     -0.73      0.00
    2    3   10     11.41      0.00
    3    3   10     10.80      0.00
    4    3   10      4.56      0.00
    5    3   10      7.55      0.00
    6    3   10      1.06      0.00
    7    3   10      2.25      0.00
    8    3   10      1.07      0.00
    9    3   10     -2.86      0.00
   10    3   10     -2.03      0.00
   11    3   10     -1.61      0.00
   12    3   10     -1.02      0.00
   13    3   10     -0.05      0.00
  -10    4   10      1.01      0.00
   -9    4   10      0.87      0.00
   -8    4   10      0.54      0.00
   -7    4   10      1.66      0.00
   -6    4   10      2.55      0.00
   -5    4   10      3.89      0.00
   -4    4   10      4.37      0.00
   -3    4   10      1.96      0.00
   -2    4   10     -0.41      0.00
   -1    4   10      1.89      0.00
    0    4   10     -3.39      0.00
    1    4   10     -8.14      0.00
    2    4   10     -6.49      0.00
    3    4   10    -11.73      0.00
    4    4   10     -3.63      0.00
    5    4   10     -5.44      0.00
    6    4   10     -6.68      0.00
    7    4   10     -1.14      0.00
    8    4   10     -2.94      0.00
    9    4   10      1.24      0.00
   10    4   10      2.67      0.00
   11    4   10      2.52      0.00
   12    4   10      1.66      0.00
  -10    5   10     -0.48      0.00
   -9    5   10      0.14      0.00
   -8    5   10      0.68      0.00
   -7    5   10     -0.14      0.00
   -6    5   10     -1.70      0.00
   -5    5   10     -1.85      0.00
   -4    5   10     -2.99      0.00
   -3    5   10     -3.62      0.00
   -2    5   10     -2.84      0.00
   -1    5   10     -3.55      0.00
    0    5   10     -2.04      0.00
    1    5   10      4.28      0.00
    2    5   10     -0.11      0.00
    3    5   10     -2.30      0.00
    4    5   10      2.41      0.00
    5    5   10      0.02      0.00
    6    5   10      5.87      0.00
    7    5   10      3.82      0.00
    8    5   10      2.14      0.00
    9    5   10      2.89      0.00
   10    5   10      0.01      0.00
   11    5   10      0.06      0.00
   12    5   10     -0.73      0.00
  -10    6   10     -0.93      0.00
   -9    6   10     -1.44      0.00
   -8    6   10     -1.39      0.00
   -7    6   10     -1.17      0.00
   -6    6   10      0.51      0.00
   -5    6   10      1.31      0.00
   -4    6   10      1.70      0.00
   -3    6   10      4.27      0.00
   -2    6   10      5.72      0.00
   -1    6   10      4.12      0.00
    0    6   10      3.16      0.00
    1    6   10      0.66      0.00
    2    6   10     -0.09      0.00
    3    6   10      4.59      0.00
    4    6   10     -1.64      0.00
    5    6   10     -4.00      0.00
    6    6   10     -2.10      0.00
    7    6   10     -4.88      0.00
    8    6   10     -1.42      0.00
    9    6   10     -2.66      0.00
   10    6   10     -2.10      0.00
   11    6   10     -1.14      0.00
   12    6   10      0.21      0.00
   -9    7   10      0.14      0.00
   -8    7   10      0.50      0.00
   -7    7   10      0.46      0.00
   -6    7   10      1.65      0.00
   -5    7   10      0.19      0.00
   -4    7   10      0.09      0.00
   -3    7   10      0.55      0.00
   -2    7   10     -2.34      0.00
   -1    7   10      0.71      0.00
    0    7   10      3.04      0.00
    1    7   10      0.92      0.00
    2    7   10      2.27      0.00
    3    7   10      1.61      0.00
    4    7   10      0.53      0.00
    5    7   10      4.35      0.00
    6    7   10      0.02      0.00
    7    7   10     -0.29      0.00
    8    7   10      0.66      0.00
    9    7   10     -0.52      0.00
   10    7   10      1.65      0.00
   11    7   10      0.15      0.00
   12    7   10      0.17      0.00
   -9    8   10     -0.18      0.00
   -8    8   10     -0.17      0.00
   -7    8   10     -1.18      0.00
   -6    8   10     -2.59      0.00
   -5    8   10     -2.38      0.00
   -3    8   10     -2.44      0.00
   -2    8   10     -2.58      0.00
   -1    8   10     -1.26      0.00
    0    8   10     -4.16      0.00
    1    8   10     -1.20      0.00
    2    8   10      0.19      0.00
    3    8   10     -4.00      0.00
    4    8   10     -2.20      0.00
    5    8   10     -1.36      0.00
    6    8   10     -1.30      0.00
    7    8   10      1.58      0.00
    8    8   10     -0.54      0.00
    9    8   10     -0.32      0.00
   10    8   10     -0.85      0.00
   11    8   10     -1.28      0.00
   12    8   10     -0.36      0.00
   -9    9   10     -0.31      0.00
   -8    9   10      0.03      0.00
   -7    9   10      0.37      0.00
   -6    9   10      0.65      0.00
   -5    9   10      1.11      0.00
   -4    9   10      1.18      0.00
   -3    9   10      0.09      0.00
   -2    9   10      3.42      0.00
   -1    9   10      1.80      0.00
    0    9   10      0.46      0.00
    1    9   10      2.27      0.00
    2    9   10      0.42      0.00
    3    9   10      3.75      0.00
    4    9   10      5.26      0.00
    5    9   10      0.51      0.00
    6    9   10      0.96      0.00
    7    9   10      0.08      0.00
    8    9   10     -0.28      0.00
    9    9   10      0.96      0.00
   10    9   10     -0.87      0.00
   11    9   10     -0.62      0.00
   12    9   10     -0.40      0.00
   -9   10   10      0.40      0.00
   -8   10   10      0.37      0.00
   -7   10   10      0.07      0.00
   -6   10   10      0.71      0.00
   -5   10   10      0.71      0.00
   -4   10   10     -0.67      0.00
   -3   10   10     -1.23      0.00
   -2   10   10     -1.89      0.00
   -1   10   10     -5.08      0.00
    0   10   10     -1.44      0.00
    1   10   10     -1.41      0.00
    2   10   10     -2.79      0.00
    3   10   10     -0.73      0.00
    4   10   10     -2.09      0.00
    5   10   10      0.18      0.00
    6   10   10      2.13      0.00
    7   10   10     -0.14      0.00
    8   10   10      1.02      0.00
    9   10   10      0.79      0.00
   10   10   10      1.53      0.00
   11   10   10      2.54      0.00
   12   10   10      0.43      0.00
   -9   11   10      1.83      0.00
   -8   11   10      0.23      0.00
   -7   11   10     -0.47      0.00
   -6   11   10     -0.94      0.00
   -5   11   10     -1.53      0.00
   -4   11   10     -0.45      0.00
   -3   11   10      2.10      0.00
   -2   11   10      1.44      0.00
   -1   11   10      2.95      0.00
    0   11   10      2.96      0.00
    1   11   10     -0.95      0.00
    2   11   10      1.13      0.00
    3   11   10     -0.22      0.00
    4   11   10     -2.12      0.00
    5   11   10     -0.23      0.00
    6   11   10     -1.73      0.00
    7   11   10     -1.04      0.00
    8   11   10      0.12      0.00
    9   11   10     -1.57      0.00
   10   11   10     -1.05      0.00
   11   11   10     -0.75      0.00
   12   11   10      0.00      0.00
   -9   12   10     -0.31      0.00
   -8   12   10     -0.05      0.00
   -7   12   10      1.09      0.00
   -6   12   10      0.81      0.00
   -5   12   10      0.60      0.00
   -4   12   10      0.33      0.00
   -3   12   10     -0.13      0.00
   -2   12   10     -0.98      0.00
   -1   12   10     -0.07      0.00
    0   12   10     -2.23      0.00
    1   12   10     -2.12      0.00
    2   12   10     -1.04      0.00
    3   12   10     -2.16      0.00
    4   12   10      1.22      0.00
    5   12   10      1.09      0.00
    6   12   10     -0.62      0.00
    7   12   10      1.41      0.00
    8   12   10      0.76      0.00
    9   12   10      0.55      0.00
   10   12   10      1.12      0.00
   11   12   10     -0.50      0.00
   12   12   10     -0.47      0.00
   -8   13   10      0.05      0.00
   -7   13   10      1.01      0.00
   -6   13   10     -0.02      0.00
   -5   13   10      0.46      0.00
   -4   13   10      0.16      0.00
   -3   13   10     -0.78      0.00
   -2   13   10      0.52      0.00
   -1   13   10      1.01      0.00
    0   13   10      1.45      0.00
    1   13   10      4.26      0.00
    2   13   10      2.68      0.00
    3   13   10      1.65      0.00
    4   13   10      0.94      0.00
    5   13   10     -1.18      0.00
    6   13   10      0.48      0.00
    7   13   10      0.31      0.00
    8   13   10     -1.76      0.00
    9   13   10     -0.33      0.00
   10   13   10      0.33      0.00
   11   13   10      0.79      0.00
   12   13   10      0.68      0.00
   -8   14   10     -0.43      0.00
   -7   14   10     -0.61      0.00
   -6   14   10     -0.11      0.00
   -5   14   10      0.33      0.00
   -4   14   10     -0.65      0.00
   -3   14   10      0.01      0.00
   -2   14   10     -0.26      0.00
   -1   14   10     -0.63      0.00
    0   14   10      0.11      0.00
    1   14   10     -0.85      0.00
    2   14   10     -2.57      0.00
    3   14   10     -0.31      0.00
    4   14   10     -0.56      0.00
    5   14   10     -0.75      0.00
    6   14   10      0.42      0.00
    7   14   10     -0.49      0.00
    8   14   10      0.32      0.00
    9   14   10      1.31      0.00
   10   14   10     -0.44      0.00
   11   14   10     -0.11      0.00
   12   14   10      0.25      0.00
   -8   15   10     -0.17      0.00
   -7   15   10     -0.40      0.00
   -6   15   10      0.20      0.00
   -5   15   10      0.44      0.00
   -4   15   10      0.37      0.00
   -3   15   10      0.98      0.00
   -2   15   10     -0.28      0.00
   -1   15   10     -0.03      0.00
    0   15   10     -0.66      0.00
    1   15   10     -0.50      0.00
    2   15   10      0.54      0.00
    3   15   10     -0.16      0.00
    4   15   10     -1.39      0.00
    6   15   10      0.02      0.00
    7   15   10     -0.41      0.00
    8   15   10     -0.12      0.00
    9   15   10     -1.18      0.00
   10   15   10     -1.29      0.00
   -6   16   10     -0.36      0.00
   -5   16   10     -0.74      0.00
   -4   16   10      0.31      0.00
   -3   16   10     -0.25      0.00
   -2   16   10     -0.35      0.00
   -1   16   10     -0.25      0.00
    0   16   10     -0.26      0.00
    1   16   10      0.23      0.00
    2   16   10      1.14      0.00
    3   16   10      1.73      0.00
    4   16   10      0.81      0.00
    5   16   10      0.39      0.00
    6   16   10     -0.81      0.00
    7   16   10      0.40      0.00
    9   16   10      0.53      0.00
   10   16   10      1.14      0.00
   -6   17   10      0.06      0.00
   -5   17   10     -0.62      0.00
   -4   17   10     -0.10      0.00
   -3   17   10     -0.71      0.00
   -2   17   10      0.81      0.00
   -1   17   10     -0.34      0.00
    0   17   10      0.66      0.00
    1   17   10     -0.19      0.00
    2   17   10     -1.37      0.00
    3   17   10     -0.43      0.00
    4   17   10      0.92      0.00
    5   17   10      1.35      0.00
    6   17   10      0.12      0.00
    7   17   10     -0.69      0.00
   -6   18   10     -0.23      0.00
   -5   18   10      0.35      0.00
   -4   18   10      0.78      0.00
   -3   18   10     -0.20      0.00
   -2   18   10     -0.41      0.00
   -1   18   10     -0.50      0.00
    0   18   10     -0.34      0.00
    1   18   10     -1.00      0.00
    2   18   10      0.99      0.00
    3   18   10     -0.57      0.00
    4   18   10     -1.83      0.00
    5   18   10     -1.13      0.00
    6   18   10      0.73      0.00
    7   18   10      0.73      0.00
   -6   19   10     -0.04      0.00
   -5   19   10     -0.41      0.00
   -4   19   10     -0.79      0.00
   -3   19   10      0.35      0.00
   -2   19   10      0.83      0.00
   -1   19   10      1.57      0.00
    0   19   10      0.64      0.00
    1   19   10      0.22      0.00
    2   19   10      0.44      0.00
    3   19   10     -0.34      0.00
    4   19   10      1.54      0.00
    5   19   10      0.37      0.00
    6   19   10     -0.57      0.00
    7   19   10     -0.35      0.00
   -5   20   10      0.98      0.00
   -4   20   10     -0.06      0.00
   -3   20   10      0.37      0.00
   -2   20   10     -0.14      0.00
   -1   20   10     -1.11      0.00
    0   20   10     -1.46      0.00
    1   20   10      0.11      0.00
    2   20   10     -0.69      0.00
    3   20   10     -1.37      0.00
    4   20   10     -0.08      0.00
    5   20   10      0.01      0.00
    6   20   10      0.14      0.00
   -4   21   10     -0.56      0.00
   -3   21   10     -0.19      0.00
   -2   21   10     -0.44      0.00
   -1   21   10      0.78      0.00
    0   21   10      1.85      0.00
    1   21   10      0.96      0.00
    2   21   10      0.41      0.00
    3   21   10      1.78      0.00
    4   21   10      0.29      0.00
    5   21   10     -1.00      0.00
    6   21   10     -0.18      0.00
   -4   22   10     -0.01      0.00
   -3   22   10      0.23      0.00
   -2   22   10     -0.63      0.00
   -1   22   10     -0.52      0.00
    0   22   10     -1.01      0.00
    1   22   10     -0.89      0.00
    2   22   10     -1.05      0.00
    3   22   10     -1.03      0.00
    4   22   10     -0.54      0.00
    5   22   10      0.08      0.00
    6   22   10      0.12      0.00
   -2   23   10     -0.12      0.00
   -1   23   10      0.08      0.00
    0   23   10     -0.84      0.00
    1   23   10      0.16      0.00
    2   23   10      0.81      0.00
    3   23   10      0.33      0.00
    4   23   10     -0.40      0.00
    5   23   10      0.42      0.00
    6   23   10      0.69      0.00
   -1   24   10      0.41      0.00
    0   24   10      1.03      0.00
    1   24   10      0.92      0.00
    2   24   10     -0.22      0.00
    3   24   10      0.86      0.00
    4   24   10      0.74      0.00
    5   24   10      0.11      0.00
   -2  -22   11     -0.79      0.00
   -1  -22   11     -0.24      0.00
    0  -22   11      0.37      0.00
    1  -22   11      0.26      0.00
    2  -22   11      1.88      0.00
    3  -22   11      1.69      0.00
   -3  -21   11     -0.18      0.00
   -2  -21   11      1.10      0.00
   -1  -21   11      0.11      0.00
    0  -21   11     -1.33      0.00
    1  -21   11     -2.74      0.00
    2  -21   11     -1.87      0.00
    3  -21   11     -1.94      0.00
    4  -21   11     -0.94      0.00
    5  -21   11     -1.17      0.00
   -5  -20   11     -0.12      0.00
   -4  -20   11      1.06      0.00
   -3  -20   11      0.35      0.00
   -2  -20   11     -0.09      0.00
   -1  -20   11      0.94      0.00
    0  -20   11      1.48      0.00
    1  -20   11      1.95      0.00
    2  -20   11      1.55      0.00
    3  -20   11     -0.18      0.00
    4  -20   11      0.19      0.00
    5  -20   11      1.39      0.00
    6  -20   11      0.69      0.00
   -5  -19   11     -0.30      0.00
   -4  -19   11     -0.30      0.00
   -3  -19   11      0.01      0.00
   -2  -19   11     -0.05      0.00
   -1  -19   11     -0.62      0.00
    0  -19   11     -1.00      0.00
    1  -19   11      0.89      0.00
    2  -19   11      0.38      0.00
    3  -19   11      0.76      0.00
    4  -19   11      0.29      0.00
    5  -19   11     -1.03      0.00
    6  -19   11     -0.99      0.00
    7  -19   11      0.09      0.00
   -6  -18   11     -0.21      0.00
   -5  -18   11      0.43      0.00
   -4  -18   11      0.47      0.00
   -3  -18   11      0.10      0.00
   -2  -18   11      0.93      0.00
   -1  -18   11      1.11      0.00
    0  -18   11      0.08      0.00
    1  -18   11     -0.82      0.00
    2  -18   11     -1.86      0.00
    3  -18   11     -0.17      0.00
    4  -18   11      0.55      0.00
    5  -18   11      0.20      0.00
    6  -18   11     -0.48      0.00
    7  -18   11     -0.19      0.00
    8  -18   11     -0.45      0.00
   -7  -17   11     -0.22      0.00
   -6  -17   11     -0.92      0.00
   -5  -17   11     -0.61      0.00
   -4  -17   11     -0.66      0.00
   -3  -17   11      0.06      0.00
   -2  -17   11     -0.66      0.00
   -1  -17   11     -1.25      0.00
    0  -17   11      0.58      0.00
    1  -17   11      0.20      0.00
    2  -17   11      0.32      0.00
    3  -17   11      0.21      0.00
    4  -17   11     -1.16      0.00
    5  -17   11      0.67      0.00
    6  -17   11      0.94      0.00
    7  -17   11      0.36      0.00
    8  -17   11     -0.03      0.00
    9  -17   11      1.03      0.00
   -7  -16   11      0.28      0.00
   -6  -16   11      0.93      0.00
   -5  -16   11      0.39      0.00
   -4  -16   11     -0.94      0.00
   -3  -16   11     -1.51      0.00
   -2  -16   11     -0.70      0.00
   -1  -16   11     -0.73      0.00
    0  -16   11     -0.74      0.00
    1  -16   11     -0.43      0.00
    2  -16   11      0.20      0.00
    3  -16   11     -0.40      0.00
    4  -16   11     -0.41      0.00
    5  -16   11      0.25      0.00
    6  -16   11      0.55      0.00
    7  -16   11      2.38      0.00
    8  -16   11      1.83      0.00
    9  -16   11      0.31      0.00
   -8  -15   11     -0.82      0.00
   -7  -15   11     -0.49      0.00
   -6  -15   11     -0.06      0.00
   -5  -15   11     -0.15      0.00
   -4  -15   11      1.13      0.00
   -3  -15   11      1.39      0.00
   -2  -15   11      1.03      0.00
   -1  -15   11      1.89      0.00
    0  -15   11      1.14      0.00
    1  -15   11      0.44      0.00
    2  -15   11      0.79      0.00
    3  -15   11      0.99      0.00
    4  -15   11      1.98      0.00
    5  -15   11      0.00      0.00
    6  -15   11     -0.90      0.00
    7  -15   11     -0.92      0.00
    8  -15   11     -0.69      0.00
    9  -15   11      0.65      0.00
   10  -15   11      0.73      0.00
   -8  -14   11      1.16      0.00
   -7  -14   11      0.23      0.00
   -6  -14   11     -0.73      0.00
   -5  -14   11     -0.03      0.00
   -4  -14   11      0.01      0.00
   -3  -14   11      0.30      0.00
   -2  -14   11     -1.48      0.00
   -1  -14   11     -2.44      0.00
    0  -14   11     -1.79      0.00
    1  -14   11     -0.99      0.00
    2  -14   11     -1.44      0.00
    3  -14   11     -2.15      0.00
    4  -14   11     -1.45      0.00
    5  -14   11     -1.40      0.00
    6  -14   11     -0.26      0.00
    7  -14   11     -1.61      0.00
    8  -14   11     -2.05      0.00
    9  -14   11     -0.07      0.00
   10  -14   11     -0.11      0.00
   -9  -13   11     -0.91      0.00
   -8  -13   11     -0.30      0.00
   -7  -13   11      0.62      0.00
   -6  -13   11      0.47      0.00
   -5  -13   11      0.25      0.00
   -4  -13   11     -0.05      0.00
   -3  -13   11     -0.09      0.00
   -2  -13   11      1.12      0.00
   -1  -13   11      3.26      0.00
    0  -13   11      2.52      0.00
    1  -13   11      2.25      0.00
    2  -13   11      2.68      0.00
    3  -13   11      2.25      0.00
    4  -13   11      0.23      0.00
    5  -13   11     -0.80      0.00
    6  -13   11     -0.39      0.00
    7  -13   11      0.06      0.00
    8  -13   11      0.75      0.00
    9  -13   11     -1.07      0.00
   10  -13   11     -2.05      0.00
   11  -13   11     -0.64      0.00
   -9  -12   11      0.43      0.00
   -8  -12   11     -0.38      0.00
   -7  -12   11     -1.64      0.00
   -6  -12   11     -0.54      0.00
   -5  -12   11     -0.68      0.00
   -4  -12   11     -0.21      0.00
   -3  -12   11     -0.26      0.00
   -2  -12   11      0.12      0.00
   -1  -12   11     -0.60      0.00
    0  -12   11     -1.99      0.00
    1  -12   11     -1.93      0.00
    2  -12   11     -3.15      0.00
    3  -12   11     -1.53      0.00
    4  -12   11      0.49      0.00
    5  -12   11      1.78      0.00
    6  -12   11      1.55      0.00
    7  -12   11     -0.44      0.00
    8  -12   11      0.02      0.00
    9  -12   11     -0.66      0.00
   10  -12   11      0.63      0.00
   11  -12   11      0.00      0.00
   -9  -11   11      0.08      0.00
   -8  -11   11      1.57      0.00
   -7  -11   11      1.49      0.00
   -6  -11   11      1.00      0.00
   -5  -11   11      0.50      0.00
   -4  -11   11      0.46      0.00
   -3  -11   11     -0.92      0.00
   -2  -11   11     -0.25      0.00
   -1  -11   11     -1.72      0.00
    0  -11   11      0.23      0.00
    1  -11   11      3.44      0.00
    2  -11   11      3.41      0.00
    3  -11   11      3.47      0.00
    4  -11   11      1.80      0.00
    5  -11   11      0.99      0.00
    6  -11   11      1.18      0.00
    7  -11   11      0.79      0.00
    8  -11   11      0.55      0.00
    9  -11   11     -0.18      0.00
   10  -11   11     -0.26      0.00
   11  -11   11     -1.41      0.00
   -9  -10   11      0.35      0.00
   -8  -10   11     -1.32      0.00
   -7  -10   11     -0.86      0.00
   -6  -10   11     -0.63      0.00
   -5  -10   11     -0.74      0.00
   -4  -10   11     -0.93      0.00
   -3  -10   11     -1.20      0.00
   -2  -10   11     -0.23      0.00
   -1  -10   11     -0.58      0.00
    0  -10   11      0.56      0.00
    1  -10   11     -4.21      0.00
    2  -10   11     -4.27      0.00
    3  -10   11     -2.13      0.00
    4  -10   11     -3.36      0.00
    5  -10   11     -1.22      0.00
    6  -10   11     -1.25      0.00
    7  -10   11      1.28      0.00
    8  -10   11      2.03      0.00
    9  -10   11      3.09      0.00
   10  -10   11      1.54      0.00
   11  -10   11      2.33      0.00
  -10   -9   11     -0.55      0.00
   -9   -9   11      0.84      0.00
   -8   -9   11      0.79      0.00
   -7   -9   11      0.93      0.00
   -6   -9   11      0.30      0.00
   -5   -9   11      1.34      0.00
   -4   -9   11      1.21      0.00
   -3   -9   11      2.06      0.00
   -2   -9   11      0.21      0.00
   -1   -9   11     -2.18      0.00
    0   -9   11     -1.04      0.00
    1   -9   11     -2.06      0.00
    2   -9   11      1.06      0.00
    3   -9   11     -1.27      0.00
    4   -9   11     -0.75      0.00
    5   -9   11      2.08      0.00
    6   -9   11     -0.90      0.00
    7   -9   11     -0.77      0.00
    8   -9   11     -2.28      0.00
    9   -9   11     -1.82      0.00
   10   -9   11     -1.68      0.00
  -10   -8   11     -0.21      0.00
   -9   -8   11     -1.22      0.00
   -8   -8   11     -0.57      0.00
   -7   -8   11      0.43      0.00
   -6   -8   11     -0.10      0.00
   -5   -8   11      0.23      0.00
   -4   -8   11     -0.32      0.00
   -3   -8   11      0.62      0.00
   -2   -8   11      0.15      0.00
   -1   -8   11      3.27      0.00
    0   -8   11      1.71      0.00
    1   -8   11      1.74      0.00
    2   -8   11      3.86      0.00
    3   -8   11     -1.39      0.00
    4   -8   11      0.65      0.00
    5   -8   11     -2.91      0.00
    6   -8   11     -2.50      0.00
    7   -8   11     -0.16      0.00
    8   -8   11      0.79      0.00
    9   -8   11      0.22      0.00
   10   -8   11      1.50      0.00
   11   -8   11      0.03      0.00
   12   -8   11     -0.83      0.00
  -10   -7   11     -0.19      0.00
   -9   -7   11     -0.10      0.00
   -8   -7   11      0.01      0.00
   -7   -7   11     -0.86      0.00
   -6   -7   11      0.47      0.00
   -5   -7   11      0.82      0.00
   -4   -7   11      0.55      0.00
   -3   -7   11      2.03      0.00
   -2   -7   11      2.02      0.00
   -1   -7   11      4.53      0.00
    0   -7   11      0.84      0.00
    1   -7   11      0.50      0.00
    2   -7   11     -4.60      0.00
    3   -7   11     -3.95      0.00
    4   -7   11      1.22      0.00
    5   -7   11     -2.80      0.00
    6   -7   11      1.27      0.00
    7   -7   11     -0.82      0.00
    8   -7   11     -1.40      0.00
    9   -7   11     -0.78      0.00
   10   -7   11      0.54      0.00
   11   -7   11     -0.84      0.00
   12   -7   11      1.49      0.00
  -10   -6   11      0.33      0.00
   -9   -6   11      0.18      0.00
   -8   -6   11      0.25      0.00
   -7   -6   11     -1.13      0.00
   -6   -6   11     -1.47      0.00
   -5   -6   11     -2.56      0.00
   -4   -6   11     -2.33      0.00
   -3   -6   11     -2.79      0.00
   -2   -6   11     -4.07      0.00
   -1   -6   11     -6.19      0.00
    0   -6   11     -4.98      0.00
    1   -6   11      4.02      0.00
    2   -6   11      4.73      0.00
    3   -6   11     10.19      0.00
    4   -6   11      5.07      0.00
    5   -6   11      3.96      0.00
    6   -6   11      4.59      0.00
    7   -6   11      0.04      0.00
    8   -6   11     -0.40      0.00
    9   -6   11     -0.20      0.00
   10   -6   11     -1.13      0.00
   11   -6   11     -0.45      0.00
   12   -6   11      0.93      0.00
  -10   -5   11     -0.16      0.00
   -9   -5   11     -0.65      0.00
   -8   -5   11     -1.08      0.00
   -7   -5   11      0.17      0.00
   -6   -5   11      1.02      0.00
   -5   -5   11      0.00      0.00
   -4   -5   11      0.92      0.00
   -3   -5   11      0.64      0.00
   -2   -5   11      4.06      0.00
   -1   -5   11      8.02      0.00
    0   -5   11      9.77      0.00
    1   -5   11      3.94      0.00
    2   -5   11     -0.35      0.00
    3   -5   11      0.87      0.00
    4   -5   11     -5.57      0.00
    5   -5   11     -0.22      0.00
    6   -5   11     -2.73      0.00
    7   -5   11     -0.90      0.00
    8   -5   11      1.98      0.00
    9   -5   11      0.69      0.00
   10   -5   11     -0.93      0.00
   11   -5   11      0.12      0.00
   12   -5   11     -0.16      0.00
  -10   -4   11      0.14      0.00
   -9   -4   11      1.08      0.00
   -8   -4   11      0.93      0.00
   -7   -4   11      0.97      0.00
   -6   -4   11      0.18      0.00
   -5   -4   11     -0.73      0.00
   -4   -4   11     -1.08      0.00
   -3   -4   11     -4.20      0.00
   -2   -4   11     -7.67      0.00
   -1   -4   11    -11.15      0.00
    0   -4   11    -11.21      0.00
    1   -4   11    -10.89      0.00
    2   -4   11     -5.88      0.00
    3   -4   11     -6.07      0.00
    4   -4   11      0.61      0.00
    5   -4   11      5.74      0.00
    6   -4   11      2.25      0.00
    7   -4   11      4.62      0.00
    8   -4   11      1.56      0.00
    9   -4   11      0.03      0.00
   10   -4   11      1.30      0.00
   11   -4   11      0.30      0.00
   12   -4   11     -1.12      0.00
  -10   -3   11      0.34      0.00
   -9   -3   11     -0.06      0.00
   -8   -3   11     -0.16      0.00
   -7   -3   11      0.54      0.00
   -6   -3   11     -0.47      0.00
   -5   -3   11      1.64      0.00
   -4   -3   11      3.49      0.00
   -3   -3   11      4.19      0.00
   -2   -3   11      6.04      0.00
   -1   -3   11      2.88      0.00
    0   -3   11     -0.21      0.00
    1   -3   11      2.23      0.00
    2   -3   11      4.37      0.00
    3   -3   11     -0.14      0.00
    4   -3   11     -0.72      0.00
    5   -3   11     -8.42      0.00
    6   -3   11     -6.06      0.00
    7   -3   11     -2.96      0.00
    8   -3   11     -3.93      0.00
    9   -3   11     -0.46      0.00
   10   -3   11     -0.18      0.00
   11   -3   11     -0.09      0.00
   12   -3   11     -0.11      0.00
  -10   -2   11     -0.37      0.00
   -9   -2   11     -0.14      0.00
   -8   -2   11     -0.42      0.00
   -7   -2   11      0.16      0.00
   -6   -2   11      0.92      0.00
   -5   -2   11      1.80      0.00
   -4   -2   11     -1.25      0.00
   -3   -2   11     -2.29      0.00
   -2   -2   11      0.46      0.00
   -1   -2   11      2.05      0.00
    0   -2   11      5.70      0.00
    1   -2   11      0.97      0.00
    2   -2   11     -6.42      0.00
    3   -2   11     -1.82      0.00
    4   -2   11     -0.17      0.00
    5   -2   11      0.01      0.00
    6   -2   11      4.16      0.00
    7   -2   11      0.36      0.00
    8   -2   11      1.49      0.00
    9   -2   11      2.87      0.00
   10   -2   11     -0.03      0.00
   11   -2   11      0.81      0.00
   12   -2   11      0.62      0.00
  -10   -1   11      0.25      0.00
   -9   -1   11     -0.80      0.00
   -8   -1   11     -0.03      0.00
   -7   -1   11     -1.27      0.00
   -6   -1   11     -1.21      0.00
   -5   -1   11     -0.86      0.00
   -4   -1   11      0.16      0.00
   -3   -1   11      3.96      0.00
   -2   -1   11      2.09      0.00
   -1   -1   11     -0.70      0.00
    0   -1   11      2.85      0.00
    1   -1   11      2.00      0.00
    2   -1   11      4.96      0.00
    3   -1   11      3.93      0.00
    4   -1   11     -2.35      0.00
    5   -1   11      2.06      0.00
    6   -1   11     -0.30      0.00
    7   -1   11     -2.95      0.00
    8   -1   11     -0.35      0.00
    9   -1   11     -3.85      0.00
   10   -1   11     -2.61      0.00
   11   -1   11     -1.29      0.00
   12   -1   11     -2.17      0.00
  -10    0   11      1.54      0.00
   -9    0   11      1.29      0.00
   -8    0   11      1.57      0.00
   -7    0   11      0.60      0.00
   -6    0   11      0.60      0.00
   -5    0   11     -0.69      0.00
   -4    0   11      0.21      0.00
   -3    0   11      0.67      0.00
   -2    0   11     -1.06      0.00
   -1    0   11      2.66      0.00
    0    0   11     -0.69      0.00
    1    0   11     -2.20      0.00
    2    0   11      6.45      0.00
    3    0   11      2.74      0.00
    4    0   11      3.19      0.00
    5    0   11      1.39      0.00
    6    0   11     -3.08      0.00
    7    0   11      1.01      0.00
    8    0   11      0.87      0.00
    9    0   11      0.09      0.00
   10    0   11      3.08      0.00
   11    0   11      1.53      0.00
   12    0   11      2.00      0.00
  -10    1   11     -1.34      0.00
   -9    1   11     -0.44      0.00
   -8    1   11     -0.40      0.00
   -7    1   11     -0.74      0.00
   -6    1   11     -0.90      0.00
   -5    1   11     -2.30      0.00
   -4    1   11     -3.39      0.00
   -3    1   11     -5.96      0.00
   -2    1   11     -6.32      0.00
   -1    1   11     -2.09      0.00
    0    1   11     -3.76      0.00
    1    1   11     -0.47      0.00
    2    1   11     -5.50      0.00
    3    1   11     -8.52      0.00
    4    1   11      2.74      0.00
    5    1   11      0.94      0.00
    6    1   11      3.31      0.00
    7    1   11      3.98      0.00
    8    1   11      0.01      0.00
    9    1   11      2.21      0.00
   10    1   11      0.80      0.00
   11    1   11     -1.65      0.00
   12    1   11     -0.82      0.00
  -10    2   11     -1.07      0.00
   -9    2   11     -0.80      0.00
   -8    2   11     -0.41      0.00
   -7    2   11      0.41      0.00
   -6    2   11      0.49      0.00
   -5    2   11      1.55      0.00
   -4    2   11      2.03      0.00
   -3    2   11      3.00      0.00
   -2    2   11      5.46      0.00
   -1    2   11      1.89      0.00
    0    2   11      0.59      0.00
    1    2   11      6.75      0.00
    2    2   11      3.78      0.00
    3    2   11      7.85      0.00
    4    2   11      2.68      0.00
    5    2   11     -1.67      0.00
    6    2   11      2.88      0.00
    7    2   11     -1.38      0.00
    8    2   11     -1.10      0.00
    9    2   11     -1.04      0.00
   10    2   11     -2.72      0.00
   11    2   11     -0.40      0.00
   12    2   11      1.03      0.00
  -10    3   11      0.65      0.00
   -9    3   11      0.94      0.00
   -8    3   11      0.03      0.00
   -7    3   11      0.68      0.00
   -6    3   11      2.16      0.00
   -5    3   11      2.15      0.00
   -4    3   11      1.21      0.00
   -3    3   11     -0.12      0.00
   -2    3   11     -2.23      0.00
   -1    3   11     -4.71      0.00
    0    3   11     -4.13      0.00
    1    3   11     -9.71      0.00
    2    3   11    -11.03      0.00
    3    3   11     -3.79      0.00
    4    3   11     -8.15      0.00
    5    3   11     -2.69      0.00
    6    3   11     -3.41      0.00
    7    3   11     -3.48      0.00
    8    3   11      1.95      0.00
    9    3   11      1.12      0.00
   10    3   11      3.04      0.00
   11    3   11      2.91      0.00
   12    3   11      1.42      0.00
   -9    4   11     -0.18      0.00
   -8    4   11      0.06      0.00
   -7    4   11     -0.33      0.00
   -6    4   11     -1.77      0.00
   -5    4   11     -2.67      0.00
   -4    4   11     -1.63      0.00
   -3    4   11     -0.39      0.00
   -2    4   11     -0.17      0.00
   -1    4   11      2.61      0.00
    0    4   11      5.99      0.00
    1    4   11      5.12      0.00
    2    4   11      6.10      0.00
    3    4   11      0.18      0.00
    4    4   11     -0.16      0.00
    5    4   11      4.98      0.00
    6    4   11      0.28      0.00
    7    4   11      3.09      0.00
    8    4   11      0.97      0.00
    9    4   11     -1.17      0.00
   10    4   11     -0.97      0.00
   11    4   11     -1.64      0.00
   12    4   11     -1.13      0.00
   -9    5   11     -1.14      0.00
   -8    5   11     -1.73      0.00
   -7    5   11     -0.39      0.00
   -6    5   11     -0.29      0.00
   -5    5   11      1.78      0.00
   -4    5   11      2.91      0.00
   -3    5   11      2.10      0.00
   -2    5   11      3.34      0.00
   -1    5   11      2.08      0.00
    0    5   11     -2.50      0.00
    1    5   11     -1.42      0.00
    2    5   11      1.47      0.00
    3    5   11     -0.82      0.00
    4    5   11      1.31      0.00
    5    5   11     -3.79      0.00
    6    5   11     -3.50      0.00
    7    5   11     -0.71      0.00
    8    5   11     -3.81      0.00
    9    5   11     -0.78      0.00
   10    5   11     -1.72      0.00
   11    5   11     -0.60      0.00
   12    5   11     -0.40      0.00
   -9    6   11      1.14      0.00
   -8    6   11      0.85      0.00
   -7    6   11      0.43      0.00
   -6    6   11     -0.07      0.00
   -5    6   11     -0.43      0.00
   -4    6   11     -2.32      0.00
   -2    6   11     -0.93      0.00
   -1    6   11     -0.91      0.00
    0    6   11      2.93      0.00
    1    6   11      4.14      0.00
    2    6   11      0.92      0.00
    3    6   11      3.35      0.00
    4    6   11      4.92      0.00
    5    6   11      1.50      0.00
    6    6   11      3.27      0.00
    7    6   11     -0.10      0.00
    8    6   11      0.17      0.00
    9    6   11      1.18      0.00
   10    6   11      0.18      0.00
   11    6   11      0.75      0.00
   12    6   11     -0.96      0.00
   -9    7   11      0.35      0.00
   -8    7   11      0.21      0.00
   -7    7   11     -0.80      0.00
   -6    7   11     -0.79      0.00
   -5    7   11     -0.84      0.00
   -4    7   11     -0.94      0.00
   -3    7   11      0.34      0.00
   -2    7   11     -1.51      0.00
   -1    7   11     -2.80      0.00
    0    7   11     -1.52      0.00
    1    7   11     -3.56      0.00
    2    7   11     -2.97      0.00
    3    7   11     -2.47      0.00
    4    7   11     -5.12      0.00
    5    7   11     -1.24      0.00
    6    7   11      0.51      0.00
    7    7   11     -0.71      0.00
    8    7   11      1.53      0.00
    9    7   11     -0.60      0.00
   10    7   11     -0.04      0.00
   11    7   11     -0.73      0.00
   12    7   11     -0.84      0.00
   -9    8   11     -0.26      0.00
   -8    8   11     -0.06      0.00
   -7    8   11      0.66      0.00
   -6    8   11      1.42      0.00
   -5    8   11      0.61      0.00
   -4    8   11      1.14      0.00
   -3    8   11      1.64      0.00
   -2    8   11     -0.48      0.00
   -1    8   11      1.56      0.00
    0    8   11     -0.64      0.00
    1    8   11     -1.82      0.00
    2    8   11      2.86      0.00
    3    8   11      2.52      0.00
    4    8   11      2.64      0.00
    5    8   11      2.52      0.00
    6    8   11     -0.87      0.00
    7    8   11      0.97      0.00
    8    8   11      0.72      0.00
    9    8   11      0.08      0.00
   10    8   11      0.90      0.00
   11    8   11     -0.43      0.00
   12    8   11      0.79      0.00
   -9    9   11     -0.21      0.00
   -8    9   11      0.78      0.00
   -7    9   11      0.56      0.00
   -6    9   11     -0.30      0.00
   -5    9   11     -0.14      0.00
   -4    9   11     -0.28      0.00
   -3    9   11     -1.86      0.00
   -2    9   11     -1.20      0.00
   -1    9   11      0.06      0.00
    0    9   11     -1.18      0.00
    1    9   11      1.51      0.00
    2    9   11     -0.57      0.00
    3    9   11     -2.93      0.00
    4    9   11      0.55      0.00
    5    9   11      0.04      0.00
    6    9   11      0.74      0.00
    7    9   11      1.33      0.00
    8    9   11     -0.97      0.00
    9    9   11      0.72      0.00
   10    9   11      1.00      0.00
   11    9   11      1.22      0.00
   12    9   11      1.31      0.00
   -9   10   11      0.48      0.00
   -8   10   11      0.36      0.00
   -7   10   11     -0.73      0.00
   -6   10   11     -0.93      0.00
   -5   10   11     -0.07      0.00
   -4   10   11      1.04      0.00
   -3   10   11      1.41      0.00
   -2   10   11      3.71      0.00
   -1   10   11      1.63      0.00
    0   10   11      0.62      0.00
    1   10   11      0.61      0.00
    2   10   11     -2.73      0.00
    3   10   11     -0.94      0.00
    4   10   11     -2.04      0.00
    5   10   11     -3.53      0.00
    6   10   11     -0.73      0.00
    7   10   11     -1.82      0.00
    8   10   11     -0.83      0.00
    9   10   11      0.31      0.00
   10   10   11     -1.32      0.00
   11   10   11     -0.20      0.00
   12   10   11      0.32      0.00
   -8   11   11      0.29      0.00
   -7   11   11      0.36      0.00
   -6   11   11      1.52      0.00
   -5   11   11      0.17      0.00
   -4   11   11     -1.32      0.00
   -3   11   11     -1.21      0.00
   -2   11   11     -1.50      0.00
   -1   11   11     -2.20      0.00
    0   11   11      0.20      0.00
    1   11   11     -0.73      0.00
    2   11   11      0.06      0.00
    3   11   11      2.61      0.00
    4   11   11      0.77      0.00
    5   11   11      1.94      0.00
    6   11   11      1.27      0.00
    7   11   11     -0.24      0.00
    8   11   11      1.72      0.00
    9   11   11      0.31      0.00
   10   11   11     -0.28      0.00
   11   11   11     -0.11      0.00
   12   11   11     -0.90      0.00
   -8   12   11     -0.51      0.00
   -7   12   11      0.03      0.00
   -6   12   11      0.36      0.00
   -5   12   11     -0.01      0.00
   -4   12   11      0.71      0.00
   -3   12   11      0.72      0.00
   -2   12   11      0.01      0.00
   -1   12   11      1.85      0.00
    0   12   11      2.49      0.00
    1   12   11      1.93      0.00
    2   12   11      3.45      0.00
    3   12   11     -0.08      0.00
    4   12   11     -1.35      0.00
    5   12   11      0.73      0.00
    6   12   11     -0.72      0.00
    7   12   11     -0.18      0.00
    8   12   11     -0.28      0.00
    9   12   11     -1.69      0.00
   10   12   11      0.73      0.00
   11   12   11      1.09      0.00
   12   12   11      0.39      0.00
   -8   13   11     -1.21      0.00
   -7   13   11     -0.79      0.00
   -6   13   11     -0.72      0.00
   -5   13   11     -0.23      0.00
   -4   13   11      0.37      0.00
   -3   13   11     -0.44      0.00
   -2   13   11     -0.46      0.00
   -1   13   11     -0.82      0.00
    0   13   11     -1.92      0.00
    1   13   11     -1.54      0.00
    2   13   11     -1.31      0.00
    3   13   11     -1.33      0.00
    4   13   11      1.24      0.00
    5   13   11     -0.14      0.00
    6   13   11     -1.21      0.00
    7   13   11      1.03      0.00
    8   13   11      0.52      0.00
    9   13   11      0.27      0.00
   10   13   11      0.08      0.00
   11   13   11     -1.10      0.00
   12   13   11     -0.09      0.00
   -8   14   11      0.25      0.00
   -7   14   11      0.44      0.00
   -6   14   11     -0.33      0.00
   -5   14   11      0.37      0.00
   -4   14   11     -0.09      0.00
   -3   14   11     -0.33      0.00
   -2   14   11      0.53      0.00
   -1   14   11     -0.77      0.00
    0   14   11     -0.69      0.00
    1   14   11      0.26      0.00
    2   14   11     -0.37      0.00
    3   14   11      0.09      0.00
    4   14   11      0.32      0.00
    5   14   11     -1.12      0.00
    6   14   11      0.12      0.00
    7   14   11     -0.35      0.00
    8   14   11     -1.62      0.00
    9   14   11     -0.32      0.00
   10   14   11     -0.79      0.00
   11   14   11     -0.83      0.00
   -8   15   11     -0.03      0.00
   -7   15   11     -0.24      0.00
   -6   15   11     -0.37      0.00
   -5   15   11      0.02      0.00
   -4   15   11     -0.42      0.00
   -3   15   11      0.58      0.00
   -2   15   11     -0.45      0.00
   -1   15   11      0.13      0.00
    0   15   11      0.46      0.00
    1   15   11      0.04      0.00
    2   15   11      0.69      0.00
    3   15   11      1.30      0.00
    4   15   11      0.45      0.00
    5   15   11      0.13      0.00
    6   15   11      1.46      0.00
    7   15   11      0.38      0.00
    8   15   11      0.75      0.00
    9   15   11      1.18      0.00
   10   15   11      0.56      0.00
   11   15   11      1.09      0.00
   -6   16   11     -0.16      0.00
   -5   16   11     -0.43      0.00
   -4   16   11     -0.80      0.00
   -3   16   11      0.48      0.00
   -2   16   11     -0.17      0.00
   -1   16   11      0.50      0.00
    0   16   11     -0.53      0.00
    1   16   11     -0.44      0.00
    2   16   11     -1.18      0.00
    3   16   11     -0.95      0.00
    4   16   11      0.56      0.00
    5   16   11      1.03      0.00
    6   16   11     -0.58      0.00
    7   16   11     -1.22      0.00
   -5   17   11      0.61      0.00
   -4   17   11      0.57      0.00
   -3   17   11     -0.39      0.00
   -2   17   11     -0.12      0.00
   -1   17   11     -0.06      0.00
    0   17   11      0.06      0.00
    1   17   11      0.89      0.00
    2   17   11      0.13      0.00
    3   17   11     -0.03      0.00
    4   17   11     -1.97      0.00
    5   17   11     -0.78      0.00
    6   17   11      0.35      0.00
    7   17   11      1.43      0.00
   -5   18   11     -0.84      0.00
   -4   18   11      0.45      0.00
   -3   18   11      0.50      0.00
   -2   18   11      1.24      0.00
   -1   18   11      0.64      0.00
    0   18   11      1.29      0.00
    1   18   11     -0.55      0.00
    2   18   11     -1.03      0.00
    3   18   11      0.87      0.00
    4   18   11     -0.06      0.00
    5   18   11     -0.29      0.00
    6   18   11     -0.87      0.00
    7   18   11     -0.52      0.00
   -6   19   11      0.48      0.00
   -5   19   11      0.21      0.00
   -4   19   11      0.22      0.00
   -3   19   11     -0.77      0.00
   -2   19   11     -0.84      0.00
   -1   19   11     -1.04      0.00
    0   19   11     -1.03      0.00
    1   19   11     -0.48      0.00
    2   19   11      1.27      0.00
    3   19   11     -0.16      0.00
    4   19   11      0.39      0.00
    5   19   11      1.51      0.00
    6   19   11      0.70      0.00
    7   19   11     -0.37      0.00
   -5   20   11      0.02      0.00
   -4   20   11     -0.34      0.00
   -3   20   11     -0.81      0.00
   -2   20   11      0.08      0.00
   -1   20   11      1.11      0.00
    0   20   11      0.95      0.00
    1   20   11      0.95      0.00
    2   20   11      1.11      0.00
    3   20   11     -0.25      0.00
    4   20   11     -0.08      0.00
    5   20   11     -0.86      0.00
    6   20   11     -0.55      0.00
    7   20   11      0.18      0.00
   -4   21   11     -0.09      0.00
   -3   21   11      0.80      0.00
   -2   21   11      0.08      0.00
   -1   21   11     -1.61      0.00
    0   21   11     -1.02      0.00
    1   21   11     -0.78      0.00
    2   21   11     -1.73      0.00
    3   21   11     -1.12      0.00
    4   21   11      0.36      0.00
    5   21   11     -0.18      0.00
    6   21   11     -0.29      0.00
   -3   22   11      0.22      0.00
   -2   22   11     -0.03      0.00
   -1   22   11      0.52      0.00
    0   22   11      0.50      0.00
    1   22   11      0.01      0.00
    2   22   11      1.19      0.00
    3   22   11      1.12      0.00
    4   22   11      0.22      0.00
    5   22   11      0.42      0.00
    6   22   11      1.25      0.00
   -2   23   11     -0.24      0.00
   -1   23   11      0.95      0.00
    0   23   11      0.50      0.00
    1   23   11      0.24      0.00
    2   23   11      0.13      0.00
    3   23   11     -0.10      0.00
    4   23   11      0.28      0.00
    5   23   11     -0.50      0.00
    6   23   11     -0.65      0.00
    0   24   11     -1.05      0.00
    1   24   11      0.28      0.00
    2   24   11     -0.15      0.00
    3   24   11     -0.38      0.00
    4   24   11      0.13      0.00
    0  -22   12     -0.74      0.00
    1  -22   12     -1.37      0.00
    2  -22   12     -1.93      0.00
   -3  -21   12      0.57      0.00
   -2  -21   12     -0.27      0.00
   -1  -21   12      1.18      0.00
    0  -21   12      1.91      0.00
    1  -21   12      1.19      0.00
    2  -21   12      1.30      0.00
    3  -21   12      0.66      0.00
    4  -21   12      0.36      0.00
   -4  -20   12     -1.34      0.00
   -3  -20   12     -0.49      0.00
   -2  -20   12     -0.19      0.00
   -1  -20   12     -0.93      0.00
    0  -20   12     -0.55      0.00
    1  -20   12     -0.26      0.00
    2  -20   12      1.20      0.00
    3  -20   12      0.75      0.00
    4  -20   12     -0.23      0.00
    5  -20   12     -0.57      0.00
    6  -20   12     -0.09      0.00
   -5  -19   12      0.03      0.00
   -4  -19   12      0.22      0.00
   -3  -19   12     -0.27      0.00
   -2  -19   12      0.45      0.00
   -1  -19   12      0.57      0.00
    0  -19   12     -0.70      0.00
    1  -19   12     -0.98      0.00
    2  -19   12     -0.92      0.00
    3  -19   12     -1.30      0.00
    4  -19   12      0.31      0.00
    5  -19   12      0.46      0.00
    6  -19   12     -0.54      0.00
    7  -19   12     -0.59      0.00
   -6  -18   12     -0.29      0.00
   -5  -18   12     -0.98      0.00
   -4  -18   12      0.16      0.00
   -3  -18   12      0.19      0.00
   -2  -18   12     -0.84      0.00
   -1  -18   12     -0.40      0.00
    0  -18   12      0.35      0.00
    1  -18   12      1.15      0.00
    2  -18   12      0.05      0.00
    3  -18   12     -0.39      0.00
    4  -18   12      0.24      0.00
    5  -18   12      0.44      0.00
    6  -18   12      1.72      0.00
    7  -18   12      1.11      0.00
   -6  -17   12      0.29      0.00
   -5  -17   12      0.75      0.00
   -4  -17   12     -0.51      0.00
   -3  -17   12     -1.11      0.00
   -2  -17   12     -0.36      0.00
   -1  -17   12     -0.45      0.00
    0  -17   12     -0.78      0.00
    1  -17   12     -0.34      0.00
    2  -17   12     -0.32      0.00
    3  -17   12      0.88      0.00
    4  -17   12      0.11      0.00
    5  -17   12     -0.78      0.00
    6  -17   12     -0.24      0.00
    7  -17   12      0.51      0.00
    8  -17   12      0.73      0.00
   -7  -16   12     -0.30      0.00
   -6  -16   12     -0.03      0.00
   -5  -16   12      0.56      0.00
   -4  -16   12      1.11      0.00
   -3  -16   12      1.07      0.00
   -2  -16   12      1.23      0.00
   -1  -16   12      1.03      0.00
    0  -16   12      0.74      0.00
    1  -16   12     -0.02      0.00
    2  -16   12      0.54      0.00
    3  -16   12      1.18      0.00
    4  -16   12     -0.27      0.00
    5  -16   12      0.62      0.00
    6  -16   12     -0.97      0.00
    7  -16   12     -1.33      0.00
    8  -16   12     -0.56      0.00
    9  -16   12     -0.12      0.00
   -7  -15   12      0.02      0.00
   -6  -15   12     -0.60      0.00
   -5  -15   12     -1.01      0.00
   -4  -15   12     -0.87      0.00
   -3  -15   12     -0.22      0.00
   -2  -15   12     -0.29      0.00
   -1  -15   12     -1.47      0.00
    0  -15   12     -0.20      0.00
    1  -15   12      0.41      0.00
    2  -15   12     -0.79      0.00
    3  -15   12     -1.88      0.00
    4  -15   12     -1.47      0.00
    5  -15   12     -0.23      0.00
    6  -15   12     -1.28      0.00
    7  -15   12     -1.32      0.00
    8  -15   12     -1.93      0.00
    9  -15   12     -1.49      0.00
   -8  -14   12     -0.13      0.00
   -7  -14   12      1.28      0.00
   -6  -14   12      0.94      0.00
   -5  -14   12      0.74      0.00
   -4  -14   12      0.57      0.00
   -3  -14   12      0.55      0.00
   -2  -14   12      0.87      0.00
   -1  -14   12      1.50      0.00
    0  -14   12      0.98      0.00
    1  -14   12      0.22      0.00
    2  -14   12      1.17      0.00
    3  -14   12      0.87      0.00
    4  -14   12      0.71      0.00
    5  -14   12     -0.64      0.00
    6  -14   12     -0.05      0.00
    7  -14   12      1.98      0.00
    8  -14   12      0.87      0.00
    9  -14   12     -0.37      0.00
   10  -14   12     -1.33      0.00
   -8  -13   12     -0.81      0.00
   -7  -13   12     -1.19      0.00
   -6  -13   12     -0.70      0.00
   -5  -13   12     -0.47      0.00
   -4  -13   12     -1.10      0.00
   -3  -13   12     -0.58      0.00
   -2  -13   12     -1.59      0.00
   -1  -13   12     -1.00      0.00
    0  -13   12     -1.05      0.00
    1  -13   12     -2.03      0.00
    2  -13   12     -0.96      0.00
    3  -13   12      0.17      0.00
    4  -13   12      2.10      0.00
    5  -13   12      2.48      0.00
    6  -13   12      1.97      0.00
    7  -13   12      0.85      0.00
    8  -13   12     -0.39      0.00
    9  -13   12      1.43      0.00
   10  -13   12      0.77      0.00
   -8  -12   12      1.52      0.00
   -7  -12   12      0.99      0.00
   -6  -12   12      0.14      0.00
   -5  -12   12      0.62      0.00
   -4  -12   12      0.67      0.00
   -3  -12   12      0.31      0.00
   -2  -12   12     -0.18      0.00
   -1  -12   12      0.62      0.00
    0  -12   12      0.64      0.00
    1  -12   12      2.87      0.00
    2  -12   12      2.15      0.00
    3  -12   12     -0.33      0.00
    4  -12   12     -0.81      0.00
    5  -12   12     -1.34      0.00
    6  -12   12     -0.54      0.00
    7  -12   12     -0.24      0.00
    8  -12   12      0.14      0.00
    9  -12   12      0.25      0.00
   10  -12   12     -0.09      0.00
   11  -12   12     -0.05      0.00
   -9  -11   12     -0.79      0.00
   -8  -11   12     -0.77      0.00
   -7  -11   12     -0.47      0.00
   -6  -11   12      0.42      0.00
   -5  -11   12     -0.21      0.00
   -4  -11   12     -0.13      0.00
   -3  -11   12     -0.46      0.00
   -2  -11   12     -0.52      0.00
   -1  -11   12     -0.34      0.00
    0  -11   12     -2.71      0.00
    1  -11   12     -2.83      0.00
    2  -11   12     -3.73      0.00
    3  -11   12     -1.60      0.00
    4  -11   12     -0.76      0.00
    5  -11   12     -2.14      0.00
    6  -11   12      0.53      0.00
    7  -11   12      0.61      0.00
    8  -11   12      2.65      0.00
    9  -11   12      1.70      0.00
   10  -11   12      2.08      0.00
   11  -11   12      1.19      0.00
   -9  -10   12      0.19      0.00
   -8  -10   12      0.58      0.00
   -7  -10   12     -0.60      0.00
   -6  -10   12      0.04      0.00
   -5  -10   12     -0.09      0.00
   -4  -10   12      0.59      0.00
   -3  -10   12      0.80      0.00
   -2  -10   12      1.31      0.00
   -1  -10   12     -0.31      0.00
    0  -10   12      0.71      0.00
    1  -10   12      1.89      0.00
    2  -10   12     -0.19      0.00
    3  -10   12      1.28      0.00
    4  -10   12      0.16      0.00
    5  -10   12      0.19      0.00
    6  -10   12      0.01      0.00
    7  -10   12     -3.23      0.00
    8  -10   12     -3.00      0.00
    9  -10   12     -2.51      0.00
   10  -10   12     -1.46      0.00
   11  -10   12     -1.17      0.00
   -9   -9   12     -0.59      0.00
   -8   -9   12     -0.68      0.00
   -7   -9   12      0.42      0.00
   -6   -9   12      0.30      0.00
   -5   -9   12      0.01      0.00
   -4   -9   12      1.18      0.00
   -3   -9   12      0.29      0.00
   -2   -9   12      1.80      0.00
   -1   -9   12      1.25      0.00
    0   -9   12      2.82      0.00
    1   -9   12      0.93      0.00
    2   -9   12      1.61      0.00
    3   -9   12      1.61      0.00
    4   -9   12     -2.65      0.00
    5   -9   12      0.27      0.00
    6   -9   12     -1.27      0.00
    7   -9   12      0.42      0.00
    8   -9   12      0.99      0.00
    9   -9   12      1.06      0.00
   10   -9   12     -0.44      0.00
   11   -9   12      0.39      0.00
   -9   -8   12      0.60      0.00
   -8   -8   12     -0.44      0.00
   -7   -8   12      0.21      0.00
   -6   -8   12     -0.35      0.00
   -5   -8   12     -0.50      0.00
   -4   -8   12     -1.14      0.00
   -3   -8   12     -1.24      0.00
   -2   -8   12     -0.16      0.00
   -1   -8   12     -0.26      0.00
    0   -8   12      0.79      0.00
    1   -8   12     -3.07      0.00
    2   -8   12     -0.58      0.00
    3   -8   12     -0.89      0.00
    4   -8   12      0.98      0.00
    5   -8   12      3.18      0.00
    6   -8   12     -0.61      0.00
    7   -8   12      0.99      0.00
    8   -8   12     -0.40      0.00
    9   -8   12     -0.82      0.00
   10   -8   12     -0.49      0.00
   11   -8   12      1.21      0.00
   12   -8   12     -0.06      0.00
  -10   -7   12      0.58      0.00
   -9   -7   12      0.08      0.00
   -8   -7   12      0.10      0.00
   -7   -7   12     -0.88      0.00
   -6   -7   12     -2.40      0.00
   -5   -7   12     -0.87      0.00
   -4   -7   12     -1.35      0.00
   -3   -7   12     -0.73      0.00
   -2   -7   12     -1.93      0.00
   -1   -7   12     -1.81      0.00
    0   -7   12     -0.27      0.00
    1   -7   12      3.61      0.00
    2   -7   12      7.15      0.00
    3   -7   12      2.11      0.00
    4   -7   12      4.90      0.00
    5   -7   12      1.09      0.00
    6   -7   12      1.04      0.00
    7   -7   12      1.34      0.00
    8   -7   12     -0.54      0.00
    9   -7   12     -1.21      0.00
   10   -7   12      0.15      0.00
   11   -7   12     -0.95      0.00
   12   -7   12     -0.93      0.00
  -10   -6   12     -0.07      0.00
   -9   -6   12     -0.47      0.00
   -8   -6   12      0.39      0.00
   -7   -6   12      0.84      0.00
   -6   -6   12      1.92      0.00
   -5   -6   12      1.98      0.00
   -4   -6   12      0.32      0.00
   -3   -6   12      0.77      0.00
   -2   -6   12      0.28      0.00
   -1   -6   12      2.41      0.00
    0   -6   12     -0.38      0.00
    1   -6   12     -2.01      0.00
    2   -6   12     -5.26      0.00
    3   -6   12     -4.70      0.00
    4   -6   12     -2.03      0.00
    5   -6   12     -4.90      0.00
    6   -6   12      0.77      0.00
    7   -6   12      0.40      0.00
    8   -6   12      1.33      0.00
    9   -6   12      2.06      0.00
   10   -6   12      0.74      0.00
   11   -6   12     -0.94      0.00
   12   -6   12      0.48      0.00
  -10   -5   12      0.01      0.00
   -9   -5   12      0.51      0.00
   -8   -5   12      0.62      0.00
   -7   -5   12     -0.19      0.00
   -6   -5   12      0.59      0.00
   -5   -5   12     -0.79      0.00
   -4   -5   12     -1.81      0.00
   -3   -5   12     -1.54      0.00
   -2   -5   12     -3.58      0.00
   -1   -5   12     -4.68      0.00
    0   -5   12     -4.65      0.00
    1   -5   12     -2.20      0.00
    2   -5   12     -3.52      0.00
    3   -5   12      1.74      0.00
    4   -5   12      0.52      0.00
    5   -5   12      2.61      0.00
    6   -5   12      2.69      0.00
    7   -5   12     -0.83      0.00
    8   -5   12      0.16      0.00
    9   -5   12      0.29      0.00
   10   -5   12     -0.33      0.00
   11   -5   12      0.25      0.00
   12   -5   12      0.44      0.00
  -10   -4   12      0.39      0.00
   -9   -4   12      0.10      0.00
   -8   -4   12     -0.13      0.00
   -7   -4   12      0.03      0.00
   -6   -4   12      0.35      0.00
   -5   -4   12      1.12      0.00
   -4   -4   12      4.38      0.00
   -3   -4   12      5.24      0.00
   -2   -4   12      4.10      0.00
   -1   -4   12      2.65      0.00
    0   -4   12     -0.02      0.00
    1   -4   12     -0.53      0.00
    2   -4   12      0.56      0.00
    3   -4   12     -1.31      0.00
    4   -4   12     -6.95      0.00
    5   -4   12     -3.87      0.00
    6   -4   12     -6.03      0.00
    7   -4   12     -2.98      0.00
    8   -4   12     -0.41      0.00
    9   -4   12     -1.32      0.00
   10   -4   12      0.49      0.00
   11   -4   12      0.93      0.00
   12   -4   12     -0.29      0.00
  -10   -3   12     -0.44      0.00
   -9   -3   12      0.04      0.00
   -8   -3   12     -0.66      0.00
   -7   -3   12     -0.05      0.00
   -6   -3   12      0.23      0.00
   -5   -3   12     -0.77      0.00
   -4   -3   12     -1.51      0.00
   -3   -3   12     -3.46      0.00
   -2   -3   12     -1.22      0.00
   -1   -3   12      3.99      0.00
    0   -3   12      4.72      0.00
    1   -3   12      3.50      0.00
    2   -3   12      2.29      0.00
    3   -3   12      0.68      0.00
    4   -3   12      5.48      0.00
    5   -3   12      4.25      0.00
    6   -3   12      1.57      0.00
    7   -3   12      3.33      0.00
    8   -3   12      0.30      0.00
    9   -3   12      0.04      0.00
   10   -3   12      0.42      0.00
   11   -3   12     -0.95      0.00
   12   -3   12      0.46      0.00
  -10   -2   12     -0.31      0.00
   -9   -2   12      0.03      0.00
   -8   -2   12      0.06      0.00
   -7   -2   12     -0.20      0.00
   -6   -2   12     -1.49      0.00
   -5   -2   12     -0.51      0.00
   -4   -2   12      0.82      0.00
   -3   -2   12      1.55      0.00
   -2   -2   12      2.98      0.00
   -1   -2   12     -0.21      0.00
    0   -2   12     -0.41      0.00
    1   -2   12      3.39      0.00
    2   -2   12      0.71      0.00
    3   -2   12     -0.03      0.00
    4   -2   12      1.06      0.00
    5   -2   12     -2.56      0.00
    6   -2   12      0.30      0.00
    7   -2   12     -0.97      0.00
    8   -2   12     -3.16      0.00
    9   -2   12     -0.42      0.00
   10   -2   12     -1.68      0.00
   11   -2   12     -1.17      0.00
   12   -2   12     -1.00      0.00
   -9   -1   12      1.13      0.00
   -8   -1   12      0.64      0.00
   -7   -1   12      1.07      0.00
   -6   -1   12      0.34      0.00
   -5   -1   12      0.34      0.00
   -4   -1   12     -0.80      0.00
   -3   -1   12     -1.13      0.00
   -2   -1   12     -0.43      0.00
   -1   -1   12     -3.45      0.00
    0   -1   12     -1.67      0.00
    1   -1   12     -1.99      0.00
    2   -1   12     -0.22      0.00
    3   -1   12      6.12      0.00
    4   -1   12      0.31      0.00
    5   -1   12      0.68      0.00
    6   -1   12      2.60      0.00
    7   -1   12     -0.13      0.00
    8   -1   12      2.62      0.00
    9   -1   12      2.65      0.00
   10   -1   12      0.98      0.00
   11   -1   12      3.15      0.00
   12   -1   12      1.77      0.00
   -9    0   12     -1.55      0.00
   -8    0   12     -1.02      0.00
   -7    0   12     -1.08      0.00
   -6    0   12     -0.93      0.00
   -5    0   12     -2.24      0.00
   -4    0   12     -4.09      0.00
   -3    0   12     -4.26      0.00
   -2    0   12     -4.80      0.00
   -1    0   12     -2.47      0.00
    0    0   12      1.98      0.00
    1    0   12     -3.49      0.00
    2    0   12     -3.17      0.00
    3    0   12     -3.46      0.00
    4    0   12     -2.94      0.00
    5    0   12      3.98      0.00
    6    0   12     -0.02      0.00
    7    0   12      0.29      0.00
    8    0   12      2.08      0.00
    9    0   12     -1.33      0.00
   10    0   12     -0.42      0.00
   11    0   12     -1.14      0.00
   12    0   12     -2.19      0.00
   -9    1   12     -0.91      0.00
   -8    1   12      0.56      0.00
   -7    1   12      0.89      0.00
   -6    1   12      1.65      0.00
   -5    1   12      3.23      0.00
   -4    1   12      5.40      0.00
   -3    1   12      5.97      0.00
   -2    1   12      4.35      0.00
   -1    1   12      3.57      0.00
    0    1   12      0.13      0.00
    1    1   12      0.79      0.00
    2    1   12      5.72      0.00
    3    1   12     -1.62      0.00
    4    1   12      0.45      0.00
    5    1   12     -0.99      0.00
    6    1   12     -2.56      0.00
    7    1   12      1.06      0.00
    8    1   12     -2.15      0.00
    9    1   12     -1.89      0.00
   10    1   12      0.45      0.00
   11    1   12      0.36      0.00
   12    1   12      1.27      0.00
   -9    2   12      0.49      0.00
   -8    2   12     -0.04      0.00
   -7    2   12     -0.38      0.00
   -6    2   12      0.20      0.00
   -5    2   12     -0.09      0.00
   -4    2   12     -1.43      0.00
   -3    2   12     -3.30      0.00
   -2    2   12     -3.70      0.00
   -1    2   12     -3.09      0.00
    0    2   12     -5.85      0.00
    1    2   12     -4.24      0.00
    2    2   12     -4.98      0.00
    3    2   12     -3.93      0.00
    4    2   12      1.34      0.00
    5    2   12     -4.81      0.00
    6    2   12     -0.85      0.00
    7    2   12     -0.17      0.00
    8    2   12     -0.73      0.00
    9    2   12      3.21      0.00
   10    2   12      1.64      0.00
   11    2   12      0.50      0.00
   12    2   12      0.57      0.00
   -9    3   12      0.39      0.00
   -8    3   12      0.56      0.00
   -7    3   12     -0.86      0.00
   -6    3   12     -1.24      0.00
   -5    3   12     -1.25      0.00
   -4    3   12     -0.60      0.00
   -3    3   12      2.22      0.00
   -2    3   12      4.20      0.00
   -1    3   12      4.98      0.00
    0    3   12      7.52      0.00
    1    3   12      7.95      0.00
    2    3   12      1.19      0.00
    3    3   12      2.00      0.00
    4    3   12     -0.54      0.00
    5    3   12     -0.08      0.00
    6    3   12      2.72      0.00
    7    3   12     -2.01      0.00
    8    3   12      0.17      0.00
    9    3   12     -1.67      0.00
   10    3   12     -2.91      0.00
   11    3   12     -2.06      0.00
   12    3   12     -0.68      0.00
   -9    4   12     -0.69      0.00
   -8    4   12     -1.25      0.00
   -7    4   12     -0.49      0.00
   -6    4   12      0.79      0.00
   -5    4   12      0.73      0.00
   -4    4   12      1.13      0.00
   -3    4   12      0.58      0.00
   -2    4   12     -1.65      0.00
   -1    4   12     -3.01      0.00
    0    4   12     -4.25      0.00
    1    4   12     -4.03      0.00
    2    4   12      0.57      0.00
    3    4   12      3.62      0.00
    4    4   12     -1.37      0.00
    5    4   12      1.93      0.00
    6    4   12     -0.60      0.00
    7    4   12     -0.92      0.00
    8    4   12      0.94      0.00
    9    4   12     -1.69      0.00
   10    4   12      0.33      0.00
   11    4   12     -0.46      0.00
   12    4   12     -0.29      0.00
   -9    5   12      1.21      0.00
   -8    5   12      0.87      0.00
   -7    5   12      0.69      0.00
   -6    5   12     -0.46      0.00
   -5    5   12     -1.83      0.00
   -4    5   12     -1.95      0.00
   -3    5   12     -2.28      0.00
   -2    5   12     -1.02      0.00
   -1    5   12      2.56      0.00
    0    5   12      3.40      0.00
    1    5   12      3.45      0.00
    2    5   12      3.36      0.00
    3    5   12      1.35      0.00
    4    5   12      3.10      0.00
    5    5   12      3.07      0.00
    6    5   12     -1.21      0.00
    7    5   12      1.72      0.00
    8    5   12     -0.26      0.00
    9    5   12      0.47      0.00
   10    5   12      1.08      0.00
   11    5   12      0.53      0.00
   12    5   12      0.05      0.00
   -9    6   12      0.54      0.00
   -8    6   12      0.61      0.00
   -7    6   12      0.92      0.00
   -6    6   12     -0.03      0.00
   -5    6   12      1.38      0.00
   -4    6   12      1.45      0.00
   -3    6   12      0.00      0.00
   -2    6   12      0.29      0.00
   -1    6   12     -2.77      0.00
    0    6   12     -4.60      0.00
    1    6   12     -3.12      0.00
    2    6   12     -5.32      0.00
    3    6   12     -5.81      0.00
    4    6   12     -2.48      0.00
    5    6   12     -2.63      0.00
    6    6   12      0.59      0.00
    7    6   12      1.36      0.00
    8    6   12     -0.31      0.00
    9    6   12      1.83      0.00
   10    6   12     -0.46      0.00
   11    6   12      0.37      0.00
   12    6   12     -0.42      0.00
   -9    7   12     -0.61      0.00
   -8    7   12     -1.04      0.00
   -7    7   12     -0.40      0.00
   -6    7   12      0.39      0.00
   -5    7   12      0.48      0.00
   -4    7   12     -0.05      0.00
   -3    7   12      0.39      0.00
   -2    7   12      0.55      0.00
   -1    7   12     -1.39      0.00
    0    7   12      0.29      0.00
    1    7   12      0.20      0.00
    2    7   12      1.18      0.00
    3    7   12      4.79      0.00
    4    7   12      2.07      0.00
    5    7   12     -0.02      0.00
    6    7   12      1.11      0.00
    7    7   12     -0.75      0.00
    8    7   12      0.84      0.00
    9    7   12      0.37      0.00
   10    7   12      0.09      0.00
   11    7   12      1.16      0.00
   12    7   12      0.41      0.00
   -9    8   12      0.50      0.00
   -8    8   12      0.78      0.00
   -7    8   12      0.29      0.00
   -6    8   12      0.18      0.00
   -5    8   12     -0.54      0.00
   -4    8   12     -0.83      0.00
   -3    8   12      0.57      0.00
   -2    8   12      0.47      0.00
   -1    8   12      2.21      0.00
    0    8   12      3.89      0.00
    1    8   12      0.49      0.00
    2    8   12      0.33      0.00
    3    8   12     -1.11      0.00
    4    8   12     -1.76      0.00
    5    8   12      1.51      0.00
    6    8   12     -0.03      0.00
    7    8   12     -0.50      0.00
    8    8   12      0.09      0.00
    9    8   12     -1.55      0.00
   10    8   12      0.70      0.00
   11    8   12      0.46      0.00
   12    8   12      0.52      0.00
   -8    9   12     -0.92      0.00
   -7    9   12     -0.35      0.00
   -6    9   12     -0.59      0.00
   -5    9   12      0.00      0.00
   -4    9   12      1.23      0.00
   -3    9   12      1.34      0.00
   -2    9   12      0.02      0.00
   -1    9   12      0.81      0.00
    0    9   12     -1.71      0.00
    1    9   12     -2.19      0.00
    2    9   12     -0.44      0.00
    3    9   12     -3.59      0.00
    4    9   12     -2.06      0.00
    5    9   12     -2.02      0.00
    6    9   12     -2.90      0.00
    7    9   12     -0.20      0.00
    8    9   12     -0.89      0.00
    9    9   12      0.01      0.00
   10    9   12      0.41      0.00
   11    9   12     -1.01      0.00
   12    9   12     -0.01      0.00
   -8   10   12      0.20      0.00
   -7   10   12      0.89      0.00
   -6   10   12      0.28      0.00
   -5   10   12     -0.11      0.00
   -4   10   12     -1.56      0.00
   -3   10   12     -2.34      0.00
   -2   10   12     -1.22      0.00
   -1   10   12     -0.47      0.00
    0   10   12     -0.14      0.00
    1   10   12      2.86      0.00
    2   10   12      2.41      0.00
    3   10   12      2.97      0.00
    4   10   12      4.42      0.00
    5   10   12      0.86      0.00
    6   10   12      1.66      0.00
    7   10   12      1.68      0.00
    8   10   12     -0.22      0.00
    9   10   12      0.89      0.00
   10   10   12     -0.70      0.00
   11   10   12     -0.85      0.00
   12   10   12     -0.18      0.00
   -8   11   12      0.05      0.00
   -7   11   12     -0.70      0.00
   -6   11   12     -0.23      0.00
   -5   11   12      0.94      0.00
   -4   11   12      1.05      0.00
   -3   11   12      0.85      0.00
   -2   11   12      1.15      0.00
   -1   11   12      0.26      0.00
    0   11   12      1.06      0.00
    1   11   12      1.23      0.00
    2   11   12     -1.22      0.00
    3   11   12     -0.28      0.00
    4   11   12     -1.97      0.00
    5   11   12     -1.35      0.00
    6   11   12      1.30      0.00
    7   11   12     -1.17      0.00
    8   11   12     -0.91      0.00
    9   11   12     -0.09      0.00
   10   11   12     -0.69      0.00
   11   11   12      0.76      0.00
   12   11   12      0.23      0.00
   -8   12   12     -0.33      0.00
   -7   12   12     -1.30      0.00
   -6   12   12      0.04      0.00
   -5   12   12     -0.45      0.00
   -4   12   12     -0.29      0.00
   -3   12   12      0.21      0.00
   -2   12   12     -1.21      0.00
   -1   12   12     -1.56      0.00
    0   12   12     -1.48      0.00
    1   12   12     -2.38      0.00
    2   12   12     -0.62      0.00
    3   12   12      1.36      0.00
    4   12   12      0.17      0.00
    5   12   12      1.18      0.00
    6   12   12     -0.16      0.00
    7   12   12     -0.74      0.00
    8   12   12      1.83      0.00
    9   12   12      0.30      0.00
   10   12   12     -0.54      0.00
   11   12   12     -0.29      0.00
   12   12   12     -0.33      0.00
   -8   13   12      0.84      0.00
   -7   13   12      0.67      0.00
   -6   13   12      0.18      0.00
   -5   13   12     -0.78      0.00
   -4   13   12     -0.20      0.00
   -3   13   12     -0.23      0.00
   -2   13   12      0.08      0.00
   -1   13   12      0.65      0.00
    0   13   12     -0.40      0.00
    1   13   12     -0.35      0.00
    2   13   12      0.35      0.00
    3   13   12     -1.28      0.00
    4   13   12     -0.98      0.00
    5   13   12      0.11      0.00
    6   13   12     -1.82      0.00
    7   13   12     -0.83      0.00
    8   13   12     -0.41      0.00
    9   13   12     -1.20      0.00
   10   13   12      0.58      0.00
   11   13   12     -0.26      0.00
   -7   14   12      0.32      0.00
   -6   14   12      0.01      0.00
   -5   14   12      0.05      0.00
   -4   14   12      0.84      0.00
   -3   14   12     -0.29      0.00
   -2   14   12      0.45      0.00
   -1   14   12     -0.02      0.00
    0   14   12      0.28      0.00
    1   14   12      0.60      0.00
    2   14   12      0.10      0.00
    3   14   12      0.15      0.00
    4   14   12      1.04      0.00
    5   14   12      1.11      0.00
    6   14   12      1.42      0.00
    7   14   12      2.30      0.00
    8   14   12      0.26      0.00
    9   14   12      0.14      0.00
   10   14   12      0.77      0.00
   11   14   12      0.45      0.00
   -7   15   12     -0.24      0.00
   -6   15   12     -0.38      0.00
   -5   15   12     -0.13      0.00
   -4   15   12     -0.28      0.00
   -3   15   12      0.10      0.00
   -2   15   12      0.96      0.00
   -1   15   12     -0.01      0.00
    0   15   12      0.50      0.00
    1   15   12     -0.37      0.00
    2   15   12     -0.74      0.00
    3   15   12     -0.23      0.00
    4   15   12      0.31      0.00
    5   15   12     -0.99      0.00
    6   15   12     -0.91      0.00
    7   15   12     -1.05      0.00
    8   15   12     -0.71      0.00
    9   15   12      0.59      0.00
   10   15   12     -0.38      0.00
   11   15   12      0.13      0.00
   -7   16   12      0.68      0.00
   -6   16   12      0.84      0.00
   -5   16   12      0.94      0.00
   -4   16   12     -0.35      0.00
   -3   16   12     -0.17      0.00
   -2   16   12     -0.64      0.00
   -1   16   12      0.49      0.00
    0   16   12      0.34      0.00
    1   16   12      0.41      0.00
    2   16   12      1.15      0.00
    3   16   12     -1.05      0.00
    4   16   12     -1.27      0.00
    5   16   12     -0.83      0.00
    6   16   12      0.98      0.00
    7   16   12      0.32      0.00
    8   16   12      0.47      0.00
   -5   17   12     -0.12      0.00
   -4   17   12      0.19      0.00
   -3   17   12      1.27      0.00
   -2   17   12      0.34      0.00
   -1   17   12      0.60      0.00
    0   17   12     -0.21      0.00
    1   17   12      0.00      0.00
    2   17   12     -0.70      0.00
    3   17   12      0.18      0.00
    4   17   12      1.19      0.00
    5   17   12     -0.21      0.00
    6   17   12     -0.75      0.00
    7   17   12     -0.30      0.00
   -5   18   12     -0.13      0.00
   -4   18   12     -0.76      0.00
   -3   18   12     -0.79      0.00
   -2   18   12     -0.86      0.00
   -1   18   12     -1.37      0.00
    0   18   12     -0.52      0.00
    1   18   12      0.82      0.00
    2   18   12      0.24      0.00
    3   18   12      1.50      0.00
    4   18   12      0.75      0.00
    5   18   12      1.21      0.00
    6   18   12      0.47      0.00
    7   18   12      0.07      0.00
   -5   19   12     -0.26      0.00
   -4   19   12      0.19      0.00
   -3   19   12     -0.53      0.00
   -2   19   12     -0.09      0.00
   -1   19   12      0.81      0.00
    0   19   12      1.01      0.00
    1   19   12     -0.36      0.00
    2   19   12     -0.19      0.00
    3   19   12      0.16      0.00
    4   19   12     -1.85      0.00
    5   19   12     -0.59      0.00
    6   19   12      0.31      0.00
    7   19   12      0.22      0.00
   -4   20   12      0.86      0.00
   -3   20   12      0.41      0.00
   -2   20   12     -0.14      0.00
   -1   20   12     -0.73      0.00
    0   20   12     -1.25      0.00
    1   20   12     -0.88      0.00
    2   20   12     -0.56      0.00
    3   20   12     -0.91      0.00
    4   20   12      0.15      0.00
    5   20   12      0.14      0.00
    6   20   12     -0.73      0.00
    7   20   12     -0.10      0.00
   -3   21   12     -0.05      0.00
   -2   21   12      1.25      0.00
   -1   21   12      0.80      0.00
    0   21   12      0.33      0.00
    1   21   12      0.92      0.00
    2   21   12      1.04      0.00
    3   21   12      0.53      0.00
    4   21   12      0.58      0.00
    5   21   12      0.69      0.00
    6   21   12      0.52      0.00
    7   21   12      0.26      0.00
   -2   22   12     -0.62      0.00
   -1   22   12     -0.59      0.00
    0   22   12      0.79      0.00
    1   22   12     -0.26      0.00
    2   22   12     -0.68      0.00
    3   22   12      0.18      0.00
    4   22   12      0.00      0.00
    5   22   12     -0.62      0.00
    6   22   12     -0.48      0.00
    7   22   12     -0.42      0.00
   -1   23   12     -0.13      0.00
    0   23   12     -0.28      0.00
    1   23   12     -0.35      0.00
    2   23   12      0.68      0.00
    3   23   12     -0.35      0.00
    4   23   12     -0.24      0.00
    5   23   12     -0.12      0.00
    1   24   12     -0.68      0.00
    2   24   12     -0.45      0.00
    3   24   12     -1.09      0.00
   -1  -21   13     -0.75      0.00
    0  -21   13     -0.39      0.00
    1  -21   13     -0.20      0.00
    2  -21   13     -0.14      0.00
    3  -21   13      0.74      0.00
   -3  -20   13     -0.37      0.00
   -2  -20   13     -0.05      0.00
   -1  -20   13      0.40      0.00
    0  -20   13     -0.62      0.00
    1  -20   13     -1.05      0.00
    2  -20   13     -0.49      0.00
    3  -20   13     -0.26      0.00
    4  -20   13     -0.52      0.00
    5  -20   13     -0.19      0.00
   -4  -19   13     -0.04      0.00
   -3  -19   13      0.42      0.00
   -2  -19   13     -0.02      0.00
   -1  -19   13     -0.16      0.00
    0  -19   13      0.57      0.00
    1  -19   13      0.22      0.00
    2  -19   13      0.20      0.00
    3  -19   13     -0.61      0.00
    4  -19   13     -0.36      0.00
    5  -19   13      1.41      0.00
    6  -19   13      1.50      0.00
   -5  -18   13      0.44      0.00
   -4  -18   13      0.13      0.00
   -3  -18   13     -0.09      0.00
   -2  -18   13      0.14      0.00
   -1  -18   13     -0.44      0.00
    0  -18   13     -0.57      0.00
    1  -18   13      0.01      0.00
    2  -18   13      0.43      0.00
    3  -18   13      0.20      0.00
    4  -18   13      0.84      0.00
    5  -18   13     -1.14      0.00
    6  -18   13     -1.61      0.00
    7  -18   13     -0.45      0.00
   -6  -17   13      0.10      0.00
   -5  -17   13     -0.17      0.00
   -4  -17   13      0.72      0.00
   -3  -17   13      0.43      0.00
   -2  -17   13     -0.18      0.00
   -1  -17   13      0.86      0.00
    0  -17   13      0.48      0.00
    1  -17   13      0.19      0.00
    2  -17   13      0.20      0.00
    3  -17   13      0.05      0.00
    4  -17   13      0.22      0.00
    5  -17   13     -0.92      0.00
    6  -17   13     -0.06      0.00
    7  -17   13     -1.21      0.00
    8  -17   13     -1.03      0.00
   -6  -16   13     -0.67      0.00
   -5  -16   13     -0.86      0.00
   -4  -16   13     -0.78      0.00
   -3  -16   13      0.00      0.00
   -2  -16   13      0.40      0.00
   -1  -16   13      0.36      0.00
    0  -16   13      0.43      0.00
    1  -16   13      0.54      0.00
    2  -16   13     -0.84      0.00
    3  -16   13     -0.88      0.00
    4  -16   13     -1.17      0.00
    5  -16   13     -0.53      0.00
    6  -16   13      0.22      0.00
    7  -16   13     -1.10      0.00
    8  -16   13     -0.94      0.00
   -7  -15   13      1.01      0.00
   -6  -15   13      1.30      0.00
   -5  -15   13      1.22      0.00
   -4  -15   13      0.77      0.00
   -3  -15   13     -0.49      0.00
   -2  -15   13      0.17      0.00
   -1  -15   13     -0.38      0.00
    0  -15   13     -1.33      0.00
    1  -15   13     -0.78      0.00
    2  -15   13      0.18      0.00
    3  -15   13      1.20      0.00
    4  -15   13      0.18      0.00
    5  -15   13      1.10      0.00
    6  -15   13      1.03      0.00
    7  -15   13      1.73      0.00
    8  -15   13      2.25      0.00
    9  -15   13      0.03      0.00
   -7  -14   13     -0.75      0.00
   -6  -14   13     -0.39      0.00
   -5  -14   13     -0.74      0.00
   -4  -14   13     -0.86      0.00
   -3  -14   13     -0.58      0.00
   -2  -14   13     -0.37      0.00
   -1  -14   13     -0.69      0.00
    0  -14   13      0.57      0.00
    1  -14   13      0.18      0.00
    2  -14   13      0.08      0.00
    3  -14   13      1.24      0.00
    4  -14   13      1.77      0.00
    5  -14   13      2.37      0.00
    6  -14   13      0.82      0.00
    7  -14   13      0.03      0.00
    8  -14   13      0.53      0.00
    9  -14   13      0.82      0.00
   10  -14   13      1.66      0.00
   -8  -13   13      0.85      0.00
   -7  -13   13      0.27      0.00
   -6  -13   13     -0.81      0.00
   -5  -13   13      0.22      0.00
   -4  -13   13      0.72      0.00
   -3  -13   13      0.53      0.00
   -2  -13   13      0.09      0.00
   -1  -13   13     -0.13      0.00
    0  -13   13      1.12      0.00
    1  -13   13      0.86      0.00
    2  -13   13      0.16      0.00
    3  -13   13     -2.18      0.00
    4  -13   13     -2.89      0.00
    5  -13   13     -2.16      0.00
    6  -13   13     -2.09      0.00
    7  -13   13      0.00      0.00
    8  -13   13     -0.19      0.00
    9  -13   13      0.08      0.00
   10  -13   13      0.50      0.00
   -8  -12   13     -0.67      0.00
   -7  -12   13      0.63      0.00
   -6  -12   13      0.75      0.00
   -5  -12   13      0.38      0.00
   -4  -12   13      0.01      0.00
   -3  -12   13      0.14      0.00
   -2  -12   13     -0.27      0.00
   -1  -12   13     -0.30      0.00
    0  -12   13     -1.86      0.00
    1  -12   13     -2.94      0.00
    2  -12   13     -0.35      0.00
    3  -12   13      0.12      0.00
    4  -12   13      0.33      0.00
    5  -12   13      0.30      0.00
    6  -12   13     -0.42      0.00
    7  -12   13      1.65      0.00
    8  -12   13      0.24      0.00
    9  -12   13      0.95      0.00
   10  -12   13      0.12      0.00
   -8  -11   13     -0.28      0.00
   -7  -11   13     -0.98      0.00
   -6  -11   13     -0.97      0.00
   -5  -11   13     -0.04      0.00
   -4  -11   13     -0.49      0.00
   -3  -11   13      0.83      0.00
   -2  -11   13      1.06      0.00
   -1  -11   13      1.50      0.00
    0  -11   13      1.07      0.00
    1  -11   13      1.79      0.00
    2  -11   13      0.42      0.00
    3  -11   13     -0.65      0.00
    4  -11   13      1.56      0.00
    5  -11   13     -0.08      0.00
    6  -11   13     -1.10      0.00
    7  -11   13     -2.46      0.00
    8  -11   13     -3.52      0.00
    9  -11   13     -1.99      0.00
   10  -11   13     -1.20      0.00
   11  -11   13     -0.87      0.00
   -9  -10   13     -0.39      0.00
   -8  -10   13      0.51      0.00
   -7  -10   13      0.26      0.00
   -6  -10   13      0.20      0.00
   -5  -10   13      0.45      0.00
   -4  -10   13      0.25      0.00
   -3  -10   13      0.35      0.00
   -2  -10   13     -0.42      0.00
   -1  -10   13      0.91      0.00
    0  -10   13      0.39      0.00
    1  -10   13      2.25      0.00
    2  -10   13      0.91      0.00
    3  -10   13      0.59      0.00
    4  -10   13      0.55      0.00
    5  -10   13     -1.48      0.00
    6  -10   13      2.20      0.00
    7  -10   13      0.87      0.00
    8  -10   13      1.61      0.00
    9  -10   13      0.35      0.00
   10  -10   13      0.14      0.00
   11  -10   13     -0.86      0.00
   -9   -9   13      0.06      0.00
   -8   -9   13      0.25      0.00
   -7   -9   13     -0.45      0.00
   -6   -9   13      0.54      0.00
   -5   -9   13     -1.58      0.00
   -4   -9   13     -1.89      0.00
   -3   -9   13     -1.58      0.00
   -2   -9   13     -1.13      0.00
   -1   -9   13     -0.52      0.00
    0   -9   13     -0.72      0.00
    1   -9   13     -0.98      0.00
    2   -9   13     -1.98      0.00
    3   -9   13      1.97      0.00
    4   -9   13      0.87      0.00
    5   -9   13      0.91      0.00
    6   -9   13      1.69      0.00
    7   -9   13     -0.65      0.00
    8   -9   13      0.46      0.00
    9   -9   13      0.20      0.00
   10   -9   13      0.00      0.00
   11   -9   13      0.32      0.00
   -9   -8   13      0.60      0.00
   -8   -8   13     -0.13      0.00
   -7   -8   13     -0.57      0.00
   -6   -8   13     -0.61      0.00
   -5   -8   13     -0.45      0.00
   -4   -8   13      1.65      0.00
   -3   -8   13      0.23      0.00
   -2   -8   13      0.42      0.00
   -1   -8   13     -1.17      0.00
    0   -8   13      0.81      0.00
    1   -8   13      1.82      0.00
    2   -8   13      2.04      0.00
    3   -8   13      1.54      0.00
    4   -8   13     -1.92      0.00
    5   -8   13      1.71      0.00
    6   -8   13     -0.68      0.00
    7   -8   13      0.05      0.00
    8   -8   13      0.26      0.00
    9   -8   13     -0.07      0.00
   10   -8   13     -0.98      0.00
   11   -8   13     -0.23      0.00
   -9   -7   13      0.07      0.00
   -8   -7   13     -0.02      0.00
   -7   -7   13      2.08      0.00
   -6   -7   13      1.45      0.00
   -5   -7   13      1.17      0.00
   -4   -7   13      0.76      0.00
   -3   -7   13     -1.38      0.00
   -2   -7   13     -0.91      0.00
   -1   -7   13     -1.86      0.00
    0   -7   13     -2.05      0.00
    1   -7   13     -5.14      0.00
    2   -7   13     -2.93      0.00
    3   -7   13     -3.64      0.00
    4   -7   13     -2.37      0.00
    5   -7   13     -0.17      0.00
    6   -7   13     -1.52      0.00
    7   -7   13      1.71      0.00
    8   -7   13      1.53      0.00
    9   -7   13      1.05      0.00
   10   -7   13      0.99      0.00
   11   -7   13      0.93      0.00
   12   -7   13     -0.61      0.00
   -9   -6   13     -0.47      0.00
   -8   -6   13     -0.18      0.00
   -7   -6   13     -0.39      0.00
   -6   -6   13     -0.80      0.00
   -5   -6   13      0.20      0.00
   -4   -6   13     -0.63      0.00
   -3   -6   13      0.47      0.00
   -2   -6   13      1.35      0.00
   -1   -6   13      0.95      0.00
    0   -6   13      1.14      0.00
    1   -6   13      0.65      0.00
    2   -6   13      1.26      0.00
    3   -6   13     -0.68      0.00
    4   -6   13      3.01      0.00
    5   -6   13     -0.62      0.00
    6   -6   13     -0.54      0.00
    7   -6   13     -0.68      0.00
    8   -6   13     -1.74      0.00
    9   -6   13     -0.70      0.00
   10   -6   13      0.58      0.00
   11   -6   13     -0.09      0.00
   12   -6   13      0.00      0.00
   -9   -5   13      0.46      0.00
   -8   -5   13      0.78      0.00
   -7   -5   13     -0.38      0.00
   -6   -5   13     -0.15      0.00
   -5   -5   13      1.62      0.00
   -4   -5   13      2.24      0.00
   -3   -5   13      3.07      0.00
   -2   -5   13      1.39      0.00
   -1   -5   13     -0.45      0.00
    0   -5   13     -1.68      0.00
    1   -5   13     -0.71      0.00
    2   -5   13     -1.05      0.00
    3   -5   13     -1.52      0.00
    4   -5   13     -2.60      0.00
    5   -5   13     -4.15      0.00
    6   -5   13     -0.36      0.00
    7   -5   13     -1.51      0.00
    8   -5   13     -0.63      0.00
    9   -5   13      0.55      0.00
   10   -5   13     -0.04      0.00
   11   -5   13      0.08      0.00
   12   -5   13     -0.05      0.00
   -9   -4   13     -0.39      0.00
   -8   -4   13     -0.81      0.00
   -7   -4   13     -0.75      0.00
   -6   -4   13     -0.11      0.00
   -5   -4   13     -1.72      0.00
   -4   -4   13     -3.17      0.00
   -3   -4   13     -1.92      0.00
   -2   -4   13     -0.26      0.00
   -1   -4   13      4.09      0.00
    0   -4   13      6.64      0.00
    1   -4   13      5.32      0.00
    2   -4   13      3.93      0.00
    3   -4   13      5.73      0.00
    4   -4   13      3.11      0.00
    5   -4   13      4.53      0.00
    6   -4   13      2.35      0.00
    7   -4   13      0.10      0.00
    8   -4   13      0.95      0.00
    9   -4   13     -0.87      0.00
   10   -4   13     -1.75      0.00
   11   -4   13     -0.32      0.00
   12   -4   13      0.73      0.00
   -9   -3   13     -0.10      0.00
   -8   -3   13      0.71      0.00
   -7   -3   13      0.46      0.00
   -6   -3   13     -0.16      0.00
   -5   -3   13     -0.23      0.00
   -4   -3   13      0.99      0.00
   -3   -3   13      1.75      0.00
   -2   -3   13     -0.19      0.00
   -1   -3   13     -1.16      0.00
    0   -3   13     -3.16      0.00
    1   -3   13     -2.81      0.00
    2   -3   13     -1.27      0.00
    3   -3   13     -3.22      0.00
    4   -3   13     -1.82      0.00
    5   -3   13      0.82      0.00
    6   -3   13     -1.89      0.00
    7   -3   13      0.15      0.00
    8   -3   13      0.14      0.00
    9   -3   13     -0.99      0.00
   10   -3   13      1.37      0.00
   11   -3   13     -0.06      0.00
   12   -3   13     -0.94      0.00
   -9   -2   13      0.32      0.00
   -8   -2   13      0.02      0.00
   -7   -2   13      0.05      0.00
   -6   -2   13      0.02      0.00
   -5   -2   13     -0.46      0.00
   -4   -2   13     -0.81      0.00
   -3   -2   13     -2.51      0.00
   -2   -2   13     -2.96      0.00
   -1   -2   13     -1.81      0.00
    0   -2   13     -3.56      0.00
    1   -2   13      0.24      0.00
    2   -2   13      2.55      0.00
    3   -2   13      1.52      0.00
    4   -2   13      3.91      0.00
    5   -2   13     -0.29      0.00
    6   -2   13      0.97      0.00
    7   -2   13      2.83      0.00
    8   -2   13      0.16      0.00
    9   -2   13      1.55      0.00
   10   -2   13      1.85      0.00
   11   -2   13      0.62      0.00
   12   -2   13      1.61      0.00
   -9   -1   13     -0.46      0.00
   -8   -1   13     -1.07      0.00
   -7   -1   13     -0.85      0.00
   -6   -1   13     -0.21      0.00
   -5   -1   13     -0.68      0.00
   -4   -1   13     -1.74      0.00
   -3   -1   13     -2.08      0.00
   -2   -1   13     -0.31      0.00
   -1   -1   13      0.43      0.00
    0   -1   13      0.82      0.00
    1   -1   13      0.15      0.00
    2   -1   13     -6.31      0.00
    3   -1   13     -3.41      0.00
    4   -1   13     -1.56      0.00
    5   -1   13     -2.85      0.00
    6   -1   13      0.92      0.00
    7   -1   13     -1.03      0.00
    8   -1   13     -0.85      0.00
    9   -1   13      0.87      0.00
   10   -1   13     -2.17      0.00
   11   -1   13     -1.66      0.00
   12   -1   13     -0.43      0.00
   -9    0   13      0.15      0.00
   -8    0   13      0.04      0.00
   -7    0   13      1.30      0.00
   -6    0   13      1.67      0.00
   -5    0   13      3.29      0.00
   -4    0   13      4.84      0.00
   -3    0   13      5.04      0.00
   -2    0   13      3.54      0.00
   -1    0   13     -0.75      0.00
    0    0   13     -0.13      0.00
    1    0   13      0.00      0.00
    2    0   13      0.19      0.00
    3    0   13      2.89      0.00
    4    0   13     -3.32      0.00
    5    0   13      0.48      0.00
    6    0   13      0.29      0.00
    7    0   13     -2.47      0.00
    8    0   13      0.08      0.00
    9    0   13     -1.26      0.00
   10    0   13     -0.47      0.00
   11    0   13      2.03      0.00
   12    0   13      0.58      0.00
   -9    1   13      0.27      0.00
   -8    1   13     -0.35      0.00
   -7    1   13     -0.05      0.00
   -6    1   13     -0.90      0.00
   -5    1   13     -2.12      0.00
   -4    1   13     -2.67      0.00
   -3    1   13     -3.11      0.00
   -2    1   13     -2.48      0.00
   -1    1   13     -0.84      0.00
    0    1   13      0.51      0.00
    1    1   13     -2.00      0.00
    2    1   13      1.56      0.00
    3    1   13      1.02      0.00
    4    1   13     -1.00      0.00
    5    1   13      1.40      0.00
    6    1   13     -2.95      0.00
    7    1   13      0.50      0.00
    8    1   13      1.58      0.00
    9    1   13     -0.11      0.00
   10    1   13      1.19      0.00
   11    1   13     -0.08      0.00
   12    1   13     -1.20      0.00
   -9    2   13      0.39      0.00
   -8    2   13      0.97      0.00
   -7    2   13     -0.45      0.00
   -6    2   13     -1.43      0.00
   -5    2   13     -0.26      0.00
   -4    2   13      1.09      0.00
   -3    2   13      2.23      0.00
   -2    2   13      3.77      0.00
   -1    2   13      4.63      0.00
    0    2   13      4.19      0.00
    1    2   13      2.66      0.00
    2    2   13      1.03      0.00
    3    2   13     -4.11      0.00
    4    2   13      0.90      0.00
    5    2   13     -0.47      0.00
    6    2   13     -1.20      0.00
    7    2   13      1.11      0.00
    8    2   13     -2.48      0.00
    9    2   13     -0.99      0.00
   10    2   13     -1.52      0.00
   11    2   13     -1.84      0.00
   12    2   13     -1.16      0.00
   -9    3   13     -0.96      0.00
   -8    3   13     -0.54      0.00
   -7    3   13     -0.11      0.00
   -6    3   13      0.65      0.00
   -5    3   13      0.81      0.00
   -4    3   13     -0.65      0.00
   -3    3   13     -2.13      0.00
   -2    3   13     -3.37      0.00
   -1    3   13     -5.15      0.00
    0    3   13     -5.05      0.00
    1    3   13     -1.14      0.00
    2    3   13      1.97      0.00
    3    3   13      3.71      0.00
    4    3   13      4.91      0.00
    5    3   13      0.56      0.00
    6    3   13      4.13      0.00
    7    3   13      1.21      0.00
    8    3   13     -0.10      0.00
    9    3   13      1.69      0.00
   10    3   13     -0.05      0.00
   11    3   13      0.31      0.00
   12    3   13     -0.14      0.00
   -9    4   13      0.81      0.00
   -8    4   13      1.10      0.00
   -7    4   13      0.06      0.00
   -6    4   13      0.27      0.00
   -5    4   13     -1.08      0.00
   -4    4   13     -1.58      0.00
   -3    4   13      0.17      0.00
   -2    4   13      1.02      0.00
   -1    4   13      3.12      0.00
    0    4   13      4.52      0.00
    1    4   13      1.88      0.00
    2    4   13     -0.37      0.00
    3    4   13      1.01      0.00
    4    4   13     -1.42      0.00
    5    4   13     -1.24      0.00
    6    4   13     -0.53      0.00
    7    4   13     -2.49      0.00
    8    4   13      1.42      0.00
    9    4   13     -0.09      0.00
   10    4   13      1.10      0.00
   11    4   13      1.06      0.00
   12    4   13      1.08      0.00
   -8    5   13      0.71      0.00
   -7    5   13      0.79      0.00
   -6    5   13      1.19      0.00
   -5    5   13      1.38      0.00
   -4    5   13      1.91      0.00
   -3    5   13      0.97      0.00
   -2    5   13     -1.43      0.00
   -1    5   13     -2.49      0.00
    0    5   13     -4.67      0.00
    1    5   13     -5.05      0.00
    2    5   13     -4.01      0.00
    3    5   13     -4.63      0.00
    4    5   13     -3.58      0.00
    5    5   13      1.48      0.00
    6    5   13      0.11      0.00
    7    5   13      1.21      0.00
    8    5   13      1.69      0.00
    9    5   13     -0.15      0.00
   10    5   13      1.12      0.00
   11    5   13     -0.47      0.00
   12    5   13      0.75      0.00
   -8    6   13     -2.03      0.00
   -7    6   13     -1.21      0.00
   -6    6   13     -1.05      0.00
   -5    6   13     -0.74      0.00
   -4    6   13      0.03      0.00
   -3    6   13     -0.07      0.00
   -2    6   13      0.52      0.00
   -1    6   13      1.17      0.00
    0    6   13      0.11      0.00
    1    6   13      2.69      0.00
    2    6   13      3.66      0.00
    3    6   13      2.66      0.00
    4    6   13      2.57      0.00
    5    6   13     -0.39      0.00
    6    6   13     -1.57      0.00
    7    6   13      0.53      0.00
    8    6   13     -1.59      0.00
    9    6   13      0.02      0.00
   10    6   13     -0.20      0.00
   11    6   13      0.36      0.00
   12    6   13      0.79      0.00
   -8    7   13      1.39      0.00
   -7    7   13      0.77      0.00
   -6    7   13     -0.06      0.00
   -5    7   13      0.13      0.00
   -4    7   13     -0.43      0.00
   -3    7   13      0.06      0.00
   -2    7   13      2.49      0.00
   -1    7   13      2.62      0.00
    0    7   13      3.12      0.00
    1    7   13      2.41      0.00
    2    7   13     -2.05      0.00
    3    7   13     -0.81      0.00
    4    7   13      0.12      0.00
    5    7   13     -0.72      0.00
    6    7   13      1.03      0.00
    7    7   13     -0.62      0.00
    8    7   13     -1.08      0.00
    9    7   13      0.01      0.00
   10    7   13     -1.29      0.00
   11    7   13      0.60      0.00
   12    7   13     -0.07      0.00
   -8    8   13     -1.05      0.00
   -7    8   13     -0.86      0.00
   -6    8   13      0.00      0.00
   -5    8   13     -0.06      0.00
   -4    8   13     -0.03      0.00
   -3    8   13     -0.55      0.00
   -2    8   13     -1.63      0.00
   -1    8   13     -2.97      0.00
    0    8   13     -1.65      0.00
    1    8   13     -2.03      0.00
    2    8   13     -1.61      0.00
    3    8   13     -0.39      0.00
    4    8   13     -3.13      0.00
    5    8   13     -1.29      0.00
    6    8   13     -0.74      0.00
    7    8   13     -1.72      0.00
    8    8   13      0.83      0.00
    9    8   13     -0.18      0.00
   10    8   13     -0.20      0.00
   11    8   13     -0.47      0.00
   12    8   13     -1.48      0.00
   -8    9   13      0.19      0.00
   -7    9   13      0.62      0.00
   -6    9   13      0.75      0.00
   -5    9   13     -0.66      0.00
   -4    9   13     -0.90      0.00
   -3    9   13     -0.38      0.00
   -2    9   13     -0.52      0.00
   -1    9   13      0.64      0.00
    0    9   13      1.64      0.00
    1    9   13      1.37      0.00
    2    9   13      4.55      0.00
    3    9   13      3.73      0.00
    4    9   13      2.77      0.00
    5    9   13      3.20      0.00
    6    9   13      0.46      0.00
    7    9   13      1.77      0.00
    8    9   13      1.38      0.00
    9    9   13     -0.89      0.00
   10    9   13      0.45      0.00
   11    9   13     -0.33      0.00
   12    9   13     -0.18      0.00
   -8   10   13     -0.64      0.00
   -7   10   13     -0.04      0.00
   -6   10   13     -0.55      0.00
   -5   10   13      0.89      0.00
   -4   10   13      1.57      0.00
   -3   10   13      0.63      0.00
   -2   10   13     -0.04      0.00
   -1   10   13     -0.07      0.00
    0   10   13     -1.27      0.00
    1   10   13     -1.51      0.00
    2   10   13     -1.73      0.00
    3   10   13     -4.07      0.00
    4   10   13     -0.99      0.00
    5   10   13     -0.85      0.00
    6   10   13     -0.89      0.00
    7   10   13      0.59      0.00
    8   10   13     -1.64      0.00
    9   10   13     -0.52      0.00
   10   10   13      0.21      0.00
   11   10   13     -0.71      0.00
   12   10   13     -0.08      0.00
   -7   11   13     -0.05      0.00
   -6   11   13     -0.62      0.00
   -5   11   13     -0.08      0.00
   -4   11   13     -0.47      0.00
   -3   11   13     -0.39      0.00
   -2   11   13     -0.18      0.00
   -1   11   13     -1.07      0.00
    0   11   13     -1.04      0.00
    1   11   13     -0.06      0.00
    2   11   13     -0.09      0.00
    3   11   13      1.59      0.00
    4   11   13      2.41      0.00
    5   11   13     -0.64      0.00
    6   11   13      0.41      0.00
    7   11   13      0.29      0.00
    8   11   13     -0.22      0.00
    9   11   13      1.70      0.00
   10   11   13      0.06      0.00
   11   11   13      0.02      0.00
   -7   12   13      0.46      0.00
   -6   12   13     -0.08      0.00
   -5   12   13     -0.15      0.00
   -4   12   13     -0.77      0.00
   -3   12   13      0.41      0.00
   -2   12   13      0.89      0.00
   -1   12   13      0.70      0.00
    0   12   13      0.50      0.00
    1   12   13     -0.49      0.00
    2   12   13     -1.44      0.00
    3   12   13     -0.90      0.00
    4   12   13     -2.20      0.00
    5   12   13     -1.70      0.00
    6   12   13     -0.12      0.00
    7   12   13     -1.84      0.00
    8   12   13     -0.59      0.00
    9   12   13      0.41      0.00
   10   12   13     -0.28      0.00
   11   12   13      0.52      0.00
   -7   13   13     -0.16      0.00
   -6   13   13      0.73      0.00
   -5   13   13      0.34      0.00
   -4   13   13      0.26      0.00
   -3   13   13      0.42      0.00
   -2   13   13     -0.76      0.00
   -1   13   13      0.55      0.00
    0   13   13      0.56      0.00
    1   13   13      0.51      0.00
    2   13   13      0.90      0.00
    3   13   13      0.60      0.00
    4   13   13      0.48      0.00
    5   13   13      2.55      0.00
    6   13   13      2.42      0.00
    7   13   13      1.13      0.00
    8   13   13      1.20      0.00
    9   13   13     -0.83      0.00
   10   13   13     -0.32      0.00
   11   13   13      0.47      0.00
   -7   14   13     -0.58      0.00
   -6   14   13     -0.26      0.00
   -5   14   13     -0.45      0.00
   -4   14   13      0.28      0.00
   -3   14   13      0.44      0.00
   -2   14   13      0.79      0.00
   -1   14   13      0.91      0.00
    0   14   13      0.07      0.00
    1   14   13      0.61      0.00
    2   14   13      0.08      0.00
    3   14   13      0.00      0.00
    4   14   13     -0.32      0.00
    5   14   13     -1.03      0.00
    6   14   13     -2.58      0.00
    7   14   13     -0.52      0.00
    8   14   13      0.62      0.00
    9   14   13      0.07      0.00
   10   14   13      0.76      0.00
   11   14   13     -0.17      0.00
   -7   15   13      1.01      0.00
   -6   15   13      0.73      0.00
   -5   15   13      0.17      0.00
   -4   15   13      0.12      0.00
   -3   15   13     -1.31      0.00
   -2   15   13     -0.27      0.00
   -1   15   13     -0.56      0.00
    0   15   13      0.23      0.00
    1   15   13      0.41      0.00
    2   15   13     -0.28      0.00
    3   15   13     -0.26      0.00
    4   15   13     -1.03      0.00
    5   15   13     -0.01      0.00
    6   15   13      0.25      0.00
    7   15   13      0.47      0.00
    8   15   13     -0.71      0.00
    9   15   13      0.09      0.00
   10   15   13      0.11      0.00
   11   15   13     -0.38      0.00
   -6   16   13     -0.70      0.00
   -5   16   13     -0.28      0.00
   -4   16   13      0.55      0.00
   -3   16   13      0.25      0.00
   -2   16   13      0.11      0.00
   -1   16   13     -0.57      0.00
    0   16   13     -0.07      0.00
    1   16   13     -0.91      0.00
    2   16   13      0.24      0.00
    3   16   13      0.87      0.00
    4   16   13      1.15      0.00
    5   16   13      0.49      0.00
    6   16   13      0.39      0.00
    7   16   13     -0.09      0.00
    8   16   13     -0.38      0.00
    9   16   13     -0.13      0.00
   -5   17   13     -0.29      0.00
   -4   17   13     -1.05      0.00
   -3   17   13     -0.40      0.00
   -2   17   13     -0.35      0.00
   -1   17   13     -0.20      0.00
    0   17   13     -0.46      0.00
    1   17   13      0.43      0.00
    2   17   13      1.34      0.00
    3   17   13     -0.39      0.00
    4   17   13      0.94      0.00
    5   17   13      0.23      0.00
    6   17   13      0.11      0.00
    7   17   13     -0.25      0.00
   -5   18   13      0.78      0.00
   -4   18   13     -0.03      0.00
   -3   18   13     -0.01      0.00
   -2   18   13     -0.18      0.00
   -1   18   13      0.25      0.00
    0   18   13     -0.07      0.00
    1   18   13     -0.23      0.00
    2   18   13     -1.15      0.00
    3   18   13     -1.18      0.00
    4   18   13     -0.78      0.00
    5   18   13     -0.84      0.00
    6   18   13      0.30      0.00
    7   18   13      0.22      0.00
   -5   19   13      0.01      0.00
   -4   19   13      0.36      0.00
   -3   19   13      0.78      0.00
   -2   19   13     -0.21      0.00
   -1   19   13     -0.69      0.00
    0   19   13      0.04      0.00
    1   19   13     -0.20      0.00
    2   19   13     -0.75      0.00
    3   19   13      0.70      0.00
    4   19   13      0.03      0.00
    5   19   13     -0.50      0.00
    6   19   13     -0.81      0.00
    7   19   13     -0.07      0.00
   -4   20   13      0.22      0.00
   -3   20   13      0.62      0.00
   -2   20   13      1.27      0.00
   -1   20   13      1.38      0.00
    0   20   13      0.39      0.00
    1   20   13      0.29      0.00
    2   20   13      1.04      0.00
    3   20   13      0.51      0.00
    4   20   13     -0.23      0.00
    5   20   13      0.89      0.00
    6   20   13      0.58      0.00
    7   20   13     -0.19      0.00
   -3   21   13     -1.15      0.00
   -2   21   13     -1.21      0.00
   -1   21   13     -0.55      0.00
    0   21   13     -0.49      0.00
    1   21   13     -0.02      0.00
    2   21   13     -0.43      0.00
    3   21   13     -0.12      0.00
    4   21   13      0.45      0.00
    5   21   13      0.06      0.00
    6   21   13     -0.26      0.00
    7   21   13     -0.11      0.00
   -2   22   13      0.68      0.00
   -1   22   13     -0.32      0.00
    0   22   13      0.13      0.00
    1   22   13      0.63      0.00
    2   22   13     -0.23      0.00
    3   22   13     -0.15      0.00
    4   22   13     -0.64      0.00
    5   22   13     -0.76      0.00
    6   22   13     -0.55      0.00
    0   23   13      0.10      0.00
    1   23   13     -1.37      0.00
    2   23   13     -0.84      0.00
    3   23   13     -0.16      0.00
    4   23   13     -0.32      0.00
    5   23   13      0.72      0.00
    1  -21   14     -0.18      0.00
   -2  -20   14     -0.12      0.00
   -1  -20   14      0.55      0.00
    0  -20   14      0.44      0.00
    1  -20   14     -0.48      0.00
    2  -20   14     -0.86      0.00
    3  -20   14     -0.22      0.00
    4  -20   14     -0.04      0.00
   -3  -19   14      0.08      0.00
   -2  -19   14      0.31      0.00
   -1  -19   14      0.01      0.00
    0  -19   14     -0.46      0.00
    1  -19   14      0.44      0.00
    2  -19   14      0.96      0.00
    3  -19   14      1.01      0.00
    4  -19   14     -0.22      0.00
    5  -19   14     -0.65      0.00
    6  -19   14     -1.37      0.00
   -4  -18   14     -0.57      0.00
   -3  -18   14     -0.47      0.00
   -2  -18   14     -0.18      0.00
   -1  -18   14     -0.03      0.00
    0  -18   14      0.46      0.00
    1  -18   14      0.46      0.00
    2  -18   14      0.62      0.00
    3  -18   14     -0.51      0.00
    4  -18   14     -0.74      0.00
    5  -18   14      0.13      0.00
    6  -18   14     -0.85      0.00
    7  -18   14     -0.71      0.00
   -5  -17   14     -0.41      0.00
   -4  -17   14     -0.24      0.00
   -3  -17   14      0.91      0.00
   -2  -17   14      0.81      0.00
   -1  -17   14      0.25      0.00
    0  -17   14      0.67      0.00
    1  -17   14     -0.30      0.00
    2  -17   14     -1.14      0.00
    3  -17   14     -1.27      0.00
    4  -17   14      0.59      0.00
    5  -17   14      0.10      0.00
    6  -17   14      0.53      0.00
    7  -17   14      0.95      0.00
   -6  -16   14      1.00      0.00
   -5  -16   14      1.15      0.00
   -4  -16   14      0.58      0.00
   -3  -16   14     -0.82      0.00
   -2  -16   14     -1.60      0.00
   -1  -16   14     -0.78      0.00
    0  -16   14     -1.57      0.00
    1  -16   14     -0.99      0.00
    2  -16   14      0.60      0.00
    3  -16   14      1.25      0.00
    4  -16   14      1.70      0.00
    5  -16   14      0.41      0.00
    6  -16   14      1.79      0.00
    7  -16   14      1.68      0.00
    8  -16   14      1.15      0.00
   -6  -15   14     -0.11      0.00
   -5  -15   14     -0.79      0.00
   -4  -15   14     -0.34      0.00
   -3  -15   14      0.33      0.00
   -2  -15   14      0.41      0.00
   -1  -15   14      1.00      0.00
    0  -15   14      0.84      0.00
    1  -15   14      1.13      0.00
    2  -15   14      0.58      0.00
    3  -15   14      0.85      0.00
    4  -15   14      0.35      0.00
    5  -15   14      0.02      0.00
    6  -15   14      0.26      0.00
    7  -15   14     -1.24      0.00
    8  -15   14     -0.28      0.00
    9  -15   14      1.23      0.00
   -7  -14   14     -0.51      0.00
   -6  -14   14     -0.89      0.00
   -5  -14   14     -0.26      0.00
   -4  -14   14      0.27      0.00
   -3  -14   14     -0.18      0.00
   -2  -14   14     -0.01      0.00
   -1  -14   14     -0.62      0.00
    0  -14   14     -0.26      0.00
    1  -14   14      0.41      0.00
    2  -14   14     -1.56      0.00
    3  -14   14     -2.48      0.00
    4  -14   14     -3.04      0.00
    5  -14   14     -2.15      0.00
    6  -14   14     -0.92      0.00
    7  -14   14     -0.96      0.00
    8  -14   14      0.46      0.00
    9  -14   14     -0.37      0.00
   -7  -13   14      1.28      0.00
   -6  -13   14      1.08      0.00
   -5  -13   14      0.09      0.00
   -4  -13   14      0.30      0.00
   -3  -13   14      0.45      0.00
   -2  -13   14      0.66      0.00
   -1  -13   14      0.03      0.00
    0  -13   14     -0.61      0.00
    1  -13   14     -1.24      0.00
    2  -13   14      0.50      0.00
    3  -13   14      2.32      0.00
    4  -13   14      1.21      0.00
    5  -13   14      1.03      0.00
    6  -13   14      0.53      0.00
    7  -13   14     -0.46      0.00
    8  -13   14      0.41      0.00
    9  -13   14     -1.24      0.00
   10  -13   14     -0.70      0.00
   -7  -12   14     -1.09      0.00
   -6  -12   14     -0.67      0.00
   -5  -12   14     -0.30      0.00
   -4  -12   14      0.04      0.00
   -3  -12   14     -0.05      0.00
   -2  -12   14      0.76      0.00
   -1  -12   14      0.73      0.00
    0  -12   14      1.35      0.00
    1  -12   14     -0.05      0.00
    2  -12   14     -0.46      0.00
    3  -12   14     -0.48      0.00
    4  -12   14     -0.20      0.00
    5  -12   14      1.07      0.00
    6  -12   14     -1.64      0.00
    7  -12   14     -1.52      0.00
    8  -12   14     -1.87      0.00
    9  -12   14     -1.44      0.00
   10  -12   14     -0.51      0.00
   -8  -11   14      0.31      0.00
   -7  -11   14      0.65      0.00
   -6  -11   14     -0.48      0.00
   -5  -11   14     -0.04      0.00
   -4  -11   14     -0.09      0.00
   -3  -11   14     -1.48      0.00
   -2  -11   14     -1.02      0.00
   -1  -11   14     -0.38      0.00
    0  -11   14      0.92      0.00
    1  -11   14      1.90      0.00
    2  -11   14      2.82      0.00
    3  -11   14      0.29      0.00
    4  -11   14     -0.15      0.00
    5  -11   14      1.34      0.00
    6  -11   14      0.57      0.00
    7  -11   14      3.35      0.00
    8  -11   14      0.95      0.00
    9  -11   14      0.78      0.00
   10  -11   14      0.02      0.00
   11  -11   14      0.13      0.00
   -8  -10   14     -0.14      0.00
   -7  -10   14      0.75      0.00
   -6  -10   14     -0.02      0.00
   -5  -10   14     -0.05      0.00
   -4  -10   14     -1.58      0.00
   -3  -10   14     -0.09      0.00
   -2  -10   14     -0.04      0.00
   -1  -10   14     -0.38      0.00
    0  -10   14     -1.35      0.00
    1  -10   14     -1.74      0.00
    2  -10   14     -1.21      0.00
    3  -10   14     -0.67      0.00
    4  -10   14      1.55      0.00
    5  -10   14     -0.77      0.00
    6  -10   14     -0.35      0.00
    7  -10   14      0.46      0.00
    8  -10   14     -0.08      0.00
    9  -10   14      0.92      0.00
   10  -10   14      0.69      0.00
   11  -10   14      0.33      0.00
   -8   -9   14      0.53      0.00
   -7   -9   14     -0.62      0.00
   -6   -9   14      0.14      0.00
   -5   -9   14      1.86      0.00
   -4   -9   14      1.21      0.00
   -3   -9   14      1.82      0.00
   -2   -9   14     -0.46      0.00
   -1   -9   14     -0.51      0.00
    0   -9   14     -0.94      0.00
    1   -9   14      0.70      0.00
    2   -9   14     -0.72      0.00
    3   -9   14     -1.08      0.00
    4   -9   14     -0.05      0.00
    5   -9   14     -1.83      0.00
    6   -9   14      0.99      0.00
    7   -9   14     -0.78      0.00
    8   -9   14      0.03      0.00
    9   -9   14     -0.06      0.00
   10   -9   14     -0.01      0.00
   11   -9   14     -0.98      0.00
   -9   -8   14      0.04      0.00
   -8   -8   14      0.38      0.00
   -7   -8   14      0.20      0.00
   -6   -8   14      1.40      0.00
   -5   -8   14     -0.53      0.00
   -4   -8   14     -0.72      0.00
   -3   -8   14     -0.83      0.00
   -2   -8   14     -1.53      0.00
   -1   -8   14     -0.61      0.00
    0   -8   14     -1.55      0.00
    1   -8   14     -1.39      0.00
    2   -8   14     -1.84      0.00
    3   -8   14      0.50      0.00
    4   -8   14     -1.28      0.00
    5   -8   14     -0.28      0.00
    6   -8   14      0.99      0.00
    7   -8   14     -0.33      0.00
    8   -8   14      0.82      0.00
    9   -8   14      0.92      0.00
   10   -8   14      0.65      0.00
   11   -8   14      0.83      0.00
   -8   -7   14     -1.08      0.00
   -7   -7   14     -0.66      0.00
   -6   -7   14     -0.12      0.00
   -5   -7   14     -0.66      0.00
   -4   -7   14      1.22      0.00
   -3   -7   14      1.76      0.00
   -2   -7   14      3.17      0.00
   -1   -7   14      2.79      0.00
    0   -7   14      2.55      0.00
    1   -7   14      1.15      0.00
    2   -7   14      0.08      0.00
    3   -7   14      0.77      0.00
    4   -7   14     -0.84      0.00
    5   -7   14      0.88      0.00
    6   -7   14     -2.04      0.00
    7   -7   14     -1.25      0.00
    8   -7   14     -0.79      0.00
    9   -7   14     -0.60      0.00
   10   -7   14     -0.47      0.00
   11   -7   14      0.31      0.00
   12   -7   14      0.06      0.00
   -9   -6   14      0.95      0.00
   -8   -6   14      0.54      0.00
   -7   -6   14      0.51      0.00
   -6   -6   14     -0.94      0.00
   -5   -6   14      0.16      0.00
   -4   -6   14      1.33      0.00
   -3   -6   14     -0.59      0.00
   -2   -6   14     -1.16      0.00
   -1   -6   14     -2.22      0.00
    0   -6   14     -1.32      0.00
    1   -6   14     -0.32      0.00
    2   -6   14      1.46      0.00
    3   -6   14     -0.56      0.00
    4   -6   14     -0.23      0.00
    5   -6   14      0.04      0.00
    6   -6   14     -0.66      0.00
    7   -6   14      0.64      0.00
    8   -6   14     -0.33      0.00
    9   -6   14     -0.66      0.00
   10   -6   14      0.08      0.00
   11   -6   14     -0.25      0.00
   12   -6   14     -0.79      0.00
   -9   -5   14     -0.91      0.00
   -8   -5   14     -0.71      0.00
   -7   -5   14     -0.48      0.00
   -6   -5   14     -0.59      0.00
   -5   -5   14     -1.36      0.00
   -4   -5   14     -2.33      0.00
   -3   -5   14     -1.44      0.00
   -2   -5   14      1.83      0.00
   -1   -5   14      4.12      0.00
    0   -5   14      5.17      0.00
    1   -5   14      4.02      0.00
    2   -5   14      2.89      0.00
    3   -5   14      2.25      0.00
    4   -5   14      3.53      0.00
    5   -5   14      0.50      0.00
    6   -5   14      1.73      0.00
    7   -5   14      0.64      0.00
    8   -5   14     -0.54      0.00
    9   -5   14     -0.46      0.00
   10   -5   14     -1.07      0.00
   11   -5   14     -0.66      0.00
   12   -5   14      0.87      0.00
   -9   -4   14      0.09      0.00
   -8   -4   14      0.80      0.00
   -7   -4   14      0.48      0.00
   -6   -4   14      0.63      0.00
   -5   -4   14      0.77      0.00
   -4   -4   14      0.43      0.00
   -3   -4   14      0.09      0.00
   -2   -4   14     -1.40      0.00
   -1   -4   14     -4.57      0.00
    0   -4   14     -4.91      0.00
    1   -4   14     -4.73      0.00
    2   -4   14     -4.25      0.00
    3   -4   14     -1.55      0.00
    4   -4   14     -1.53      0.00
    5   -4   14     -0.03      0.00
    6   -4   14      1.29      0.00
    7   -4   14     -0.43      0.00
    8   -4   14      1.02      0.00
    9   -4   14      1.79      0.00
   10   -4   14      0.80      0.00
   11   -4   14      0.89      0.00
   12   -4   14     -0.46      0.00
   -9   -3   14     -0.15      0.00
   -8   -3   14     -0.58      0.00
   -7   -3   14     -0.13      0.00
   -6   -3   14     -0.36      0.00
   -5   -3   14     -0.46      0.00
   -4   -3   14     -1.03      0.00
   -3   -3   14     -1.46      0.00
   -2   -3   14     -2.10      0.00
   -1   -3   14     -1.20      0.00
    0   -3   14      0.91      0.00
    1   -3   14      1.21      0.00
    2   -3   14      3.58      0.00
    3   -3   14      2.72      0.00
    4   -3   14     -1.09      0.00
    5   -3   14      1.21      0.00
    6   -3   14     -0.85      0.00
    7   -3   14     -0.35      0.00
    8   -3   14      0.78      0.00
    9   -3   14     -0.99      0.00
   10   -3   14     -0.10      0.00
   11   -3   14      0.94      0.00
   12   -3   14     -0.04      0.00
   -9   -2   14     -0.38      0.00
   -8   -2   14      0.12      0.00
   -7   -2   14     -0.07      0.00
   -6   -2   14      0.15      0.00
   -5   -2   14      0.77      0.00
   -4   -2   14      0.55      0.00
   -3   -2   14      1.18      0.00
   -2   -2   14      1.09      0.00
   -1   -2   14      2.22      0.00
    0   -2   14      0.00      0.00
    1   -2   14     -3.34      0.00
    2   -2   14     -3.94      0.00
    3   -2   14     -6.29      0.00
    4   -2   14     -1.82      0.00
    5   -2   14     -0.85      0.00
    6   -2   14     -2.26      0.00
    7   -2   14      1.24      0.00
    8   -2   14      0.35      0.00
    9   -2   14     -0.68      0.00
   10   -2   14      0.16      0.00
   11   -2   14     -1.56      0.00
   12   -2   14     -0.27      0.00
   -9   -1   14      0.06      0.00
   -8   -1   14      0.69      0.00
   -7   -1   14      0.13      0.00
   -6   -1   14      0.99      0.00
   -5   -1   14      2.13      0.00
   -4   -1   14      2.66      0.00
   -3   -1   14      2.28      0.00
   -2   -1   14      0.61      0.00
   -1   -1   14     -0.45      0.00
    0   -1   14     -1.82      0.00
    1   -1   14      2.18      0.00
    2   -1   14      2.68      0.00
    3   -1   14      1.01      0.00
    4   -1   14      3.50      0.00
    5   -1   14     -1.23      0.00
    6   -1   14      0.42      0.00
    7   -1   14     -0.51      0.00
    8   -1   14     -3.05      0.00
    9   -1   14     -0.10      0.00
   10   -1   14      0.32      0.00
   11   -1   14     -0.22      0.00
   12   -1   14      0.23      0.00
   -9    0   14      0.99      0.00
   -8    0   14     -0.18      0.00
   -7    0   14     -0.48      0.00
   -6    0   14     -0.37      0.00
   -5    0   14     -2.36      0.00
   -4    0   14     -2.87      0.00
   -3    0   14     -1.49      0.00
   -2    0   14      0.43      0.00
   -1    0   14      2.11      0.00
    0    0   14      2.36      0.00
    1    0   14      2.90      0.00
    2    0   14      0.25      0.00
    3    0   14      2.65      0.00
    4    0   14     -0.08      0.00
    5    0   14     -2.14      0.00
    6    0   14      1.38      0.00
    7    0   14     -0.59      0.00
    8    0   14      1.27      0.00
    9    0   14      1.59      0.00
   10    0   14     -0.79      0.00
   11    0   14     -0.10      0.00
   12    0   14      0.49      0.00
   -8    1   14     -0.22      0.00
   -7    1   14     -0.40      0.00
   -6    1   14     -0.92      0.00
   -5    1   14     -0.49      0.00
   -4    1   14      0.75      0.00
   -3    1   14      1.10      0.00
   -2    1   14      0.65      0.00
   -1    1   14      0.01      0.00
    0    1   14      0.21      0.00
    1    1   14     -1.67      0.00
    2    1   14     -3.42      0.00
    3    1   14     -0.89      0.00
    4    1   14     -2.86      0.00
    5    1   14      2.07      0.00
    6    1   14      0.02      0.00
    7    1   14     -1.30      0.00
    8    1   14      1.12      0.00
    9    1   14     -1.44      0.00
   10    1   14     -0.63      0.00
   11    1   14     -0.47      0.00
   12    1   14     -1.12      0.00
   -8    2   14     -0.55      0.00
   -7    2   14      1.37      0.00
   -6    2   14      0.75      0.00
   -5    2   14      0.38      0.00
   -4    2   14     -0.25      0.00
   -3    2   14     -2.35      0.00
   -2    2   14     -2.92      0.00
   -1    2   14     -3.08      0.00
    0    2   14     -1.85      0.00
    1    2   14      1.05      0.00
    2    2   14      5.08      0.00
    3    2   14      4.33      0.00
    4    2   14      3.48      0.00
    5    2   14      4.75      0.00
    6    2   14      0.84      0.00
    7    2   14      2.62      0.00
    8    2   14      0.27      0.00
    9    2   14     -0.27      0.00
   10    2   14      1.39      0.00
   11    2   14      1.00      0.00
   12    2   14      0.30      0.00
   -8    3   14      0.51      0.00
   -7    3   14      0.07      0.00
   -6    3   14     -0.32      0.00
   -5    3   14      0.18      0.00
   -4    3   14      0.16      0.00
   -3    3   14      0.85      0.00
   -2    3   14      2.55      0.00
   -1    3   14      2.65      0.00
    0    3   14      1.82      0.00
    1    3   14     -0.75      0.00
    2    3   14     -2.90      0.00
    3    3   14     -4.26      0.00
    4    3   14     -2.01      0.00
    5    3   14     -4.85      0.00
    6    3   14     -3.17      0.00
    7    3   14     -0.11      0.00
    8    3   14     -1.24      0.00
    9    3   14      1.81      0.00
   10    3   14      0.56      0.00
   11    3   14      1.19      0.00
   12    3   14      0.53      0.00
   -8    4   14      0.40      0.00
   -7    4   14      0.15      0.00
   -6    4   14      0.61      0.00
   -5    4   14      1.17      0.00
   -4    4   14      0.61      0.00
   -3    4   14      0.12      0.00
   -2    4   14     -1.19      0.00
   -1    4   14     -3.00      0.00
    0    4   14     -2.52      0.00
    1    4   14     -2.68      0.00
    2    4   14     -2.69      0.00
    3    4   14     -1.40      0.00
    4    4   14      0.19      0.00
    5    4   14      0.50      0.00
    6    4   14      3.35      0.00
    7    4   14      0.04      0.00
    8    4   14      0.41      0.00
    9    4   14      0.61      0.00
   10    4   14     -0.97      0.00
   11    4   14     -0.15      0.00
   12    4   14      0.07      0.00
   -8    5   14     -1.53      0.00
   -7    5   14     -1.69      0.00
   -6    5   14     -0.98      0.00
   -5    5   14     -1.32      0.00
   -4    5   14     -0.14      0.00
   -3    5   14      1.13      0.00
   -2    5   14      1.05      0.00
   -1    5   14      2.09      0.00
    0    5   14      2.50      0.00
    1    5   14      2.03      0.00
    2    5   14      4.02      0.00
    3    5   14      2.91      0.00
    4    5   14     -0.57      0.00
    5    5   14     -0.46      0.00
    6    5   14     -1.35      0.00
    7    5   14     -2.10      0.00
    8    5   14     -0.11      0.00
    9    5   14     -2.13      0.00
   10    5   14      0.02      0.00
   11    5   14     -0.47      0.00
   12    5   14      0.08      0.00
   -8    6   14      1.59      0.00
   -7    6   14      1.05      0.00
   -6    6   14      0.43      0.00
   -5    6   14     -0.07      0.00
   -4    6   14     -0.49      0.00
   -3    6   14     -0.59      0.00
   -2    6   14      0.31      0.00
   -1    6   14      1.92      0.00
    0    6   14      1.08      0.00
    1    6   14      0.19      0.00
    2    6   14     -0.30      0.00
    3    6   14     -1.65      0.00
    4    6   14      0.51      0.00
    5    6   14      1.41      0.00
    6    6   14     -0.53      0.00
    7    6   14      1.05      0.00
    8    6   14      0.07      0.00
    9    6   14     -0.44      0.00
   10    6   14      0.40      0.00
   11    6   14     -0.78      0.00
   12    6   14      0.33      0.00
   -8    7   14     -1.04      0.00
   -7    7   14     -0.17      0.00
   -6    7   14     -0.25      0.00
   -5    7   14      0.26      0.00
   -4    7   14     -0.48      0.00
   -3    7   14     -1.72      0.00
   -2    7   14     -2.34      0.00
   -1    7   14     -2.70      0.00
    0    7   14     -2.52      0.00
    1    7   14      0.16      0.00
    2    7   14     -0.71      0.00
    3    7   14     -1.26      0.00
    4    7   14     -0.12      0.00
    5    7   14     -1.69      0.00
    6    7   14     -0.37      0.00
    7    7   14      0.10      0.00
    8    7   14     -1.11      0.00
    9    7   14      0.94      0.00
   10    7   14     -0.89      0.00
   11    7   14     -1.11      0.00
   12    7   14     -1.13      0.00
   -8    8   14      0.96      0.00
   -7    8   14      0.22      0.00
   -6    8   14      0.38      0.00
   -5    8   14      0.47      0.00
   -4    8   14      0.45      0.00
   -3    8   14      1.42      0.00
   -2    8   14      1.54      0.00
   -1    8   14      0.54      0.00
    0    8   14      0.61      0.00
    1    8   14      1.37      0.00
    2    8   14      1.28      0.00
    3    8   14      4.23      0.00
    4    8   14      2.18      0.00
    5    8   14      0.82      0.00
    6    8   14      2.26      0.00
    7    8   14      0.62      0.00
    8    8   14      1.39      0.00
    9    8   14      1.00      0.00
   10    8   14     -0.16      0.00
   11    8   14      1.51      0.00
   12    8   14      0.54      0.00
   -7    9   14     -0.91      0.00
   -6    9   14      0.10      0.00
   -5    9   14      0.21      0.00
   -4    9   14      0.53      0.00
   -3    9   14     -0.07      0.00
   -2    9   14     -0.72      0.00
   -1    9   14     -0.89      0.00
    0    9   14     -1.03      0.00
    1    9   14     -2.56      0.00
    2    9   14     -3.19      0.00
    3    9   14     -2.37      0.00
    4    9   14     -2.93      0.00
    5    9   14      0.47      0.00
    6    9   14     -0.38      0.00
    7    9   14     -1.56      0.00
    8    9   14      0.16      0.00
    9    9   14     -1.28      0.00
   10    9   14     -0.42      0.00
   11    9   14     -0.41      0.00
   -7   10   14      0.13      0.00
   -6   10   14      0.22      0.00
   -5   10   14     -0.96      0.00
   -4   10   14     -0.16      0.00
   -3   10   14      0.21      0.00
   -2   10   14      0.41      0.00
   -1   10   14      0.79      0.00
    0   10   14      0.73      0.00
    1   10   14      0.77      0.00
    2   10   14      2.16      0.00
    3   10   14      0.92      0.00
    4   10   14      0.87      0.00
    5   10   14      0.82      0.00
    6   10   14     -1.64      0.00
    7   10   14      0.29      0.00
    8   10   14      0.53      0.00
    9   10   14     -0.07      0.00
   10   10   14      1.71      0.00
   11   10   14      0.83      0.00
   -7   11   14      1.03      0.00
   -6   11   14     -0.31      0.00
   -5   11   14     -0.19      0.00
   -4   11   14      0.10      0.00
   -3   11   14      0.06      0.00
   -2   11   14      0.95      0.00
   -1   11   14      0.36      0.00
    0   11   14     -0.24      0.00
    1   11   14     -0.71      0.00
    2   11   14     -1.26      0.00
    3   11   14     -2.34      0.00
    4   11   14     -0.85      0.00
    5   11   14     -1.53      0.00
    6   11   14     -0.97      0.00
    7   11   14      0.63      0.00
    8   11   14     -1.03      0.00
    9   11   14      0.02      0.00
   10   11   14      0.35      0.00
   11   11   14     -0.35      0.00
   -7   12   14      0.08      0.00
   -6   12   14     -0.06      0.00
   -5   12   14      0.55      0.00
   -4   12   14     -0.07      0.00
   -3   12   14     -0.68      0.00
   -2   12   14     -0.30      0.00
   -1   12   14      0.03      0.00
    0   12   14      1.62      0.00
    1   12   14      1.41      0.00
    2   12   14      0.94      0.00
    3   12   14      1.32      0.00
    4   12   14      1.72      0.00
    5   12   14      1.31      0.00
    6   12   14      2.72      0.00
    7   12   14      1.39      0.00
    8   12   14     -0.55      0.00
    9   12   14      0.10      0.00
   10   12   14     -1.02      0.00
   11   12   14     -0.25      0.00
   -7   13   14     -1.03      0.00
   -6   13   14     -0.37      0.00
   -5   13   14      0.33      0.00
   -4   13   14     -0.03      0.00
   -3   13   14      0.90      0.00
   -2   13   14      0.47      0.00
   -1   13   14      0.20      0.00
    0   13   14     -0.01      0.00
    1   13   14     -0.34      0.00
    2   13   14      0.67      0.00
    3   13   14      0.41      0.00
    4   13   14     -0.72      0.00
    5   13   14     -1.81      0.00
    6   13   14     -1.24      0.00
    7   13   14     -1.04      0.00
    8   13   14      1.10      0.00
    9   13   14      1.31      0.00
   10   13   14      0.00      0.00
   11   13   14      0.37      0.00
   -6   14   14      0.64      0.00
   -5   14   14      0.10      0.00
   -4   14   14     -0.78      0.00
   -3   14   14     -0.57      0.00
   -2   14   14     -1.42      0.00
   -1   14   14     -0.36      0.00
    0   14   14     -0.79      0.00
    1   14   14     -0.19      0.00
    2   14   14     -0.23      0.00
    3   14   14     -1.04      0.00
    4   14   14     -0.22      0.00
    5   14   14      0.56      0.00
    6   14   14      0.03      0.00
    7   14   14     -1.11      0.00
    8   14   14     -0.53      0.00
    9   14   14     -0.89      0.00
   10   14   14      0.17      0.00
   11   14   14     -0.20      0.00
   -6   15   14     -0.63      0.00
   -5   15   14     -0.47      0.00
   -4   15   14      0.08      0.00
   -3   15   14      0.01      0.00
   -2   15   14     -0.54      0.00
   -1   15   14     -0.50      0.00
    0   15   14     -0.78      0.00
    1   15   14      0.05      0.00
    2   15   14     -0.42      0.00
    3   15   14      1.21      0.00
    4   15   14      1.10      0.00
    5   15   14      0.88      0.00
    6   15   14      0.47      0.00
    7   15   14      0.98      0.00
    8   15   14     -0.15      0.00
    9   15   14     -0.88      0.00
   10   15   14      0.10      0.00
   -6   16   14      0.11      0.00
   -5   16   14     -0.35      0.00
   -4   16   14      0.23      0.00
   -3   16   14      0.18      0.00
   -2   16   14      1.02      0.00
   -1   16   14      0.40      0.00
    0   16   14      0.43      0.00
    1   16   14      0.34      0.00
    2   16   14     -0.07      0.00
    3   16   14      0.41      0.00
    4   16   14     -0.98      0.00
    5   16   14     -0.31      0.00
    6   16   14     -0.52      0.00
    7   16   14      0.31      0.00
    8   16   14      0.45      0.00
    9   16   14      1.04      0.00
   10   16   14     -0.09      0.00
   -4   17   14      0.62      0.00
   -3   17   14     -0.72      0.00
   -2   17   14     -0.45      0.00
   -1   17   14     -0.22      0.00
    0   17   14     -0.24      0.00
    1   17   14     -0.99      0.00
    2   17   14     -0.56      0.00
    3   17   14     -1.22      0.00
    4   17   14     -0.94      0.00
    5   17   14     -0.01      0.00
    6   17   14      0.23      0.00
    7   17   14     -0.71      0.00
   -5   18   14     -0.38      0.00
   -4   18   14      0.19      0.00
   -3   18   14      0.58      0.00
   -2   18   14      0.31      0.00
   -1   18   14      0.16      0.00
    0   18   14      0.17      0.00
    1   18   14      0.53      0.00
    2   18   14      0.62      0.00
    3   18   14      0.03      0.00
    4   18   14      0.98      0.00
    5   18   14     -0.67      0.00
    6   18   14     -0.71      0.00
    7   18   14     -0.12      0.00
   -4   19   14     -0.08      0.00
   -3   19   14      1.13      0.00
   -2   19   14      1.48      0.00
   -1   19   14      0.72      0.00
    0   19   14      0.33      0.00
    1   19   14      0.40      0.00
    2   19   14      0.28      0.00
    3   19   14      0.23      0.00
    4   19   14      0.33      0.00
    5   19   14      0.54      0.00
    6   19   14      0.72      0.00
    7   19   14      0.20      0.00
   -3   20   14     -1.46      0.00
   -2   20   14     -1.88      0.00
   -1   20   14     -0.86      0.00
    0   20   14     -0.06      0.00
    1   20   14     -0.72      0.00
    2   20   14     -0.33      0.00
    3   20   14      0.39      0.00
    4   20   14      0.17      0.00
    5   20   14      0.37      0.00
    6   20   14      0.24      0.00
    7   20   14     -0.16      0.00
   -2   21   14      0.37      0.00
   -1   21   14      0.26      0.00
    0   21   14      0.03      0.00
    1   21   14      0.50      0.00
    2   21   14      0.29      0.00
    3   21   14     -0.90      0.00
    4   21   14     -0.92      0.00
    5   21   14     -0.91      0.00
    6   21   14     -0.74      0.00
    7   21   14      0.50      0.00
   -1   22   14      0.30      0.00
    0   22   14     -0.60      0.00
    1   22   14     -0.41      0.00
    2   22   14     -0.82      0.00
    3   22   14      0.01      0.00
    4   22   14      0.71      0.00
    5   22   14      0.99      0.00
    6   22   14      0.88      0.00
    1   23   14      1.06      0.00
    2   23   14      0.63      0.00
    3   23   14      1.32      0.00
    0  -20   15      0.49      0.00
    1  -20   15      0.60      0.00
    2  -20   15      0.91      0.00
    3  -20   15      0.94      0.00
   -2  -19   15     -0.68      0.00
   -1  -19   15      0.52      0.00
    0  -19   15      0.07      0.00
    1  -19   15      0.22      0.00
    2  -19   15      0.51      0.00
    3  -19   15      0.13      0.00
    4  -19   15     -1.04      0.00
    5  -19   15     -0.42      0.00
   -3  -18   15      0.71      0.00
   -2  -18   15      0.99      0.00
   -1  -18   15      0.19      0.00
    0  -18   15     -0.67      0.00
    1  -18   15     -1.00      0.00
    2  -18   15     -1.56      0.00
    3  -18   15     -0.57      0.00
    4  -18   15      0.22      0.00
    5  -18   15      1.90      0.00
    6  -18   15      1.11      0.00
   -4  -17   15      0.10      0.00
   -3  -17   15     -1.06      0.00
   -2  -17   15     -0.94      0.00
   -1  -17   15     -1.24      0.00
    0  -17   15     -0.37      0.00
    1  -17   15      0.29      0.00
    2  -17   15      1.27      0.00
    3  -17   15      1.00      0.00
    4  -17   15      1.08      0.00
    5  -17   15      1.16      0.00
    6  -17   15     -0.19      0.00
    7  -17   15      0.94      0.00
   -5  -16   15     -0.58      0.00
   -4  -16   15     -0.07      0.00
   -3  -16   15      1.29      0.00
   -2  -16   15      0.82      0.00
   -1  -16   15      0.59      0.00
    0  -16   15      1.27      0.00
    1  -16   15      0.36      0.00
    2  -16   15      0.31      0.00
    3  -16   15     -0.56      0.00
    4  -16   15     -0.57      0.00
    5  -16   15     -1.62      0.00
    6  -16   15     -1.67      0.00
    7  -16   15     -0.72      0.00
    8  -16   15     -0.80      0.00
   -5  -15   15     -0.16      0.00
   -4  -15   15     -0.54      0.00
   -3  -15   15     -0.74      0.00
   -2  -15   15     -0.76      0.00
   -1  -15   15     -0.07      0.00
    0  -15   15     -0.50      0.00
    1  -15   15     -0.50      0.00
    2  -15   15     -1.28      0.00
    3  -15   15     -2.15      0.00
    4  -15   15     -1.29      0.00
    5  -15   15     -1.35      0.00
    6  -15   15     -0.10      0.00
    7  -15   15      0.42      0.00
    8  -15   15     -0.80      0.00
   -6  -14   15      1.13      0.00
   -5  -14   15      0.03      0.00
   -4  -14   15      0.22      0.00
   -3  -14   15      0.87      0.00
   -2  -14   15      0.98      0.00
   -1  -14   15      0.96      0.00
    0  -14   15     -0.40      0.00
    1  -14   15      0.20      0.00
    2  -14   15      1.25      0.00
    3  -14   15      2.29      0.00
    4  -14   15      2.13      0.00
    5  -14   15      0.79      0.00
    6  -14   15      0.81      0.00
    7  -14   15     -0.53      0.00
    8  -14   15     -1.03      0.00
    9  -14   15     -0.25      0.00
   -6  -13   15     -0.01      0.00
   -5  -13   15      0.30      0.00
   -4  -13   15     -0.16      0.00
   -3  -13   15      0.00      0.00
   -2  -13   15     -0.54      0.00
   -1  -13   15     -0.49      0.00
    0  -13   15      0.09      0.00
    1  -13   15     -0.20      0.00
    2  -13   15     -1.64      0.00
    3  -13   15     -0.72      0.00
    4  -13   15      0.10      0.00
    5  -13   15     -0.51      0.00
    6  -13   15      0.38      0.00
    7  -13   15     -1.47      0.00
    8  -13   15     -0.03      0.00
    9  -13   15     -0.13      0.00
   -7  -12   15     -0.17      0.00
   -6  -12   15     -0.55      0.00
   -5  -12   15     -1.02      0.00
   -4  -12   15     -0.64      0.00
   -3  -12   15     -1.48      0.00
   -2  -12   15     -1.52      0.00
   -1  -12   15      0.16      0.00
    0  -12   15      1.68      0.00
    1  -12   15      2.59      0.00
    2  -12   15      2.48      0.00
    3  -12   15      1.27      0.00
    4  -12   15     -0.62      0.00
    5  -12   15      0.60      0.00
    6  -12   15      2.24      0.00
    7  -12   15      1.29      0.00
    8  -12   15      2.49      0.00
    9  -12   15      0.24      0.00
   10  -12   15      0.67      0.00
   -7  -11   15      0.75      0.00
   -6  -11   15      1.29      0.00
   -5  -11   15     -0.16      0.00
   -4  -11   15      1.12      0.00
   -3  -11   15      0.79      0.00
   -2  -11   15      1.10      0.00
   -1  -11   15     -0.62      0.00
    0  -11   15     -2.36      0.00
    1  -11   15     -3.48      0.00
    2  -11   15     -2.06      0.00
    3  -11   15     -0.46      0.00
    4  -11   15     -1.10      0.00
    5  -11   15      0.11      0.00
    6  -11   15     -1.83      0.00
    7  -11   15     -0.36      0.00
    8  -11   15      0.56      0.00
    9  -11   15      0.59      0.00
   10  -11   15      0.68      0.00
   -7  -10   15      0.13      0.00
   -6  -10   15      0.08      0.00
   -5  -10   15      1.76      0.00
   -4  -10   15      1.95      0.00
   -3  -10   15     -0.12      0.00
   -2  -10   15      0.29      0.00
   -1  -10   15     -0.90      0.00
    0  -10   15     -0.32      0.00
    1  -10   15     -0.20      0.00
    2  -10   15     -0.21      0.00
    3  -10   15     -1.31      0.00
    4  -10   15     -0.37      0.00
    5  -10   15      0.79      0.00
    6  -10   15     -1.31      0.00
    7  -10   15      0.54      0.00
    8  -10   15     -1.05      0.00
    9  -10   15     -0.36      0.00
   10  -10   15     -0.27      0.00
   11  -10   15     -0.20      0.00
   -8   -9   15     -0.23      0.00
   -7   -9   15      0.09      0.00
   -6   -9   15     -1.61      0.00
   -5   -9   15     -0.87      0.00
   -4   -9   15     -1.99      0.00
   -3   -9   15     -0.92      0.00
   -2   -9   15      0.05      0.00
   -1   -9   15      0.69      0.00
    0   -9   15      1.11      0.00
    1   -9   15      0.94      0.00
    2   -9   15      1.23      0.00
    3   -9   15      0.17      0.00
    4   -9   15      1.12      0.00
    5   -9   15     -0.34      0.00
    6   -9   15      0.48      0.00
    7   -9   15      0.50      0.00
    8   -9   15     -0.34      0.00
    9   -9   15      0.21      0.00
   10   -9   15      0.71      0.00
   11   -9   15      0.89      0.00
   -7   -8   15     -0.75      0.00
   -6   -8   15      0.08      0.00
   -5   -8   15      0.88      0.00
   -4   -8   15      0.33      0.00
   -3   -8   15      2.62      0.00
   -2   -8   15      2.07      0.00
   -1   -8   15      1.89      0.00
    0   -8   15      0.67      0.00
    1   -8   15      0.19      0.00
    2   -8   15     -0.87      0.00
    3   -8   15     -0.27      0.00
    4   -8   15      0.32      0.00
    5   -8   15     -1.63      0.00
    6   -8   15     -0.27      0.00
    7   -8   15     -1.17      0.00
    8   -8   15     -0.34      0.00
    9   -8   15     -0.39      0.00
   10   -8   15     -0.40      0.00
   11   -8   15     -0.78      0.00
   -7   -7   15     -0.43      0.00
   -6   -7   15     -0.02      0.00
   -5   -7   15     -0.76      0.00
   -4   -7   15     -0.83      0.00
   -2   -7   15     -2.69      0.00
   -1   -7   15     -1.78      0.00
    0   -7   15     -0.42      0.00
    1   -7   15      1.74      0.00
    2   -7   15      1.69      0.00
    3   -7   15      1.73      0.00
    4   -7   15     -0.25      0.00
    5   -7   15      0.90      0.00
    6   -7   15      0.62      0.00
    7   -7   15     -0.30      0.00
    8   -7   15     -0.38      0.00
    9   -7   15     -0.53      0.00
   10   -7   15     -0.71      0.00
   11   -7   15     -0.39      0.00
   -8   -6   15     -0.83      0.00
   -7   -6   15      0.41      0.00
   -6   -6   15      0.25      0.00
   -5   -6   15     -1.10      0.00
   -4   -6   15     -0.92      0.00
   -3   -6   15      0.12      0.00
   -2   -6   15      1.58      0.00
   -1   -6   15      2.83      0.00
    0   -6   15      2.18      0.00
    1   -6   15      0.27      0.00
    2   -6   15     -0.33      0.00
    3   -6   15      0.03      0.00
    4   -6   15      0.22      0.00
    5   -6   15      1.44      0.00
    6   -6   15      0.02      0.00
    7   -6   15      1.02      0.00
    8   -6   15      0.30      0.00
    9   -6   15     -0.21      0.00
   10   -6   15     -0.28      0.00
   11   -6   15      0.18      0.00
   12   -6   15      0.62      0.00
   -8   -5   15      0.32      0.00
   -7   -5   15      0.46      0.00
   -6   -5   15      0.23      0.00
   -5   -5   15      0.91      0.00
   -4   -5   15      0.67      0.00
   -3   -5   15     -1.16      0.00
   -2   -5   15     -2.92      0.00
   -1   -5   15     -4.22      0.00
    0   -5   15     -4.79      0.00
    1   -5   15     -3.34      0.00
    2   -5   15     -1.66      0.00
    3   -5   15     -1.18      0.00
    4   -5   15      1.30      0.00
    5   -5   15      0.06      0.00
    6   -5   15      0.47      0.00
    7   -5   15      1.12      0.00
    8   -5   15      0.82      0.00
    9   -5   15      1.46      0.00
   10   -5   15      1.68      0.00
   11   -5   15      0.04      0.00
   12   -5   15     -0.24      0.00
   -8   -4   15     -0.15      0.00
   -7   -4   15     -0.50      0.00
   -6   -4   15      0.23      0.00
   -5   -4   15     -0.12      0.00
   -4   -4   15      0.24      0.00
   -3   -4   15     -0.33      0.00
   -2   -4   15      0.44      0.00
   -1   -4   15      1.06      0.00
    0   -4   15      1.96      0.00
    1   -4   15      3.14      0.00
    2   -4   15      1.48      0.00
    3   -4   15      0.40      0.00
    4   -4   15     -1.33      0.00
    5   -4   15     -3.32      0.00
    6   -4   15     -0.42      0.00
    7   -4   15     -1.68      0.00
    8   -4   15     -1.55      0.00
    9   -4   15     -0.68      0.00
   10   -4   15     -1.07      0.00
   11   -4   15     -0.23      0.00
   12   -4   15      0.04      0.00
   -8   -3   15     -0.04      0.00
   -7   -3   15      0.34      0.00
   -6   -3   15      0.78      0.00
   -5   -3   15      0.48      0.00
   -4   -3   15      1.36      0.00
   -3   -3   15      1.79      0.00
   -2   -3   15      2.30      0.00
   -1   -3   15      0.46      0.00
    0   -3   15     -0.78      0.00
    1   -3   15     -3.89      0.00
    2   -3   15     -5.03      0.00
    3   -3   15     -1.62      0.00
    4   -3   15     -2.21      0.00
    5   -3   15      1.01      0.00
    6   -3   15      1.40      0.00
    7   -3   15      0.35      0.00
    8   -3   15      2.13      0.00
    9   -3   15      0.85      0.00
   10   -3   15     -0.84      0.00
   11   -3   15      0.13      0.00
   12   -3   15      0.20      0.00
   -8   -2   15     -0.14      0.00
   -7   -2   15      0.60      0.00
   -6   -2   15     -0.59      0.00
   -5   -2   15      0.44      0.00
   -4   -2   15      0.71      0.00
   -3   -2   15      0.02      0.00
   -2   -2   15     -0.52      0.00
   -1   -2   15     -0.63      0.00
    0   -2   15      1.79      0.00
    1   -2   15      2.63      0.00
    2   -2   15      5.18      0.00
    3   -2   15      3.51      0.00
    4   -2   15      0.78      0.00
    5   -2   15      2.32      0.00
    6   -2   15     -2.40      0.00
    7   -2   15     -2.20      0.00
    8   -2   15     -1.49      0.00
    9   -2   15     -1.96      0.00
   10   -2   15      0.42      0.00
   11   -2   15      0.32      0.00
   12   -2   15     -1.51      0.00
   -8   -1   15      0.63      0.00
   -7   -1   15     -0.18      0.00
   -6   -1   15     -1.21      0.00
   -5   -1   15     -1.18      0.00
   -4   -1   15     -1.79      0.00
   -3   -1   15     -0.44      0.00
   -2   -1   15      1.40      0.00
   -1   -1   15      2.95      0.00
    0   -1   15      2.07      0.00
    1   -1   15      0.76      0.00
    2   -1   15      1.43      0.00
    3   -1   15     -1.89      0.00
    4   -1   15      0.41      0.00
    5   -1   15     -0.72      0.00
    6   -1   15     -0.60      0.00
    7   -1   15      3.09      0.00
    8   -1   15      1.01      0.00
    9   -1   15      0.77      0.00
   10   -1   15      0.97      0.00
   11   -1   15      0.03      0.00
   12   -1   15      0.97      0.00
   -8    0   15      0.15      0.00
   -7    0   15     -1.59      0.00
   -6    0   15     -0.41      0.00
   -5    0   15      0.17      0.00
   -4    0   15     -0.56      0.00
   -3    0   15     -0.82      0.00
   -2    0   15     -2.15      0.00
   -1    0   15     -2.71      0.00
    0    0   15     -3.52      0.00
    1    0   15     -2.79      0.00
    2    0   15     -3.11      0.00
    3    0   15     -2.03      0.00
    4    0   15      2.13      0.00
    5    0   15     -0.72      0.00
    6    0   15      1.74      0.00
    7    0   15      0.27      0.00
    8    0   15     -0.98      0.00
    9    0   15      1.14      0.00
   10    0   15     -0.50      0.00
   11    0   15     -1.10      0.00
   12    0   15     -0.74      0.00
   -8    1   15      0.25      0.00
   -7    1   15      1.34      0.00
   -6    1   15      2.22      0.00
   -5    1   15      0.49      0.00
   -4    1   15     -0.02      0.00
   -3    1   15      0.02      0.00
   -2    1   15     -0.61      0.00
   -1    1   15      0.08      0.00
    0    1   15      1.24      0.00
    1    1   15      3.71      0.00
    2    1   15      3.72      0.00
    3    1   15      4.38      0.00
    4    1   15      1.61      0.00
    5    1   15      1.07      0.00
    6    1   15      2.17      0.00
    7    1   15     -1.49      0.00
    8    1   15     -0.08      0.00
    9    1   15     -0.54      0.00
   10    1   15      0.01      0.00
   11    1   15      1.57      0.00
   12    1   15      1.93      0.00
   -8    2   15     -0.80      0.00
   -7    2   15     -0.52      0.00
   -6    2   15     -0.46      0.00
   -5    2   15     -0.19      0.00
   -4    2   15      1.05      0.00
   -3    2   15      1.33      0.00
   -2    2   15      1.38      0.00
   -1    2   15      1.16      0.00
    0    2   15     -1.04      0.00
    1    2   15     -3.52      0.00
    2    2   15     -4.74      0.00
    3    2   15     -3.93      0.00
    4    2   15     -5.42      0.00
    5    2   15     -2.27      0.00
    6    2   15     -3.18      0.00
    7    2   15     -0.52      0.00
    8    2   15      2.18      0.00
    9    2   15      0.07      0.00
   10    2   15      1.17      0.00
   11    2   15     -0.02      0.00
   12    2   15     -0.04      0.00
   -8    3   15     -0.18      0.00
   -7    3   15      0.47      0.00
   -6    3   15     -0.34      0.00
   -5    3   15      0.24      0.00
   -4    3   15     -0.07      0.00
   -3    3   15     -1.10      0.00
   -2    3   15     -0.74      0.00
   -1    3   15     -1.13      0.00
    0    3   15     -0.43      0.00
    1    3   15      1.11      0.00
    2    3   15      0.62      0.00
    3    3   15      0.50      0.00
    4    3   15      2.26      0.00
    5    3   15      2.85      0.00
    6    3   15      0.39      0.00
    7    3   15      1.22      0.00
    8    3   15     -1.74      0.00
    9    3   15     -1.04      0.00
   10    3   15     -0.82      0.00
   11    3   15     -0.83      0.00
   12    3   15     -0.27      0.00
   -8    4   15     -0.58      0.00
   -7    4   15     -0.66      0.00
   -6    4   15     -0.90      0.00
   -5    4   15     -0.46      0.00
   -4    4   15      0.08      0.00
   -3    4   15      1.24      0.00
   -2    4   15      1.78      0.00
   -1    4   15      1.34      0.00
    0    4   15      1.83      0.00
    1    4   15      1.89      0.00
    2    4   15      1.40      0.00
    3    4   15      1.11      0.00
    4    4   15     -0.04      0.00
    5    4   15     -2.64      0.00
    6    4   15     -0.56      0.00
    7    4   15     -0.46      0.00
    8    4   15     -1.62      0.00
    9    4   15      0.33      0.00
   10    4   15     -1.16      0.00
   11    4   15      0.14      0.00
   12    4   15     -1.01      0.00
   -8    5   15      1.19      0.00
   -7    5   15      0.55      0.00
   -6    5   15      0.73      0.00
   -5    5   15     -0.18      0.00
   -4    5   15     -1.23      0.00
   -3    5   15     -1.42      0.00
   -2    5   15     -1.54      0.00
   -1    5   15     -0.59      0.00
    0    5   15      0.43      0.00
    1    5   15     -0.98      0.00
    2    5   15     -0.33      0.00
    3    5   15      1.09      0.00
    4    5   15      0.58      0.00
    5    5   15      1.03      0.00
    6    5   15      1.90      0.00
    7    5   15      0.03      0.00
    8    5   15      1.86      0.00
    9    5   15      0.75      0.00
   10    5   15     -0.02      0.00
   11    5   15      0.19      0.00
   12    5   15     -0.41      0.00
   -7    6   15      0.15      0.00
   -6    6   15      0.60      0.00
   -5    6   15      0.10      0.00
   -4    6   15      0.34      0.00
   -3    6   15     -0.79      0.00
   -2    6   15     -1.46      0.00
   -1    6   15     -1.13      0.00
    0    6   15     -0.99      0.00
    1    6   15     -0.71      0.00
    2    6   15      0.59      0.00
    3    6   15     -1.44      0.00
    4    6   15     -1.40      0.00
    5    6   15      0.50      0.00
    6    6   15     -1.13      0.00
    7    6   15     -0.78      0.00
    8    6   15     -0.09      0.00
    9    6   15     -1.37      0.00
   10    6   15      0.32      0.00
   11    6   15     -1.24      0.00
   -7    7   15      0.09      0.00
   -6    7   15     -0.40      0.00
   -5    7   15      0.66      0.00
   -4    7   15      1.87      0.00
   -3    7   15      2.25      0.00
   -2    7   15      1.96      0.00
   -1    7   15      0.49      0.00
    0    7   15     -0.98      0.00
    1    7   15     -0.36      0.00
    2    7   15      1.19      0.00
    3    7   15      0.84      0.00
    4    7   15      2.17      0.00
    5    7   15      0.57      0.00
    6    7   15      0.10      0.00
    7    7   15      2.30      0.00
    8    7   15      0.71      0.00
    9    7   15      1.34      0.00
   10    7   15      1.74      0.00
   11    7   15      1.22      0.00
   -7    8   15     -0.26      0.00
   -6    8   15     -0.86      0.00
   -5    8   15     -0.03      0.00
   -4    8   15     -1.14      0.00
   -3    8   15     -1.16      0.00
   -2    8   15     -0.55      0.00
   -1    8   15     -0.16      0.00
    0    8   15     -0.11      0.00
    1    8   15     -0.64      0.00
    2    8   15     -2.89      0.00
    3    8   15     -2.11      0.00
    4    8   15     -0.29      0.00
    5    8   15     -1.16      0.00
    6    8   15      0.36      0.00
    7    8   15     -0.95      0.00
    8    8   15     -1.81      0.00
    9    8   15      0.10      0.00
   10    8   15     -1.55      0.00
   11    8   15     -0.95      0.00
   -7    9   15     -0.06      0.00
   -6    9   15      0.25      0.00
   -5    9   15     -0.12      0.00
   -4    9   15     -0.36      0.00
   -3    9   15      0.74      0.00
   -2    9   15      0.92      0.00
   -1    9   15      1.48      0.00
    0    9   15      1.71      0.00
    1    9   15      1.85      0.00
    2    9   15      1.15      0.00
    3    9   15      1.60      0.00
    4    9   15     -0.95      0.00
    5    9   15     -1.06      0.00
    6    9   15     -0.16      0.00
    7    9   15     -1.60      0.00
    8    9   15      0.22      0.00
    9    9   15      0.44      0.00
   10    9   15      0.49      0.00
   11    9   15      1.76      0.00
   -7   10   15     -0.18      0.00
   -6   10   15      0.45      0.00
   -5   10   15     -0.21      0.00
   -4   10   15     -0.15      0.00
   -3   10   15     -0.05      0.00
   -2   10   15     -0.39      0.00
   -1   10   15     -0.55      0.00
    0   10   15     -1.29      0.00
    1   10   15     -1.08      0.00
    2   10   15     -0.62      0.00
    3   10   15     -0.38      0.00
    4   10   15     -1.07      0.00
    5   10   15      0.99      0.00
    6   10   15      0.36      0.00
    7   10   15      0.35      0.00
    8   10   15      1.40      0.00
    9   10   15     -0.72      0.00
   10   10   15     -0.42      0.00
   11   10   15     -0.33      0.00
   -6   11   15      0.28      0.00
   -5   11   15     -0.41      0.00
   -4   11   15     -0.07      0.00
   -3   11   15     -0.65      0.00
   -2   11   15     -0.28      0.00
   -1   11   15      0.79      0.00
    0   11   15      1.50      0.00
    1   11   15      1.86      0.00
    2   11   15      1.12      0.00
    3   11   15      0.58      0.00
    4   11   15      1.36      0.00
    5   11   15      1.60      0.00
    6   11   15      0.24      0.00
    7   11   15      0.93      0.00
    8   11   15     -0.07      0.00
    9   11   15     -1.03      0.00
   10   11   15      0.06      0.00
   11   11   15     -0.70      0.00
   -6   12   15     -0.19      0.00
   -5   12   15      0.30      0.00
   -4   12   15      0.92      0.00
   -3   12   15      0.18      0.00
   -2   12   15     -0.03      0.00
   -1   12   15     -1.27      0.00
    0   12   15     -1.10      0.00
    1   12   15     -0.64      0.00
    2   12   15     -0.12      0.00
    3   12   15      0.43      0.00
    4   12   15     -0.20      0.00
    5   12   15     -1.50      0.00
    6   12   15     -1.22      0.00
    7   12   15      0.55      0.00
    8   12   15      0.35      0.00
    9   12   15      1.16      0.00
   10   12   15      0.69      0.00
   11   12   15     -0.09      0.00
   -6   13   15      0.14      0.00
   -5   13   15     -0.10      0.00
   -4   13   15     -0.44      0.00
   -3   13   15     -0.98      0.00
   -2   13   15     -0.37      0.00
   -1   13   15     -0.72      0.00
    0   13   15      0.00      0.00
    1   13   15     -0.99      0.00
    2   13   15     -0.70      0.00
    3   13   15     -0.58      0.00
    4   13   15     -0.36      0.00
    5   13   15      0.19      0.00
    6   13   15     -0.06      0.00
    7   13   15     -1.60      0.00
    8   13   15     -1.93      0.00
    9   13   15     -0.27      0.00
   10   13   15     -0.51      0.00
   11   13   15      0.19      0.00
   -6   14   15     -0.37      0.00
   -5   14   15     -0.20      0.00
   -4   14   15     -0.49      0.00
   -3   14   15      0.03      0.00
   -2   14   15     -0.07      0.00
   -1   14   15     -0.18      0.00
    0   14   15     -0.19      0.00
    1   14   15     -0.64      0.00
    2   14   15      0.64      0.00
    3   14   15      0.01      0.00
    4   14   15      0.74      0.00
    5   14   15      0.62      0.00
    6   14   15      1.27      0.00
    7   14   15      0.97      0.00
    8   14   15      0.80      0.00
    9   14   15     -0.27      0.00
   10   14   15     -0.43      0.00
   -5   15   15      0.67      0.00
   -4   15   15      0.59      0.00
   -3   15   15      1.78      0.00
   -2   15   15      1.16      0.00
   -1   15   15      1.23      0.00
    0   15   15      0.51      0.00
    1   15   15      0.72      0.00
    2   15   15      0.36      0.00
    3   15   15     -0.75      0.00
    4   15   15     -0.21      0.00
    5   15   15     -1.01      0.00
    6   15   15     -0.83      0.00
    7   15   15      0.04      0.00
    8   15   15      0.93      0.00
    9   15   15     -0.03      0.00
   10   15   15      0.07      0.00
   -5   16   15      0.59      0.00
   -4   16   15     -0.22      0.00
   -3   16   15     -0.81      0.00
   -2   16   15     -1.32      0.00
   -1   16   15     -0.52      0.00
    0   16   15     -0.37      0.00
    1   16   15     -0.24      0.00
    2   16   15     -1.22      0.00
    3   16   15     -0.27      0.00
    4   16   15     -0.38      0.00
    5   16   15      0.12      0.00
    6   16   15     -0.09      0.00
    7   16   15     -0.52      0.00
    8   16   15     -1.03      0.00
    9   16   15      0.13      0.00
   10   16   15      1.16      0.00
   -4   17   15      0.28      0.00
   -3   17   15      0.52      0.00
   -2   17   15      0.72      0.00
   -1   17   15      0.66      0.00
    0   17   15      0.54      0.00
    1   17   15      0.49      0.00
    2   17   15      0.58      0.00
    3   17   15      1.29      0.00
    4   17   15      0.03      0.00
    5   17   15     -0.07      0.00
    6   17   15     -0.24      0.00
    7   17   15      0.33      0.00
   -4   18   15      0.20      0.00
   -3   18   15      0.39      0.00
   -2   18   15      1.03      0.00
   -1   18   15      0.39      0.00
    0   18   15     -0.24      0.00
    1   18   15      0.18      0.00
    2   18   15      0.49      0.00
    3   18   15     -0.07      0.00
    4   18   15      0.35      0.00
    5   18   15      0.96      0.00
    6   18   15      0.91      0.00
    7   18   15      0.44      0.00
   -3   19   15     -1.91      0.00
   -2   19   15     -1.83      0.00
   -1   19   15     -0.88      0.00
    0   19   15     -0.35      0.00
    1   19   15     -0.33      0.00
    2   19   15     -0.70      0.00
    3   19   15     -0.36      0.00
    4   19   15      0.17      0.00
    5   19   15     -0.27      0.00
    6   19   15      0.10      0.00
    7   19   15     -0.43      0.00
   -2   20   15      0.17      0.00
   -1   20   15     -0.08      0.00
    0   20   15      0.45      0.00
    1   20   15      0.29      0.00
    2   20   15      0.08      0.00
    3   20   15     -0.22      0.00
    4   20   15     -0.88      0.00
    5   20   15     -0.93      0.00
    6   20   15     -0.54      0.00
    7   20   15      0.23      0.00
   -1   21   15      0.51      0.00
    0   21   15     -0.36      0.00
    1   21   15     -0.76      0.00
    2   21   15      0.25      0.00
    3   21   15      0.16      0.00
    4   21   15      0.56      0.00
    5   21   15      1.12      0.00
    6   21   15      0.46      0.00
    0   22   15      0.13      0.00
    1   22   15      0.80      0.00
    2   22   15      0.68      0.00
    3   22   15      0.16      0.00
    4   22   15      0.30      0.00
    5   22   15     -0.50      0.00
    0  -19   16     -0.35      0.00
    1  -19   16     -1.76      0.00
    2  -19   16     -1.71      0.00
    3  -19   16     -0.16      0.00
   -2  -18   16     -0.72      0.00
   -1  -18   16      0.44      0.00
    0  -18   16      0.03      0.00
    1  -18   16      1.23      0.00
    2  -18   16      1.41      0.00
    3  -18   16      1.01      0.00
    4  -18   16     -0.40      0.00
    5  -18   16     -0.18      0.00
   -3  -17   16      0.84      0.00
   -2  -17   16      0.81      0.00
   -1  -17   16     -0.02      0.00
    0  -17   16     -0.12      0.00
    1  -17   16      0.25      0.00
    2  -17   16     -0.17      0.00
    3  -17   16     -0.60      0.00
    4  -17   16     -1.83      0.00
    5  -17   16     -1.16      0.00
    6  -17   16     -1.75      0.00
   -4  -16   16     -0.88      0.00
   -3  -16   16     -1.27      0.00
   -2  -16   16     -0.14      0.00
   -1  -16   16     -0.23      0.00
    0  -16   16      0.41      0.00
    1  -16   16     -0.59      0.00
    2  -16   16     -0.98      0.00
    3  -16   16     -1.06      0.00
    4  -16   16     -0.10      0.00
    5  -16   16      0.84      0.00
    6  -16   16      0.01      0.00
    7  -16   16      0.59      0.00
   -5  -15   16      0.33      0.00
   -4  -15   16      0.54      0.00
   -3  -15   16      0.87      0.00
   -2  -15   16      0.75      0.00
   -1  -15   16      0.56      0.00
    0  -15   16      0.37      0.00
    1  -15   16      0.07      0.00
    2  -15   16      1.64      0.00
    3  -15   16      1.78      0.00
    4  -15   16      1.72      0.00
    5  -15   16      1.18      0.00
    6  -15   16     -0.10      0.00
    7  -15   16      0.33      0.00
    8  -15   16     -0.39      0.00
   -5  -14   16      0.71      0.00
   -4  -14   16      0.01      0.00
   -3  -14   16     -0.59      0.00
   -2  -14   16     -1.10      0.00
   -1  -14   16     -1.26      0.00
    0  -14   16     -1.00      0.00
    1  -14   16     -0.55      0.00
    2  -14   16     -1.04      0.00
    3  -14   16     -1.10      0.00
    4  -14   16     -0.23      0.00
    5  -14   16     -0.31      0.00
    6  -14   16     -0.46      0.00
    7  -14   16      0.78      0.00
    8  -14   16     -0.43      0.00
   -6  -13   16     -1.07      0.00
   -5  -13   16     -0.79      0.00
   -4  -13   16     -1.20      0.00
   -3  -13   16     -0.74      0.00
   -2  -13   16     -0.15      0.00
   -1  -13   16      0.88      0.00
    0  -13   16      1.85      0.00
    1  -13   16      2.76      0.00
    2  -13   16      1.83      0.00
    3  -13   16      0.25      0.00
    4  -13   16      0.08      0.00
    5  -13   16     -0.25      0.00
    6  -13   16      1.38      0.00
    7  -13   16      1.67      0.00
    8  -13   16      0.57      0.00
    9  -13   16      1.40      0.00
   -6  -12   16      1.08      0.00
   -5  -12   16      1.08      0.00
   -4  -12   16      0.94      0.00
   -3  -12   16      2.51      0.00
   -2  -12   16      0.41      0.00
   -1  -12   16     -1.32      0.00
    0  -12   16     -3.05      0.00
    1  -12   16     -3.98      0.00
    2  -12   16     -2.86      0.00
    3  -12   16     -0.70      0.00
    4  -12   16     -0.01      0.00
    5  -12   16     -1.74      0.00
    6  -12   16     -0.40      0.00
    7  -12   16     -1.68      0.00
    8  -12   16      0.31      0.00
    9  -12   16      0.65      0.00
   -7  -11   16     -1.01      0.00
   -6  -11   16      0.72      0.00
   -5  -11   16      0.65      0.00
   -4  -11   16      0.73      0.00
   -3  -11   16      0.05      0.00
   -2  -11   16     -0.52      0.00
   -1  -11   16      0.96      0.00
    0  -11   16      1.02      0.00
    1  -11   16      0.82      0.00
    2  -11   16      0.13      0.00
    3  -11   16      0.09      0.00
    4  -11   16     -0.21      0.00
    5  -11   16      0.38      0.00
    6  -11   16      0.64      0.00
    7  -11   16     -1.35      0.00
    8  -11   16     -0.43      0.00
    9  -11   16     -1.47      0.00
   10  -11   16     -0.38      0.00
   -7  -10   16     -0.86      0.00
   -6  -10   16     -1.42      0.00
   -5  -10   16     -3.23      0.00
   -4  -10   16     -1.14      0.00
   -3  -10   16     -1.35      0.00
   -2  -10   16      0.32      0.00
   -1  -10   16      1.53      0.00
    0  -10   16      1.87      0.00
    1  -10   16      2.08      0.00
    2  -10   16      1.90      0.00
    3  -10   16      1.23      0.00
    4  -10   16     -0.24      0.00
    5  -10   16      1.22      0.00
    6  -10   16      0.04      0.00
    7  -10   16      0.39      0.00
    8  -10   16      0.20      0.00
    9  -10   16      0.01      0.00
   10  -10   16      0.33      0.00
   -7   -9   16      1.15      0.00
   -6   -9   16      0.30      0.00
   -5   -9   16      0.90      0.00
   -4   -9   16      1.60      0.00
   -3   -9   16      0.67      0.00
   -2   -9   16      1.26      0.00
   -1   -9   16     -0.42      0.00
    0   -9   16     -0.96      0.00
    1   -9   16     -1.31      0.00
    2   -9   16     -0.75      0.00
    3   -9   16     -0.60      0.00
    4   -9   16     -0.30      0.00
    5   -9   16     -0.64      0.00
    6   -9   16     -1.69      0.00
    7   -9   16     -0.01      0.00
    8   -9   16     -0.29      0.00
    9   -9   16     -0.05      0.00
   10   -9   16     -0.68      0.00
   11   -9   16     -0.82      0.00
   -6   -8   16     -0.77      0.00
   -5   -8   16      0.30      0.00
   -4   -8   16     -1.12      0.00
   -3   -8   16     -2.03      0.00
   -2   -8   16     -1.50      0.00
   -1   -8   16     -0.85      0.00
    0   -8   16      0.57      0.00
    1   -8   16      1.65      0.00
    2   -8   16      1.72      0.00
    3   -8   16      0.45      0.00
    4   -8   16      0.85      0.00
    5   -8   16      0.19      0.00
    6   -8   16      0.88      0.00
    7   -8   16      0.02      0.00
    8   -8   16     -0.34      0.00
    9   -8   16     -0.77      0.00
   10   -8   16     -0.36      0.00
   11   -8   16     -0.17      0.00
   -6   -7   16      0.82      0.00
   -5   -7   16      0.15      0.00
   -4   -7   16     -0.62      0.00
   -3   -7   16      0.64      0.00
   -2   -7   16      1.17      0.00
   -1   -7   16      0.57      0.00
    0   -7   16     -0.74      0.00
    1   -7   16     -1.85      0.00
    2   -7   16     -2.35      0.00
    3   -7   16     -0.78      0.00
    4   -7   16      0.09      0.00
    5   -7   16      0.61      0.00
    6   -7   16      1.24      0.00
    7   -7   16      0.52      0.00
    8   -7   16      0.81      0.00
    9   -7   16      0.42      0.00
   10   -7   16      0.48      0.00
   11   -7   16      0.53      0.00
   -7   -6   16     -0.46      0.00
   -6   -6   16      0.09      0.00
   -5   -6   16      0.54      0.00
   -4   -6   16      0.26      0.00
   -3   -6   16     -0.44      0.00
   -2   -6   16     -2.24      0.00
   -1   -6   16     -2.94      0.00
    0   -6   16     -1.71      0.00
    1   -6   16     -0.46      0.00
    2   -6   16      0.68      0.00
    3   -6   16      1.22      0.00
    4   -6   16     -0.02      0.00
    5   -6   16      0.89      0.00
    6   -6   16     -0.53      0.00
    7   -6   16      0.59      0.00
    8   -6   16      0.91      0.00
    9   -6   16      1.03      0.00
   10   -6   16      0.69      0.00
   11   -6   16      0.19      0.00
   -8   -5   16     -0.05      0.00
   -7   -5   16      0.41      0.00
   -6   -5   16     -0.11      0.00
   -5   -5   16      0.74      0.00
   -4   -5   16      0.74      0.00
   -3   -5   16      1.52      0.00
   -2   -5   16      1.24      0.00
   -1   -5   16      2.07      0.00
    0   -5   16      2.04      0.00
    1   -5   16      1.00      0.00
    2   -5   16      0.15      0.00
    3   -5   16     -2.54      0.00
    4   -5   16     -2.56      0.00
    5   -5   16     -2.38      0.00
    6   -5   16     -2.70      0.00
    7   -5   16     -0.84      0.00
    8   -5   16     -1.64      0.00
    9   -5   16     -1.24      0.00
   10   -5   16     -0.47      0.00
   11   -5   16     -0.41      0.00
   -8   -4   16      0.46      0.00
   -7   -4   16     -0.16      0.00
   -6   -4   16      0.21      0.00
   -5   -4   16      0.25      0.00
   -4   -4   16      0.14      0.00
   -3   -4   16      1.04      0.00
   -2   -4   16      0.97      0.00
   -1   -4   16      0.70      0.00
    0   -4   16     -1.84      0.00
    1   -4   16     -2.24      0.00
    2   -4   16     -1.84      0.00
    3   -4   16     -0.49      0.00
    4   -4   16      3.07      0.00
    5   -4   16      1.14      0.00
    6   -4   16      2.55      0.00
    7   -4   16      2.23      0.00
    8   -4   16      0.92      0.00
    9   -4   16      1.02      0.00
   10   -4   16      0.24      0.00
   11   -4   16     -0.52      0.00
   -8   -3   16     -0.28      0.00
   -7   -3   16     -0.88      0.00
   -6   -3   16      0.11      0.00
   -5   -3   16     -1.16      0.00
   -4   -3   16     -0.56      0.00
   -3   -3   16     -0.87      0.00
   -2   -3   16     -0.50      0.00
   -1   -3   16      0.52      0.00
    0   -3   16      2.34      0.00
    1   -3   16      4.73      0.00
    2   -3   16      3.12      0.00
    3   -3   16      3.17      0.00
    4   -3   16      0.65      0.00
    5   -3   16     -1.96      0.00
    6   -3   16     -0.73      0.00
    7   -3   16     -3.54      0.00
    8   -3   16     -2.24      0.00
    9   -3   16     -0.29      0.00
   10   -3   16     -0.25      0.00
   11   -3   16      0.13      0.00
   -8   -2   16     -0.43      0.00
   -7   -2   16      0.37      0.00
   -6   -2   16     -0.33      0.00
   -5   -2   16     -1.53      0.00
   -4   -2   16     -0.26      0.00
   -3   -2   16     -0.01      0.00
   -2   -2   16      0.87      0.00
   -1   -2   16      0.45      0.00
    0   -2   16      0.37      0.00
    1   -2   16     -1.01      0.00
    2   -2   16     -1.61      0.00
    3   -2   16      0.05      0.00
    4   -2   16     -2.31      0.00
    5   -2   16      1.25      0.00
    6   -2   16      1.77      0.00
    7   -2   16      1.39      0.00
    8   -2   16      2.79      0.00
    9   -2   16      0.46      0.00
   10   -2   16     -0.01      0.00
   11   -2   16      1.25      0.00
   -8   -1   16     -0.65      0.00
   -7   -1   16      0.34      0.00
   -6   -1   16     -0.83      0.00
   -5   -1   16      0.56      0.00
   -4   -1   16     -0.06      0.00
   -3   -1   16     -1.97      0.00
   -2   -1   16     -2.71      0.00
   -1   -1   16     -3.26      0.00
    0   -1   16     -2.59      0.00
    1   -1   16     -3.27      0.00
    2   -1   16     -1.14      0.00
    3   -1   16     -0.30      0.00
    4   -1   16      0.26      0.00
    5   -1   16      2.57      0.00
    6   -1   16     -1.04      0.00
    7   -1   16      0.25      0.00
    8   -1   16      0.31      0.00
    9   -1   16     -0.59      0.00
   10   -1   16      0.30      0.00
   11   -1   16     -0.92      0.00
   12   -1   16     -1.56      0.00
   -8    0   16      1.47      0.00
   -7    0   16      1.63      0.00
   -6    0   16      1.20      0.00
   -5    0   16      1.68      0.00
   -4    0   16      0.65      0.00
   -3    0   16      1.06      0.00
   -2    0   16      1.79      0.00
   -1    0   16      2.02      0.00
    0    0   16      2.55      0.00
    1    0   16      3.08      0.00
    2    0   16      3.18      0.00
    3    0   16      0.09      0.00
    4    0   16      1.03      0.00
    5    0   16     -1.10      0.00
    6    0   16     -1.46      0.00
    7    0   16     -0.21      0.00
    8    0   16     -2.60      0.00
    9    0   16     -0.82      0.00
   10    0   16      0.13      0.00
   11    0   16      1.05      0.00
   -8    1   16     -0.59      0.00
   -7    1   16     -2.31      0.00
   -6    1   16     -0.65      0.00
   -5    1   16     -0.06      0.00
   -4    1   16      0.19      0.00
   -3    1   16      1.10      0.00
   -2    1   16      0.27      0.00
   -1    1   16     -0.41      0.00
    0    1   16     -2.27      0.00
    1    1   16     -3.80      0.00
    2    1   16     -3.68      0.00
    3    1   16     -3.09      0.00
    4    1   16     -1.69      0.00
    5    1   16     -2.92      0.00
    6    1   16      0.93      0.00
    7    1   16      1.00      0.00
    8    1   16      1.73      0.00
    9    1   16      2.26      0.00
   10    1   16     -0.46      0.00
   11    1   16     -0.86      0.00
   -7    2   16      0.25      0.00
   -6    2   16      0.48      0.00
   -5    2   16     -0.83      0.00
   -4    2   16     -0.84      0.00
   -3    2   16     -0.81      0.00
   -2    2   16     -0.81      0.00
   -1    2   16      0.62      0.00
    0    2   16      1.63      0.00
    1    2   16      2.50      0.00
    2    2   16      2.29      0.00
    3    2   16      2.10      0.00
    4    2   16      1.48      0.00
    5    2   16      2.10      0.00
    6    2   16      0.79      0.00
    7    2   16     -2.45      0.00
    8    2   16     -1.21      0.00
    9    2   16     -2.22      0.00
   10    2   16     -0.79      0.00
   11    2   16     -0.27      0.00
   -7    3   16      0.31      0.00
   -6    3   16     -0.38      0.00
   -5    3   16     -0.25      0.00
   -4    3   16      0.81      0.00
   -3    3   16      0.57      0.00
   -2    3   16      0.93      0.00
   -1    3   16      0.48      0.00
    0    3   16     -0.48      0.00
    1    3   16      0.40      0.00
    2    3   16      0.39      0.00
    3    3   16     -0.50      0.00
    4    3   16     -1.22      0.00
    5    3   16      0.02      0.00
    6    3   16     -1.32      0.00
    7    3   16      1.14      0.00
    8    3   16      1.11      0.00
    9    3   16     -0.37      0.00
   10    3   16      0.86      0.00
   11    3   16     -0.50      0.00
   -7    4   16      0.17      0.00
   -6    4   16     -0.04      0.00
   -5    4   16      0.26      0.00
   -4    4   16     -1.24      0.00
   -3    4   16     -1.85      0.00
   -2    4   16     -1.20      0.00
   -1    4   16     -1.35      0.00
    0    4   16     -0.30      0.00
    1    4   16      0.53      0.00
    2    4   16     -0.12      0.00
    3    4   16      1.49      0.00
    4    4   16      2.24      0.00
    5    4   16      0.71      0.00
    6    4   16      0.59      0.00
    7    4   16      2.00      0.00
    8    4   16      0.39      0.00
    9    4   16      1.62      0.00
   10    4   16      0.16      0.00
   11    4   16     -0.05      0.00
   -7    5   16      0.33      0.00
   -6    5   16      0.82      0.00
   -5    5   16      0.84      0.00
   -4    5   16      0.40      0.00
   -3    5   16      0.93      0.00
   -2    5   16      0.12      0.00
   -1    5   16     -0.44      0.00
    0    5   16     -0.12      0.00
    1    5   16     -0.85      0.00
    2    5   16     -1.96      0.00
    3    5   16     -1.18      0.00
    4    5   16     -1.36      0.00
    5    5   16     -1.49      0.00
    6    5   16      0.10      0.00
    7    5   16     -1.94      0.00
    8    5   16     -1.76      0.00
    9    5   16     -0.23      0.00
   10    5   16     -0.78      0.00
   11    5   16      0.74      0.00
   -7    6   16     -1.00      0.00
   -6    6   16     -0.48      0.00
   -5    6   16     -0.20      0.00
   -4    6   16      1.71      0.00
   -3    6   16      2.30      0.00
   -2    6   16      0.94      0.00
   -1    6   16      0.43      0.00
    0    6   16     -0.55      0.00
    1    6   16     -1.17      0.00
    2    6   16      1.01      0.00
    3    6   16      1.39      0.00
    4    6   16     -0.25      0.00
    5    6   16      0.81      0.00
    6    6   16      0.93      0.00
    7    6   16      0.50      0.00
    8    6   16      2.44      0.00
    9    6   16      0.77      0.00
   10    6   16      1.37      0.00
   11    6   16      1.40      0.00
   -7    7   16      0.21      0.00
   -6    7   16     -0.20      0.00
   -5    7   16     -1.44      0.00
   -4    7   16     -1.50      0.00
   -3    7   16     -1.89      0.00
   -2    7   16     -0.13      0.00
   -1    7   16      1.13      0.00
    0    7   16      1.09      0.00
    1    7   16      0.28      0.00
    2    7   16     -0.31      0.00
    3    7   16     -1.74      0.00
    4    7   16     -0.16      0.00
    5    7   16      0.78      0.00
    6    7   16     -1.31      0.00
    7    7   16     -0.53      0.00
    8    7   16     -1.08      0.00
    9    7   16     -1.77      0.00
   10    7   16     -0.61      0.00
   11    7   16     -1.66      0.00
   -7    8   16      0.87      0.00
   -6    8   16      0.16      0.00
   -5    8   16      0.43      0.00
   -4    8   16      0.42      0.00
   -3    8   16      0.00      0.00
   -2    8   16      0.45      0.00
   -1    8   16      0.43      0.00
    0    8   16      1.03      0.00
    1    8   16      1.40      0.00
    2    8   16      0.91      0.00
    3    8   16     -0.65      0.00
    4    8   16     -0.32      0.00
    5    8   16     -1.95      0.00
    6    8   16     -1.46      0.00
    7    8   16      0.03      0.00
    8    8   16     -1.43      0.00
    9    8   16      0.23      0.00
   10    8   16      0.84      0.00
   11    8   16      0.76      0.00
   -6    9   16     -0.51      0.00
   -5    9   16      0.44      0.00
   -4    9   16     -0.34      0.00
   -3    9   16     -0.35      0.00
   -2    9   16     -1.00      0.00
   -1    9   16     -1.50      0.00
    0    9   16     -1.25      0.00
    1    9   16     -0.83      0.00
    2    9   16      0.11      0.00
    3    9   16      1.44      0.00
    4    9   16      1.58      0.00
    5    9   16      1.01      0.00
    6    9   16      2.70      0.00
    7    9   16      1.66      0.00
    8    9   16      1.02      0.00
    9    9   16      1.12      0.00
   10    9   16     -1.30      0.00
   11    9   16     -0.85      0.00
   -6   10   16      0.10      0.00
   -5   10   16      0.27      0.00
   -4   10   16     -0.34      0.00
   -3   10   16      0.09      0.00
   -2   10   16      0.32      0.00
   -1   10   16      1.17      0.00
    0   10   16      0.92      0.00
    1   10   16      0.48      0.00
    2   10   16     -0.01      0.00
    3   10   16     -0.03      0.00
    4   10   16     -0.47      0.00
    5   10   16      0.02      0.00
    6   10   16     -0.13      0.00
    7   10   16     -1.33      0.00
    8   10   16     -0.12      0.00
    9   10   16     -0.15      0.00
   10   10   16     -0.31      0.00
   11   10   16     -0.01      0.00
   -6   11   16      0.47      0.00
   -5   11   16      0.46      0.00
   -4   11   16      0.35      0.00
   -3   11   16      0.13      0.00
   -2   11   16     -1.08      0.00
   -1   11   16     -1.60      0.00
    0   11   16     -1.97      0.00
    1   11   16     -0.39      0.00
    2   11   16      0.26      0.00
    3   11   16      0.05      0.00
    4   11   16     -0.21      0.00
    5   11   16     -0.13      0.00
    6   11   16     -0.59      0.00
    7   11   16      0.06      0.00
    8   11   16      1.04      0.00
    9   11   16      0.03      0.00
   10   11   16      0.62      0.00
   11   11   16      0.52      0.00
   -6   12   16     -0.03      0.00
   -5   12   16     -0.64      0.00
   -4   12   16     -0.21      0.00
   -3   12   16      0.27      0.00
   -2   12   16      0.38      0.00
   -1   12   16      0.60      0.00
    0   12   16      0.10      0.00
    1   12   16      0.00      0.00
    2   12   16     -1.47      0.00
    3   12   16     -0.75      0.00
    4   12   16     -0.07      0.00
    5   12   16     -0.17      0.00
    6   12   16     -0.91      0.00
    7   12   16     -1.37      0.00
    8   12   16     -1.71      0.00
    9   12   16     -1.15      0.00
   10   12   16      0.09      0.00
   -5   13   16     -0.45      0.00
   -4   13   16      0.10      0.00
   -3   13   16     -0.26      0.00
   -2   13   16      0.35      0.00
   -1   13   16      0.35      0.00
    0   13   16      0.23      0.00
    1   13   16     -0.05      0.00
    2   13   16     -0.38      0.00
    3   13   16      0.82      0.00
    4   13   16     -0.18      0.00
    5   13   16      0.35      0.00
    6   13   16      1.36      0.00
    7   13   16      1.95      0.00
    8   13   16      0.90      0.00
    9   13   16      0.58      0.00
   10   13   16     -0.02      0.00
   -5   14   16      0.74      0.00
   -4   14   16      1.51      0.00
   -3   14   16      0.91      0.00
   -2   14   16      1.39      0.00
   -1   14   16      0.64      0.00
    0   14   16      1.17      0.00
    1   14   16      0.67      0.00
    2   14   16      1.05      0.00
    3   14   16      0.31      0.00
    4   14   16     -0.71      0.00
    5   14   16     -0.26      0.00
    6   14   16     -0.71      0.00
    7   14   16     -0.54      0.00
    8   14   16      0.26      0.00
    9   14   16      0.32      0.00
   10   14   16     -0.88      0.00
   -5   15   16     -0.21      0.00
   -4   15   16     -1.02      0.00
   -3   15   16     -1.35      0.00
   -2   15   16     -1.07      0.00
   -1   15   16     -1.11      0.00
    0   15   16     -0.35      0.00
    1   15   16     -0.81      0.00
    2   15   16     -0.21      0.00
    3   15   16     -1.01      0.00
    4   15   16      0.35      0.00
    5   15   16      0.48      0.00
    6   15   16     -0.03      0.00
    7   15   16     -0.82      0.00
    8   15   16     -0.18      0.00
    9   15   16      0.32      0.00
   10   15   16      1.05      0.00
   -4   16   16     -0.24      0.00
   -3   16   16      1.00      0.00
   -2   16   16      0.61      0.00
   -1   16   16      0.63      0.00
    0   16   16      0.37      0.00
    1   16   16      0.28      0.00
    2   16   16      0.72      0.00
    3   16   16      0.43      0.00
    4   16   16      0.73      0.00
    5   16   16     -0.45      0.00
    6   16   16     -0.12      0.00
    7   16   16      0.57      0.00
    8   16   16     -0.16      0.00
    9   16   16     -1.39      0.00
   -4   17   16     -0.33      0.00
   -3   17   16      0.10      0.00
   -2   17   16     -0.20      0.00
   -1   17   16     -0.04      0.00
    0   17   16     -0.10      0.00
    1   17   16      0.09      0.00
    2   17   16      0.10      0.00
    3   17   16      0.39      0.00
    4   17   16      0.41      0.00
    5   17   16      0.94      0.00
    6   17   16      0.80      0.00
    7   17   16      1.09      0.00
    8   17   16      1.04      0.00
   -3   18   16     -1.72      0.00
   -2   18   16     -1.45      0.00
   -1   18   16     -0.59      0.00
    0   18   16     -0.45      0.00
    1   18   16     -0.61      0.00
    2   18   16     -0.88      0.00
    3   18   16     -0.89      0.00
    4   18   16     -1.06      0.00
    5   18   16     -0.74      0.00
    6   18   16     -0.58      0.00
   -3   19   16      0.94      0.00
   -2   19   16      0.58      0.00
   -1   19   16     -0.02      0.00
    0   19   16      0.08      0.00
    1   19   16      0.66      0.00
    2   19   16      0.39      0.00
    3   19   16      0.26      0.00
    4   19   16      0.18      0.00
    5   19   16     -0.56      0.00
    6   19   16     -0.42      0.00
   -2   20   16      0.83      0.00
   -1   20   16      0.46      0.00
    0   20   16     -0.22      0.00
    1   20   16     -0.20      0.00
    2   20   16     -0.21      0.00
    3   20   16      0.43      0.00
    4   20   16      0.38      0.00
    5   20   16      0.52      0.00
    6   20   16      0.59      0.00
    7   20   16     -0.38      0.00
    0   21   16      0.36      0.00
    1   21   16      0.03      0.00
    2   21   16      0.24      0.00
    3   21   16      0.14      0.00
    4   21   16     -0.34      0.00
    5   21   16     -0.27      0.00
    0  -18   17     -0.34      0.00
    1  -18   17     -0.36      0.00
    2  -18   17     -0.06      0.00
    3  -18   17      0.07      0.00
    4  -18   17     -0.75      0.00
   -2  -17   17     -0.09      0.00
   -1  -17   17      0.98      0.00
    0  -17   17     -0.16      0.00
    1  -17   17     -0.11      0.00
    2  -17   17     -0.93      0.00
    3  -17   17      0.01      0.00
    4  -17   17      0.43      0.00
    5  -17   17      1.15      0.00
   -3  -16   17      0.62      0.00
   -2  -16   17      0.25      0.00
   -1  -16   17     -0.15      0.00
    1  -16   17      0.57      0.00
    2  -16   17      1.00      0.00
    3  -16   17      1.22      0.00
    4  -16   17      0.67      0.00
    5  -16   17      0.91      0.00
    6  -16   17      0.33      0.00
   -4  -15   17      0.07      0.00
   -3  -15   17     -0.54      0.00
   -2  -15   17     -0.98      0.00
   -1  -15   17     -1.57      0.00
    0  -15   17     -0.64      0.00
    1  -15   17     -0.95      0.00
    2  -15   17     -0.60      0.00
    3  -15   17     -0.69      0.00
    4  -15   17     -0.79      0.00
    5  -15   17     -0.32      0.00
    6  -15   17     -0.47      0.00
    7  -15   17      0.05      0.00
   -4  -14   17     -0.35      0.00
   -3  -14   17     -0.40      0.00
   -2  -14   17      1.03      0.00
   -1  -14   17      1.71      0.00
    0  -14   17      1.56      0.00
    1  -14   17      1.35      0.00
    2  -14   17      1.07      0.00
    3  -14   17     -0.15      0.00
    4  -14   17     -0.69      0.00
    5  -14   17      0.38      0.00
    6  -14   17     -0.04      0.00
    7  -14   17      0.96      0.00
    8  -14   17      0.52      0.00
   -5  -13   17      0.68      0.00
   -4  -13   17      1.27      0.00
   -3  -13   17      1.03      0.00
   -2  -13   17      0.50      0.00
   -1  -13   17     -1.73      0.00
    0  -13   17     -2.95      0.00
    1  -13   17     -2.79      0.00
    2  -13   17     -2.01      0.00
    3  -13   17     -0.55      0.00
    4  -13   17      0.13      0.00
    5  -13   17     -0.25      0.00
    6  -13   17     -1.74      0.00
    7  -13   17     -0.21      0.00
    8  -13   17     -0.80      0.00
   -5  -12   17      0.82      0.00
   -4  -12   17     -0.68      0.00
   -3  -12   17     -0.28      0.00
   -2  -12   17      0.66      0.00
   -1  -12   17      1.32      0.00
    0  -12   17      2.41      0.00
    1  -12   17      1.90      0.00
    2  -12   17      0.69      0.00
    3  -12   17     -0.10      0.00
    4  -12   17      0.67      0.00
    5  -12   17      0.15      0.00
    6  -12   17      0.44      0.00
    7  -12   17     -0.03      0.00
    8  -12   17     -1.80      0.00
    9  -12   17     -0.79      0.00
   -6  -11   17     -1.66      0.00
   -5  -11   17     -1.81      0.00
   -4  -11   17     -2.41      0.00
   -3  -11   17     -0.29      0.00
   -2  -11   17     -0.75      0.00
   -1  -11   17      0.48      0.00
    0  -11   17      1.59      0.00
    1  -11   17      1.71      0.00
    2  -11   17      1.82      0.00
    3  -11   17      1.10      0.00
    4  -11   17      0.69      0.00
    5  -11   17     -0.31      0.00
    6  -11   17      1.05      0.00
    7  -11   17      0.10      0.00
    8  -11   17      0.77      0.00
    9  -11   17      0.39      0.00
   -6  -10   17      1.92      0.00
   -5  -10   17      0.74      0.00
   -4  -10   17      1.03      0.00
   -3  -10   17      1.27      0.00
   -2  -10   17     -0.61      0.00
   -1  -10   17     -1.06      0.00
    0  -10   17     -2.08      0.00
    1  -10   17     -1.95      0.00
    2  -10   17     -1.20      0.00
    3  -10   17     -0.32      0.00
    4  -10   17     -0.80      0.00
    5  -10   17     -1.08      0.00
    6  -10   17     -0.80      0.00
    7  -10   17     -0.81      0.00
    8  -10   17      0.23      0.00
    9  -10   17     -0.01      0.00
   10  -10   17     -0.08      0.00
   -6   -9   17      0.73      0.00
   -5   -9   17     -0.22      0.00
   -4   -9   17      0.28      0.00
   -3   -9   17     -1.12      0.00
   -2   -9   17     -0.92      0.00
   -1   -9   17      0.40      0.00
    0   -9   17      0.69      0.00
    1   -9   17      0.65      0.00
    2   -9   17      0.28      0.00
    3   -9   17      0.03      0.00
    4   -9   17      0.09      0.00
    5   -9   17      1.36      0.00
    6   -9   17      0.87      0.00
    7   -9   17      0.69      0.00
    8   -9   17     -0.35      0.00
    9   -9   17     -0.29      0.00
   10   -9   17     -0.38      0.00
   -5   -8   17     -0.15      0.00
   -4   -8   17      0.30      0.00
   -3   -8   17     -0.21      0.00
   -2   -8   17      0.16      0.00
   -1   -8   17     -0.31      0.00
    0   -8   17     -1.45      0.00
    1   -8   17     -1.93      0.00
    2   -8   17     -1.32      0.00
    3   -8   17     -0.60      0.00
    4   -8   17      0.78      0.00
    5   -8   17      0.55      0.00
    6   -8   17      0.67      0.00
    7   -8   17      0.52      0.00
    8   -8   17      0.68      0.00
    9   -8   17      1.03      0.00
   10   -8   17      0.56      0.00
   11   -8   17      0.66      0.00
   -4   -7   17      0.78      0.00
   -3   -7   17     -0.11      0.00
   -2   -7   17     -0.08      0.00
   -1   -7   17     -0.44      0.00
    0   -7   17     -0.03      0.00
    1   -7   17      1.57      0.00
    2   -7   17      1.66      0.00
    3   -7   17      0.83      0.00
    4   -7   17     -0.28      0.00
    5   -7   17     -1.43      0.00
    6   -7   17     -0.13      0.00
    7   -7   17     -0.43      0.00
    8   -7   17      0.82      0.00
    9   -7   17      0.15      0.00
   10   -7   17      0.23      0.00
   11   -7   17     -0.05      0.00
   -6   -6   17      0.70      0.00
   -5   -6   17      0.25      0.00
   -4   -6   17      0.86      0.00
   -3   -6   17      0.99      0.00
   -2   -6   17      1.80      0.00
   -1   -6   17      0.96      0.00
    0   -6   17      0.73      0.00
    1   -6   17     -0.25      0.00
    2   -6   17     -2.04      0.00
    3   -6   17     -1.84      0.00
    4   -6   17     -2.69      0.00
    5   -6   17     -1.21      0.00
    6   -6   17     -1.18      0.00
    7   -6   17     -1.47      0.00
    8   -6   17     -0.60      0.00
    9   -6   17     -0.87      0.00
   10   -6   17     -0.36      0.00
   11   -6   17      0.04      0.00
   -7   -5   17      0.36      0.00
   -6   -5   17     -0.73      0.00
   -5   -5   17     -0.55      0.00
   -4   -5   17     -0.84      0.00
   -3   -5   17     -0.29      0.00
   -2   -5   17      0.29      0.00
   -1   -5   17     -0.02      0.00
    0   -5   17      0.18      0.00
    1   -5   17     -0.66      0.00
    2   -5   17      0.96      0.00
    3   -5   17      2.17      0.00
    4   -5   17      2.23      0.00
    5   -5   17      3.69      0.00
    6   -5   17      0.87      0.00
    7   -5   17      1.44      0.00
    8   -5   17      0.64      0.00
    9   -5   17      0.06      0.00
   10   -5   17      0.03      0.00
   11   -5   17      0.12      0.00
   -7   -4   17     -0.42      0.00
   -6   -4   17     -1.36      0.00
   -5   -4   17      0.06      0.00
   -4   -4   17     -1.17      0.00
   -3   -4   17     -0.61      0.00
   -2   -4   17     -0.66      0.00
   -1   -4   17      0.77      0.00
    0   -4   17      1.98      0.00
    1   -4   17      2.26      0.00
    2   -4   17      2.46      0.00
    3   -4   17     -0.35      0.00
    4   -4   17     -0.18      0.00
    5   -4   17     -1.57      0.00
    6   -4   17     -2.73      0.00
    7   -4   17     -0.91      0.00
    8   -4   17     -1.66      0.00
    9   -4   17     -0.41      0.00
   10   -4   17      0.56      0.00
   11   -4   17      0.01      0.00
   -7   -3   17     -0.55      0.00
   -6   -3   17      0.54      0.00
   -5   -3   17      0.14      0.00
   -4   -3   17     -0.44      0.00
   -3   -3   17      0.29      0.00
   -2   -3   17     -0.38      0.00
   -1   -3   17     -0.81      0.00
    0   -3   17     -2.21      0.00
    1   -3   17     -1.21      0.00
    2   -3   17     -1.30      0.00
    3   -3   17     -1.32      0.00
    4   -3   17      1.24      0.00
    5   -3   17     -0.40      0.00
    6   -3   17      2.40      0.00
    7   -3   17      2.41      0.00
    8   -3   17      0.60      0.00
    9   -3   17      0.65      0.00
   10   -3   17     -0.16      0.00
   11   -3   17      0.05      0.00
   -7   -2   17     -0.13      0.00
   -6   -2   17      1.69      0.00
   -5   -2   17     -0.08      0.00
   -4   -2   17      0.06      0.00
   -3   -2   17     -0.84      0.00
   -2   -2   17     -1.60      0.00
   -1   -2   17     -1.61      0.00
    0   -2   17     -1.51      0.00
    1   -2   17     -1.00      0.00
    2   -2   17     -1.66      0.00
    3   -2   17      0.68      0.00
    4   -2   17      0.34      0.00
    5   -2   17     -0.40      0.00
    6   -2   17      0.99      0.00
    7   -2   17     -1.56      0.00
    8   -2   17     -0.19      0.00
    9   -2   17      0.43      0.00
   10   -2   17     -0.58      0.00
   11   -2   17     -0.73      0.00
   -7   -1   17      1.68      0.00
   -6   -1   17      0.83      0.00
   -5   -1   17      0.13      0.00
   -4   -1   17      1.60      0.00
   -3   -1   17      1.54      0.00
   -2   -1   17      2.01      0.00
   -1   -1   17      1.89      0.00
    0   -1   17      2.49      0.00
    1   -1   17      1.94      0.00
    2   -1   17      0.61      0.00
    3   -1   17      0.41      0.00
    4   -1   17     -2.15      0.00
    5   -1   17     -0.42      0.00
    6   -1   17     -1.48      0.00
    7   -1   17     -1.95      0.00
    8   -1   17     -0.47      0.00
    9   -1   17     -1.51      0.00
   10   -1   17     -0.02      0.00
   11   -1   17      0.90      0.00
   -7    0   17     -1.16      0.00
   -6    0   17     -2.28      0.00
   -5    0   17     -0.04      0.00
   -4    0   17      0.37      0.00
   -3    0   17     -0.19      0.00
   -2    0   17     -0.05      0.00
   -1    0   17     -0.84      0.00
    0    0   17     -1.50      0.00
    1    0   17     -2.34      0.00
    2    0   17     -1.10      0.00
    3    0   17     -0.58      0.00
    4    0   17     -0.44      0.00
    5    0   17      1.23      0.00
    6    0   17      0.38      0.00
    7    0   17      2.95      0.00
    8    0   17      2.41      0.00
    9    0   17      1.04      0.00
   10    0   17      0.30      0.00
   11    0   17     -1.27      0.00
   -7    1   17      0.53      0.00
   -6    1   17      0.10      0.00
   -5    1   17     -0.03      0.00
   -4    1   17     -1.61      0.00
   -3    1   17     -0.98      0.00
   -2    1   17     -0.38      0.00
   -1    1   17      0.42      0.00
    0    1   17      1.86      0.00
    1    1   17      1.94      0.00
    2    1   17      1.49      0.00
    3    1   17      0.85      0.00
    4    1   17      1.57      0.00
    5    1   17     -0.30      0.00
    6    1   17     -0.65      0.00
    7    1   17     -1.71      0.00
    8    1   17     -3.29      0.00
    9    1   17     -0.73      0.00
   10    1   17     -0.25      0.00
   11    1   17      0.80      0.00
   -7    2   17     -0.18      0.00
   -6    2   17      0.57      0.00
   -5    2   17      0.00      0.00
   -4    2   17      0.29      0.00
   -3    2   17      0.81      0.00
   -2    2   17     -0.41      0.00
   -1    2   17     -0.23      0.00
    0    2   17     -0.91      0.00
    1    2   17     -0.99      0.00
    2    2   17      0.25      0.00
    3    2   17     -0.35      0.00
    4    2   17     -0.62      0.00
    5    2   17     -0.66      0.00
    6    2   17      1.61      0.00
    7    2   17      0.91      0.00
    8    2   17      2.04      0.00
    9    2   17      1.34      0.00
   10    2   17     -0.25      0.00
   11    2   17      0.04      0.00
   -7    3   17     -0.42      0.00
   -6    3   17      0.05      0.00
   -5    3   17     -0.36      0.00
   -4    3   17      0.06      0.00
   -3    3   17     -0.72      0.00
   -2    3   17     -0.70      0.00
   -1    3   17      0.29      0.00
    0    3   17     -0.17      0.00
    1    3   17      0.18      0.00
    2    3   17      1.28      0.00
    3    3   17      1.06      0.00
    4    3   17      0.86      0.00
    5    3   17      1.45      0.00
    6    3   17     -0.03      0.00
    7    3   17     -0.16      0.00
    8    3   17      1.28      0.00
    9    3   17     -0.23      0.00
   10    3   17      0.43      0.00
   11    3   17     -0.39      0.00
   -7    4   17      0.67      0.00
   -6    4   17      0.21      0.00
   -5    4   17      0.74      0.00
   -4    4   17      0.88      0.00
   -3    4   17      0.21      0.00
   -2    4   17      1.12      0.00
   -1    4   17     -0.30      0.00
    0    4   17     -1.25      0.00
    1    4   17     -0.86      0.00
    2    4   17     -2.59      0.00
    3    4   17     -2.95      0.00
    4    4   17     -1.12      0.00
    5    4   17     -0.59      0.00
    6    4   17     -2.33      0.00
    7    4   17     -0.94      0.00
    8    4   17     -2.29      0.00
    9    4   17     -1.20      0.00
   10    4   17      0.99      0.00
   11    4   17      0.83      0.00
   -6    5   17     -1.15      0.00
   -5    5   17      0.26      0.00
   -4    5   17      0.43      0.00
   -3    5   17      1.18      0.00
   -2    5   17      1.10      0.00
   -1    5   17      0.12      0.00
    0    5   17      0.79      0.00
    1    5   17      1.11      0.00
    2    5   17      0.68      0.00
    3    5   17      1.69      0.00
    4    5   17      0.79      0.00
    5    5   17     -0.45      0.00
    6    5   17      1.21      0.00
    7    5   17      1.93      0.00
    8    5   17      0.84      0.00
    9    5   17      1.59      0.00
   10    5   17     -0.30      0.00
   11    5   17     -0.08      0.00
   -6    6   17      0.42      0.00
   -5    6   17     -1.11      0.00
   -4    6   17     -2.48      0.00
   -3    6   17     -0.94      0.00
   -2    6   17     -0.35      0.00
   -1    6   17      0.89      0.00
    0    6   17      1.55      0.00
    1    6   17      0.36      0.00
    2    6   17     -0.33      0.00
    3    6   17      0.43      0.00
    4    6   17     -0.29      0.00
    5    6   17     -0.23      0.00
    6    6   17      0.55      0.00
    7    6   17     -1.68      0.00
    8    6   17     -0.80      0.00
    9    6   17     -0.88      0.00
   10    6   17     -1.55      0.00
   11    6   17     -0.46      0.00
   -6    7   17      1.07      0.00
   -5    7   17      0.51      0.00
   -4    7   17      0.76      0.00
   -3    7   17     -0.39      0.00
   -2    7   17     -1.31      0.00
   -1    7   17     -0.56      0.00
    0    7   17     -0.54      0.00
    1    7   17     -0.18      0.00
    2    7   17      0.52      0.00
    3    7   17     -0.79      0.00
    4    7   17     -1.61      0.00
    5    7   17     -0.48      0.00
    6    7   17     -1.19      0.00
    7    7   17     -1.07      0.00
    8    7   17      0.25      0.00
    9    7   17     -0.83      0.00
   10    7   17      0.88      0.00
   11    7   17      0.75      0.00
   -6    8   17     -0.20      0.00
   -5    8   17     -0.41      0.00
   -4    8   17      0.67      0.00
   -3    8   17      0.06      0.00
   -2    8   17     -0.18      0.00
   -1    8   17     -1.00      0.00
    0    8   17     -0.80      0.00
    1    8   17      0.15      0.00
    2    8   17      1.18      0.00
    3    8   17      1.61      0.00
    4    8   17      2.67      0.00
    5    8   17      2.66      0.00
    6    8   17      1.77      0.00
    7    8   17      2.87      0.00
    8    8   17      1.77      0.00
    9    8   17      0.53      0.00
   10    8   17     -0.16      0.00
   11    8   17     -1.31      0.00
   -6    9   17     -0.06      0.00
   -5    9   17      0.16      0.00
   -4    9   17      0.34      0.00
   -3    9   17      0.29      0.00
   -2    9   17      0.76      0.00
   -1    9   17      0.41      0.00
    0    9   17      0.12      0.00
    1    9   17     -1.10      0.00
    2    9   17     -1.85      0.00
    3    9   17     -1.56      0.00
    4    9   17     -1.02      0.00
    5    9   17     -1.95      0.00
    6    9   17     -1.50      0.00
    7    9   17     -0.96      0.00
    8    9   17     -1.52      0.00
    9    9   17      0.31      0.00
   10    9   17      0.61      0.00
   -5   10   17      0.43      0.00
   -4   10   17     -0.04      0.00
   -3   10   17     -0.68      0.00
   -2   10   17     -1.14      0.00
   -1   10   17     -0.81      0.00
    0   10   17     -0.24      0.00
    1   10   17      0.02      0.00
    2   10   17      1.18      0.00
    3   10   17      0.74      0.00
    4   10   17     -0.19      0.00
    5   10   17     -0.03      0.00
    6   10   17      0.47      0.00
    7   10   17     -0.17      0.00
    8   10   17     -0.11      0.00
    9   10   17      0.27      0.00
   10   10   17     -0.21      0.00
   -5   11   17     -0.12      0.00
   -4   11   17     -0.07      0.00
   -3   11   17      1.08      0.00
   -2   11   17      1.71      0.00
   -1   11   17      1.27      0.00
    0   11   17      0.36      0.00
    1   11   17     -0.45      0.00
    2   11   17     -0.49      0.00
    3   11   17     -1.18      0.00
    4   11   17     -0.32      0.00
    5   11   17      0.09      0.00
    6   11   17     -0.72      0.00
    7   11   17     -1.35      0.00
    8   11   17     -0.87      0.00
    9   11   17     -0.77      0.00
   10   11   17     -0.65      0.00
   -5   12   17     -0.04      0.00
   -4   12   17     -0.63      0.00
   -3   12   17     -0.11      0.00
   -2   12   17     -0.12      0.00
   -1   12   17      0.24      0.00
    0   12   17      0.00      0.00
    1   12   17      0.51      0.00
    2   12   17      0.23      0.00
    3   12   17     -0.12      0.00
    4   12   17      0.70      0.00
    5   12   17      0.14      0.00
    6   12   17      1.12      0.00
    7   12   17      2.12      0.00
    8   12   17      1.71      0.00
    9   12   17      0.59      0.00
   10   12   17      0.65      0.00
   -5   13   17      0.65      0.00
   -4   13   17      0.82      0.00
   -3   13   17      0.81      0.00
   -2   13   17     -0.34      0.00
   -1   13   17      0.51      0.00
    0   13   17      0.72      0.00
    1   13   17      1.65      0.00
    2   13   17      0.54      0.00
    3   13   17      0.89      0.00
    4   13   17      0.36      0.00
    5   13   17     -0.55      0.00
    6   13   17     -0.40      0.00
    7   13   17     -0.62      0.00
    8   13   17     -0.45      0.00
    9   13   17     -0.12      0.00
   10   13   17     -0.24      0.00
   -4   14   17     -0.88      0.00
   -3   14   17     -1.29      0.00
   -2   14   17     -0.94      0.00
   -1   14   17     -0.78      0.00
    0   14   17     -1.25      0.00
    1   14   17     -0.95      0.00
    2   14   17     -1.37      0.00
    3   14   17      0.22      0.00
    4   14   17     -0.44      0.00
    5   14   17      0.47      0.00
    6   14   17      0.36      0.00
    7   14   17     -0.65      0.00
    8   14   17     -0.58      0.00
    9   14   17      0.65      0.00
   -4   15   17      0.35      0.00
   -3   15   17      0.02      0.00
   -2   15   17      1.02      0.00
   -1   15   17      0.22      0.00
    0   15   17      0.11      0.00
    1   15   17      0.00      0.00
    2   15   17      0.43      0.00
    3   15   17      0.47      0.00
    4   15   17     -0.54      0.00
    5   15   17     -0.08      0.00
    6   15   17     -0.08      0.00
    7   15   17      0.19      0.00
    8   15   17      0.20      0.00
    9   15   17     -0.67      0.00
   -4   16   17     -0.14      0.00
   -3   16   17     -0.35      0.00
   -2   16   17     -0.18      0.00
   -1   16   17     -0.56      0.00
    0   16   17      0.51      0.00
    1   16   17      0.27      0.00
    2   16   17      0.43      0.00
    3   16   17      0.00      0.00
    4   16   17      0.72      0.00
    5   16   17      1.01      0.00
    6   16   17      0.58      0.00
    7   16   17      0.52      0.00
    8   16   17      1.38      0.00
    9   16   17      0.67      0.00
   -3   17   17     -0.49      0.00
   -2   17   17     -1.02      0.00
   -1   17   17     -0.54      0.00
    0   17   17     -0.38      0.00
    1   17   17     -0.96      0.00
    2   17   17     -0.97      0.00
    3   17   17     -1.47      0.00
    4   17   17     -1.32      0.00
    5   17   17     -1.34      0.00
    6   17   17     -1.12      0.00
    7   17   17     -0.93      0.00
    8   17   17     -1.19      0.00
    9   17   17     -0.82      0.00
   -3   18   17      1.33      0.00
   -2   18   17      0.80      0.00
   -1   18   17      0.55      0.00
    0   18   17      0.36      0.00
    1   18   17      0.37      0.00
    2   18   17      1.09      0.00
    3   18   17      1.03      0.00
    4   18   17      0.85      0.00
    5   18   17      0.28      0.00
    6   18   17     -0.52      0.00
   -2   19   17      0.89      0.00
   -1   19   17      0.24      0.00
    0   19   17     -0.19      0.00
    1   19   17     -0.14      0.00
    2   19   17     -0.04      0.00
    3   19   17     -0.24      0.00
    4   19   17      0.21      0.00
    5   19   17      0.53      0.00
    6   19   17      0.65      0.00
    0   20   17      0.44      0.00
    1   20   17      0.27      0.00
    2   20   17     -0.33      0.00
    3   20   17     -0.18      0.00
    4   20   17     -0.17      0.00
    5   20   17     -0.54      0.00
    6   20   17      0.08      0.00
    2   21   17     -0.11      0.00
    3   21   17      0.30      0.00
    4   21   17      0.12      0.00
    0  -17   18     -0.20      0.00
    1  -17   18      0.53      0.00
    2  -17   18      0.52      0.00
    3  -17   18      0.41      0.00
    4  -17   18      0.01      0.00
   -2  -16   18     -0.49      0.00
   -1  -16   18     -0.52      0.00
    0  -16   18     -0.96      0.00
    1  -16   18     -0.17      0.00
    2  -16   18     -0.67      0.00
    3  -16   18     -0.22      0.00
    4  -16   18     -0.63      0.00
    5  -16   18     -0.79      0.00
   -3  -15   18      0.25      0.00
   -2  -15   18      0.97      0.00
   -1  -15   18      1.41      0.00
    1  -15   18      0.42      0.00
    2  -15   18      0.08      0.00
    3  -15   18     -0.25      0.00
    4  -15   18     -0.34      0.00
    5  -15   18     -0.21      0.00
    6  -15   18      0.35      0.00
   -4  -14   18      0.51      0.00
   -3  -14   18      0.41      0.00
   -2  -14   18     -0.51      0.00
   -1  -14   18     -0.90      0.00
    1  -14   18     -1.43      0.00
    2  -14   18     -0.48      0.00
    3  -14   18      0.22      0.00
    4  -14   18      0.25      0.00
    5  -14   18      0.08      0.00
    6  -14   18     -0.54      0.00
    7  -14   18     -0.93      0.00
   -4  -13   18      0.00      0.00
   -3  -13   18     -0.83      0.00
   -2  -13   18      0.65      0.00
   -1  -13   18      1.57      0.00
    0  -13   18      1.48      0.00
    1  -13   18      1.61      0.00
    2  -13   18      0.78      0.00
    3  -13   18      0.17      0.00
    4  -13   18     -0.21      0.00
    5  -13   18      1.06      0.00
    6  -13   18      0.40      0.00
    7  -13   18      0.09      0.00
    8  -13   18     -0.73      0.00
   -5  -12   18     -1.18      0.00
   -4  -12   18     -0.80      0.00
   -3  -12   18     -1.55      0.00
   -2  -12   18     -0.47      0.00
   -1  -12   18     -0.75      0.00
    0  -12   18      0.20      0.00
    1  -12   18      1.41      0.00
    2  -12   18      1.39      0.00
    3  -12   18      1.08      0.00
    4  -12   18      0.37      0.00
    5  -12   18      0.15      0.00
    6  -12   18     -0.62      0.00
    7  -12   18      0.91      0.00
    8  -12   18      0.57      0.00
   -5  -11   18      1.81      0.00
   -4  -11   18      0.67      0.00
   -3  -11   18      0.78      0.00
   -2  -11   18      0.34      0.00
   -1  -11   18     -1.73      0.00
    0  -11   18     -2.04      0.00
    1  -11   18     -2.35      0.00
    2  -11   18     -1.77      0.00
    3  -11   18     -1.23      0.00
    4  -11   18     -0.52      0.00
    5  -11   18     -0.90      0.00
    6  -11   18     -0.65      0.00
    7  -11   18     -0.18      0.00
    8  -11   18     -0.12      0.00
    9  -11   18      0.57      0.00
   -5  -10   18      1.25      0.00
   -4  -10   18     -0.35      0.00
   -3  -10   18      0.27      0.00
   -2  -10   18     -0.03      0.00
   -1  -10   18      0.40      0.00
    0  -10   18      0.88      0.00
    1  -10   18      0.00      0.00
    2  -10   18     -0.41      0.00
    3  -10   18     -0.27      0.00
    4  -10   18      0.56      0.00
    5  -10   18      1.14      0.00
    6  -10   18      1.61      0.00
    7  -10   18      0.75      0.00
    8  -10   18     -0.01      0.00
    9  -10   18     -0.86      0.00
   -4   -9   18     -0.67      0.00
   -3   -9   18      0.33      0.00
   -2   -9   18     -0.66      0.00
   -1   -9   18     -0.47      0.00
    0   -9   18     -0.15      0.00
    1   -9   18     -0.22      0.00
    2   -9   18      0.03      0.00
    3   -9   18      0.54      0.00
    4   -9   18      0.34      0.00
    5   -9   18      0.27      0.00
    6   -9   18     -0.47      0.00
    7   -9   18      0.23      0.00
    8   -9   18      0.48      0.00
    9   -9   18      1.12      0.00
   10   -9   18      0.92      0.00
   -4   -8   18      1.00      0.00
   -3   -8   18      1.33      0.00
   -2   -8   18      0.49      0.00
   -1   -8   18      0.96      0.00
    0   -8   18      0.83      0.00
    1   -8   18      0.82      0.00
    2   -8   18      1.21      0.00
    3   -8   18     -0.23      0.00
    4   -8   18     -1.38      0.00
    5   -8   18     -1.69      0.00
    6   -8   18     -1.17      0.00
    7   -8   18     -0.02      0.00
    8   -8   18     -0.67      0.00
    9   -8   18      0.22      0.00
   10   -8   18     -0.37      0.00
   -3   -7   18     -0.03      0.00
   -2   -7   18      0.08      0.00
   -1   -7   18      0.81      0.00
    0   -7   18     -0.36      0.00
    1   -7   18     -0.94      0.00
    2   -7   18     -1.28      0.00
    3   -7   18     -1.26      0.00
    4   -7   18      0.37      0.00
    5   -7   18     -0.54      0.00
    6   -7   18      0.27      0.00
    7   -7   18     -0.65      0.00
    8   -7   18     -0.47      0.00
    9   -7   18     -0.13      0.00
   10   -7   18     -0.37      0.00
   -4   -6   18     -0.80      0.00
   -3   -6   18     -1.06      0.00
   -2   -6   18      0.07      0.00
   -1   -6   18      0.53      0.00
    0   -6   18      0.30      0.00
    1   -6   18      1.49      0.00
    2   -6   18      1.33      0.00
    3   -6   18      2.01      0.00
    4   -6   18      1.85      0.00
    5   -6   18      0.97      0.00
    6   -6   18      1.47      0.00
    7   -6   18     -0.78      0.00
    8   -6   18     -0.01      0.00
    9   -6   18     -0.48      0.00
   10   -6   18     -0.16      0.00
   11   -6   18      0.01      0.00
   -7   -5   18     -0.19      0.00
   -6   -5   18     -0.14      0.00
   -5   -5   18     -0.77      0.00
   -4   -5   18      0.39      0.00
   -3   -5   18     -0.61      0.00
   -2   -5   18     -0.29      0.00
   -1   -5   18     -0.67      0.00
    0   -5   18      0.45      0.00
    1   -5   18      0.46      0.00
    2   -5   18     -0.27      0.00
    3   -5   18      0.34      0.00
    4   -5   18     -1.65      0.00
    5   -5   18     -0.34      0.00
    6   -5   18     -0.45      0.00
    7   -5   18     -0.76      0.00
    8   -5   18      0.45      0.00
    9   -5   18     -0.24      0.00
   10   -5   18      0.06      0.00
   11   -5   18      0.31      0.00
   -7   -4   18      1.07      0.00
   -6   -4   18     -0.21      0.00
   -5   -4   18      1.11      0.00
   -4   -4   18      0.65      0.00
   -3   -4   18     -0.09      0.00
   -2   -4   18     -0.56      0.00
   -1   -4   18     -1.42      0.00
    0   -4   18     -1.24      0.00
    1   -4   18     -1.60      0.00
    2   -4   18     -0.24      0.00
    3   -4   18     -0.34      0.00
    4   -4   18     -0.46      0.00
    5   -4   18      1.67      0.00
    6   -4   18     -0.06      0.00
    7   -4   18      1.44      0.00
    8   -4   18      0.92      0.00
    9   -4   18     -0.28      0.00
   10   -4   18     -0.22      0.00
   11   -4   18     -0.17      0.00
   -7   -3   18      0.50      0.00
   -6   -3   18      0.16      0.00
   -5   -3   18      1.59      0.00
   -4   -3   18     -0.53      0.00
   -3   -3   18     -0.30      0.00
   -2   -3   18     -0.10      0.00
   -1   -3   18      0.39      0.00
    0   -3   18     -0.46      0.00
    1   -3   18     -1.06      0.00
    2   -3   18     -0.24      0.00
    3   -3   18     -1.19      0.00
    4   -3   18      0.43      0.00
    5   -3   18     -0.07      0.00
    6   -3   18     -1.19      0.00
    7   -3   18      0.22      0.00
    8   -3   18     -0.82      0.00
    9   -3   18      0.04      0.00
   10   -3   18      0.18      0.00
   11   -3   18     -0.56      0.00
   -7   -2   18     -0.95      0.00
   -6   -2   18      0.58      0.00
   -5   -2   18      0.01      0.00
   -4   -2   18      0.14      0.00
   -3   -2   18      1.65      0.00
   -2   -2   18      1.55      0.00
   -1   -2   18      1.33      0.00
    0   -2   18      1.02      0.00
    1   -2   18      1.77      0.00
    2   -2   18      0.28      0.00
    3   -2   18     -0.73      0.00
    4   -2   18      0.37      0.00
    5   -2   18     -1.84      0.00
    6   -2   18     -0.16      0.00
    7   -2   18     -0.15      0.00
    8   -2   18     -0.99      0.00
    9   -2   18      0.21      0.00
   10   -2   18     -0.08      0.00
   11   -2   18      0.40      0.00
   -7   -1   18     -1.62      0.00
   -6   -1   18     -0.48      0.00
   -5   -1   18     -1.48      0.00
   -4   -1   18      0.14      0.00
   -3   -1   18     -0.03      0.00
   -2   -1   18     -0.48      0.00
   -1   -1   18     -0.60      0.00
    0   -1   18     -0.69      0.00
    1   -1   18     -0.10      0.00
    2   -1   18      0.14      0.00
    3   -1   18      1.08      0.00
    4   -1   18      0.55      0.00
    5   -1   18      0.74      0.00
    6   -1   18      2.30      0.00
    7   -1   18      1.16      0.00
    8   -1   18      1.95      0.00
    9   -1   18      1.01      0.00
   10   -1   18     -0.22      0.00
   11   -1   18     -0.39      0.00
   -6    0   18      0.19      0.00
   -5    0   18     -0.73      0.00
   -4    0   18     -0.61      0.00
   -3    0   18     -1.45      0.00
   -2    0   18     -0.62      0.00
   -1    0   18     -0.33      0.00
    0    0   18      0.69      0.00
    1    0   18      0.42      0.00
    2    0   18     -0.40      0.00
    3    0   18      0.24      0.00
    4    0   18     -0.47      0.00
    5    0   18      0.08      0.00
    6    0   18     -1.76      0.00
    7    0   18     -2.34      0.00
    8    0   18     -1.54      0.00
    9    0   18     -1.14      0.00
   10    0   18      1.14      0.00
   11    0   18      1.04      0.00
   -6    1   18     -0.20      0.00
   -5    1   18      1.08      0.00
   -4    1   18      0.43      0.00
   -3    1   18      0.04      0.00
   -2    1   18      0.40      0.00
   -1    1   18     -0.51      0.00
    0    1   18     -0.25      0.00
    1    1   18     -0.06      0.00
    2    1   18      0.02      0.00
    3    1   18      0.19      0.00
    4    1   18     -0.07      0.00
    5    1   18      0.09      0.00
    6    1   18      0.30      0.00
    7    1   18      2.35      0.00
    8    1   18      1.41      0.00
    9    1   18      0.62      0.00
   10    1   18     -0.40      0.00
   11    1   18     -1.05      0.00
   -6    2   18     -0.25      0.00
   -5    2   18      0.29      0.00
   -4    2   18     -0.17      0.00
   -3    2   18      1.04      0.00
   -2    2   18      0.28      0.00
   -1    2   18      0.35      0.00
    0    2   18      0.63      0.00
    1    2   18     -0.48      0.00
    2    2   18      0.11      0.00
    3    2   18      0.97      0.00
    4    2   18      0.57      0.00
    5    2   18     -0.36      0.00
    6    2   18      0.73      0.00
    7    2   18     -0.77      0.00
    8    2   18     -0.86      0.00
    9    2   18      0.40      0.00
   10    2   18     -0.51      0.00
   11    2   18      0.17      0.00
   -6    3   18      0.61      0.00
   -5    3   18     -0.37      0.00
   -4    3   18     -0.01      0.00
   -3    3   18      0.43      0.00
   -2    3   18     -0.77      0.00
   -1    3   18     -0.08      0.00
    0    3   18     -1.05      0.00
    1    3   18     -1.80      0.00
    2    3   18     -1.39      0.00
    3    3   18     -2.25      0.00
    4    3   18     -1.54      0.00
    5    3   18     -0.67      0.00
    6    3   18     -0.61      0.00
    7    3   18     -2.48      0.00
    8    3   18     -1.05      0.00
    9    3   18     -0.77      0.00
   10    3   18      0.71      0.00
   11    3   18      1.75      0.00
   -6    4   18     -0.48      0.00
   -5    4   18     -0.24      0.00
   -4    4   18      1.07      0.00
   -3    4   18      0.03      0.00
   -2    4   18      0.57      0.00
   -1    4   18      1.80      0.00
    0    4   18      1.15      0.00
    1    4   18      2.05      0.00
    2    4   18      2.64      0.00
    3    4   18      0.85      0.00
    4    4   18      0.40      0.00
    5    4   18      1.17      0.00
    6    4   18      0.24      0.00
    7    4   18      1.90      0.00
    8    4   18      2.12      0.00
    9    4   18     -0.12      0.00
   10    4   18     -0.70      0.00
   11    4   18     -1.94      0.00
   -6    5   18     -0.11      0.00
   -5    5   18     -0.63      0.00
   -4    5   18     -1.59      0.00
   -3    5   18     -1.67      0.00
   -2    5   18      0.20      0.00
   -1    5   18     -0.58      0.00
    0    5   18     -0.30      0.00
    1    5   18      0.55      0.00
    2    5   18     -0.76      0.00
    3    5   18      0.05      0.00
    4    5   18      0.92      0.00
    5    5   18      0.09      0.00
    6    5   18     -0.80      0.00
    7    5   18      0.46      0.00
    8    5   18     -1.47      0.00
    9    5   18     -0.44      0.00
   10    5   18     -0.15      0.00
   11    5   18     -0.17      0.00
   -6    6   18      0.34      0.00
   -5    6   18      1.65      0.00
   -4    6   18      0.26      0.00
   -3    6   18     -0.53      0.00
   -2    6   18     -1.27      0.00
   -1    6   18     -1.65      0.00
    0    6   18     -0.87      0.00
    1    6   18     -0.79      0.00
    2    6   18     -1.05      0.00
    3    6   18     -0.22      0.00
    4    6   18     -0.69      0.00
    5    6   18     -1.09      0.00
    6    6   18     -0.06      0.00
    7    6   18     -0.47      0.00
    8    6   18     -0.65      0.00
    9    6   18      0.69      0.00
   10    6   18      0.30      0.00
   -5    7   18     -0.10      0.00
   -4    7   18      0.45      0.00
   -3    7   18      1.80      0.00
   -2    7   18      0.69      0.00
   -1    7   18      0.41      0.00
    0    7   18      0.45      0.00
    1    7   18      0.38      0.00
    2    7   18      1.46      0.00
    3    7   18      1.88      0.00
    4    7   18      1.39      0.00
    5    7   18      1.94      0.00
    6    7   18      2.35      0.00
    7    7   18      0.99      0.00
    8    7   18      2.03      0.00
    9    7   18      0.69      0.00
   10    7   18     -0.72      0.00
   -5    8   18     -0.30      0.00
   -4    8   18     -0.08      0.00
   -3    8   18      0.11      0.00
   -2    8   18      0.38      0.00
   -1    8   18     -0.17      0.00
    0    8   18     -1.25      0.00
    1    8   18     -1.62      0.00
    2    8   18     -2.09      0.00
    3    8   18     -2.56      0.00
    4    8   18     -1.85      0.00
    5    8   18     -1.59      0.00
    6    8   18     -2.05      0.00
    7    8   18     -1.30      0.00
    8    8   18     -0.52      0.00
    9    8   18     -0.49      0.00
   10    8   18      1.21      0.00
   -5    9   18     -0.50      0.00
   -4    9   18     -0.17      0.00
   -3    9   18     -0.85      0.00
   -2    9   18     -0.50      0.00
   -1    9   18      0.50      0.00
    0    9   18      1.63      0.00
    1    9   18      1.95      0.00
    2    9   18      1.26      0.00
    3    9   18      1.08      0.00
    4    9   18      0.64      0.00
    5    9   18     -0.02      0.00
    6    9   18     -0.23      0.00
    7    9   18     -0.05      0.00
    8    9   18     -0.76      0.00
    9    9   18     -0.78      0.00
   10    9   18     -0.25      0.00
   -5   10   18     -0.20      0.00
   -4   10   18      0.76      0.00
   -3   10   18      1.45      0.00
   -2   10   18      1.30      0.00
   -1   10   18      0.74      0.00
    0   10   18      0.13      0.00
    1   10   18     -0.86      0.00
    2   10   18     -1.01      0.00
    3   10   18      0.05      0.00
    4   10   18     -0.22      0.00
    5   10   18      0.05      0.00
    6   10   18      0.32      0.00
    7   10   18     -0.26      0.00
    8   10   18     -0.39      0.00
    9   10   18      0.06      0.00
   10   10   18     -0.56      0.00
   -4   11   18     -0.52      0.00
   -3   11   18     -1.39      0.00
   -2   11   18     -0.68      0.00
   -1   11   18     -0.22      0.00
    0   11   18     -0.08      0.00
    1   11   18     -0.11      0.00
    2   11   18      1.09      0.00
    3   11   18      0.46      0.00
    4   11   18     -0.20      0.00
    5   11   18      0.82      0.00
    6   11   18      0.98      0.00
    7   11   18      1.63      0.00
    8   11   18      1.71      0.00
    9   11   18      1.06      0.00
   10   11   18      0.65      0.00
   -4   12   18      0.34      0.00
   -3   12   18     -0.09      0.00
   -2   12   18     -0.12      0.00
   -1   12   18     -0.45      0.00
    0   12   18      0.71      0.00
    1   12   18      0.74      0.00
    2   12   18      1.17      0.00
    3   12   18     -0.34      0.00
    4   12   18      0.48      0.00
    5   12   18      0.27      0.00
    6   12   18     -1.08      0.00
    7   12   18     -0.80      0.00
    8   12   18     -0.57      0.00
    9   12   18     -0.52      0.00
   -4   13   18     -0.98      0.00
   -3   13   18      0.02      0.00
   -2   13   18     -0.40      0.00
   -1   13   18     -0.90      0.00
    0   13   18     -1.34      0.00
    1   13   18     -1.46      0.00
    2   13   18     -1.10      0.00
    3   13   18     -0.94      0.00
    4   13   18      0.66      0.00
    5   13   18     -0.40      0.00
    6   13   18     -0.06      0.00
    7   13   18     -0.24      0.00
    8   13   18     -0.97      0.00
    9   13   18     -0.33      0.00
   -4   14   18     -0.04      0.00
   -3   14   18      0.38      0.00
   -2   14   18     -0.26      0.00
   -1   14   18      0.96      0.00
    0   14   18     -0.12      0.00
    1   14   18      0.28      0.00
    2   14   18     -0.10      0.00
    3   14   18      0.11      0.00
    4   14   18     -0.29      0.00
    5   14   18     -1.08      0.00
    6   14   18      0.37      0.00
    7   14   18      0.82      0.00
    8   14   18      0.41      0.00
    9   14   18      0.28      0.00
   -3   15   18     -0.09      0.00
   -2   15   18     -0.08      0.00
   -1   15   18      0.49      0.00
    0   15   18      0.47      0.00
    1   15   18      1.19      0.00
    2   15   18      0.12      0.00
    3   15   18      0.73      0.00
    4   15   18      0.26      0.00
    5   15   18      0.80      0.00
    6   15   18      0.58      0.00
    7   15   18     -0.27      0.00
    8   15   18      0.19      0.00
    9   15   18      0.54      0.00
   -3   16   18     -0.33      0.00
   -2   16   18      0.01      0.00
   -1   16   18     -1.02      0.00
    0   16   18     -0.98      0.00
    1   16   18     -0.70      0.00
    2   16   18     -1.13      0.00
    3   16   18     -0.89      0.00
    4   16   18     -1.54      0.00
    5   16   18     -0.98      0.00
    6   16   18     -0.73      0.00
    7   16   18     -1.24      0.00
    8   16   18     -0.87      0.00
   -3   17   18      1.07      0.00
   -2   17   18      1.19      0.00
   -1   17   18      0.82      0.00
    0   17   18      0.96      0.00
    1   17   18      0.54      0.00
    2   17   18      0.91      0.00
    3   17   18      1.44      0.00
    4   17   18      1.12      0.00
    5   17   18      0.61      0.00
    6   17   18     -0.05      0.00
    7   17   18      0.09      0.00
    8   17   18      0.66      0.00
   -2   18   18     -0.16      0.00
   -1   18   18      0.04      0.00
    0   18   18     -0.15      0.00
    1   18   18     -0.29      0.00
    2   18   18     -0.13      0.00
    3   18   18     -0.33      0.00
    4   18   18     -0.14      0.00
    5   18   18      0.78      0.00
   -1   19   18      0.08      0.00
    0   19   18      0.33      0.00
    1   19   18      0.06      0.00
    2   19   18      0.08      0.00
    3   19   18     -0.53      0.00
    4   19   18     -0.42      0.00
    5   19   18     -0.43      0.00
    1   20   18     -0.11      0.00
    2   20   18      0.14      0.00
    3   20   18      0.31      0.00
    4   20   18      0.67      0.00
    0  -16   19      0.17      0.00
    1  -16   19      0.35      0.00
    2  -16   19     -0.21      0.00
    3  -16   19     -0.08      0.00
    4  -16   19     -0.09      0.00
   -2  -15   19     -0.35      0.00
   -1  -15   19     -0.08      0.00
    0  -15   19      0.19      0.00
    1  -15   19      0.53      0.00
    2  -15   19      0.06      0.00
    3  -15   19      0.43      0.00
    4  -15   19      0.60      0.00
    5  -15   19      0.03      0.00
   -2  -14   19     -0.33      0.00
   -1  -14   19     -0.01      0.00
    0  -14   19      0.24      0.00
    1  -14   19      0.03      0.00
    2  -14   19      0.26      0.00
    3  -14   19     -0.08      0.00
    4  -14   19      0.17      0.00
    5  -14   19      0.31      0.00
    6  -14   19      1.20      0.00
   -3  -13   19     -0.39      0.00
   -2  -13   19     -1.14      0.00
   -1  -13   19     -0.31      0.00
    1  -13   19      0.43      0.00
    2  -13   19      1.07      0.00
    3  -13   19      0.94      0.00
    4  -13   19      0.08      0.00
    5  -13   19     -0.70      0.00
    6  -13   19     -0.58      0.00
    7  -13   19     -0.26      0.00
   -4  -12   19      1.60      0.00
   -3  -12   19      0.61      0.00
   -2  -12   19      0.35      0.00
   -1  -12   19     -0.41      0.00
    1  -12   19     -2.28      0.00
    2  -12   19     -2.34      0.00
    3  -12   19     -1.54      0.00
    4  -12   19     -1.02      0.00
    5  -12   19      0.19      0.00
    6  -12   19      0.04      0.00
    7  -12   19     -0.17      0.00
    8  -12   19      0.24      0.00
   -4  -11   19      0.56      0.00
   -3  -11   19     -0.71      0.00
   -2  -11   19      0.64      0.00
   -1  -11   19      0.80      0.00
    0  -11   19      0.76      0.00
    1  -11   19      0.77      0.00
    2  -11   19      0.21      0.00
    3  -11   19      0.18      0.00
    4  -11   19      0.49      0.00
    5  -11   19      1.03      0.00
    6  -11   19      1.10      0.00
    7  -11   19      0.67      0.00
    8  -11   19     -0.31      0.00
   -4  -10   19     -0.85      0.00
   -3  -10   19     -0.42      0.00
   -2  -10   19      0.46      0.00
   -1  -10   19     -0.23      0.00
    0  -10   19      0.64      0.00
    1  -10   19      1.23      0.00
    2  -10   19      1.00      0.00
    3  -10   19      0.57      0.00
    4  -10   19      0.23      0.00
    5  -10   19     -0.74      0.00
    6  -10   19     -1.04      0.00
    7  -10   19     -0.59      0.00
    8  -10   19      1.02      0.00
    9  -10   19      0.82      0.00
   -3   -9   19      1.20      0.00
   -2   -9   19      1.25      0.00
   -1   -9   19      0.02      0.00
    0   -9   19      0.19      0.00
    1   -9   19      0.05      0.00
    2   -9   19     -0.16      0.00
    3   -9   19     -0.55      0.00
    4   -9   19     -1.69      0.00
    5   -9   19     -1.12      0.00
    6   -9   19     -0.98      0.00
    7   -9   19     -0.66      0.00
    8   -9   19     -0.73      0.00
    9   -9   19     -1.13      0.00
   -2   -8   19     -0.83      0.00
   -1   -8   19     -0.32      0.00
    0   -8   19      0.53      0.00
    1   -8   19     -0.62      0.00
    2   -8   19     -0.56      0.00
    3   -8   19      0.73      0.00
    4   -8   19      1.24      0.00
    5   -8   19      1.68      0.00
    6   -8   19      0.09      0.00
    7   -8   19      0.85      0.00
    8   -8   19     -0.26      0.00
    9   -8   19     -0.01      0.00
   10   -8   19      0.02      0.00
   -1   -7   19      0.53      0.00
    0   -7   19      0.61      0.00
    1   -7   19      0.51      0.00
    2   -7   19      1.23      0.00
    3   -7   19      0.00      0.00
    4   -7   19      0.34      0.00
    5   -7   19      0.18      0.00
    6   -7   19     -0.44      0.00
    7   -7   19     -0.11      0.00
    8   -7   19     -1.32      0.00
    9   -7   19      0.00      0.00
   10   -7   19     -0.49      0.00
   -1   -6   19     -0.73      0.00
    0   -6   19     -1.38      0.00
    1   -6   19     -0.60      0.00
    2   -6   19     -0.07      0.00
    3   -6   19     -0.15      0.00
    4   -6   19      0.75      0.00
    5   -6   19     -0.59      0.00
    6   -6   19      1.21      0.00
    7   -6   19      0.95      0.00
    8   -6   19      0.44      0.00
    9   -6   19      0.29      0.00
   10   -6   19     -0.25      0.00
   -6   -5   19      1.39      0.00
   -5   -5   19      0.04      0.00
   -4   -5   19      1.12      0.00
   -3   -5   19      0.40      0.00
   -2   -5   19     -0.03      0.00
   -1   -5   19     -0.50      0.00
    0   -5   19     -0.53      0.00
    1   -5   19      0.19      0.00
    2   -5   19     -0.94      0.00
    3   -5   19     -0.43      0.00
    4   -5   19     -0.39      0.00
    5   -5   19     -0.97      0.00
    6   -5   19      0.73      0.00
    7   -5   19     -0.37      0.00
    8   -5   19      0.76      0.00
    9   -5   19      0.50      0.00
   10   -5   19      0.07      0.00
   11   -5   19     -0.17      0.00
   -6   -4   19      0.27      0.00
   -5   -4   19     -0.49      0.00
   -4   -4   19      0.52      0.00
   -3   -4   19     -0.43      0.00
   -2   -4   19      0.29      0.00
   -1   -4   19      0.58      0.00
    0   -4   19      0.49      0.00
    1   -4   19     -0.95      0.00
    2   -4   19     -0.97      0.00
    3   -4   19      0.17      0.00
    4   -4   19     -1.08      0.00
    5   -4   19      0.44      0.00
    6   -4   19      0.03      0.00
    7   -4   19     -1.33      0.00
    8   -4   19      0.10      0.00
    9   -4   19     -0.23      0.00
   10   -4   19      0.09      0.00
   11   -4   19      0.05      0.00
   -6   -3   19     -1.75      0.00
   -5   -3   19      0.13      0.00
   -4   -3   19      0.25      0.00
   -3   -3   19      0.49      0.00
   -2   -3   19      0.81      0.00
   -1   -3   19      0.92      0.00
    0   -3   19      1.16      0.00
    1   -3   19      0.71      0.00
    2   -3   19      1.13      0.00
    3   -3   19      0.51      0.00
    4   -3   19     -0.13      0.00
    5   -3   19      0.80      0.00
    6   -3   19     -0.78      0.00
    7   -3   19      0.53      0.00
    8   -3   19      0.78      0.00
    9   -3   19     -0.02      0.00
   10   -3   19      0.40      0.00
   11   -3   19      0.26      0.00
   -6   -2   19     -1.15      0.00
   -5   -2   19      0.40      0.00
   -4   -2   19     -0.91      0.00
   -3   -2   19     -0.34      0.00
   -2   -2   19     -0.37      0.00
   -1   -2   19     -0.22      0.00
    0   -2   19     -0.81      0.00
    1   -2   19      0.26      0.00
    2   -2   19      1.29      0.00
    3   -2   19     -0.06      0.00
    4   -2   19      0.42      0.00
    5   -2   19      0.50      0.00
    6   -2   19      0.18      0.00
    7   -2   19      1.40      0.00
    8   -2   19      0.14      0.00
    9   -2   19      0.09      0.00
   10   -2   19     -0.04      0.00
   11   -2   19      0.08      0.00
   -6   -1   19      1.32      0.00
   -5   -1   19     -0.48      0.00
   -4   -1   19     -1.21      0.00
   -3   -1   19     -0.59      0.00
   -2   -1   19     -0.88      0.00
   -1   -1   19     -0.50      0.00
    0   -1   19     -0.62      0.00
    1   -1   19     -0.45      0.00
    2   -1   19     -1.07      0.00
    3   -1   19     -0.74      0.00
    4   -1   19      0.30      0.00
    5   -1   19     -1.15      0.00
    6   -1   19     -0.93      0.00
    7   -1   19     -1.77      0.00
    8   -1   19     -1.80      0.00
    9   -1   19      0.18      0.00
   10   -1   19      0.63      0.00
   11   -1   19      1.02      0.00
   -6    0   19      1.19      0.00
   -5    0   19      0.21      0.00
   -4    0   19      1.38      0.00
   -3    0   19      0.49      0.00
   -2    0   19      0.42      0.00
   -1    0   19      0.50      0.00
    0    0   19      0.25      0.00
    1    0   19      0.76      0.00
    2    0   19      0.44      0.00
    3    0   19     -0.04      0.00
    4    0   19     -0.04      0.00
    5    0   19      0.06      0.00
    6    0   19      0.54      0.00
    7    0   19      0.99      0.00
    8    0   19      1.40      0.00
    9    0   19     -0.26      0.00
   10    0   19     -1.48      0.00
   11    0   19     -1.53      0.00
   -6    1   19     -1.12      0.00
   -5    1   19     -0.17      0.00
   -4    1   19      0.89      0.00
   -3    1   19      0.18      0.00
   -2    1   19      1.08      0.00
   -1    1   19      0.01      0.00
    0    1   19     -0.15      0.00
    1    1   19     -0.37      0.00
    2    1   19     -0.65      0.00
    3    1   19      0.27      0.00
    4    1   19      0.28      0.00
    5    1   19      0.71      0.00
    6    1   19     -0.33      0.00
    7    1   19     -0.19      0.00
    8    1   19     -0.77      0.00
    9    1   19     -0.49      0.00
   10    1   19      0.72      0.00
   11    1   19      0.27      0.00
   -6    2   19     -0.03      0.00
   -5    2   19      0.25      0.00
   -4    2   19     -1.10      0.00
   -3    2   19     -0.75      0.00
   -2    2   19     -0.07      0.00
   -1    2   19     -1.33      0.00
    0    2   19     -0.11      0.00
    1    2   19     -0.21      0.00
    2    2   19     -1.39      0.00
    3    2   19     -0.56      0.00
    4    2   19     -0.42      0.00
    5    2   19     -1.00      0.00
    6    2   19     -0.63      0.00
    7    2   19     -0.44      0.00
    8    2   19     -1.42      0.00
    9    2   19      0.00      0.00
   10    2   19      0.81      0.00
   11    2   19      1.09      0.00
   -5    3   19      0.42      0.00
   -4    3   19     -0.03      0.00
   -3    3   19      0.98      0.00
   -2    3   19      0.12      0.00
   -1    3   19      1.32      0.00
    0    3   19      2.22      0.00
    1    3   19      1.14      0.00
    2    3   19      2.04      0.00
    3    3   19      1.53      0.00
    4    3   19     -0.04      0.00
    5    3   19     -0.22      0.00
    6    3   19      1.82      0.00
    7    3   19      0.89      0.00
    8    3   19      1.94      0.00
    9    3   19      0.71      0.00
   10    3   19     -1.80      0.00
   -5    4   19     -1.38      0.00
   -4    4   19     -0.92      0.00
   -3    4   19     -0.42      0.00
   -2    4   19     -1.59      0.00
   -1    4   19     -0.75      0.00
    0    4   19     -1.22      0.00
    1    4   19     -1.27      0.00
    2    4   19      0.13      0.00
    3    4   19     -0.22      0.00
    4    4   19      0.47      0.00
    5    4   19      0.84      0.00
    6    4   19      0.43      0.00
    7    4   19     -1.02      0.00
    8    4   19     -0.03      0.00
    9    4   19     -0.64      0.00
   10    4   19      0.52      0.00
   -5    5   19      0.95      0.00
   -4    5   19      1.40      0.00
   -3    5   19     -0.78      0.00
   -2    5   19     -0.58      0.00
   -1    5   19     -0.18      0.00
    0    5   19     -1.47      0.00
    1    5   19     -0.77      0.00
    2    5   19     -0.75      0.00
    3    5   19     -1.27      0.00
    4    5   19     -0.28      0.00
    5    5   19      0.12      0.00
    6    5   19     -1.39      0.00
    7    5   19      0.05      0.00
    8    5   19      0.02      0.00
    9    5   19      0.14      0.00
   10    5   19      1.06      0.00
   -5    6   19     -0.01      0.00
   -4    6   19      0.86      0.00
   -3    6   19      1.37      0.00
   -2    6   19      1.78      0.00
   -1    6   19      0.83      0.00
    0    6   19      1.01      0.00
    1    6   19      1.52      0.00
    2    6   19      0.55      0.00
    3    6   19      1.22      0.00
    4    6   19      0.64      0.00
    5    6   19      0.41      0.00
    6    6   19      0.51      0.00
    7    6   19      1.32      0.00
    8    6   19      0.07      0.00
    9    6   19      0.54      0.00
   10    6   19     -0.76      0.00
   -5    7   19      0.01      0.00
   -4    7   19     -1.18      0.00
   -3    7   19     -0.47      0.00
   -2    7   19     -0.14      0.00
   -1    7   19     -0.61      0.00
    0    7   19     -1.08      0.00
    1    7   19     -1.49      0.00
    2    7   19     -1.63      0.00
    3    7   19     -1.34      0.00
    4    7   19     -1.63      0.00
    5    7   19     -1.34      0.00
    6    7   19     -0.48      0.00
    7    7   19     -0.61      0.00
    8    7   19     -0.54      0.00
    9    7   19      0.27      0.00
   10    7   19      0.67      0.00
   -4    8   19     -0.50      0.00
   -3    8   19     -0.48      0.00
   -2    8   19      0.08      0.00
   -1    8   19      1.56      0.00
    0    8   19      2.12      0.00
    1    8   19      1.82      0.00
    2    8   19      2.04      0.00
    3    8   19      0.79      0.00
    4    8   19      0.53      0.00
    5    8   19      0.28      0.00
    6    8   19     -0.67      0.00
    7    8   19     -1.36      0.00
    8    8   19     -0.67      0.00
    9    8   19     -1.19      0.00
   10    8   19     -0.93      0.00
   -4    9   19      0.63      0.00
   -3    9   19      1.22      0.00
   -2    9   19      0.59      0.00
   -1    9   19     -1.02      0.00
    0    9   19     -0.94      0.00
    1    9   19     -0.51      0.00
    2    9   19     -0.85      0.00
    3    9   19     -0.35      0.00
    4    9   19      1.06      0.00
    5    9   19      0.71      0.00
    6    9   19      0.86      0.00
    7    9   19      1.07      0.00
    8    9   19      0.70      0.00
    9    9   19      0.46      0.00
   -4   10   19     -0.78      0.00
   -3   10   19     -1.29      0.00
   -2   10   19     -1.30      0.00
   -1   10   19     -0.53      0.00
    0   10   19     -0.26      0.00
    1   10   19      0.27      0.00
    2   10   19      0.02      0.00
    3   10   19      0.79      0.00
    4   10   19      0.03      0.00
    5   10   19     -0.37      0.00
    6   10   19      1.09      0.00
    7   10   19      1.26      0.00
    8   10   19      0.97      0.00
    9   10   19      0.83      0.00
   -4   11   19      0.48      0.00
   -3   11   19      0.19      0.00
   -2   11   19     -0.48      0.00
   -1   11   19      0.32      0.00
    0   11   19      0.26      0.00
    1   11   19      0.03      0.00
    2   11   19     -0.37      0.00
    3   11   19      0.29      0.00
    4   11   19     -0.78      0.00
    5   11   19     -0.13      0.00
    6   11   19     -0.70      0.00
    7   11   19     -1.79      0.00
    8   11   19     -0.72      0.00
    9   11   19     -0.45      0.00
   -3   12   19      0.04      0.00
   -2   12   19      0.81      0.00
   -1   12   19     -0.53      0.00
    0   12   19     -1.03      0.00
    1   12   19     -1.21      0.00
    2   12   19     -0.40      0.00
    3   12   19     -0.31      0.00
    4   12   19     -0.56      0.00
    5   12   19      0.58      0.00
    6   12   19     -0.58      0.00
    7   12   19     -0.61      0.00
    8   12   19     -0.67      0.00
    9   12   19     -0.87      0.00
   -3   13   19     -0.43      0.00
   -2   13   19      0.33      0.00
   -1   13   19     -0.06      0.00
    0   13   19      0.90      0.00
    1   13   19      0.00      0.00
    2   13   19      0.58      0.00
    3   13   19     -0.67      0.00
    4   13   19     -0.29      0.00
    5   13   19     -0.15      0.00
    6   13   19     -0.14      0.00
    7   13   19      1.75      0.00
    8   13   19      1.51      0.00
    9   13   19      0.54      0.00
   -3   14   19      0.83      0.00
   -2   14   19      0.10      0.00
   -1   14   19      0.67      0.00
    0   14   19      1.42      0.00
    1   14   19      0.77      0.00
    2   14   19      0.78      0.00
    3   14   19     -0.01      0.00
    4   14   19      1.13      0.00
    5   14   19      0.13      0.00
    6   14   19     -0.26      0.00
    7   14   19     -0.56      0.00
    8   14   19     -1.03      0.00
   -3   15   19      0.17      0.00
   -2   15   19     -0.85      0.00
   -1   15   19     -0.55      0.00
    0   15   19     -1.84      0.00
    1   15   19     -0.86      0.00
    2   15   19     -0.37      0.00
    3   15   19     -0.52      0.00
    4   15   19     -0.27      0.00
    5   15   19     -0.87      0.00
    6   15   19      0.05      0.00
    7   15   19     -0.19      0.00
    8   15   19     -0.90      0.00
   -2   16   19      1.12      0.00
   -1   16   19      1.45      0.00
    0   16   19      0.66      0.00
    1   16   19      0.81      0.00
    2   16   19      0.36      0.00
    3   16   19      0.91      0.00
    4   16   19      0.75      0.00
    5   16   19      0.25      0.00
    6   16   19      0.33      0.00
    7   16   19      0.51      0.00
   -2   17   19     -0.43      0.00
   -1   17   19     -0.90      0.00
    0   17   19     -0.18      0.00
    1   17   19      0.15      0.00
    2   17   19     -0.56      0.00
    3   17   19     -0.11      0.00
    4   17   19     -0.12      0.00
    5   17   19      0.65      0.00
    6   17   19      1.09      0.00
    7   17   19     -0.03      0.00
    0   18   19      0.12      0.00
    1   18   19      0.08      0.00
    2   18   19     -0.15      0.00
    3   18   19     -0.08      0.00
    4   18   19     -0.67      0.00
    5   18   19     -0.76      0.00
    1   19   19     -0.31      0.00
    2   19   19      0.05      0.00
    3   19   19      0.40      0.00
    4   19   19      0.41      0.00
    0  -15   20     -1.42      0.00
    1  -15   20     -0.58      0.00
    2  -15   20     -0.44      0.00
    3  -15   20     -0.12      0.00
    4  -15   20     -0.12      0.00
   -1  -14   20      0.06      0.00
    0  -14   20      0.36      0.00
    1  -14   20      0.47      0.00
    2  -14   20      0.35      0.00
    3  -14   20      0.32      0.00
    4  -14   20      0.09      0.00
    5  -14   20     -1.07      0.00
   -2  -13   20      0.25      0.00
   -1  -13   20     -0.23      0.00
    0  -13   20     -0.78      0.00
    1  -13   20     -1.90      0.00
    2  -13   20     -1.94      0.00
    3  -13   20     -1.66      0.00
    4  -13   20     -0.38      0.00
    5  -13   20      0.28      0.00
    6  -13   20      0.68      0.00
   -3  -12   20     -0.05      0.00
   -2  -12   20     -0.44      0.00
   -1  -12   20      1.10      0.00
    0  -12   20      1.44      0.00
    1  -12   20      1.38      0.00
    2  -12   20      1.32      0.00
    3  -12   20      1.00      0.00
    4  -12   20      0.30      0.00
    5  -12   20      0.24      0.00
    6  -12   20      0.68      0.00
    7  -12   20      0.36      0.00
   -3  -11   20      0.07      0.00
   -2  -11   20      0.05      0.00
   -1  -11   20      0.72      0.00
    0  -11   20      0.29      0.00
    1  -11   20      0.84      0.00
    2  -11   20      0.86      0.00
    3  -11   20      0.59      0.00
    4  -11   20     -0.06      0.00
    5  -11   20     -0.92      0.00
    6  -11   20     -1.30      0.00
    7  -11   20     -0.70      0.00
    8  -11   20      0.47      0.00
   -2  -10   20      0.30      0.00
   -1  -10   20     -0.10      0.00
    1  -10   20     -0.58      0.00
    2  -10   20     -0.27      0.00
    3  -10   20     -0.82      0.00
    4  -10   20     -0.69      0.00
    5  -10   20     -0.51      0.00
    6  -10   20      0.24      0.00
    7  -10   20     -1.06      0.00
    8  -10   20     -1.08      0.00
   -2   -9   20     -0.33      0.00
   -1   -9   20     -0.21      0.00
    0   -9   20      0.28      0.00
    1   -9   20      0.41      0.00
    2   -9   20     -0.15      0.00
    3   -9   20      0.95      0.00
    4   -9   20      1.87      0.00
    5   -9   20      1.30      0.00
    6   -9   20      1.31      0.00
    7   -9   20      0.55      0.00
    8   -9   20      1.19      0.00
    9   -9   20     -0.46      0.00
   -1   -8   20     -0.65      0.00
    0   -8   20     -0.03      0.00
    1   -8   20      0.13      0.00
    2   -8   20     -0.52      0.00
    3   -8   20     -0.58      0.00
    4   -8   20     -1.19      0.00
    5   -8   20      0.03      0.00
    6   -8   20     -0.53      0.00
    7   -8   20     -0.76      0.00
    8   -8   20     -0.21      0.00
    9   -8   20     -0.60      0.00
    0   -7   20     -0.57      0.00
    1   -7   20     -0.94      0.00
    2   -7   20      0.39      0.00
    3   -7   20      1.16      0.00
    4   -7   20      0.16      0.00
    5   -7   20      0.91      0.00
    6   -7   20      0.21      0.00
    7   -7   20      1.63      0.00
    8   -7   20      0.58      0.00
    9   -7   20      0.15      0.00
    0   -6   20      0.46      0.00
    1   -6   20      0.06      0.00
    2   -6   20     -0.36      0.00
    3   -6   20     -1.64      0.00
    4   -6   20     -0.72      0.00
    5   -6   20     -0.71      0.00
    6   -6   20     -1.23      0.00
    7   -6   20      0.65      0.00
    8   -6   20      0.21      0.00
    9   -6   20      1.14      0.00
   10   -6   20      0.48      0.00
   -4   -5   20     -0.92      0.00
   -3   -5   20      0.00      0.00
   -2   -5   20      0.12      0.00
   -1   -5   20      0.37      0.00
    0   -5   20     -0.26      0.00
    1   -5   20     -0.10      0.00
    2   -5   20     -0.35      0.00
    3   -5   20     -0.56      0.00
    4   -5   20      0.45      0.00
    5   -5   20     -0.43      0.00
    6   -5   20      0.21      0.00
    7   -5   20     -0.49      0.00
    8   -5   20     -1.33      0.00
    9   -5   20     -0.21      0.00
   10   -5   20      0.03      0.00
   -5   -4   20     -1.59      0.00
   -4   -4   20      0.34      0.00
   -3   -4   20      0.56      0.00
   -2   -4   20      0.27      0.00
   -1   -4   20      0.09      0.00
    0   -4   20      1.12      0.00
    1   -4   20      1.25      0.00
    2   -4   20      0.49      0.00
    3   -4   20      1.54      0.00
    4   -4   20      1.20      0.00
    5   -4   20     -0.38      0.00
    6   -4   20      0.94      0.00
    7   -4   20      0.07      0.00
    8   -4   20      0.59      0.00
    9   -4   20      0.65      0.00
   10   -4   20      0.08      0.00
   -5   -3   20     -0.23      0.00
   -4   -3   20      0.64      0.00
   -3   -3   20     -0.62      0.00
   -2   -3   20     -0.71      0.00
   -1   -3   20     -0.63      0.00
    0   -3   20     -0.21      0.00
    1   -3   20     -0.44      0.00
    2   -3   20      0.32      0.00
    3   -3   20      0.05      0.00
    4   -3   20     -1.34      0.00
    5   -3   20     -0.11      0.00
    6   -3   20      0.27      0.00
    7   -3   20     -0.76      0.00
    8   -3   20      0.11      0.00
    9   -3   20     -0.68      0.00
   10   -3   20     -0.38      0.00
   -5   -2   20      0.61      0.00
   -4   -2   20     -0.84      0.00
   -3   -2   20     -0.94      0.00
   -2   -2   20     -0.38      0.00
   -1   -2   20      0.08      0.00
    0   -2   20     -0.29      0.00
    1   -2   20     -1.32      0.00
    2   -2   20     -0.71      0.00
    3   -2   20     -0.07      0.00
    4   -2   20     -0.21      0.00
    5   -2   20      0.19      0.00
    6   -2   20     -1.31      0.00
    7   -2   20     -1.34      0.00
    8   -2   20     -0.60      0.00
    9   -2   20     -0.32      0.00
   10   -2   20      0.57      0.00
   11   -2   20      0.04      0.00
   -5   -1   20      1.61      0.00
   -4   -1   20      0.47      0.00
   -3   -1   20      1.24      0.00
   -2   -1   20      0.59      0.00
   -1   -1   20      0.61      0.00
    0   -1   20      0.18      0.00
    1   -1   20      0.71      0.00
    2   -1   20      0.55      0.00
    3   -1   20     -0.46      0.00
    4   -1   20     -0.03      0.00
    5   -1   20      0.21      0.00
    6   -1   20      0.38      0.00
    7   -1   20      1.39      0.00
    8   -1   20      0.66      0.00
    9   -1   20     -0.47      0.00
   10   -1   20     -1.63      0.00
   11   -1   20     -1.47      0.00
   -5    0   20     -1.09      0.00
   -4    0   20      0.00      0.00
   -3    0   20      0.83      0.00
   -2    0   20     -0.28      0.00
   -1    0   20      0.26      0.00
    0    0   20     -0.54      0.00
    1    0   20     -0.39      0.00
    2    0   20      0.24      0.00
    3    0   20      0.06      0.00
    4    0   20      0.53      0.00
    5    0   20      0.74      0.00
    6    0   20      0.87      0.00
    7    0   20     -0.31      0.00
    8    0   20     -0.40      0.00
    9    0   20      0.41      0.00
   10    0   20      0.93      0.00
   11    0   20      1.49      0.00
   -5    1   20     -0.66      0.00
   -4    1   20     -0.11      0.00
   -3    1   20     -1.17      0.00
   -2    1   20     -0.56      0.00
   -1    1   20      0.04      0.00
    0    1   20     -0.25      0.00
    1    1   20      0.61      0.00
    2    1   20     -0.06      0.00
    3    1   20     -0.63      0.00
    4    1   20     -0.05      0.00
    5    1   20     -0.39      0.00
    6    1   20     -1.16      0.00
    7    1   20     -0.26      0.00
    8    1   20     -0.20      0.00
    9    1   20     -0.18      0.00
   10    1   20      0.40      0.00
   11    1   20      0.39      0.00
   -5    2   20      0.84      0.00
   -4    2   20      0.66      0.00
   -3    2   20     -0.71      0.00
   -2    2   20      1.05      0.00
   -1    2   20      0.47      0.00
    0    2   20      0.51      0.00
    1    2   20      1.17      0.00
    2    2   20      0.48      0.00
    3    2   20      0.68      0.00
    4    2   20      0.08      0.00
    5    2   20      0.10      0.00
    6    2   20     -0.06      0.00
    7    2   20      2.04      0.00
    8    2   20      1.34      0.00
    9    2   20      0.64      0.00
   10    2   20     -0.85      0.00
   11    2   20     -1.75      0.00
   -5    3   20     -0.49      0.00
   -4    3   20     -1.16      0.00
   -3    3   20     -0.20      0.00
   -2    3   20     -0.23      0.00
   -1    3   20     -2.16      0.00
    0    3   20     -0.60      0.00
    1    3   20     -0.75      0.00
    2    3   20     -1.34      0.00
    3    3   20      0.56      0.00
    4    3   20      0.69      0.00
    5    3   20      0.30      0.00
    6    3   20      0.88      0.00
    7    3   20     -0.38      0.00
    8    3   20     -1.62      0.00
    9    3   20     -0.25      0.00
   10    3   20      0.55      0.00
   -5    4   20      0.63      0.00
   -4    4   20      0.36      0.00
   -3    4   20      0.93      0.00
   -2    4   20     -0.06      0.00
   -1    4   20      0.18      0.00
    0    4   20      0.08      0.00
    1    4   20     -1.48      0.00
    2    4   20     -0.41      0.00
    3    4   20     -0.76      0.00
    4    4   20     -0.81      0.00
    5    4   20     -0.97      0.00
    6    4   20     -0.14      0.00
    7    4   20     -1.33      0.00
    8    4   20      0.60      0.00
    9    4   20      0.56      0.00
   10    4   20      0.59      0.00
   -4    5   20      0.80      0.00
   -3    5   20      1.23      0.00
   -2    5   20      0.27      0.00
   -1    5   20      1.20      0.00
    0    5   20      1.38      0.00
    1    5   20      1.05      0.00
    2    5   20      1.61      0.00
    3    5   20      0.04      0.00
    4    5   20     -0.13      0.00
    5    5   20     -0.12      0.00
    6    5   20      0.06      0.00
    7    5   20     -0.36      0.00
    8    5   20      0.56      0.00
    9    5   20     -0.60      0.00
   10    5   20     -0.75      0.00
   -4    6   20     -0.71      0.00
   -3    6   20     -1.28      0.00
   -2    6   20     -0.23      0.00
   -1    6   20     -0.21      0.00
    0    6   20     -1.04      0.00
    1    6   20     -0.36      0.00
    2    6   20     -0.89      0.00
    3    6   20     -0.62      0.00
    4    6   20     -0.05      0.00
    5    6   20      0.11      0.00
    6    6   20     -0.06      0.00
    7    6   20      0.96      0.00
    8    6   20     -0.18      0.00
    9    6   20     -0.08      0.00
   -4    7   20      0.10      0.00
   -3    7   20     -0.38      0.00
   -2    7   20      0.17      0.00
   -1    7   20      1.30      0.00
    0    7   20      1.13      0.00
    1    7   20      0.93      0.00
    2    7   20      0.59      0.00
    3    7   20      1.34      0.00
    4    7   20      0.10      0.00
    5    7   20     -0.15      0.00
    6    7   20     -1.17      0.00
    7    7   20     -1.36      0.00
    8    7   20     -1.26      0.00
    9    7   20     -0.54      0.00
   -4    8   20      0.39      0.00
   -3    8   20      0.73      0.00
   -2    8   20     -0.51      0.00
   -1    8   20     -1.45      0.00
    0    8   20     -1.19      0.00
    1    8   20     -0.56      0.00
    2    8   20     -0.08      0.00
    3    8   20      0.02      0.00
    4    8   20      0.58      0.00
    5    8   20      1.67      0.00
    6    8   20      1.71      0.00
    7    8   20      1.45      0.00
    8    8   20      1.32      0.00
    9    8   20      0.99      0.00
   -3    9   20     -1.18      0.00
   -2    9   20     -0.27      0.00
   -1    9   20     -0.41      0.00
    0    9   20     -0.51      0.00
    1    9   20     -0.28      0.00
    2    9   20      0.47      0.00
    3    9   20     -0.90      0.00
    4    9   20     -0.45      0.00
    5    9   20     -0.49      0.00
    6    9   20     -0.21      0.00
    7    9   20      0.93      0.00
    8    9   20      0.43      0.00
    9    9   20     -0.05      0.00
   -3   10   20      0.51      0.00
   -2   10   20      0.35      0.00
   -1   10   20      0.12      0.00
    0   10   20      0.61      0.00
    1   10   20     -0.18      0.00
    2   10   20     -1.03      0.00
    3   10   20     -0.65      0.00
    4   10   20      0.26      0.00
    5   10   20     -1.19      0.00
    6   10   20     -1.40      0.00
    7   10   20     -1.54      0.00
    8   10   20     -1.35      0.00
    9   10   20     -0.27      0.00
   -3   11   20      0.93      0.00
   -2   11   20      0.44      0.00
   -1   11   20      0.47      0.00
    0   11   20     -0.29      0.00
    1   11   20      0.27      0.00
    2   11   20     -0.20      0.00
    3   11   20      0.68      0.00
    4   11   20      0.20      0.00
    5   11   20     -0.31      0.00
    6   11   20      0.78      0.00
    7   11   20     -0.51      0.00
    8   11   20     -0.75      0.00
   -2   12   20     -0.64      0.00
   -1   12   20      0.51      0.00
    0   12   20     -0.07      0.00
    1   12   20      0.53      0.00
    2   12   20      0.10      0.00
    3   12   20      0.34      0.00
    4   12   20     -0.99      0.00
    5   12   20      0.16      0.00
    6   12   20      1.04      0.00
    7   12   20      1.21      0.00
    8   12   20      2.18      0.00
   -2   13   20      0.93      0.00
   -1   13   20      0.19      0.00
    0   13   20      1.13      0.00
    1   13   20      0.72      0.00
    2   13   20      0.19      0.00
    3   13   20      0.50      0.00
    4   13   20      0.16      0.00
    5   13   20      0.88      0.00
    6   13   20     -1.08      0.00
    7   13   20     -1.51      0.00
    8   13   20     -0.91      0.00
   -2   14   20     -0.27      0.00
   -1   14   20     -1.72      0.00
    0   14   20     -0.95      0.00
    1   14   20     -1.19      0.00
    2   14   20      0.25      0.00
    3   14   20      0.14      0.00
    4   14   20      0.16      0.00
    5   14   20      0.44      0.00
    6   14   20      0.08      0.00
    7   14   20      0.70      0.00
   -2   15   20      0.35      0.00
   -1   15   20      1.34      0.00
    0   15   20      0.99      0.00
    1   15   20     -0.31      0.00
    2   15   20      0.16      0.00
    3   15   20     -0.49      0.00
    4   15   20      0.13      0.00
    5   15   20     -0.34      0.00
    6   15   20     -0.16      0.00
    7   15   20      0.99      0.00
   -1   16   20     -0.42      0.00
    0   16   20     -0.49      0.00
    1   16   20      0.24      0.00
    2   16   20      0.16      0.00
    3   16   20     -0.41      0.00
    4   16   20      0.46      0.00
    5   16   20      0.42      0.00
    6   16   20      0.52      0.00
    0   17   20     -0.29      0.00
    1   17   20      0.11      0.00
    2   17   20      0.05      0.00
    3   17   20     -0.18      0.00
    4   17   20     -0.37      0.00
    5   17   20     -1.01      0.00
    6   17   20     -0.57      0.00
    1   18   20     -0.45      0.00
    2   18   20     -0.47      0.00
    3   18   20      0.18      0.00
    4   18   20      0.19      0.00
    5   18   20      0.15      0.00
    2  -14   21     -0.88      0.00
    3  -14   21     -0.91      0.00
    0  -13   21      1.31      0.00
    1  -13   21      1.73      0.00
    2  -13   21      1.55      0.00
    3  -13   21      0.96      0.00
    4  -13   21      0.48      0.00
    5  -13   21     -0.06      0.00
   -1  -12   21     -0.27      0.00
    0  -12   21     -0.07      0.00
    1  -12   21     -0.36      0.00
    2  -12   21     -0.08      0.00
    3  -12   21      0.37      0.00
    4  -12   21      0.28      0.00
    5  -12   21     -0.65      0.00
    6  -12   21     -1.43      0.00
   -2  -11   21     -1.09      0.00
   -1  -11   21     -0.47      0.00
    0  -11   21     -0.58      0.00
    1  -11   21     -0.83      0.00
    2  -11   21     -0.39      0.00
    3  -11   21     -0.27      0.00
    4  -11   21     -0.43      0.00
    5  -11   21      0.66      0.00
    6  -11   21      0.61      0.00
    7  -11   21      0.01      0.00
   -1  -10   21      0.67      0.00
    0  -10   21      0.27      0.00
    1  -10   21     -0.11      0.00
    2  -10   21      0.07      0.00
    3  -10   21      0.44      0.00
    4  -10   21      0.96      0.00
    5  -10   21      0.63      0.00
    6  -10   21      0.89      0.00
    7  -10   21      1.36      0.00
    0   -9   21     -1.12      0.00
    1   -9   21     -0.18      0.00
    2   -9   21     -0.29      0.00
    3   -9   21     -1.39      0.00
    4   -9   21     -0.50      0.00
    5   -9   21     -0.57      0.00
    6   -9   21      0.02      0.00
    7   -9   21     -0.94      0.00
    8   -9   21     -0.10      0.00
    1   -8   21      0.35      0.00
    2   -8   21      0.49      0.00
    3   -8   21      0.99      0.00
    4   -8   21      0.35      0.00
    5   -8   21     -0.65      0.00
    6   -8   21      0.70      0.00
    7   -8   21      0.14      0.00
    8   -8   21      0.90      0.00
    0   -7   21      0.98      0.00
    1   -7   21      0.18      0.00
    2   -7   21     -1.03      0.00
    3   -7   21     -0.71      0.00
    4   -7   21     -0.87      0.00
    5   -7   21     -0.32      0.00
    6   -7   21     -0.53      0.00
    7   -7   21     -0.45      0.00
    8   -7   21      0.98      0.00
    9   -7   21      0.48      0.00
    0   -6   21     -0.23      0.00
    1   -6   21     -0.44      0.00
    2   -6   21      0.38      0.00
    3   -6   21     -0.01      0.00
    4   -6   21     -0.65      0.00
    5   -6   21      0.86      0.00
    6   -6   21     -0.48      0.00
    7   -6   21     -0.73      0.00
    8   -6   21     -1.04      0.00
    9   -6   21     -0.95      0.00
    0   -5   21      0.07      0.00
    1   -5   21      0.85      0.00
    2   -5   21      1.09      0.00
    3   -5   21      1.19      0.00
    4   -5   21      1.45      0.00
    5   -5   21      0.51      0.00
    6   -5   21     -0.64      0.00
    7   -5   21      1.07      0.00
    8   -5   21      0.17      0.00
    9   -5   21      0.03      0.00
   -5   -4   21      0.51      0.00
   -4   -4   21      0.13      0.00
   -3   -4   21      0.31      0.00
   -2   -4   21     -0.27      0.00
   -1   -4   21     -0.90      0.00
    0   -4   21     -0.64      0.00
    1   -4   21      0.39      0.00
    2   -4   21     -0.44      0.00
    3   -4   21     -1.27      0.00
    4   -4   21     -0.67      0.00
    5   -4   21     -0.81      0.00
    6   -4   21     -0.14      0.00
    7   -4   21      0.19      0.00
    8   -4   21     -1.11      0.00
    9   -4   21     -0.44      0.00
   10   -4   21     -0.35      0.00
   -5   -3   21     -1.14      0.00
   -4   -3   21     -0.19      0.00
   -3   -3   21     -0.56      0.00
   -2   -3   21     -0.19      0.00
   -1   -3   21      0.14      0.00
    0   -3   21      0.52      0.00
    1   -3   21     -0.93      0.00
    2   -3   21     -1.24      0.00
    3   -3   21      0.38      0.00
    4   -3   21      0.55      0.00
    5   -3   21     -0.58      0.00
    6   -3   21      0.02      0.00
    7   -3   21     -1.00      0.00
    8   -3   21     -0.56      0.00
    9   -3   21      0.54      0.00
   10   -3   21      0.05      0.00
   -5   -2   21      0.90      0.00
   -4   -2   21      1.63      0.00
   -3   -2   21      0.50      0.00
   -2   -2   21      0.42      0.00
   -1   -2   21     -0.13      0.00
    0   -2   21      0.34      0.00
    1   -2   21      0.09      0.00
    2   -2   21      0.23      0.00
    3   -2   21      0.12      0.00
    4   -2   21     -0.12      0.00
    5   -2   21      0.52      0.00
    6   -2   21      1.17      0.00
    7   -2   21      0.92      0.00
    8   -2   21      1.14      0.00
    9   -2   21     -0.24      0.00
   10   -2   21     -0.99      0.00
   -4   -1   21     -0.88      0.00
   -3   -1   21     -0.12      0.00
   -2   -1   21      0.34      0.00
   -1   -1   21     -0.05      0.00
    0   -1   21      0.11      0.00
    1   -1   21      0.00      0.00
    2   -1   21      0.86      0.00
    3   -1   21      0.88      0.00
    4   -1   21      0.05      0.00
    5   -1   21      0.92      0.00
    6   -1   21      0.74      0.00
    7   -1   21      0.04      0.00
    8   -1   21      0.22      0.00
    9   -1   21      0.38      0.00
   10   -1   21      1.53      0.00
   -4    0   21     -1.14      0.00
   -3    0   21      0.15      0.00
   -2    0   21     -0.58      0.00
   -1    0   21      0.02      0.00
    0    0   21      0.40      0.00
    1    0   21     -0.06      0.00
    2    0   21     -0.22      0.00
    3    0   21     -0.45      0.00
    4    0   21     -0.55      0.00
    5    0   21     -1.16      0.00
    6    0   21     -1.09      0.00
    7    0   21     -0.86      0.00
    8    0   21     -0.17      0.00
    9    0   21     -0.12      0.00
   10    0   21     -0.21      0.00
   -4    1   21      0.53      0.00
   -3    1   21      0.34      0.00
   -2    1   21     -0.98      0.00
   -1    1   21      0.63      0.00
    0    1   21     -0.40      0.00
    1    1   21     -0.40      0.00
    2    1   21      0.78      0.00
    3    1   21     -0.30      0.00
    4    1   21     -0.01      0.00
    5    1   21      0.44      0.00
    6    1   21      0.57      0.00
    7    1   21      0.75      0.00
    8    1   21      1.61      0.00
    9    1   21      0.60      0.00
   -4    2   21      0.39      0.00
   -3    2   21     -0.39      0.00
   -2    2   21     -0.27      0.00
   -1    2   21     -0.06      0.00
    0    2   21     -1.03      0.00
    1    2   21     -0.14      0.00
    2    2   21     -0.69      0.00
    3    2   21     -0.53      0.00
    4    2   21      0.66      0.00
    5    2   21      0.95      0.00
    6    2   21     -0.31      0.00
    7    2   21     -0.47      0.00
    8    2   21     -1.84      0.00
    9    2   21     -1.14      0.00
   -4    3   21      0.33      0.00
   -3    3   21     -0.32      0.00
   -2    3   21      1.50      0.00
   -1    3   21      0.30      0.00
    0    3   21     -0.61      0.00
    1    3   21      0.38      0.00
    2    3   21     -0.72      0.00
    3    3   21     -0.19      0.00
    4    3   21     -0.73      0.00
    5    3   21     -0.99      0.00
    6    3   21     -1.59      0.00
    7    3   21      0.50      0.00
    8    3   21      0.04      0.00
    9    3   21      0.90      0.00
   -4    4   21     -0.10      0.00
   -3    4   21      0.56      0.00
   -2    4   21      0.34      0.00
   -1    4   21     -0.26      0.00
    0    4   21      1.66      0.00
    1    4   21      1.39      0.00
    2    4   21      0.63      0.00
    3    4   21      0.96      0.00
    4    4   21     -0.23      0.00
    5    4   21     -0.40      0.00
    6    4   21      0.49      0.00
    7    4   21     -0.05      0.00
    8    4   21     -0.24      0.00
    9    4   21     -0.13      0.00
   -4    5   21     -0.99      0.00
   -3    5   21     -0.33      0.00
   -2    5   21     -0.38      0.00
   -1    5   21     -0.42      0.00
    0    5   21     -0.01      0.00
    1    5   21     -0.89      0.00
    2    5   21      0.01      0.00
    3    5   21     -0.29      0.00
    4    5   21      0.81      0.00
    5    5   21      0.63      0.00
    6    5   21      1.42      0.00
    7    5   21      0.18      0.00
    8    5   21      0.35      0.00
    9    5   21     -0.45      0.00
   -3    6   21     -0.10      0.00
   -2    6   21     -0.22      0.00
   -1    6   21      0.40      0.00
    0    6   21      0.10      0.00
    1    6   21     -0.63      0.00
    2    6   21      0.33      0.00
    3    6   21     -0.01      0.00
    4    6   21      0.27      0.00
    5    6   21     -0.60      0.00
    6    6   21     -1.17      0.00
    7    6   21     -1.44      0.00
    8    6   21     -0.20      0.00
    9    6   21     -0.09      0.00
   -3    7   21      0.20      0.00
   -2    7   21     -0.62      0.00
   -1    7   21     -1.13      0.00
    0    7   21     -0.46      0.00
    1    7   21      0.50      0.00
    2    7   21     -0.35      0.00
    3    7   21      0.45      0.00
    4    7   21      0.60      0.00
    5    7   21      1.20      0.00
    6    7   21      1.74      0.00
    7    7   21      1.62      0.00
    8    7   21      0.78      0.00
    9    7   21      0.78      0.00
   -3    8   21     -0.31      0.00
   -2    8   21      0.06      0.00
   -1    8   21      0.55      0.00
    0    8   21     -0.83      0.00
    1    8   21     -0.56      0.00
    2    8   21     -0.41      0.00
    3    8   21     -0.56      0.00
    4    8   21     -2.10      0.00
    5    8   21     -1.06      0.00
    6    8   21     -0.51      0.00
    7    8   21      0.00      0.00
    8    8   21      0.08      0.00
   -2    9   21      0.27      0.00
   -1    9   21      0.78      0.00
    0    9   21      0.69      0.00
    1    9   21     -0.27      0.00
    2    9   21     -0.23      0.00
    3    9   21     -0.22      0.00
    4    9   21      0.11      0.00
    5    9   21     -0.06      0.00
    6    9   21     -1.93      0.00
    7    9   21     -1.80      0.00
    8    9   21     -0.75      0.00
   -2   10   21      1.06      0.00
   -1   10   21     -0.04      0.00
    0   10   21      0.68      0.00
    1   10   21      0.90      0.00
    2   10   21      1.23      0.00
    3   10   21      0.14      0.00
    4   10   21      1.11      0.00
    5   10   21      0.83      0.00
    6   10   21      0.47      0.00
    7   10   21      1.00      0.00
    8   10   21     -0.50      0.00
   -2   11   21     -0.87      0.00
   -1   11   21     -0.62      0.00
    0   11   21     -0.20      0.00
    1   11   21     -0.19      0.00
    2   11   21      0.15      0.00
    3   11   21     -0.29      0.00
    4   11   21     -0.10      0.00
    5   11   21     -0.62      0.00
    6   11   21      1.02      0.00
    7   11   21      1.69      0.00
    8   11   21      1.08      0.00
   -1   12   21      0.85      0.00
    0   12   21      0.06      0.00
    1   12   21      0.23      0.00
    2   12   21     -0.54      0.00
    3   12   21      0.43      0.00
    4   12   21      0.76      0.00
    5   12   21     -0.26      0.00
    6   12   21     -0.30      0.00
    7   12   21     -1.85      0.00
   -1   13   21     -0.58      0.00
    0   13   21     -1.49      0.00
    1   13   21      0.10      0.00
    2   13   21      0.04      0.00
    3   13   21      0.64      0.00
    4   13   21     -0.05      0.00
    5   13   21      0.53      0.00
    6   13   21      0.96      0.00
    7   13   21      0.29      0.00
    0   14   21      0.75      0.00
    1   14   21     -0.29      0.00
    2   14   21     -1.07      0.00
    3   14   21     -0.62      0.00
    4   14   21     -1.29      0.00
    5   14   21     -0.39      0.00
    6   14   21     -0.55      0.00
    1   15   21      0.15      0.00
    2   15   21      0.37      0.00
    3   15   21      0.39      0.00
    4   15   21      0.33      0.00
    5   15   21      0.80      0.00
    2   16   21      0.49      0.00
    3   16   21     -0.21      0.00
    4   16   21     -0.34      0.00
    0  -12   22      0.08      0.00
    2  -12   22     -0.42      0.00
    3  -12   22     -0.62      0.00
    4  -12   22     -0.01      0.00
    0  -11   22      0.45      0.00
    1  -11   22     -0.29      0.00
    2  -11   22     -0.54      0.00
    3  -11   22      0.29      0.00
    4  -11   22     -0.06      0.00
    5  -11   22     -0.19      0.00
    6  -11   22     -0.02      0.00
    0  -10   22     -0.32      0.00
    1  -10   22     -0.32      0.00
    2  -10   22      0.01      0.00
    3  -10   22     -0.26      0.00
    4  -10   22     -0.63      0.00
    5  -10   22      0.29      0.00
    6  -10   22     -0.71      0.00
    1   -9   22      0.35      0.00
    2   -9   22      0.90      0.00
    3   -9   22      0.40      0.00
    4   -9   22     -0.34      0.00
    5   -9   22     -0.69      0.00
    6   -9   22     -0.40      0.00
    7   -9   22      0.44      0.00
    1   -8   22      0.30      0.00
    2   -8   22     -0.48      0.00
    3   -8   22     -0.67      0.00
    4   -8   22      0.64      0.00
    5   -8   22     -0.21      0.00
    6   -8   22     -0.11      0.00
    7   -8   22     -0.11      0.00
    8   -8   22      0.10      0.00
    1   -7   22     -0.14      0.00
    2   -7   22     -0.07      0.00
    3   -7   22     -0.21      0.00
    4   -7   22     -0.11      0.00
    5   -7   22     -0.11      0.00
    6   -7   22      0.76      0.00
    7   -7   22     -1.09      0.00
    8   -7   22     -0.95      0.00
    1   -6   22     -0.23      0.00
    2   -6   22      0.74      0.00
    3   -6   22      1.75      0.00
    4   -6   22      0.92      0.00
    5   -6   22     -0.05      0.00
    6   -6   22      0.20      0.00
    7   -6   22     -0.21      0.00
    8   -6   22      0.76      0.00
    0   -5   22     -0.35      0.00
    1   -5   22      0.25      0.00
    2   -5   22      0.16      0.00
    3   -5   22     -1.31      0.00
    4   -5   22     -1.30      0.00
    5   -5   22      0.45      0.00
    6   -5   22     -0.13      0.00
    7   -5   22     -0.18      0.00
    8   -5   22      0.19      0.00
    9   -5   22     -0.59      0.00
   -4   -4   22     -1.25      0.00
   -3   -4   22     -0.39      0.00
   -2   -4   22      0.20      0.00
   -1   -4   22      0.41      0.00
    0   -4   22     -0.43      0.00
    1   -4   22     -0.61      0.00
    2   -4   22     -1.03      0.00
    3   -4   22     -0.38      0.00
    4   -4   22      0.20      0.00
    5   -4   22      0.28      0.00
    6   -4   22     -0.70      0.00
    7   -4   22      0.34      0.00
    8   -4   22      0.11      0.00
    9   -4   22      0.23      0.00
   -4   -3   22      0.97      0.00
   -3   -3   22      1.02      0.00
   -2   -3   22     -0.14      0.00
   -1   -3   22     -0.75      0.00
    0   -3   22     -0.11      0.00
    1   -3   22      1.02      0.00
    2   -3   22      0.28      0.00
    3   -3   22      0.29      0.00
    4   -3   22      0.97      0.00
    5   -3   22      0.48      0.00
    6   -3   22      0.70      0.00
    7   -3   22      1.56      0.00
    8   -3   22      0.22      0.00
    9   -3   22      0.35      0.00
   -4   -2   22     -0.16      0.00
   -3   -2   22     -0.46      0.00
   -2   -2   22      0.27      0.00
   -1   -2   22      0.50      0.00
    0   -2   22      0.53      0.00
    1   -2   22      0.45      0.00
    2   -2   22      0.73      0.00
    3   -2   22      0.71      0.00
    4   -2   22      0.12      0.00
    5   -2   22     -0.18      0.00
    6   -2   22      0.54      0.00
    7   -2   22     -0.05      0.00
    8   -2   22     -0.25      0.00
    9   -2   22      0.72      0.00
   -4   -1   22     -0.07      0.00
   -3   -1   22     -0.96      0.00
   -2   -1   22      0.30      0.00
   -1   -1   22     -0.18      0.00
    0   -1   22      0.10      0.00
    1   -1   22     -0.57      0.00
    2   -1   22     -1.28      0.00
    3   -1   22     -0.57      0.00
    4   -1   22     -0.90      0.00
    5   -1   22     -1.63      0.00
    6   -1   22     -1.56      0.00
    7   -1   22     -1.18      0.00
    8   -1   22     -0.42      0.00
    9   -1   22     -0.18      0.00
   10   -1   22     -0.49      0.00
   -3    0   22      0.07      0.00
   -2    0   22      0.04      0.00
   -1    0   22     -1.14      0.00
    0    0   22     -0.26      0.00
    1    0   22     -0.27      0.00
    2    0   22      0.08      0.00
    3    0   22      0.39      0.00
    4    0   22      0.03      0.00
    5    0   22      1.03      0.00
    6    0   22      1.23      0.00
    7    0   22      0.80      0.00
    8    0   22      0.93      0.00
    9    0   22      0.12      0.00
   10    0   22     -0.15      0.00
   -3    1   22      1.11      0.00
   -2    1   22     -0.26      0.00
   -1    1   22     -0.05      0.00
    0    1   22      0.71      0.00
    1    1   22     -0.69      0.00
    2    1   22     -0.27      0.00
    3    1   22     -0.18      0.00
    4    1   22     -0.03      0.00
    5    1   22      0.02      0.00
    6    1   22      0.20      0.00
    7    1   22     -1.56      0.00
    8    1   22     -1.45      0.00
    9    1   22     -1.21      0.00
   -3    2   22      0.35      0.00
   -2    2   22     -0.27      0.00
   -1    2   22      1.17      0.00
    0    2   22     -0.02      0.00
    1    2   22     -0.05      0.00
    2    2   22      1.32      0.00
    3    2   22     -0.33      0.00
    4    2   22     -0.35      0.00
    5    2   22     -0.79      0.00
    6    2   22     -0.76      0.00
    7    2   22      0.07      0.00
    8    2   22      1.37      0.00
    9    2   22      0.72      0.00
   -3    3   22     -0.33      0.00
   -2    3   22     -0.28      0.00
   -1    3   22      0.70      0.00
    0    3   22      0.05      0.00
    1    3   22      0.95      0.00
    2    3   22      0.48      0.00
    3    3   22      0.34      0.00
    4    3   22      0.43      0.00
    5    3   22      0.81      0.00
    6    3   22      0.03      0.00
    7    3   22      0.68      0.00
    8    3   22     -0.13      0.00
    9    3   22     -0.06      0.00
   -3    4   22     -0.79      0.00
   -2    4   22      0.39      0.00
   -1    4   22     -0.40      0.00
    0    4   22     -0.99      0.00
    1    4   22      0.20      0.00
    2    4   22     -1.08      0.00
    3    4   22      0.17      0.00
    4    4   22      0.40      0.00
    5    4   22      0.91      0.00
    6    4   22      0.20      0.00
    7    4   22      0.80      0.00
    8    4   22     -0.92      0.00
   -3    5   22      0.33      0.00
   -2    5   22     -0.05      0.00
   -1    5   22     -0.40      0.00
    0    5   22     -0.25      0.00
    1    5   22     -0.65      0.00
    2    5   22     -0.31      0.00
    3    5   22     -0.05      0.00
    4    5   22     -0.54      0.00
    5    5   22     -0.63      0.00
    6    5   22     -0.65      0.00
    7    5   22     -0.58      0.00
    8    5   22      0.41      0.00
   -2    6   22     -0.41      0.00
   -1    6   22     -0.74      0.00
    0    6   22      0.76      0.00
    1    6   22      0.40      0.00
    2    6   22      0.53      0.00
    3    6   22     -0.21      0.00
    4    6   22      0.87      0.00
    5    6   22      0.36      0.00
    6    6   22      1.21      0.00
    7    6   22      0.53      0.00
    8    6   22      0.23      0.00
   -2    7   22      0.79      0.00
   -1    7   22      0.32      0.00
    0    7   22     -0.43      0.00
    1    7   22     -0.73      0.00
    2    7   22     -0.34      0.00
    3    7   22     -1.23      0.00
    4    7   22     -1.54      0.00
    5    7   22     -1.85      0.00
    6    7   22     -0.70      0.00
    7    7   22     -0.19      0.00
    8    7   22     -0.13      0.00
   -2    8   22     -0.05      0.00
   -1    8   22      0.78      0.00
    0    8   22      0.88      0.00
    1    8   22      0.31      0.00
    2    8   22     -0.38      0.00
    3    8   22      1.39      0.00
    4    8   22      0.96      0.00
    5    8   22      0.30      0.00
    6    8   22     -0.67      0.00
    7    8   22     -1.59      0.00
    8    8   22     -0.45      0.00
   -1    9   22      0.23      0.00
    0    9   22      0.03      0.00
    1    9   22      1.30      0.00
    2    9   22      1.02      0.00
    3    9   22      0.82      0.00
    4    9   22      0.30      0.00
    5    9   22      1.43      0.00
    6    9   22      1.34      0.00
    7    9   22      0.74      0.00
   -1   10   22     -0.93      0.00
    0   10   22     -0.84      0.00
    1   10   22     -0.80      0.00
    2   10   22      0.00      0.00
    3   10   22     -0.75      0.00
    4   10   22     -1.07      0.00
    5   10   22     -0.09      0.00
    6   10   22     -0.04      0.00
    7   10   22      1.13      0.00
    0   11   22      0.61      0.00
    1   11   22     -0.86      0.00
    2   11   22     -0.54      0.00
    3   11   22     -0.01      0.00
    4   11   22      1.14      0.00
    5   11   22      0.18      0.00
    6   11   22     -1.20      0.00
    0   12   22     -0.31      0.00
    1   12   22      0.11      0.00
    2   12   22      0.66      0.00
    3   12   22     -0.24      0.00
    4   12   22      0.06      0.00
    5   12   22     -0.16      0.00
    6   12   22      0.71      0.00
    1   13   22     -0.08      0.00
    2   13   22     -0.80      0.00
    3   13   22     -0.99      0.00
    4   13   22     -0.87      0.00
    5   13   22     -1.27      0.00
    3   14   22      0.76      0.00
    4   14   22      0.74      0.00
    2  -11   23      0.12      0.00
    3  -11   23      0.03      0.00
    2  -10   23      0.17      0.00
    3  -10   23      0.53      0.00
    4  -10   23     -0.55      0.00
    5  -10   23     -0.54      0.00
    1   -9   23     -0.21      0.00
    2   -9   23     -0.12      0.00
    3   -9   23      0.21      0.00
    4   -9   23      0.24      0.00
    5   -9   23      0.73      0.00
    6   -9   23     -0.34      0.00
    1   -8   23     -0.17      0.00
    2   -8   23     -0.12      0.00
    3   -8   23     -0.53      0.00
    4   -8   23     -0.28      0.00
    5   -8   23      0.81      0.00
    6   -8   23      0.10      0.00
    1   -7   23      0.02      0.00
    2   -7   23      0.23      0.00
    3   -7   23      1.13      0.00
    4   -7   23      0.88      0.00
    5   -7   23     -0.64      0.00
    6   -7   23     -0.37      0.00
    7   -7   23      0.71      0.00
    1   -6   23      0.54      0.00
    2   -6   23      0.03      0.00
    3   -6   23     -0.82      0.00
    4   -6   23     -0.41      0.00
    5   -6   23     -0.13      0.00
    6   -6   23      0.69      0.00
    7   -6   23     -0.18      0.00
    8   -6   23     -0.10      0.00
    1   -5   23     -1.86      0.00
    2   -5   23     -0.89      0.00
    3   -5   23     -0.48      0.00
    4   -5   23     -0.47      0.00
    5   -5   23     -0.21      0.00
    6   -5   23      0.68      0.00
    7   -5   23     -0.24      0.00
    8   -5   23      0.84      0.00
    0   -4   23     -0.14      0.00
    1   -4   23      1.19      0.00
    2   -4   23      1.56      0.00
    3   -4   23      0.90      0.00
    4   -4   23      0.81      0.00
    5   -4   23      0.82      0.00
    6   -4   23      0.08      0.00
    7   -4   23      0.11      0.00
    8   -4   23      0.69      0.00
   -3   -3   23      0.23      0.00
   -2   -3   23      0.52      0.00
   -1   -3   23      0.64      0.00
    0   -3   23      0.12      0.00
    1   -3   23      0.49      0.00
    2   -3   23      0.33      0.00
    3   -3   23     -0.28      0.00
    4   -3   23     -0.53      0.00
    5   -3   23     -0.10      0.00
    6   -3   23     -0.65      0.00
    7   -3   23     -0.08      0.00
    8   -3   23     -0.28      0.00
   -3   -2   23     -0.17      0.00
   -2   -2   23     -0.76      0.00
   -1   -2   23      0.14      0.00
    0   -2   23     -0.18      0.00
    1   -2   23     -0.81      0.00
    2   -2   23     -1.59      0.00
    3   -2   23     -1.11      0.00
    4   -2   23     -0.38      0.00
    5   -2   23     -1.39      0.00
    6   -2   23     -1.45      0.00
    7   -2   23     -0.56      0.00
    8   -2   23     -0.75      0.00
    9   -2   23      0.06      0.00
   -3   -1   23     -0.20      0.00
   -2   -1   23     -0.33      0.00
   -1   -1   23     -0.43      0.00
    0   -1   23     -0.89      0.00
    1   -1   23      0.29      0.00
    2   -1   23      0.44      0.00
    3   -1   23      0.25      0.00
    4   -1   23      0.88      0.00
    5   -1   23      1.28      0.00
    6   -1   23      1.48      0.00
    7   -1   23      1.01      0.00
    8   -1   23      0.05      0.00
    9   -1   23      0.04      0.00
   -2    0   23      1.18      0.00
   -1    0   23      0.09      0.00
    0    0   23      0.15      0.00
    1    0   23      0.41      0.00
    2    0   23     -0.48      0.00
    3    0   23      0.48      0.00
    4    0   23     -0.28      0.00
    5    0   23     -0.58      0.00
    6    0   23     -0.53      0.00
    7    0   23     -0.77      0.00
    8    0   23     -1.04      0.00
   -2    1   23      0.76      0.00
   -1    1   23     -0.26      0.00
    0    1   23      1.06      0.00
    1    1   23      1.00      0.00
    2    1   23      0.64      0.00
    3    1   23      0.79      0.00
    4    1   23     -0.27      0.00
    5    1   23     -0.37      0.00
    6    1   23      0.00      0.00
    7    1   23      0.54      0.00
    8    1   23      1.24      0.00
   -2    2   23     -0.73      0.00
   -1    2   23     -0.44      0.00
    0    2   23      0.54      0.00
    1    2   23     -1.28      0.00
    2    2   23     -0.22      0.00
    3    2   23      0.04      0.00
    4    2   23      0.51      0.00
    5    2   23      0.73      0.00
    6    2   23      1.10      0.00
    7    2   23     -0.37      0.00
    8    2   23      0.29      0.00
   -2    3   23     -0.63      0.00
   -1    3   23      0.14      0.00
    0    3   23     -0.41      0.00
    1    3   23     -0.73      0.00
    2    3   23      0.11      0.00
    3    3   23     -0.82      0.00
    4    3   23      0.04      0.00
    5    3   23     -0.11      0.00
    6    3   23     -0.08      0.00
    7    3   23     -0.51      0.00
    8    3   23     -0.55      0.00
   -2    4   23      0.11      0.00
   -1    4   23      0.46      0.00
    0    4   23     -0.65      0.00
    1    4   23      0.10      0.00
    2    4   23      0.05      0.00
    3    4   23     -0.14      0.00
    4    4   23     -0.73      0.00
    5    4   23     -0.04      0.00
    6    4   23     -0.54      0.00
    7    4   23      0.55      0.00
   -1    5   23     -0.24      0.00
    0    5   23      0.02      0.00
    1    5   23      1.00      0.00
    2    5   23     -0.20      0.00
    3    5   23      0.65      0.00
    4    5   23      0.13      0.00
    5    5   23      0.35      0.00
    6    5   23     -0.25      0.00
    7    5   23      0.22      0.00
   -1    6   23      0.44      0.00
    0    6   23     -0.16      0.00
    1    6   23     -0.26      0.00
    2    6   23     -0.04      0.00
    3    6   23     -1.08      0.00
    4    6   23     -1.20      0.00
    5    6   23     -1.03      0.00
    6    6   23     -0.70      0.00
    7    6   23     -0.04      0.00
   -1    7   23      0.24      0.00
    0    7   23      1.03      0.00
    1    7   23     -0.22      0.00
    2    7   23      0.42      0.00
    3    7   23      1.05      0.00
    4    7   23      2.30      0.00
    5    7   23      0.89      0.00
    6    7   23      0.22      0.00
    7    7   23     -0.54      0.00
    0    8   23     -0.17      0.00
    1    8   23      0.78      0.00
    2    8   23      0.70      0.00
    3    8   23      0.14      0.00
    4    8   23      0.24      0.00
    5    8   23      0.32      0.00
    6    8   23      1.26      0.00
    0    9   23     -1.03      0.00
    1    9   23     -0.73      0.00
    2    9   23     -0.95      0.00
    3    9   23     -0.66      0.00
    4    9   23     -1.63      0.00
    5    9   23     -0.87      0.00
    6    9   23      0.15      0.00
    1   10   23     -0.36      0.00
    2   10   23     -0.87      0.00
    3   10   23      0.59      0.00
    4   10   23      0.88      0.00
    5   10   23      0.37      0.00
    2   11   23      0.66      0.00
    3   11   23     -0.50      0.00
    4   11   23     -0.79      0.00
    3   -9   24     -0.20      0.00
    2   -8   24      0.38      0.00
    3   -8   24      0.61      0.00
    4   -8   24     -0.20      0.00
    5   -8   24     -0.52      0.00
    1   -7   24      1.23      0.00
    2   -7   24     -0.03      0.00
    3   -7   24     -0.47      0.00
    4   -7   24     -0.21      0.00
    5   -7   24      0.62      0.00
    6   -7   24     -0.38      0.00
    1   -6   24     -1.54      0.00
    2   -6   24     -1.53      0.00
    3   -6   24     -0.40      0.00
    4   -6   24     -0.43      0.00
    5   -6   24     -0.09      0.00
    6   -6   24      0.33      0.00
    1   -5   24      1.01      0.00
    2   -5   24      1.60      0.00
    3   -5   24      1.57      0.00
    4   -5   24      1.04      0.00
    5   -5   24     -0.18      0.00
    6   -5   24     -0.18      0.00
    7   -5   24     -0.43      0.00
    1   -4   24     -0.50      0.00
    2   -4   24      0.00      0.00
    3   -4   24     -0.79      0.00
    4   -4   24     -1.07      0.00
    5   -4   24     -0.50      0.00
    6   -4   24     -0.05      0.00
    7   -4   24     -0.93      0.00
   -2   -3   24     -0.32      0.00
   -1   -3   24     -0.31      0.00
    0   -3   24     -0.13      0.00
    1   -3   24     -0.80      0.00
    2   -3   24     -1.11      0.00
    3   -3   24     -0.74      0.00
    4   -3   24     -0.32      0.00
    5   -3   24     -0.05      0.00
    6   -3   24     -0.34      0.00
    7   -3   24     -0.25      0.00
   -2   -2   24     -0.46      0.00
   -1   -2   24     -0.71      0.00
    0   -2   24     -0.24      0.00
    1   -2   24      0.35      0.00
    2   -2   24      0.89      0.00
    3   -2   24      0.23      0.00
    4   -2   24      0.71      0.00
    5   -2   24      1.29      0.00
    6   -2   24      0.70      0.00
    7   -2   24      0.63      0.00
    8   -2   24     -0.07      0.00
   -1   -1   24      1.10      0.00
    0   -1   24      0.15      0.00
    1   -1   24     -0.07      0.00
    2   -1   24      0.67      0.00
    3   -1   24      0.33      0.00
    4   -1   24      0.22      0.00
    5   -1   24     -0.86      0.00
    6   -1   24     -0.57      0.00
    7   -1   24     -0.12      0.00
   -1    0   24      1.15      0.00
    0    0   24      0.29      0.00
    1    0   24      1.32      0.00
    2    0   24      0.46      0.00
    3    0   24     -0.14      0.00
    4    0   24      0.31      0.00
    5    0   24     -0.05      0.00
    6    0   24      0.07      0.00
    7    0   24      0.68      0.00
   -1    1   24     -1.14      0.00
    0    1   24     -1.48      0.00
    1    1   24     -0.88      0.00
    2    1   24     -1.79      0.00
    3    1   24     -0.13      0.00
    4    1   24      0.06      0.00
    5    1   24      0.70      0.00
    6    1   24      0.37      0.00
    7    1   24     -0.02      0.00
   -1    2   24     -0.67      0.00
    0    2   24      0.55      0.00
    1    2   24      0.52      0.00
    2    2   24     -0.26      0.00
    3    2   24     -0.01      0.00
    4    2   24     -0.67      0.00
    5    2   24     -0.80      0.00
    6    2   24     -0.39      0.00
    7    2   24     -0.48      0.00
    0    3   24      0.83      0.00
    1    3   24     -0.40      0.00
    2    3   24      0.71      0.00
    3    3   24      0.06      0.00
    4    3   24     -0.01      0.00
    5    3   24     -0.15      0.00
    6    3   24      0.59      0.00
    0    4   24     -0.10      0.00
    1    4   24     -0.42      0.00
    2    4   24      0.29      0.00
    3    4   24      0.31      0.00
    4    4   24      0.43      0.00
    5    4   24     -0.29      0.00
    6    4   24     -0.20      0.00
    0    5   24     -0.08      0.00
    1    5   24      0.56      0.00
    2    5   24     -0.03      0.00
    3    5   24     -0.45      0.00
    4    5   24     -0.93      0.00
    5    5   24      0.16      0.00
    6    5   24     -0.37      0.00
    1    6   24     -0.06      0.00
    2    6   24     -0.27      0.00
    3    6   24      1.29      0.00
    4    6   24      1.38      0.00
    5    6   24      1.54      0.00
    2    7   24      0.59      0.00
    3    7   24     -0.64      0.00
    4    7   24     -0.37      0.00
    5    7   24     -0.39      0.00
    2    8   24     -0.63      0.00
    3    8   24     -1.26      0.00
    4    8   24     -1.03      0.00
    2   -6   25      0.78      0.00
    3   -6   25      1.26      0.00
    4   -6   25      0.65      0.00
    2   -5   25     -0.79      0.00
    3   -5   25     -0.72      0.00
    4   -5   25     -0.92      0.00
    5   -5   25     -0.30      0.00
    1   -4   25     -0.71      0.00
    2   -4   25     -0.66      0.00
    3   -4   25      0.01      0.00
    4   -4   25      0.24      0.00
    5   -4   25      0.30      0.00
    6   -4   25      0.87      0.00
    0   -3   25     -0.22      0.00
    1   -3   25      0.66      0.00
    2   -3   25      0.84      0.00
    3   -3   25      0.47      0.00
    4   -3   25     -0.01      0.00
    5   -3   25      0.23      0.00
    6   -3   25      0.01      0.00
    0   -2   25      0.60      0.00
    1   -2   25      0.03      0.00
    2   -2   25      0.50      0.00
    3   -2   25      0.92      0.00
    4   -2   25     -0.01      0.00
    5   -2   25      0.04      0.00
    6   -2   25     -0.23      0.00
    0   -1   25      1.25      0.00
    1   -1   25     -0.03      0.00
    2   -1   25     -0.10      0.00
    3   -1   25     -0.83      0.00
    4   -1   25     -0.05      0.00
    5   -1   25      0.19      0.00
    6   -1   25     -0.15      0.00
    1    0   25     -1.92      0.00
    2    0   25     -0.61      0.00
    3    0   25     -1.00      0.00
    4    0   25      0.06      0.00
    5    0   25      0.07      0.00
    6    0   25      0.23      0.00
    1    1   25      1.43      0.00
    2    1   25      0.83      0.00
    3    1   25      0.05      0.00
    4    1   25     -0.21      0.00
    5    1   25     -0.78      0.00
    1    2   25      0.77      0.00
    2    2   25     -0.13      0.00
    3    2   25      0.58      0.00
    4    2   25      0.28      0.00
    5    2   25      0.54      0.00
    2    3   25     -0.59      0.00
    3    3   25      0.36      0.00
    4    3   25      0.28      0.00
    3    4   25     -0.57      0.00
    4    4   25     -0.01      0.00
   13    0    0      0.23      0.00
  -13    1    0     -0.43      0.00
    0    1    0    -52.36      0.00
   13    1    0      1.00      0.00
  -13    2    0      0.38      0.00
    0    2    0    -18.11      0.00
   13    2    0     -0.86      0.00
  -13    3    0     -0.81      0.00
   13    3    0     -1.32      0.00
  -13    4    0      0.95      0.00
   13    4    0      1.37      0.00
  -13    5    0      0.23      0.00
   -4    5    0     -4.38      0.00
   13    5    0      0.27      0.00
   13    6    0     -0.21      0.00
   13    7    0     -1.17      0.00
   13    8    0      0.91      0.00
    6    9    0      3.60      0.00
  -11   13    0      0.34      0.00
  -10   13    0      0.08      0.00
   -9   13    0      0.25      0.00
  -10   14    0     -0.62      0.00
   -9   14    0     -0.68      0.00
  -10   15    0      0.53      0.00
   -9   15    0      0.55      0.00
  -10   16    0      0.21      0.00
   -9   16    0      0.96      0.00
   -9   17    0     -0.83      0.00
   -9   18    0      1.11      0.00
   10  -16    1      0.41      0.00
    9  -15    1     -1.51      0.00
   10  -15    1     -0.69      0.00
    9  -14    1      0.17      0.00
   10  -14    1      0.01      0.00
    9  -13    1      0.16      0.00
   10  -13    1     -0.21      0.00
   11  -13    1     -0.07      0.00
  -13   -6    1     -0.43      0.00
  -13   -5    1     -0.57      0.00
   13   -5    1     -0.47      0.00
  -13   -4    1     -0.30      0.00
   13   -4    1     -0.35      0.00
  -13   -3    1      0.18      0.00
   -2   -3    1      1.50      0.00
    3   -3    1    -23.15      0.00
   13   -3    1      0.89      0.00
  -13   -2    1      0.58      0.00
    0   -2    1    -38.46      0.00
   13   -2    1      0.11      0.00
  -13   -1    1     -0.17      0.00
   -1   -1    1     79.02      0.00
   13   -1    1     -0.34      0.00
  -13    0    1      0.13      0.00
   13    0    1      0.22      0.00
  -13    1    1      0.85      0.00
   13    1    1     -0.07      0.00
  -13    2    1     -1.59      0.00
   13    2    1     -1.52      0.00
  -13    3    1      0.61      0.00
   -2    3    1     12.84      0.00
   13    3    1      1.48      0.00
  -13    4    1     -0.07      0.00
   13    5    1      0.56      0.00
   13    6    1     -0.44      0.00
   13    7    1      0.43      0.00
   13    8    1     -0.05      0.00
  -12    9    1      0.62      0.00
  -11   13    1     -0.37      0.00
  -10   13    1      0.31      0.00
  -10   14    1      0.75      0.00
   -9   14    1      0.27      0.00
  -10   15    1     -0.03      0.00
   -9   15    1      0.65      0.00
   -9   16    1     -0.96      0.00
   -9   17    1      1.24      0.00
    4   24    1      0.90      0.00
    4   25    1     -0.74      0.00
   10  -16    2     -0.58      0.00
   10  -15    2     -0.24      0.00
   10  -14    2      0.88      0.00
   11  -14    2     -0.45      0.00
   10  -13    2     -0.25      0.00
   11  -13    2      0.04      0.00
   10  -12    2      0.21      0.00
   11  -12    2      0.58      0.00
    8   -9    2     -1.52      0.00
    6   -6    2     -0.30      0.00
   13   -6    2     -0.74      0.00
  -13   -5    2     -0.89      0.00
   13   -5    2     -0.44      0.00
  -13   -4    2      0.38      0.00
   13   -4    2     -0.24      0.00
  -13   -3    2      1.22      0.00
   13   -3    2      0.43      0.00
  -13   -2    2     -0.03      0.00
    3   -2    2    -14.66      0.00
   13   -2    2      0.66      0.00
  -13   -1    2     -0.84      0.00
    0   -1    2    -66.55      0.00
   13   -1    2     -0.37      0.00
  -13    0    2      0.44      0.00
  -13    1    2     -0.74      0.00
  -13    2    2      0.76      0.00
    1    3    2     -4.17      0.00
   -4    6    2     -3.75      0.00
  -12    8    2      0.77      0.00
   13    8    2     -1.27      0.00
  -12    9    2     -0.39      0.00
   13    9    2      0.62      0.00
    6   10    2     -1.52      0.00
  -10   14    2      0.04      0.00
   -9   14    2      0.39      0.00
  -10   15    2      0.05      0.00
   -9   15    2     -1.07      0.00
   -9   16    2      0.10      0.00
   -9   17    2     -0.67      0.00
    5   23    2      0.39      0.00
    5   24    2     -0.84      0.00
    4   25    2     -0.10      0.00
   10  -16    3     -0.30      0.00
   10  -15    3      0.53      0.00
   10  -14    3     -0.51      0.00
   11  -14    3      0.23      0.00
   10  -13    3      0.96      0.00
   11  -13    3     -0.15      0.00
   10  -12    3      0.09      0.00
   11  -12    3     -0.03      0.00
    9  -10    3      0.32      0.00
   13   -6    3      1.38      0.00
   13   -5    3     -0.10      0.00
   13   -4    3     -0.48      0.00
   13   -3    3      0.10      0.00
   -1    2    3     -2.00      0.00
   -3    5    3    -15.31      0.00
  -12    6    3     -0.89      0.00
  -12    7    3      0.48      0.00
  -12    8    3     -0.45      0.00
   13    9    3     -0.30      0.00
  -10   14    3      0.03      0.00
   -9   14    3     -0.18      0.00
   -8   14    3     -1.46      0.00
  -10   15    3      0.03      0.00
   -9   15    3     -0.07      0.00
   -8   15    3     -0.53      0.00
   -9   16    3     -0.26      0.00
   -9   17    3      0.20      0.00
    5   22    3     -0.29      0.00
    5   23    3     -0.81      0.00
    6   23    3     -0.87      0.00
    5   24    3      0.20      0.00
   10  -16    4      0.95      0.00
   10  -15    4     -0.42      0.00
   10  -14    4     -0.31      0.00
   11  -14    4      0.33      0.00
   10  -13    4      0.02      0.00
   11  -13    4     -0.46      0.00
   10  -12    4     -0.16      0.00
   11  -12    4     -0.46      0.00
   12  -11    4     -0.40      0.00
    8   -7    4     -0.38      0.00
   13   -7    4      0.68      0.00
   13   -6    4      0.60      0.00
   13   -5    4      0.42      0.00
    6   -4    4      4.52      0.00
   13   -4    4      0.13      0.00
  -12    4    4     -0.16      0.00
  -12    5    4     -0.63      0.00
  -12    6    4      0.27      0.00
  -12    7    4      0.94      0.00
   13   10    4      1.02      0.00
    7   12    4      0.72      0.00
  -10   14    4     -0.68      0.00
   -9   14    4      0.23      0.00
   -9   15    4      0.65      0.00
   -8   15    4      0.55      0.00
   -9   16    4      0.25      0.00
   -8   16    4     -0.89      0.00
   -9   17    4      0.10      0.00
   -8   17    4      0.72      0.00
   -8   18    4      1.10      0.00
    6   22    4     -0.30      0.00
    5   23    4      0.61      0.00
    6   23    4      0.22      0.00
    7   23    4     -0.08      0.00
    5   24    4      0.67      0.00
   10  -15    5     -0.25      0.00
   10  -14    5     -0.44      0.00
   11  -14    5     -0.18      0.00
   10  -13    5     -0.35      0.00
   11  -13    5      0.73      0.00
   10  -12    5      0.74      0.00
   11  -12    5     -0.41      0.00
   11  -11    5     -0.01      0.00
   12  -11    5      0.64      0.00
   13   -7    5     -0.85      0.00
   13   -6    5     -0.81      0.00
   13   -5    5      0.84      0.00
  -12    0    5      0.35      0.00
  -12    1    5      0.04      0.00
  -12    2    5     -0.52      0.00
  -12    3    5     -0.02      0.00
  -12    4    5      0.35      0.00
  -12    5    5     -0.70      0.00
  -12    6    5      0.95      0.00
   13   10    5     -1.44      0.00
  -11   11    5      0.56      0.00
  -10   14    5      0.35      0.00
   -9   15    5      0.03      0.00
   -8   15    5     -0.52      0.00
    4   15    5      0.64      0.00
   -9   16    5     -0.17      0.00
   -8   16    5      1.04      0.00
   -8   17    5      0.03      0.00
   -8   18    5     -1.69      0.00
    6   21    5      0.20      0.00
    7   21    5     -0.21      0.00
    6   22    5      0.74      0.00
    7   22    5      0.40      0.00
    8   22    5     -0.21      0.00
    6   23    5      0.41      0.00
    7   23    5      0.49      0.00
    5   24    5     -0.58      0.00
   11  -14    6      0.31      0.00
   11  -13    6      0.09      0.00
   11  -12    6      0.42      0.00
   10  -11    6      0.66      0.00
   11  -11    6     -0.16      0.00
   12  -11    6      0.22      0.00
   13   -7    6     -1.19      0.00
   -4   -6    6      2.99      0.00
   13   -6    6     -0.37      0.00
   13   -5    6     -0.73      0.00
  -12   -3    6     -0.12      0.00
  -12   -2    6      0.56      0.00
  -12   -1    6      0.52      0.00
  -12    0    6     -0.89      0.00
  -12    1    6     -0.67      0.00
  -12    2    6      0.31      0.00
  -12    3    6      0.75      0.00
  -12    4    6     -0.59      0.00
  -11    9    6     -0.89      0.00
  -11   10    6      1.38      0.00
   13   10    6      0.84      0.00
   -9   15    6     -0.32      0.00
   -8   15    6      0.81      0.00
   -9   16    6     -0.20      0.00
   -8   16    6     -0.48      0.00
   -8   17    6     -1.08      0.00
   -8   18    6      0.72      0.00
    6   20    6      0.51      0.00
    7   20    6      0.19      0.00
    6   21    6      0.46      0.00
    7   21    6      0.88      0.00
    8   21    6      0.08      0.00
    6   22    6     -0.79      0.00
    7   22    6     -0.36      0.00
    8   22    6      0.23      0.00
    6   23    6      0.12      0.00
    7   23    6     -0.07      0.00
   11  -13    7      0.03      0.00
   11  -12    7      0.75      0.00
   11  -11    7     -1.01      0.00
   12  -11    7     -0.05      0.00
   12  -10    7      0.21      0.00
   13   -6    7     -0.54      0.00
   13   -5    7      0.27      0.00
  -12   -3    7     -0.17      0.00
   -1   -3    7    -18.08      0.00
    0   -3    7      0.46      0.00
  -12   -2    7     -0.12      0.00
  -12   -1    7     -0.39      0.00
  -12    0    7      0.04      0.00
  -12    1    7      0.42      0.00
  -11    7    7      1.06      0.00
  -11    8    7     -0.32      0.00
  -11    9    7      0.04      0.00
   13    9    7      0.85      0.00
   13   10    7     -0.49      0.00
    5   12    7      2.73      0.00
   12   14    7     -0.82      0.00
   -9   15    7      0.35      0.00
   -8   15    7     -0.83      0.00
   -7   15    7     -1.10      0.00
   -8   16    7     -0.66      0.00
   -7   16    7     -0.92      0.00
   -8   17    7      1.09      0.00
    7   19    7      0.25      0.00
    7   20    7      0.12      0.00
    8   20    7      0.37      0.00
    9   20    7      0.39      0.00
    6   21    7     -1.89      0.00
    7   21    7     -0.92      0.00
    8   21    7     -0.02      0.00
    6   22    7      0.76      0.00
    7   22    7      0.52      0.00
    6   23    7     -0.35      0.00
   11  -13    8     -0.37      0.00
   11  -12    8     -0.76      0.00
   11  -11    8      0.92      0.00
   11  -10    8      0.33      0.00
   12  -10    8      0.84      0.00
   13   -6    8      1.33      0.00
   13   -5    8     -0.89      0.00
    0   -3    8     -8.17      0.00
  -11    4    8     -0.25      0.00
  -11    5    8     -0.15      0.00
  -11    6    8      0.44      0.00
  -11    7    8     -0.11      0.00
   13    8    8      1.18      0.00
   13    9    8      0.40      0.00
   13   10    8      0.10      0.00
  -10   11    8     -0.53      0.00
   12   14    8      0.57      0.00
   -8   16    8      0.83      0.00
   -7   16    8      1.58      0.00
   -8   17    8      0.06      0.00
   -7   17    8     -0.05      0.00
   -7   18    8     -0.30      0.00
    7   18    8      0.29      0.00
    8   18    8      0.33      0.00
    7   19    8     -0.06      0.00
    8   19    8     -0.25      0.00
    9   19    8      0.69      0.00
    7   20    8     -0.76      0.00
    8   20    8     -0.10      0.00
    9   20    8     -0.04      0.00
    7   21    8      0.32      0.00
    8   21    8      0.12      0.00
    7   22    8      0.03      0.00
    6   23    8      0.08      0.00
   11  -13    9     -0.62      0.00
   11  -12    9      0.64      0.00
   11  -11    9      0.79      0.00
   11  -10    9     -0.30      0.00
   12  -10    9     -0.24      0.00
   13   -6    9     -0.27      0.00
   13   -5    9      0.81      0.00
   13   -4    9      0.22      0.00
    9   -2    9     -0.84      0.00
  -11   -1    9      1.26      0.00
  -11    0    9     -0.70      0.00
  -11    1    9     -0.58      0.00
  -11    2    9      0.69      0.00
  -11    3    9     -0.12      0.00
  -11    4    9     -0.28      0.00
  -11    5    9      0.75      0.00
  -11    6    9     -0.31      0.00
   13    7    9      0.44      0.00
   13    8    9     -0.28      0.00
  -10    9    9      0.14      0.00
   13    9    9     -0.08      0.00
  -10   10    9     -1.09      0.00
   13   10    9      0.18      0.00
    5   14    9      0.61      0.00
   11   15    9      0.34      0.00
   -8   16    9     -0.35      0.00
   -7   16    9     -0.29      0.00
   -7   17    9     -0.45      0.00
    8   17    9      0.35      0.00
   -7   18    9      0.35      0.00
    7   18    9     -0.85      0.00
    8   18    9     -0.33      0.00
    9   18    9      0.28      0.00
   10   18    9      0.56      0.00
    7   19    9      0.55      0.00
    8   19    9      0.07      0.00
    9   19    9     -0.51      0.00
    7   20    9      0.37      0.00
    8   20    9     -0.15      0.00
    9   20    9      0.27      0.00
    7   21    9     -0.15      0.00
    8   21    9      0.03      0.00
    7   22    9     -0.31      0.00
   11  -12   10     -0.80      0.00
   11  -11   10     -0.11      0.00
   11  -10   10     -0.41      0.00
   12  -10   10     -1.63      0.00
   12   -9   10      0.39      0.00
   13   -5   10      0.51      0.00
  -11   -4   10      0.25      0.00
   13   -4   10      1.52      0.00
  -11   -3   10     -0.03      0.00
   13   -3   10     -0.24      0.00
  -11   -2   10      0.41      0.00
  -11   -1   10     -0.77      0.00
  -11    0   10      0.54      0.00
  -11    1   10      0.93      0.00
  -11    2   10     -0.32      0.00
  -11    3   10     -0.90      0.00
   13    4   10      0.95      0.00
   13    5   10      0.08      0.00
   13    6   10      1.34      0.00
  -10    7   10      0.46      0.00
   13    7   10     -0.71      0.00
  -10    8   10      1.01      0.00
   -4    8   10     -0.86      0.00
   13    8   10     -1.24      0.00
  -10    9   10     -0.52      0.00
   13    9   10     -0.34      0.00
   -9   13   10     -0.35      0.00
    5   15   10      0.27      0.00
   11   15   10     -1.03      0.00
   -7   16   10     -0.51      0.00
    8   16   10      0.81      0.00
   11   16   10      0.61      0.00
   -7   17   10      0.10      0.00
    8   17   10     -0.87      0.00
    9   17   10      0.10      0.00
   10   17   10      0.01      0.00
    8   18   10      0.36      0.00
    9   18   10     -0.29      0.00
   10   18   10     -0.57      0.00
    8   19   10      0.32      0.00
    9   19   10      0.15      0.00
    7   20   10      0.35      0.00
    8   20   10     -0.25      0.00
    9   20   10     -0.31      0.00
    7   21   10     -0.24      0.00
    8   21   10     -0.27      0.00
    7   22   10     -0.43      0.00
   11   -9   11      0.11      0.00
   12   -9   11     -1.16      0.00
   13   -5   11     -0.04      0.00
   13   -4   11     -0.28      0.00
   13   -3   11      0.10      0.00
   13   -2   11      0.81      0.00
   13   -1   11     -1.43      0.00
   13    0   11      1.46      0.00
   13    1   11     -1.07      0.00
   13    2   11      0.47      0.00
   13    3   11      0.24      0.00
  -10    4   11     -0.32      0.00
   13    4   11     -0.28      0.00
  -10    5   11     -0.32      0.00
   13    5   11      0.33      0.00
  -10    6   11      0.43      0.00
   -3    6   11     -2.39      0.00
   13    6   11     -0.38      0.00
  -10    7   11      0.64      0.00
   13    7   11     -0.27      0.00
  -10    8   11      0.08      0.00
   13    8   11      0.17      0.00
   13    9   11      0.08      0.00
   -9   11   11     -0.83      0.00
   -7   16   11     -0.01      0.00
    8   16   11     -0.32      0.00
    9   16   11     -0.45      0.00
   10   16   11     -0.02      0.00
   11   16   11     -0.31      0.00
   -6   17   11      0.70      0.00
    8   17   11      0.33      0.00
    9   17   11     -0.39      0.00
   10   17   11      0.10      0.00
   -6   18   11     -0.21      0.00
    8   18   11     -0.07      0.00
    9   18   11      0.49      0.00
   10   18   11     -0.09      0.00
    8   19   11     -0.16      0.00
    9   19   11      0.02      0.00
    8   20   11      0.03      0.00
    7   21   11      0.27      0.00
    8   21   11      0.29      0.00
    7   22   11      0.38      0.00
   13   -4   12     -0.91      0.00
   13   -3   12      1.08      0.00
   13   -2   12     -0.99      0.00
  -10   -1   12      1.00      0.00
   13   -1   12      1.06      0.00
  -10    0   12     -1.11      0.00
   13    0   12     -0.29      0.00
  -10    1   12      0.07      0.00
   13    1   12      1.22      0.00
  -10    2   12      0.42      0.00
   13    2   12     -0.17      0.00
  -10    3   12     -0.16      0.00
   13    3   12     -0.25      0.00
  -10    4   12      0.04      0.00
   13    4   12     -1.08      0.00
  -10    5   12      0.29      0.00
   13    5   12     -0.85      0.00
   13    6   12      0.08      0.00
   13    7   12      1.16      0.00
   13    8   12      0.95      0.00
   -9    9   12     -0.13      0.00
   -9   10   12     -0.99      0.00
    9   16   12      0.07      0.00
   10   16   12     -0.23      0.00
   -6   17   12     -0.75      0.00
    8   17   12      0.14      0.00
    9   17   12     -0.49      0.00
   10   17   12      0.14      0.00
    8   18   12     -0.26      0.00
    9   18   12      0.22      0.00
    8   19   12     -0.20      0.00
    9   19   12      0.01      0.00
    8   20   12      0.55      0.00
   12   -8   13     -0.77      0.00
   13   -2   13      0.48      0.00
  -10   -1   13     -1.23      0.00
   13   -1   13     -0.13      0.00
  -10    0   13      0.45      0.00
   13    0   13     -0.09      0.00
  -10    1   13      0.76      0.00
   13    1   13     -0.05      0.00
   13    2   13      0.26      0.00
   13    3   13     -0.59      0.00
   13    4   13      0.04      0.00
   -9    5   13      0.19      0.00
   13    5   13      0.25      0.00
   -9    6   13     -1.29      0.00
   13    6   13      0.25      0.00
   -9    7   13      0.86      0.00
   13    7   13      0.27      0.00
   -9    8   13     -0.64      0.00
   -9    9   13      0.43      0.00
   -8   11   13     -0.21      0.00
   12   11   13      0.49      0.00
   -8   12   13      1.64      0.00
   12   12   13     -0.16      0.00
   10   16   13     -0.83      0.00
   -6   17   13      0.15      0.00
    8   17   13      0.76      0.00
    9   17   13      0.52      0.00
   10   17   13      0.17      0.00
    8   18   13     -0.36      0.00
    9   18   13     -0.72      0.00
    8   19   13      0.21      0.00
    9   19   13     -0.10      0.00
    8   20   13     -0.22      0.00
   13    0   14     -0.25      0.00
   -9    1   14      0.74      0.00
   13    1   14     -0.91      0.00
   -9    2   14     -0.98      0.00
   13    2   14      0.34      0.00
   -9    3   14      0.43      0.00
   13    3   14      0.96      0.00
   -9    4   14     -0.43      0.00
   13    4   14      1.02      0.00
   -9    5   14     -1.22      0.00
   13    5   14     -0.17      0.00
   -9    6   14      1.30      0.00
   -8    9   14      0.01      0.00
   12    9   14     -0.73      0.00
   -8   10   14     -0.62      0.00
   12   10   14      0.54      0.00
   -8   11   14      0.53      0.00
   12   11   14      0.17      0.00
   -5   17   14      0.75      0.00
    8   17   14     -0.78      0.00
    9   17   14      0.02      0.00
    8   18   14      0.36      0.00
    9   18   14     -0.53      0.00
    8   19   14      0.36      0.00
   -8   -8   15      0.06      0.00
   -8   -7   15      0.80      0.00
   -3   -7   15     -1.28      0.00
   -9   -3   15      0.39      0.00
   -9   -2   15     -0.28      0.00
   -9   -1   15      0.05      0.00
   -9    0   15     -0.26      0.00
   -9    1   15     -0.18      0.00
   -9    2   15      0.57      0.00
   -9    3   15     -0.24      0.00
   -8    6   15     -0.61      0.00
   12    6   15     -0.54      0.00
   -8    7   15      0.21      0.00
   12    7   15      1.58      0.00
   -8    8   15     -0.09      0.00
   12    8   15     -0.32      0.00
   -8    9   15      0.32      0.00
   12    9   15      0.61      0.00
   12   10   15     -0.21      0.00
   -7   11   15     -0.04      0.00
   -7   12   15     -0.15      0.00
    8   17   15     -0.35      0.00
    9   17   15     -0.45      0.00
    8   18   15      0.95      0.00
    8   19   15     -0.53      0.00
   -7   -8   16      0.22      0.00
   -7   -7   16      0.19      0.00
   -8   -6   16     -0.25      0.00
   12   -4   16      0.88      0.00
   12   -3   16     -0.61      0.00
   12   -2   16      1.12      0.00
   12    0   16      1.53      0.00
   12    1   16     -0.88      0.00
   -8    2   16      0.25      0.00
   12    2   16      0.26      0.00
   -8    3   16     -0.05      0.00
   12    3   16     -0.32      0.00
   -8    4   16     -0.02      0.00
   12    4   16     -0.17      0.00
   -8    5   16     -0.03      0.00
   12    5   16     -0.06      0.00
   -8    6   16     -0.08      0.00
   12    6   16      0.63      0.00
   12    7   16     -0.29      0.00
   12    8   16      0.57      0.00
   -7    9   16      0.02      0.00
   12    9   16     -0.18      0.00
   -7   10   16     -0.34      0.00
   -7   11   16     -0.32      0.00
   11   12   16     -0.18      0.00
   -6   13   16     -0.14      0.00
   11   13   16     -0.08      0.00
    9   17   16      1.23      0.00
    7   18   16     -0.69      0.00
    8   18   16     -1.18      0.00
    7   19   16     -0.08      0.00
    0  -16   17      0.02      0.00
   -7   -8   17      0.88      0.00
   -6   -8   17     -0.21      0.00
   -7   -7   17     -0.81      0.00
   -6   -7   17     -0.63      0.00
   -5   -7   17      0.44      0.00
   -7   -6   17      0.15      0.00
   12   -2   17     -0.84      0.00
   -8   -1   17      0.04      0.00
   12   -1   17      0.76      0.00
   -8    0   17     -1.32      0.00
   12    0   17     -1.06      0.00
   -8    1   17      1.01      0.00
   12    1   17      0.25      0.00
   -8    2   17      0.58      0.00
   12    2   17     -0.31      0.00
   12    3   17      0.17      0.00
   12    4   17      1.24      0.00
   -7    5   17     -0.88      0.00
   12    5   17     -0.43      0.00
   -7    6   17      0.38      0.00
   12    6   17     -0.42      0.00
   -7    7   17      0.14      0.00
   12    7   17     -0.01      0.00
   -7    8   17     -0.24      0.00
   11    9   17      0.14      0.00
   -6   10   17     -0.26      0.00
   11   10   17      0.66      0.00
   -6   11   17     -0.37      0.00
   11   11   17     -0.14      0.00
   -6   12   17      0.03      0.00
   -5   14   17     -0.89      0.00
   10   14   17      0.57      0.00
    7   18   17      0.18      0.00
    0  -15   18      1.12      0.00
    0  -14   18     -1.04      0.00
   -6   -9   18     -0.20      0.00
   -5   -9   18     -1.20      0.00
   -6   -8   18     -0.34      0.00
   -5   -8   18      0.08      0.00
   -6   -7   18      0.28      0.00
   -5   -7   18      0.23      0.00
   -4   -7   18     -0.03      0.00
   -6   -6   18     -0.08      0.00
   -5   -6   18     -1.33      0.00
   -7    0   18      1.40      0.00
   -7    1   18      0.69      0.00
   -7    2   18     -0.86      0.00
   12    2   18     -0.18      0.00
   -7    3   18      0.16      0.00
   12    3   18      0.98      0.00
   -7    4   18      0.04      0.00
   -7    5   18      0.72      0.00
   -7    6   18     -0.23      0.00
   11    6   18      0.79      0.00
   -6    7   18     -0.28      0.00
   11    7   18     -0.66      0.00
   -6    8   18      0.42      0.00
   11    8   18      0.79      0.00
   -6    9   18     -0.08      0.00
   11    9   18      0.11      0.00
   -6   10   18     -0.11      0.00
   11   10   18     -0.70      0.00
   -5   11   18     -0.08      0.00
   -5   12   18      0.50      0.00
   10   12   18     -0.33      0.00
   10   13   18      0.52      0.00
    6   18   18      0.82      0.00
    7   18   18      0.69      0.00
    0  -13   19     -0.02      0.00
    0  -12   19     -2.15      0.00
   -5   -9   19      0.53      0.00
   -4   -9   19      0.49      0.00
   -5   -8   19     -0.14      0.00
   -4   -8   19     -0.94      0.00
   -3   -8   19     -0.71      0.00
   -5   -7   19     -0.14      0.00
   -4   -7   19     -0.82      0.00
   -3   -7   19      0.01      0.00
   -2   -7   19     -0.42      0.00
   -6   -6   19      0.30      0.00
   -5   -6   19      0.27      0.00
   -4   -6   19     -0.06      0.00
   -3   -6   19      0.23      0.00
   -2   -6   19     -0.83      0.00
   -6    3   19      0.58      0.00
   11    3   19     -1.91      0.00
   -6    4   19      0.01      0.00
   11    4   19      0.87      0.00
   -6    5   19      0.02      0.00
   11    5   19      0.38      0.00
   -6    6   19     -0.63      0.00
   11    6   19     -0.80      0.00
   -6    7   19     -0.12      0.00
   11    7   19      1.02      0.00
   -5    8   19     -0.01      0.00
   11    8   19     -0.14      0.00
   -5    9   19      0.15      0.00
   10    9   19      0.08      0.00
   -5   10   19     -0.21      0.00
   10   10   19      0.81      0.00
   -5   11   19     -0.08      0.00
   10   11   19     -0.65      0.00
   -4   12   19      0.13      0.00
   10   12   19     -0.09      0.00
   -4   13   19      0.10      0.00
    9   14   19     -0.35      0.00
    8   16   19      0.87      0.00
    6   18   19     -0.56      0.00
   -3  -10   20     -0.15      0.00
    0  -10   20     -1.15      0.00
   -4   -9   20     -0.62      0.00
   -3   -9   20     -1.41      0.00
   -4   -8   20      0.46      0.00
   -3   -8   20      0.11      0.00
   -2   -8   20      0.46      0.00
   -5   -7   20      0.43      0.00
   -4   -7   20     -0.02      0.00
   -3   -7   20     -0.07      0.00
   -2   -7   20     -0.44      0.00
   -1   -7   20     -0.99      0.00
   -5   -6   20      1.24      0.00
   -4   -6   20      0.08      0.00
   -3   -6   20      0.89      0.00
   -2   -6   20      0.47      0.00
   -1   -6   20      0.70      0.00
   -5   -5   20     -0.34      0.00
   -6   -2   20     -0.38      0.00
   -6   -1   20      0.72      0.00
   -6    0   20     -0.54      0.00
   -6    1   20      0.41      0.00
   -6    2   20      0.09      0.00
   -6    3   20     -0.53      0.00
   11    3   20      1.05      0.00
   11    4   20      0.50      0.00
   -5    5   20     -0.60      0.00
   11    5   20     -0.81      0.00
   -5    6   20     -0.44      0.00
   10    6   20      0.64      0.00
   -5    7   20      0.17      0.00
   10    7   20     -0.86      0.00
   -5    8   20      0.34      0.00
   10    8   20      0.37      0.00
   -4    9   20     -0.63      0.00
   10    9   20      0.46      0.00
   -4   10   20      0.12      0.00
   10   10   20     -0.51      0.00
   -4   11   20      0.02      0.00
    9   11   20     -0.34      0.00
   -3   12   20     -0.52      0.00
    9   12   20      0.91      0.00
   -3   13   20      0.28      0.00
    9   13   20     -0.84      0.00
    8   14   20      0.01      0.00
    7   16   20     -0.19      0.00
   -2  -10   21     -0.52      0.00
   -3   -9   21      0.47      0.00
   -2   -9   21      0.05      0.00
   -1   -9   21     -0.27      0.00
   -3   -8   21     -0.45      0.00
   -2   -8   21      0.09      0.00
   -1   -8   21     -0.10      0.00
    0   -8   21     -0.13      0.00
   -4   -7   21      1.00      0.00
   -3   -7   21      0.27      0.00
   -2   -7   21      0.82      0.00
   -1   -7   21      0.55      0.00
   -4   -6   21     -0.64      0.00
   -3   -6   21     -0.73      0.00
   -2   -6   21     -0.06      0.00
   -1   -6   21      0.10      0.00
   -4   -5   21     -0.79      0.00
   -3   -5   21      0.30      0.00
   -2   -5   21      0.24      0.00
   -1   -5   21      0.09      0.00
   -5   -1   21     -0.28      0.00
   -5    0   21      0.05      0.00
   -5    1   21      0.14      0.00
   10    1   21     -0.56      0.00
   -5    2   21     -0.63      0.00
   10    2   21      0.30      0.00
   -5    3   21      0.61      0.00
   10    3   21      0.50      0.00
   -5    4   21      0.13      0.00
   10    4   21     -0.82      0.00
   -5    5   21     -0.29      0.00
   10    5   21      0.20      0.00
   -4    6   21      0.54      0.00
   10    6   21     -0.01      0.00
   -4    7   21      0.36      0.00
   10    7   21      0.30      0.00
   -4    8   21     -0.21      0.00
    9    8   21     -0.51      0.00
   10    8   21     -0.14      0.00
   -4    9   21      0.13      0.00
   -3    9   21      0.31      0.00
    9    9   21     -0.31      0.00
   -3   10   21      0.31      0.00
    9   10   21     -0.26      0.00
   -3   11   21     -0.61      0.00
    9   11   21      0.95      0.00
   -2   12   21      0.00      0.00
    8   12   21     -1.05      0.00
   -2   13   21     -0.40      0.00
    8   13   21      0.45      0.00
   -1   14   21      0.18      0.00
    7   14   21      0.32      0.00
    0   15   21      0.60      0.00
    6   15   21     -0.10      0.00
    1   16   21     -0.31      0.00
    5   16   21     -0.71      0.00
   -1  -10   22     -0.35      0.00
   -2   -9   22     -0.08      0.00
   -1   -9   22      0.89      0.00
    0   -9   22      0.49      0.00
   -2   -8   22      0.17      0.00
   -1   -8   22      0.33      0.00
    0   -8   22      0.15      0.00
   -3   -7   22     -0.50      0.00
   -2   -7   22     -0.30      0.00
   -1   -7   22     -0.25      0.00
    0   -7   22     -0.23      0.00
   -3   -6   22     -0.38      0.00
   -2   -6   22     -0.24      0.00
   -1   -6   22     -0.05      0.00
    0   -6   22      0.11      0.00
   -3   -5   22      0.00      0.00
   -2   -5   22      0.15      0.00
   -1   -5   22      0.12      0.00
   -4    0   22      0.00      0.00
   -4    1   22     -0.32      0.00
   -4    2   22      0.10      0.00
   10    2   22      0.24      0.00
   -4    3   22      0.64      0.00
   10    3   22     -0.47      0.00
   -4    4   22     -0.77      0.00
    9    4   22     -0.41      0.00
   -4    5   22      0.16      0.00
    9    5   22      0.83      0.00
   -3    6   22      0.20      0.00
    9    6   22     -0.19      0.00
   -3    7   22     -0.17      0.00
    9    7   22     -0.37      0.00
   -3    8   22      0.14      0.00
    9    8   22      0.28      0.00
   -3    9   22      0.49      0.00
   -2    9   22      0.10      0.00
    8    9   22      0.43      0.00
    9    9   22     -0.35      0.00
   -2   10   22     -0.93      0.00
    8   10   22      0.98      0.00
   -2   11   22      0.74      0.00
   -1   11   22      0.02      0.00
    7   11   22     -0.65      0.00
    8   11   22     -0.88      0.00
   -1   12   22     -0.15      0.00
    7   12   22      0.54      0.00
   -1   13   22      0.62      0.00
    0   13   22     -0.30      0.00
    6   13   22     -0.10      0.00
    7   13   22     -0.08      0.00
    0   14   22      0.14      0.00
    1   14   22      0.97      0.00
    2   14   22      0.16      0.00
    5   14   22      0.57      0.00
    6   14   22      0.15      0.00
    2   15   22      0.01      0.00
    3   15   22      0.29      0.00
    4   15   22     -0.59      0.00
    5   15   22     -0.25      0.00
    1  -10   23      0.21      0.00
    0   -9   23     -0.11      0.00
   -1   -8   23     -0.15      0.00
    0   -8   23     -0.51      0.00
   -1   -7   23     -0.31      0.00
    0   -7   23     -0.04      0.00
   -2   -6   23      0.05      0.00
   -1   -6   23      0.28      0.00
    0   -6   23      0.91      0.00
   -2   -5   23     -0.13      0.00
   -1   -5   23      0.33      0.00
    0   -5   23     -0.55      0.00
   -2   -4   23     -0.08      0.00
   -1   -4   23     -0.37      0.00
   -3    0   23     -0.29      0.00
    9    0   23     -0.34      0.00
   -3    1   23      0.06      0.00
    9    1   23      0.64      0.00
   -3    2   23      0.54      0.00
    9    2   23     -0.22      0.00
   -3    3   23     -0.45      0.00
    9    3   23     -0.79      0.00
   -3    4   23      0.06      0.00
    8    4   23      0.79      0.00
    9    4   23      1.08      0.00
   -3    5   23      0.10      0.00
   -2    5   23     -0.15      0.00
    8    5   23     -0.79      0.00
    9    5   23     -0.53      0.00
   -2    6   23      0.50      0.00
    8    6   23      0.07      0.00
   -2    7   23     -0.12      0.00
    8    7   23     -0.29      0.00
   -2    8   23      0.28      0.00
   -1    8   23     -0.68      0.00
    7    8   23      0.87      0.00
    8    8   23      0.03      0.00
   -1    9   23     -0.39      0.00
    7    9   23     -0.01      0.00
    8    9   23      0.71      0.00
   -1   10   23      0.73      0.00
    0   10   23      0.08      0.00
    6   10   23     -0.73      0.00
    7   10   23     -0.98      0.00
    0   11   23      0.35      0.00
    1   11   23      0.60      0.00
    5   11   23      0.21      0.00
    6   11   23     -0.06      0.00
    7   11   23      0.20      0.00
    0   12   23      0.51      0.00
    1   12   23     -0.52      0.00
    2   12   23      0.05      0.00
    3   12   23     -0.28      0.00
    4   12   23     -0.56      0.00
    5   12   23     -0.56      0.00
    6   12   23     -0.54      0.00
    1   13   23      0.17      0.00
    2   13   23      0.44      0.00
    3   13   23      0.36      0.00
    4   13   23      1.07      0.00
    5   13   23      0.40      0.00
    0   -6   24     -0.77      0.00
   -1   -5   24     -0.11      0.00
    0   -5   24      0.83      0.00
   -1   -4   24      0.61      0.00
    0   -4   24      0.00      0.00
   -2   -1   24     -0.08      0.00
    8   -1   24     -0.15      0.00
   -2    0   24      0.31      0.00
    8    0   24      0.41      0.00
   -2    1   24      0.06      0.00
    8    1   24     -0.44      0.00
   -2    2   24      0.11      0.00
    8    2   24     -0.50      0.00
   -2    3   24      0.02      0.00
   -1    3   24      0.17      0.00
    7    3   24      0.13      0.00
    8    3   24      1.14      0.00
   -2    4   24     -0.13      0.00
   -1    4   24     -0.21      0.00
    7    4   24     -0.62      0.00
    8    4   24     -0.46      0.00
   -1    5   24      0.67      0.00
    7    5   24      0.12      0.00
    8    5   24      0.17      0.00
   -1    6   24      0.06      0.00
    0    6   24      0.04      0.00
    6    6   24      0.36      0.00
    7    6   24      0.21      0.00
   -1    7   24     -0.60      0.00
    0    7   24     -0.36      0.00
    1    7   24      0.34      0.00
    6    7   24      0.13      0.00
    7    7   24      0.71      0.00
    0    8   24     -0.09      0.00
    1    8   24     -1.16      0.00
    5    8   24     -1.04      0.00
    6    8   24     -0.35      0.00
    7    8   24      0.00      0.00
    0    9   24      0.30      0.00
    1    9   24     -0.13      0.00
    2    9   24     -0.32      0.00
    3    9   24      0.80      0.00
    4    9   24      1.13      0.00
    5    9   24      0.11      0.00
    6    9   24     -0.32      0.00
    1   10   24      1.22      0.00
    2   10   24      0.47      0.00
    3   10   24     -0.40      0.00
    4   10   24     -0.78      0.00
    5   10   24     -0.03      0.00
    6   10   24      0.39      0.00
    2   11   24      0.08      0.00
    3   11   24      0.56      0.00
    4   11   24     -0.02      0.00
    5   11   24     -0.24      0.00
    0    0   25     -1.73      0.00
    0    1   25      0.03      0.00
    6    1   25     -0.48      0.00
    0    2   25     -0.01      0.00
    6    2   25      0.08      0.00
    7    2   25      0.47      0.00
    0    3   25     -0.23      0.00
    1    3   25     -0.43      0.00
    5    3   25     -0.32      0.00
    6    3   25     -0.12      0.00
    7    3   25     -0.27      0.00
    0    4   25      0.79      0.00
    1    4   25      0.12      0.00
    2    4   25      0.38      0.00
    5    4   25      0.00      0.00
    6    4   25      0.50      0.00
    0    5   25     -0.23      0.00
    1    5   25     -0.65      0.00
    2    5   25     -0.10      0.00
    3    5   25      0.64      0.00
    4    5   25      0.56      0.00
    5    5   25      0.50      0.00
    6    5   25      0.62      0.00
    1    6   25      0.69      0.00
    2    6   25      0.01      0.00
    3    6   25     -0.31      0.00
    4    6   25     -1.08      0.00
    5    6   25     -0.41      0.00
    6    6   25     -0.46      0.00
    1    7   25     -0.51      0.00
    2    7   25     -0.84      0.00
    3    7   25     -0.62      0.00
    4    7   25     -0.73      0.00
    5    7   25     -0.28      0.00
    6    7   25     -0.64      0.00
    2    8   25      0.38      0.00
    3    8   25      0.68      0.00
    4    8   25      1.19      0.00
    5    8   25      0.20      0.00
    3    9   25     -0.38      0.00
    4    9   25     -0.35      0.00
    0    0    0      0.00      0.00
# SQUEEZE RESULTS
# Note: Data are Listed for all Voids in the P1 Unit Cell
# i.e. Centre of Gravity, Solvent Accessible Volume,
# Recovered number of Electrons in the Void and
# Details about the Squeezed Material
loop_
  _platon_squeeze_void_nr
  _platon_squeeze_void_average_x
  _platon_squeeze_void_average_y
  _platon_squeeze_void_average_z
  _platon_squeeze_void_volume
  _platon_squeeze_void_count_electrons
  _platon_squeeze_void_content
   1  0.000  0.500  0.500       378       108 ' '
   2  0.424  0.195  0.818        51         9 ' '
   3  0.575  0.805  0.182        51         9 ' '
_platon_squeeze_details
(replace by semicolon in column 1 when used as .sqf)
TITL SIR2014 run in space group P -1
CELL   10.5207   19.5694   19.8195     85.57     76.23     85.88
SPGR P-1
# Solvent Accessible Volume =     503.3
# Electrons Found in S.A.V. =     126.3
# Note: Atoms in Void as Cxxx and Qxxx all others
C101 0.931 0.592 0.441 !       5.94 eA-3
C102 0.038 0.524 0.624 !       4.40 eA-3
C103 0.940 0.170 0.295 !       4.12 eA-3
C104 0.370 0.249 0.839 !       3.94 eA-3
C105 0.875 0.636 0.576 !       3.89 eA-3
C106 0.805 0.393 0.320 !       3.73 eA-3
C107 0.964 0.699 0.690 !       2.85 eA-3
C108 0.970 0.352 0.378 !       1.67 eA-3
C109 0.564 0.855 0.253 !       1.36 eA-3
Q110 0.124 0.986 0.109 !       1.27 eA-3
Q111 0.963 0.020 0.896 !       1.06 eA-3
Q112 0.998 0.721 0.209 !       1.01 eA-3
C113 0.977 0.253 0.314 !       0.98 eA-3
Q114 0.638 0.970 0.608 !       0.97 eA-3
Q115 0.724 0.011 0.421 !       0.95 eA-3
Q116 0.845 0.110 0.252 !       0.89 eA-3
Q117 0.165 0.959 0.902 !       0.88 eA-3
Q118 0.786 0.019 0.187 !       0.87 eA-3
Q119 0.350 0.505 0.466 !       0.87 eA-3
Q120 0.477 0.731 0.735 !       0.87 eA-3
Q121 1.001 0.278 0.746 !       0.86 eA-3
Q122 0.530 0.079 0.391 !       0.86 eA-3
Q123 0.609 0.796 0.752 !       0.85 eA-3
Q124 0.528 0.310 0.244 !       0.83 eA-3
Q125 0.660 0.062 0.411 !       0.83 eA-3
Q126 0.058 0.077 0.456 !       0.82 eA-3
Q127 0.345 0.606 0.285 !       0.82 eA-3
Q128 0.589 0.438 0.064 !       0.81 eA-3
Q129 0.030 0.316 0.765 !       0.81 eA-3
Q130 0.314 0.030 0.596 !       0.80 eA-3
Q131 0.712 0.029 0.295 !       0.80 eA-3
C132 0.971 0.403 0.451 !       0.79 eA-3
Q133 1.015 0.061 0.904 !       0.79 eA-3
Q134 0.527 0.143 0.970 !       0.77 eA-3
Q135 0.183 0.771 0.456 !       0.77 eA-3
Q136 0.156 0.231 0.970 !       0.76 eA-3
Q137 0.972 0.139 0.751 !       0.76 eA-3
Q138 0.122 0.760 0.882 !       0.76 eA-3
Q139 0.968 0.874 0.282 !       0.75 eA-3
C140 0.062 0.762 0.677 !       0.75 eA-3
Q141 0.523 0.948 0.606 !       0.74 eA-3
Q142 0.714 0.438 0.542 !       0.74 eA-3
Q143 0.499 0.519 0.482 !       0.73 eA-3
Q144 0.345 0.595 0.430 !       0.73 eA-3
Q145 0.090 0.591 0.741 !       0.73 eA-3
Q146 0.946 0.048 0.091 !       0.73 eA-3
C147 0.997 0.449 0.451 !       0.73 eA-3
Q148 0.381 0.410 0.894 !       0.72 eA-3
Q149 0.257 0.428 0.822 !       0.72 eA-3
Q150 0.499 0.095 0.972 !       0.71 eA-3
Q151 0.526 0.312 0.297 !       0.70 eA-3
Q152 0.899 0.626 0.188 !       0.70 eA-3
Q153 0.091 0.406 0.129 !       0.69 eA-3
Q154 0.941 0.659 0.268 !       0.68 eA-3
Q155 0.526 0.920 0.813 !       0.68 eA-3
Q156 0.034 0.763 0.297 !       0.68 eA-3
C157 0.942 0.668 0.614 !       0.68 eA-3
Q158 0.632 0.608 0.814 !       0.68 eA-3
Q159 0.280 0.470 0.249 !       0.67 eA-3
Q160 0.952 0.876 0.535 !       0.67 eA-3
Q161 0.331 0.281 0.612 !       0.67 eA-3
Q162 0.220 0.612 0.547 !       0.67 eA-3
Q163 0.940 0.764 0.003 !       0.67 eA-3
Q164 0.602 0.063 0.934 !       0.66 eA-3
Q165 0.844 0.534 0.876 !       0.66 eA-3
Q166 0.221 0.663 0.221 !       0.66 eA-3
Q167 0.506 0.114 0.219 !       0.66 eA-3
Q168 0.121 0.737 0.403 !       0.66 eA-3
Q169 0.997 0.876 0.330 !       0.65 eA-3
Q170 0.842 0.671 0.378 !       0.65 eA-3
Q171 0.985 0.575 0.925 !       0.64 eA-3
Q172 0.192 0.660 0.282 !       0.64 eA-3
Q173 0.551 0.565 0.050 !       0.64 eA-3
Q174 0.216 0.033 0.903 !       0.64 eA-3
Q175 0.932 0.618 0.861 !       0.63 eA-3
Q176 0.677 0.459 0.517 !       0.63 eA-3
Q177 0.247 0.405 0.177 !       0.63 eA-3
Q178 0.873 0.095 0.486 !       0.63 eA-3
Q179 0.841 0.786 0.905 !       0.62 eA-3
Q180 0.875 0.484 0.890 !       0.62 eA-3
Q181 0.593 0.077 0.140 !       0.62 eA-3
Q182 0.098 0.824 0.265 !       0.62 eA-3
Q183 0.807 0.468 0.897 !       0.62 eA-3
Q184 0.899 0.701 0.333 !       0.62 eA-3
Q185 0.559 0.748 0.983 !       0.61 eA-3
Q186 0.290 0.068 0.557 !       0.61 eA-3
Q187 0.046 0.295 0.828 !       0.60 eA-3
Q188 0.067 0.984 0.816 !       0.60 eA-3
Q189 0.473 0.829 0.811 !       0.60 eA-3
Q190 0.434 0.983 0.685 !       0.60 eA-3
Q191 0.402 0.687 0.812 !       0.60 eA-3
Q192 0.113 0.745 0.492 !       0.60 eA-3
Q193 0.248 0.615 0.299 !       0.59 eA-3
Q194 0.943 0.097 0.250 !       0.59 eA-3
Q195 0.633 0.408 0.627 !       0.59 eA-3
Q196 0.590 0.265 0.552 !       0.59 eA-3
C197 0.972 0.381 0.246 !       0.59 eA-3
Q198 0.663 0.967 0.842 !       0.58 eA-3
Q199 0.536 0.500 0.048 !       0.58 eA-3
(replace by semicolon in column 1 when used as .sqf)
;
_shelx_shelxl_version_number     2014/7
_olex2_submission_special_instructions 'No special instructions were received'
loop_
_space_group_symop_operation_xyz
'x, y, z'
'-x, -y, -z'
loop_
_atom_site_label
_atom_site_type_symbol
_atom_site_fract_x
_atom_site_fract_y
_atom_site_fract_z
_atom_site_U_iso_or_equiv
_atom_site_adp_type
_atom_site_occupancy
_atom_site_site_symmetry_order
_atom_site_calc_flag
_atom_site_refinement_flags_posn
_atom_site_refinement_flags_adp
_atom_site_refinement_flags_occupancy
_atom_site_disorder_assembly
_atom_site_disorder_group
Cd2 Cd 0.01103(3) 0.28403(2) -0.22962(2) 0.03679(10) Uani 1 1 d . . . . .
Cd1 Cd -0.48495(3) 0.29214(2) 0.27017(2) 0.04045(11) Uani 1 1 d . . . . .
O8 O 0.2258(3) 0.23604(17) 0.08635(17) 0.0509(8) Uani 1 1 d . . . . .
O1 O -0.2476(4) 0.2463(2) 0.2347(2) 0.0795(13) Uani 1 1 d . . . . .
O7 O -0.3463(4) 0.3023(2) 0.1625(2) 0.0808(14) Uani 1 1 d . . . . .
O2 O -0.4326(4) 0.3081(3) 0.36763(19) 0.0876(14) Uani 1 1 d . . . . .
O6 O -0.6373(4) 0.2824(2) 0.3954(2) 0.0780(12) Uani 1 1 d . . . . .
O3 O -0.8642(3) 0.29930(19) 0.65230(18) 0.0593(10) Uani 1 1 d . . . . .
O4 O -0.7568(3) 0.2421(2) 0.72467(18) 0.0612(10) Uani 1 1 d . . . . .
O9 O 0.0448(3) 0.24570(17) -0.12701(16) 0.0536(9) Uani 1 1 d . . . . .
O10 O -0.1644(4) 0.2751(2) -0.0921(2) 0.0834(13) Uani 1 1 d . . . . .
O5 O -0.2831(3) 0.25724(17) 0.59235(17) 0.0514(8) Uani 1 1 d . . . . .
N10 N -0.1758(4) 0.33949(18) -0.2510(2) 0.0442(9) Uani 1 1 d . . . . .
N11 N -0.3189(4) 0.38688(19) -0.3082(2) 0.0438(9) Uani 1 1 d . . . . .
N12 N 0.1101(4) 0.3821(2) -0.2097(2) 0.0528(11) Uani 1 1 d . . . . .
N13 N 0.2377(4) 0.44057(19) -0.1636(2) 0.0467(10) Uani 1 1 d . . . . .
N5 N -0.6247(4) 0.37462(19) 0.2407(2) 0.0498(10) Uani 1 1 d . . . . .
N6 N -0.7523(4) 0.43652(18) 0.1825(2) 0.0482(10) Uani 1 1 d . . . . .
N7 N 0.5621(4) -0.1932(2) -0.2478(2) 0.0490(10) Uani 1 1 d . . . . .
N8 N 0.8049(3) -0.02337(18) -0.1571(2) 0.0440(9) Uani 1 1 d . . . . .
N9 N 1.2473(5) 0.0076(3) -0.1148(4) 0.102(2) Uani 1 1 d . . . . .
N4 N 0.0606(4) -0.17943(19) 0.2589(2) 0.0490(10) Uani 1 1 d . . . . .
N3 N 0.2932(3) -0.00839(19) 0.3544(2) 0.0489(10) Uani 1 1 d . . . . .
N1 N 0.7346(10) 0.0258(7) 0.3922(8) 0.087(3) Uani 0.526(9) 1 d . U P A 2
C70 C -0.1930(4) 0.3669(2) -0.3109(3) 0.0441(11) Uani 1 1 d . . . . .
H70 H -0.1258 0.3720 -0.3507 0.053 Uiso 1 1 calc R . . . .
C78 C -0.2987(5) 0.3397(3) -0.2055(3) 0.0579(14) Uani 1 1 d . . . . .
H78 H -0.3185 0.3234 -0.1590 0.070 Uiso 1 1 calc R . . . .
C77 C -0.3851(5) 0.3692(3) -0.2431(3) 0.0659(16) Uani 1 1 d . . . . .
H77 H -0.4752 0.3757 -0.2261 0.079 Uiso 1 1 calc R . . . .
C71 C -0.3715(5) 0.4202(2) -0.3621(3) 0.0466(11) Uani 1 1 d . . . . .
C72 C -0.5029(5) 0.4283(3) -0.3548(3) 0.0698(17) Uani 1 1 d . . . . .
H72 H -0.5594 0.4125 -0.3138 0.084 Uiso 1 1 calc R . . . .
C73 C -0.5527(5) 0.4602(3) -0.4084(3) 0.0769(18) Uani 1 1 d . . . . .
H73 H -0.6431 0.4665 -0.4023 0.092 Uiso 1 1 calc R . . . .
C74 C -0.4736(5) 0.4831(3) -0.4706(3) 0.0525(13) Uani 1 1 d . . . . .
C75 C -0.3413(6) 0.4734(4) -0.4755(4) 0.105(3) Uani 1 1 d . . . . .
H75 H -0.2836 0.4882 -0.5164 0.126 Uiso 1 1 calc R . . . .
C76 C -0.2909(6) 0.4421(4) -0.4215(3) 0.097(3) Uani 1 1 d . . . . .
H76 H -0.2006 0.4365 -0.4266 0.116 Uiso 1 1 calc R . . . .
C79 C 0.1798(5) 0.3816(2) -0.1626(3) 0.0504(12) Uani 1 1 d . . . . .
H79 H 0.1880 0.3441 -0.1317 0.061 Uiso 1 1 calc R . . . .
C87 C 0.1241(6) 0.4457(3) -0.2446(3) 0.0660(15) Uani 1 1 d . . . . .
H87 H 0.0856 0.4611 -0.2810 0.079 Uiso 1 1 calc R . . . .
C86 C 0.2029(6) 0.4826(3) -0.2176(3) 0.0689(16) Uani 1 1 d . . . . .
H86 H 0.2285 0.5269 -0.2321 0.083 Uiso 1 1 calc R . . . .
C80 C 0.3160(5) 0.4579(2) -0.1183(2) 0.0477(12) Uani 1 1 d . . . . .
C81 C 0.3713(7) 0.4076(3) -0.0819(3) 0.084(2) Uani 1 1 d . . . . .
H81 H 0.3622 0.3618 -0.0884 0.101 Uiso 1 1 calc R . . . .
C82 C 0.4406(7) 0.4241(3) -0.0355(3) 0.082(2) Uani 1 1 d . . . . .
H82 H 0.4749 0.3886 -0.0099 0.099 Uiso 1 1 calc R . . . .
C83 C 0.4621(4) 0.4916(2) -0.0250(3) 0.0481(12) Uani 1 1 d . . . . .
C84 C 0.4098(6) 0.5409(3) -0.0665(3) 0.0657(16) Uani 1 1 d . . . . .
H84 H 0.4249 0.5867 -0.0639 0.079 Uiso 1 1 calc R . . . .
C85 C 0.3370(5) 0.5245(3) -0.1108(3) 0.0613(15) Uani 1 1 d . . . . .
H85 H 0.3011 0.5594 -0.1364 0.074 Uiso 1 1 calc R . . . .
C40 C -0.6777(5) 0.3785(2) 0.1870(3) 0.0580(14) Uani 1 1 d . . . . .
H40 H -0.6651 0.3446 0.1553 0.070 Uiso 1 1 calc R . . . .
C48 C -0.6690(7) 0.4327(3) 0.2737(3) 0.081(2) Uani 1 1 d . . . . .
H48 H -0.6479 0.4448 0.3141 0.097 Uiso 1 1 calc R . . . .
C47 C -0.7481(6) 0.4705(3) 0.2392(3) 0.086(2) Uani 1 1 d . . . . .
H47 H -0.7920 0.5122 0.2518 0.104 Uiso 1 1 calc R . . . .
C41 C -0.8249(5) 0.4561(2) 0.1306(3) 0.0511(12) Uani 1 1 d . . . . .
C42 C -0.8846(8) 0.4080(3) 0.1057(4) 0.105(3) Uani 1 1 d . . . . .
H42 H -0.8799 0.3626 0.1230 0.126 Uiso 1 1 calc R . . . .
C43 C -0.9516(7) 0.4257(3) 0.0552(4) 0.095(2) Uani 1 1 d . . . . .
H43 H -0.9909 0.3914 0.0389 0.114 Uiso 1 1 calc R . . . .
C44 C -0.9637(5) 0.4914(2) 0.0276(3) 0.0478(12) Uani 1 1 d . . . . .
C45 C -0.9039(5) 0.5390(2) 0.0553(3) 0.0569(14) Uani 1 1 d . . . . .
H45 H -0.9115 0.5848 0.0395 0.068 Uiso 1 1 calc R . . . .
C46 C -0.8344(5) 0.5227(2) 0.1043(3) 0.0564(13) Uani 1 1 d . . . . .
H46 H -0.7932 0.5566 0.1201 0.068 Uiso 1 1 calc R . . . .
C60 C 0.6877(5) -0.1832(2) -0.2515(3) 0.0536(13) Uani 1 1 d . . . . .
H60 H 0.7506 -0.2156 -0.2728 0.064 Uiso 1 1 calc R . . . .
C59 C 0.7296(4) -0.1278(2) -0.2258(3) 0.0506(13) Uani 1 1 d . . . . .
H59 H 0.8187 -0.1233 -0.2305 0.061 Uiso 1 1 calc R . . . .
C58 C 0.6399(4) -0.0790(2) -0.1933(2) 0.0405(10) Uani 1 1 d . . . . .
C62 C 0.5109(5) -0.0880(3) -0.1923(4) 0.081(2) Uani 1 1 d . . . . .
H62 H 0.4462 -0.0554 -0.1731 0.097 Uiso 1 1 calc R . . . .
C61 C 0.4771(5) -0.1442(3) -0.2192(4) 0.081(2) Uani 1 1 d . . . . .
H61 H 0.3889 -0.1484 -0.2174 0.097 Uiso 1 1 calc R . . . .
C57 C 0.6784(4) -0.0224(2) -0.1581(2) 0.0428(11) Uani 1 1 d . . . . .
C56 C 0.5862(4) 0.0261(2) -0.1242(2) 0.0418(11) Uani 1 1 d . . . . .
H56 H 0.4999 0.0269 -0.1285 0.050 Uiso 1 1 calc R . . . .
C55 C 0.6224(4) 0.0730(2) -0.0842(2) 0.0388(10) Uani 1 1 d . . . . .
C69 C 0.7537(4) 0.0725(2) -0.0846(3) 0.0450(11) Uani 1 1 d . . . . .
H69 H 0.7834 0.1044 -0.0603 0.054 Uiso 1 1 calc R . . . .
C63 C 0.8419(4) 0.0242(2) -0.1214(3) 0.0444(11) Uani 1 1 d . . . . .
C66 C 1.1797(6) 0.0672(3) -0.1146(4) 0.084(2) Uani 1 1 d . . . . .
H66 H 1.2236 0.1064 -0.1130 0.101 Uiso 1 1 calc R . . . .
C65 C 1.0514(5) 0.0757(3) -0.1164(3) 0.0617(15) Uani 1 1 d . . . . .
H65 H 1.0104 0.1194 -0.1156 0.074 Uiso 1 1 calc R . . . .
C64 C 0.9815(5) 0.0191(3) -0.1194(3) 0.0541(13) Uani 1 1 d . . . . .
C68 C 1.0507(5) -0.0443(3) -0.1197(4) 0.077(2) Uani 1 1 d . . . . .
H68 H 1.0095 -0.0842 -0.1221 0.093 Uiso 1 1 calc R . . . .
C67 C 1.1795(6) -0.0476(4) -0.1166(5) 0.102(3) Uani 1 1 d . . . . .
H67 H 1.2227 -0.0907 -0.1155 0.123 Uiso 1 1 calc R . . . .
C52 C 0.5222(4) 0.1176(2) -0.0412(2) 0.0399(10) Uani 1 1 d . . . . .
C51 C 0.5459(4) 0.1813(2) -0.0210(3) 0.0510(13) Uani 1 1 d . . . . .
H51 H 0.6295 0.1978 -0.0355 0.061 Uiso 1 1 calc R . . . .
C50 C 0.4467(5) 0.2204(2) 0.0204(3) 0.0549(14) Uani 1 1 d . . . . .
H50 H 0.4633 0.2634 0.0325 0.066 Uiso 1 1 calc R . . . .
C49 C 0.3239(5) 0.1957(2) 0.0436(2) 0.0455(11) Uani 1 1 d . . . . .
C54 C 0.2972(4) 0.1325(2) 0.0259(2) 0.0454(11) Uani 1 1 d . . . . .
H54 H 0.2139 0.1160 0.0417 0.054 Uiso 1 1 calc R . . . .
C53 C 0.3960(4) 0.0941(2) -0.0157(3) 0.0492(12) Uani 1 1 d . . . . .
H53 H 0.3784 0.0511 -0.0271 0.059 Uiso 1 1 calc R . . . .
C5 C -0.0051(5) 0.2472(2) 0.1292(2) 0.0443(11) Uani 1 1 d . . . . .
H5 H 0.0064 0.2428 0.1745 0.053 Uiso 1 1 calc R . . . .
C4 C 0.1020(4) 0.2409(2) 0.0718(2) 0.0376(10) Uani 1 1 d . . . . .
C3 C 0.0837(4) 0.2436(2) 0.0045(2) 0.0376(10) Uani 1 1 d . . . . .
H3 H 0.1554 0.2381 -0.0329 0.045 Uiso 1 1 calc R . . . .
C2 C -0.0411(4) 0.2543(2) -0.0068(2) 0.0378(10) Uani 1 1 d . . . . .
C7 C -0.1467(4) 0.2646(2) 0.0473(2) 0.0421(11) Uani 1 1 d . . . . .
H7 H -0.2296 0.2743 0.0389 0.050 Uiso 1 1 calc R . . . .
C6 C -0.1297(5) 0.2603(2) 0.1160(3) 0.0458(12) Uani 1 1 d . . . . .
C8 C -0.2489(5) 0.2702(3) 0.1764(3) 0.0531(13) Uani 1 1 d . . . . .
C36 C 0.1856(5) -0.1683(2) 0.2551(3) 0.0491(12) Uani 1 1 d . . . . .
H36 H 0.2499 -0.1989 0.2320 0.059 Uiso 1 1 calc R . . . .
C35 C 0.2244(5) -0.1138(2) 0.2838(3) 0.0499(12) Uani 1 1 d . . . . .
H35 H 0.3130 -0.1080 0.2794 0.060 Uiso 1 1 calc R . . . .
C34 C 0.1314(4) -0.0677(2) 0.3192(2) 0.0432(11) Uani 1 1 d . . . . .
C38 C 0.0020(5) -0.0784(3) 0.3203(4) 0.077(2) Uani 1 1 d . . . . .
H38 H -0.0649 -0.0481 0.3419 0.092 Uiso 1 1 calc R . . . .
C37 C -0.0271(5) -0.1343(3) 0.2893(4) 0.082(2) Uani 1 1 d . . . . .
H37 H -0.1145 -0.1400 0.2903 0.099 Uiso 1 1 calc R . . . .
C33 C 0.1673(4) -0.0107(2) 0.3553(3) 0.0448(11) Uani 1 1 d . . . . .
C39 C 0.0721(4) 0.0343(2) 0.3929(2) 0.0441(11) Uani 1 1 d . . . . .
H39 H -0.0153 0.0318 0.3918 0.053 Uiso 1 1 calc R . . . .
C23 C 0.1072(4) 0.0830(2) 0.4320(3) 0.0437(11) Uani 1 1 d . . . . .
C24 C 0.2387(4) 0.0846(2) 0.4302(3) 0.0540(14) Uani 1 1 d . . . . .
H24 H 0.2673 0.1157 0.4557 0.065 Uiso 1 1 calc R . . . .
C25 C 0.3288(5) 0.0395(3) 0.3900(3) 0.0558(14) Uani 1 1 d . . . . .
C29 C 0.6748(12) -0.0299(8) 0.3883(9) 0.093(4) Uani 0.526(9) 1 d . U P A 2
H29 H 0.7236 -0.0715 0.3833 0.111 Uiso 0.526(9) 1 calc R . P A 2
C30 C 0.5390(11) -0.0289(7) 0.3915(8) 0.075(3) Uani 0.526(9) 1 d . U P A 2
H30 H 0.4941 -0.0690 0.3974 0.089 Uiso 0.526(9) 1 calc R . P A 2
C26 C 0.4705(5) 0.0416(3) 0.3847(4) 0.0780(19) Uani 1 1 d . U . . .
C27 C 0.5294(5) 0.0975(3) 0.3975(3) 0.0685(16) Uani 1 1 d . U . . .
H27 H 0.4783 0.1370 0.4112 0.082 Uiso 1 1 calc R . . . .
C28 C 0.6614(7) 0.0965(4) 0.3906(4) 0.095(2) Uani 1 1 d . U . . .
H28A H 0.7053 0.1369 0.3852 0.114 Uiso 0.526(9) 1 calc R . P A 2
H28 H 0.686(13) 0.140(7) 0.411(7) 0.114 Uiso 0.474(9) 1 d R . P A 1
C20 C 0.0062(5) 0.1287(2) 0.4751(2) 0.0441(11) Uani 1 1 d . . . . .
C19 C 0.0344(5) 0.1912(3) 0.4952(3) 0.0674(18) Uani 1 1 d . . . . .
H19 H 0.1201 0.2049 0.4821 0.081 Uiso 1 1 calc R . . . .
C18 C -0.0615(5) 0.2337(3) 0.5343(3) 0.0677(17) Uani 1 1 d . . . . .
H18 H -0.0404 0.2751 0.5477 0.081 Uiso 1 1 calc R . . . .
C17 C -0.1880(4) 0.2138(2) 0.5528(2) 0.0452(11) Uani 1 1 d . . . . .
C22 C -0.2193(5) 0.1519(2) 0.5360(2) 0.0474(12) Uani 1 1 d . . . . .
H22 H -0.3048 0.1380 0.5504 0.057 Uiso 1 1 calc R . . . .
C21 C -0.1215(5) 0.1098(2) 0.4969(3) 0.0480(12) Uani 1 1 d . . . . .
H21 H -0.1429 0.0677 0.4852 0.058 Uiso 1 1 calc R . . . .
C11 C -0.4095(4) 0.2766(2) 0.5051(2) 0.0479(12) Uani 1 1 d . . . . .
H11 H -0.3328 0.2798 0.4704 0.057 Uiso 1 1 calc R . . . .
C12 C -0.4031(4) 0.2640(2) 0.5744(2) 0.0424(11) Uani 1 1 d . . . . .
C13 C -0.5153(5) 0.2611(2) 0.6252(2) 0.0469(12) Uani 1 1 d . . . . .
H13 H -0.5102 0.2526 0.6713 0.056 Uiso 1 1 calc R . . . .
C14 C -0.6364(5) 0.2707(2) 0.6095(2) 0.0437(11) Uani 1 1 d . . . . .
C15 C -0.7607(5) 0.2706(3) 0.6654(3) 0.0511(13) Uani 1 1 d . . . . .
C16 C -0.6436(4) 0.2818(2) 0.5411(2) 0.0472(12) Uani 1 1 d . . . . .
H16 H -0.7251 0.2877 0.5301 0.057 Uiso 1 1 calc R . . . .
C10 C -0.5295(5) 0.2843(2) 0.4879(2) 0.0473(12) Uani 1 1 d . . . . .
C9 C -0.5362(5) 0.2922(3) 0.4131(3) 0.0491(12) Uani 1 1 d . . . . .
C1 C -0.0571(5) 0.2589(2) -0.0809(3) 0.0459(11) Uani 1 1 d . . . . .
N2 N 0.7487(10) 0.0618(7) 0.3461(8) 0.077(3) Uani 0.474(9) 1 d . U P A 1
C31 C 0.6946(13) 0.0095(8) 0.3274(9) 0.086(4) Uani 0.474(9) 1 d . U P A 1
H31 H 0.7513 -0.0244 0.3043 0.103 Uiso 0.474(9) 1 calc R . P A 1
C32 C 0.5616(12) 0.0004(7) 0.3391(8) 0.067(4) Uani 0.474(9) 1 d . U P A 1
H32 H 0.5324 -0.0331 0.3166 0.080 Uiso 0.474(9) 1 calc R . P A 1
loop_
_atom_site_aniso_label
_atom_site_aniso_U_11
_atom_site_aniso_U_22
_atom_site_aniso_U_33
_atom_site_aniso_U_23
_atom_site_aniso_U_13
_atom_site_aniso_U_12
Cd2 0.03222(18) 0.0448(2) 0.03521(19) -0.01299(14) -0.00862(14) -0.00061(13)
Cd1 0.0397(2) 0.0474(2) 0.03287(19) -0.00869(14) -0.00473(15) 0.00066(14)
O8 0.0435(19) 0.063(2) 0.047(2) -0.0211(16) -0.0110(16) 0.0104(15)
O1 0.058(2) 0.134(4) 0.039(2) -0.017(2) 0.0063(19) -0.006(2)
O7 0.055(3) 0.087(3) 0.074(3) 0.013(2) 0.023(2) 0.024(2)
O2 0.054(2) 0.169(4) 0.040(2) -0.022(2) -0.0055(19) -0.009(3)
O6 0.061(3) 0.128(4) 0.051(2) -0.008(2) -0.022(2) -0.009(2)
O3 0.041(2) 0.083(3) 0.050(2) -0.0187(18) 0.0025(17) -0.0059(18)
O4 0.048(2) 0.087(3) 0.042(2) -0.0100(19) 0.0036(17) -0.0023(18)
O9 0.063(2) 0.066(2) 0.0301(17) -0.0090(15) -0.0047(16) -0.0070(17)
O10 0.062(3) 0.132(4) 0.061(3) -0.002(2) -0.030(2) 0.007(2)
O5 0.0414(19) 0.067(2) 0.050(2) -0.0304(16) -0.0143(16) 0.0090(15)
N10 0.037(2) 0.048(2) 0.051(2) -0.0159(18) -0.0137(18) 0.0040(17)
N11 0.034(2) 0.048(2) 0.051(2) -0.0083(18) -0.0107(18) 0.0027(17)
N12 0.054(3) 0.054(3) 0.056(3) -0.012(2) -0.019(2) -0.010(2)
N13 0.050(2) 0.047(2) 0.046(2) -0.0075(18) -0.0133(19) -0.0098(18)
N5 0.057(3) 0.048(2) 0.046(2) -0.0123(18) -0.015(2) 0.0108(19)
N6 0.056(3) 0.038(2) 0.053(3) -0.0106(18) -0.015(2) 0.0046(18)
N7 0.034(2) 0.053(2) 0.062(3) -0.019(2) -0.0105(19) 0.0015(17)
N8 0.029(2) 0.042(2) 0.062(3) -0.0115(18) -0.0102(18) -0.0005(16)
N9 0.039(3) 0.087(4) 0.194(7) -0.063(4) -0.042(4) 0.008(3)
N4 0.045(2) 0.044(2) 0.063(3) -0.0198(19) -0.020(2) 0.0026(18)
N3 0.029(2) 0.047(2) 0.076(3) -0.026(2) -0.0176(19) 0.0047(16)
N1 0.051(5) 0.102(6) 0.115(8) -0.026(6) -0.028(5) -0.012(4)
C70 0.039(3) 0.048(3) 0.048(3) -0.013(2) -0.013(2) 0.002(2)
C78 0.036(3) 0.067(3) 0.067(4) -0.003(3) -0.006(3) 0.004(2)
C77 0.035(3) 0.080(4) 0.078(4) -0.001(3) -0.008(3) 0.011(3)
C71 0.043(3) 0.048(3) 0.052(3) -0.007(2) -0.017(2) 0.001(2)
C72 0.041(3) 0.104(5) 0.056(4) 0.010(3) -0.004(3) 0.014(3)
C73 0.033(3) 0.106(5) 0.086(5) 0.002(4) -0.013(3) 0.020(3)
C74 0.042(3) 0.060(3) 0.060(4) -0.003(3) -0.021(2) -0.004(2)
C75 0.048(4) 0.178(8) 0.083(5) 0.053(5) -0.023(3) -0.012(4)
C76 0.039(3) 0.177(8) 0.071(5) 0.037(5) -0.019(3) -0.011(4)
C79 0.056(3) 0.046(3) 0.055(3) -0.005(2) -0.021(3) -0.014(2)
C87 0.078(4) 0.053(3) 0.076(4) -0.004(3) -0.035(3) -0.005(3)
C86 0.083(4) 0.049(3) 0.084(4) 0.000(3) -0.036(4) -0.015(3)
C80 0.051(3) 0.049(3) 0.043(3) -0.013(2) -0.005(2) -0.011(2)
C81 0.134(6) 0.038(3) 0.107(5) -0.011(3) -0.075(5) -0.015(3)
C82 0.133(6) 0.047(3) 0.093(5) -0.001(3) -0.076(4) -0.018(3)
C83 0.046(3) 0.043(3) 0.055(3) -0.009(2) -0.008(2) -0.012(2)
C84 0.086(4) 0.044(3) 0.076(4) -0.006(3) -0.031(3) -0.021(3)
C85 0.075(4) 0.048(3) 0.071(4) 0.000(3) -0.035(3) -0.015(3)
C40 0.073(4) 0.042(3) 0.059(3) -0.019(2) -0.016(3) 0.019(2)
C48 0.123(6) 0.056(4) 0.079(4) -0.033(3) -0.056(4) 0.031(3)
C47 0.117(6) 0.064(4) 0.094(5) -0.052(4) -0.055(4) 0.043(3)
C41 0.054(3) 0.038(3) 0.063(3) -0.009(2) -0.017(3) 0.006(2)
C42 0.165(7) 0.034(3) 0.157(7) 0.010(4) -0.117(6) -0.019(4)
C43 0.144(7) 0.037(3) 0.142(7) 0.006(3) -0.106(6) -0.016(3)
C44 0.053(3) 0.028(2) 0.061(3) -0.005(2) -0.010(2) 0.001(2)
C45 0.074(4) 0.032(3) 0.065(4) 0.000(2) -0.020(3) -0.002(2)
C46 0.075(4) 0.036(3) 0.065(4) -0.002(2) -0.029(3) -0.005(2)
C60 0.042(3) 0.055(3) 0.058(3) -0.018(2) -0.001(2) 0.008(2)
C59 0.031(2) 0.052(3) 0.066(3) -0.015(2) -0.003(2) 0.000(2)
C58 0.029(2) 0.041(2) 0.053(3) -0.010(2) -0.010(2) 0.0020(18)
C62 0.032(3) 0.074(4) 0.142(6) -0.062(4) -0.013(3) 0.003(3)
C61 0.031(3) 0.080(4) 0.143(6) -0.059(4) -0.029(3) 0.007(3)
C57 0.032(2) 0.043(3) 0.054(3) -0.009(2) -0.009(2) -0.0015(19)
C56 0.028(2) 0.044(3) 0.054(3) -0.006(2) -0.010(2) 0.0016(18)
C55 0.031(2) 0.040(2) 0.046(3) -0.0039(19) -0.011(2) -0.0005(18)
C69 0.034(2) 0.040(3) 0.061(3) -0.008(2) -0.012(2) 0.0017(19)
C63 0.029(2) 0.046(3) 0.059(3) -0.010(2) -0.011(2) -0.0002(19)
C66 0.045(3) 0.071(4) 0.148(7) -0.037(4) -0.036(4) -0.007(3)
C65 0.042(3) 0.051(3) 0.099(5) -0.026(3) -0.023(3) -0.002(2)
C64 0.032(3) 0.053(3) 0.078(4) -0.024(3) -0.012(2) 0.006(2)
C68 0.038(3) 0.056(3) 0.140(6) -0.029(4) -0.017(3) -0.003(2)
C67 0.040(3) 0.086(5) 0.190(8) -0.057(5) -0.035(4) 0.019(3)
C52 0.033(2) 0.038(2) 0.051(3) -0.004(2) -0.015(2) 0.0023(18)
C51 0.034(3) 0.052(3) 0.067(3) -0.014(2) -0.008(2) -0.008(2)
C50 0.046(3) 0.043(3) 0.078(4) -0.023(3) -0.013(3) -0.001(2)
C49 0.046(3) 0.047(3) 0.043(3) -0.009(2) -0.009(2) 0.010(2)
C54 0.033(2) 0.047(3) 0.053(3) -0.002(2) -0.003(2) -0.002(2)
C53 0.038(3) 0.041(3) 0.070(3) -0.013(2) -0.014(2) 0.006(2)
C5 0.054(3) 0.037(2) 0.039(3) -0.0104(19) -0.003(2) 0.005(2)
C4 0.033(2) 0.038(2) 0.039(3) -0.0071(18) -0.0023(19) 0.0046(18)
C3 0.038(2) 0.035(2) 0.034(2) -0.0079(18) 0.0029(19) 0.0006(18)
C2 0.041(3) 0.034(2) 0.037(2) -0.0046(18) -0.005(2) -0.0040(18)
C7 0.037(2) 0.039(2) 0.048(3) -0.005(2) -0.006(2) 0.0007(19)
C6 0.041(3) 0.036(2) 0.054(3) -0.009(2) 0.003(2) -0.0016(19)
C8 0.047(3) 0.052(3) 0.051(3) -0.011(2) 0.010(3) -0.004(2)
C36 0.040(3) 0.045(3) 0.061(3) -0.023(2) -0.004(2) -0.002(2)
C35 0.038(3) 0.050(3) 0.063(3) -0.019(2) -0.008(2) -0.002(2)
C34 0.039(3) 0.039(2) 0.055(3) -0.015(2) -0.015(2) -0.0015(19)
C38 0.041(3) 0.065(4) 0.136(6) -0.062(4) -0.032(3) 0.019(3)
C37 0.041(3) 0.073(4) 0.149(6) -0.071(4) -0.040(4) 0.012(3)
C33 0.036(3) 0.037(2) 0.066(3) -0.018(2) -0.019(2) 0.0039(19)
C39 0.032(2) 0.043(3) 0.062(3) -0.012(2) -0.017(2) -0.0012(19)
C23 0.037(3) 0.040(2) 0.057(3) -0.015(2) -0.013(2) -0.0019(19)
C24 0.037(3) 0.053(3) 0.082(4) -0.036(3) -0.025(3) 0.003(2)
C25 0.036(3) 0.055(3) 0.085(4) -0.029(3) -0.024(3) 0.003(2)
C29 0.056(5) 0.100(6) 0.130(9) -0.038(7) -0.027(6) 0.002(5)
C30 0.050(5) 0.078(5) 0.107(8) -0.034(6) -0.031(6) -0.002(4)
C26 0.043(3) 0.092(4) 0.111(5) -0.061(4) -0.027(3) 0.010(3)
C27 0.046(3) 0.078(3) 0.087(4) -0.028(3) -0.017(3) -0.009(3)
C28 0.056(3) 0.116(5) 0.125(6) -0.051(4) -0.029(4) -0.007(3)
C20 0.044(3) 0.042(3) 0.050(3) -0.014(2) -0.017(2) 0.001(2)
C19 0.031(3) 0.061(3) 0.111(5) -0.044(3) -0.007(3) -0.001(2)
C18 0.050(3) 0.061(3) 0.098(5) -0.047(3) -0.017(3) -0.002(3)
C17 0.037(3) 0.053(3) 0.048(3) -0.015(2) -0.013(2) 0.006(2)
C22 0.039(3) 0.055(3) 0.051(3) -0.013(2) -0.011(2) -0.004(2)
C21 0.046(3) 0.041(3) 0.061(3) -0.014(2) -0.016(2) -0.003(2)
C11 0.036(3) 0.063(3) 0.042(3) -0.019(2) -0.001(2) 0.004(2)
C12 0.039(3) 0.047(3) 0.043(3) -0.019(2) -0.010(2) 0.002(2)
C13 0.050(3) 0.059(3) 0.029(2) -0.017(2) -0.002(2) 0.002(2)
C14 0.045(3) 0.054(3) 0.031(2) -0.012(2) -0.002(2) -0.004(2)
C15 0.043(3) 0.059(3) 0.049(3) -0.026(2) 0.001(2) -0.006(2)
C16 0.036(3) 0.059(3) 0.047(3) -0.016(2) -0.006(2) -0.001(2)
C10 0.049(3) 0.053(3) 0.039(3) -0.019(2) -0.006(2) 0.003(2)
C9 0.044(3) 0.062(3) 0.041(3) -0.015(2) -0.009(2) 0.006(2)
C1 0.057(3) 0.038(3) 0.047(3) 0.000(2) -0.017(3) -0.011(2)
N2 0.043(5) 0.090(7) 0.106(8) -0.026(6) -0.029(5) 0.001(4)
C31 0.051(5) 0.092(7) 0.117(9) -0.040(7) -0.018(6) 0.011(5)
C32 0.050(5) 0.071(7) 0.086(8) -0.035(6) -0.026(5) 0.012(5)
loop_
_atom_type_symbol
_atom_type_description
_atom_type_scat_dispersion_real
_atom_type_scat_dispersion_imag
_atom_type_scat_source
C C 0.0030 0.0020 'International Tables Vol C Tables 4.2.6.8 and 6.1.1.4'
H H 0.0000 0.0000 'International Tables Vol C Tables 4.2.6.8 and 6.1.1.4'
Cd Cd -0.8080 1.2020 'International Tables Vol C Tables 4.2.6.8 and 6.1.1.4'
N N 0.0060 0.0030 'International Tables Vol C Tables 4.2.6.8 and 6.1.1.4'
O O 0.0110 0.0060 'International Tables Vol C Tables 4.2.6.8 and 6.1.1.4'
loop_
_geom_angle_atom_site_label_1
_geom_angle_atom_site_label_2
_geom_angle_atom_site_label_3
_geom_angle
_geom_angle_site_symmetry_1
_geom_angle_site_symmetry_3
O3 Cd2 O4 53.84(13) 1_654 1_654
O3 Cd2 C15 26.83(15) 1_654 1_654
O4 Cd2 C15 27.06(14) 1_654 1_654
O9 Cd2 O3 138.13(13) . 1_654
O9 Cd2 O4 84.62(13) . 1_654
O9 Cd2 N10 126.78(13) . .
O9 Cd2 N12 84.02(14) . .
O9 Cd2 N4 96.79(13) . 2
O9 Cd2 C15 111.38(16) . 1_654
N10 Cd2 O3 94.69(14) . 1_654
N10 Cd2 O4 148.52(13) . 1_654
N10 Cd2 N12 96.84(14) . .
N10 Cd2 N4 88.96(13) . 2
N10 Cd2 C15 121.50(16) . 1_654
N12 Cd2 O3 85.65(13) . 1_654
N12 Cd2 O4 82.81(13) . 1_654
N12 Cd2 N4 172.14(13) . 2
N12 Cd2 C15 82.26(13) . 1_654
N4 Cd2 O3 88.60(13) 2 1_654
N4 Cd2 O4 89.48(13) 2 1_654
N4 Cd2 C15 90.20(13) 2 1_654
O1 Cd1 O6 126.12(13) . .
O1 Cd1 C8 26.16(15) . .
O1 Cd1 C9 104.24(14) . .
O7 Cd1 O1 52.59(14) . .
O7 Cd1 O6 177.87(15) . .
O7 Cd1 C8 26.44(16) . .
O7 Cd1 C9 151.67(17) . .
O2 Cd1 O1 83.13(14) . .
O2 Cd1 O7 124.86(16) . .
O2 Cd1 O6 53.04(13) . .
O2 Cd1 N5 113.20(16) . .
O2 Cd1 N7 123.59(17) . 2
O2 Cd1 C8 104.76(16) . .
O2 Cd1 C9 26.95(13) . .
O6 Cd1 C8 152.27(17) . .
O6 Cd1 C9 26.26(12) . .
N5 Cd1 O1 141.63(14) . .
N5 Cd1 O7 91.82(14) . .
N5 Cd1 O6 88.95(14) . .
N5 Cd1 N7 104.39(15) . 2
N5 Cd1 C8 117.33(16) . .
N5 Cd1 C9 103.90(14) . .
N7 Cd1 O1 92.65(14) 2 .
N7 Cd1 O7 92.96(15) 2 .
N7 Cd1 O6 88.77(14) 2 .
N7 Cd1 C8 92.67(14) 2 .
N7 Cd1 C9 105.42(15) 2 .
C8 Cd1 C9 128.96(17) . .
C4 O8 C49 117.0(3) . .
C8 O1 Cd1 86.5(3) . .
C8 O7 Cd1 98.4(3) . .
C9 O2 Cd1 102.4(3) . .
C9 O6 Cd1 83.2(3) . .
C15 O3 Cd2 93.9(3) . 1_456
C15 O4 Cd2 89.4(3) . 1_456
C1 O9 Cd2 108.8(3) . .
C12 O5 C17 115.8(3) . .
C70 N10 Cd2 127.0(3) . .
C70 N10 C78 106.6(4) . .
C78 N10 Cd2 125.5(3) . .
C70 N11 C77 105.8(4) . .
C70 N11 C71 127.4(4) . .
C77 N11 C71 126.8(4) . .
C79 N12 Cd2 122.2(3) . .
C79 N12 C87 105.4(4) . .
C87 N12 Cd2 132.0(3) . .
C79 N13 C86 105.6(4) . .
C79 N13 C80 127.5(4) . .
C86 N13 C80 126.9(4) . .
C40 N5 Cd1 127.9(3) . .
C40 N5 C48 105.0(4) . .
C48 N5 Cd1 127.1(4) . .
C40 N6 C47 104.9(5) . .
C40 N6 C41 127.0(4) . .
C47 N6 C41 128.1(4) . .
C60 N7 Cd1 125.0(3) . 2
C61 N7 Cd1 118.7(3) . 2
C61 N7 C60 115.5(4) . .
C57 N8 C63 117.6(4) . .
C66 N9 C67 115.2(5) . .
C36 N4 Cd2 123.7(3) . 2
C37 N4 Cd2 118.7(3) . 2
C37 N4 C36 116.9(4) . .
C33 N3 C25 118.2(4) . .
C29 N1 C28 120.0(10) . .
N10 C70 N11 112.3(4) . .
N10 C70 H70 123.9 . .
N11 C70 H70 123.9 . .
N10 C78 H78 127.0 . .
C77 C78 N10 106.0(5) . .
C77 C78 H78 127.0 . .
N11 C77 C78 109.3(4) . .
N11 C77 H77 125.4 . .
C78 C77 H77 125.4 . .
C72 C71 N11 120.4(5) . .
C76 C71 N11 119.7(5) . .
C76 C71 C72 119.9(5) . .
C71 C72 H72 120.2 . .
C71 C72 C73 119.6(5) . .
C73 C72 H72 120.2 . .
C72 C73 H73 118.7 . .
C74 C73 C72 122.5(5) . .
C74 C73 H73 118.7 . .
C73 C74 C74 123.0(6) . 2_464
C75 C74 C73 115.5(5) . .
C75 C74 C74 121.5(6) . 2_464
C74 C75 H75 118.9 . .
C74 C75 C76 122.2(6) . .
C76 C75 H75 118.9 . .
C71 C76 C75 120.2(6) . .
C71 C76 H76 119.9 . .
C75 C76 H76 119.9 . .
N12 C79 N13 113.1(5) . .
N12 C79 H79 123.5 . .
N13 C79 H79 123.5 . .
N12 C87 H87 125.2 . .
C86 C87 N12 109.7(5) . .
C86 C87 H87 125.2 . .
N13 C86 H86 126.9 . .
C87 C86 N13 106.3(5) . .
C87 C86 H86 126.9 . .
C81 C80 N13 120.0(4) . .
C81 C80 C85 118.7(5) . .
C85 C80 N13 121.3(5) . .
C80 C81 H81 119.9 . .
C80 C81 C82 120.2(5) . .
C82 C81 H81 119.9 . .
C81 C82 H82 118.5 . .
C81 C82 C83 122.9(5) . .
C83 C82 H82 118.5 . .
C82 C83 C83 122.3(6) . 2_665
C84 C83 C82 114.5(5) . .
C84 C83 C83 123.2(5) . 2_665
C83 C84 H84 118.8 . .
C85 C84 C83 122.4(5) . .
C85 C84 H84 118.8 . .
C80 C85 C84 121.1(5) . .
C80 C85 H85 119.5 . .
C84 C85 H85 119.5 . .
N5 C40 N6 113.0(4) . .
N5 C40 H40 123.5 . .
N6 C40 H40 123.5 . .
N5 C48 H48 125.2 . .
C47 C48 N5 109.5(5) . .
C47 C48 H48 125.2 . .
N6 C47 H47 126.2 . .
C48 C47 N6 107.6(5) . .
C48 C47 H47 126.2 . .
C42 C41 N6 119.8(5) . .
C42 C41 C46 118.4(5) . .
C46 C41 N6 121.8(4) . .
C41 C42 H42 119.8 . .
C41 C42 C43 120.4(5) . .
C43 C42 H42 119.8 . .
C42 C43 H43 118.4 . .
C42 C43 C44 123.2(5) . .
C44 C43 H43 118.4 . .
C43 C44 C44 121.7(5) . 2_365
C43 C44 C45 114.6(5) . .
C45 C44 C44 123.7(5) . 2_365
C44 C45 H45 118.3 . .
C46 C45 C44 123.4(5) . .
C46 C45 H45 118.3 . .
C41 C46 H46 120.0 . .
C45 C46 C41 120.0(5) . .
C45 C46 H46 120.0 . .
N7 C60 H60 118.1 . .
N7 C60 C59 123.8(4) . .
C59 C60 H60 118.1 . .
C60 C59 H59 119.9 . .
C60 C59 C58 120.2(4) . .
C58 C59 H59 119.9 . .
C59 C58 C57 122.3(4) . .
C62 C58 C59 115.7(4) . .
C62 C58 C57 121.9(4) . .
C58 C62 H62 119.7 . .
C61 C62 C58 120.6(5) . .
C61 C62 H62 119.7 . .
N7 C61 C62 124.1(5) . .
N7 C61 H61 117.9 . .
C62 C61 H61 117.9 . .
N8 C57 C58 115.8(4) . .
N8 C57 C56 122.3(4) . .
C56 C57 C58 121.8(4) . .
C57 C56 H56 119.8 . .
C55 C56 C57 120.4(4) . .
C55 C56 H56 119.8 . .
C56 C55 C52 120.2(4) . .
C69 C55 C56 116.8(4) . .
C69 C55 C52 122.9(4) . .
C55 C69 H69 120.0 . .
C55 C69 C63 119.9(4) . .
C63 C69 H69 120.0 . .
N8 C63 C69 122.8(4) . .
N8 C63 C64 115.4(4) . .
C69 C63 C64 121.6(4) . .
N9 C66 H66 117.4 . .
N9 C66 C65 125.1(5) . .
C65 C66 H66 117.4 . .
C66 C65 H65 120.0 . .
C66 C65 C64 119.9(5) . .
C64 C65 H65 120.0 . .
C65 C64 C63 123.0(4) . .
C65 C64 C68 116.0(5) . .
C68 C64 C63 121.0(4) . .
C64 C68 H68 120.1 . .
C67 C68 C64 119.7(5) . .
C67 C68 H68 120.1 . .
N9 C67 C68 124.0(6) . .
N9 C67 H67 118.0 . .
C68 C67 H67 118.0 . .
C51 C52 C55 124.1(4) . .
C51 C52 C53 117.2(4) . .
C53 C52 C55 118.7(4) . .
C52 C51 H51 119.5 . .
C50 C51 C52 120.9(4) . .
C50 C51 H51 119.5 . .
C51 C50 H50 120.1 . .
C49 C50 C51 119.9(4) . .
C49 C50 H50 120.1 . .
C50 C49 O8 118.6(4) . .
C50 C49 C54 120.9(4) . .
C54 C49 O8 120.5(4) . .
C49 C54 H54 120.5 . .
C49 C54 C53 118.9(4) . .
C53 C54 H54 120.5 . .
C52 C53 H53 118.9 . .
C54 C53 C52 122.1(4) . .
C54 C53 H53 118.9 . .
C4 C5 H5 121.2 . .
C6 C5 H5 121.2 . .
C6 C5 C4 117.6(4) . .
O8 C4 C5 116.1(4) . .
C3 C4 O8 122.8(4) . .
C3 C4 C5 121.0(4) . .
C4 C3 H3 120.0 . .
C2 C3 C4 119.9(4) . .
C2 C3 H3 120.0 . .
C3 C2 C1 118.5(4) . .
C7 C2 C3 120.8(4) . .
C7 C2 C1 120.6(4) . .
C2 C7 H7 120.1 . .
C2 C7 C6 119.7(4) . .
C6 C7 H7 120.1 . .
C5 C6 C7 120.7(4) . .
C5 C6 C8 119.8(5) . .
C7 C6 C8 119.4(5) . .
O1 C8 Cd1 67.3(3) . .
O1 C8 O7 122.5(5) . .
O1 C8 C6 120.9(5) . .
O7 C8 Cd1 55.2(3) . .
O7 C8 C6 116.7(5) . .
C6 C8 Cd1 171.4(4) . .
N4 C36 H36 118.3 . .
N4 C36 C35 123.4(4) . .
C35 C36 H36 118.3 . .
C36 C35 H35 120.1 . .
C36 C35 C34 119.8(4) . .
C34 C35 H35 120.1 . .
C35 C34 C38 116.2(4) . .
C35 C34 C33 122.1(4) . .
C38 C34 C33 121.8(4) . .
C34 C38 H38 120.2 . .
C37 C38 C34 119.7(5) . .
C37 C38 H38 120.2 . .
N4 C37 C38 123.9(5) . .
N4 C37 H37 118.0 . .
C38 C37 H37 118.0 . .
N3 C33 C34 116.2(4) . .
N3 C33 C39 121.9(4) . .
C39 C33 C34 121.7(4) . .
C33 C39 H39 119.7 . .
C23 C39 C33 120.6(4) . .
C23 C39 H39 119.7 . .
C39 C23 C20 121.0(4) . .
C24 C23 C39 116.5(4) . .
C24 C23 C20 122.4(4) . .
C23 C24 H24 120.0 . .
C23 C24 C25 120.0(4) . .
C25 C24 H24 120.0 . .
N3 C25 C24 122.8(4) . .
N3 C25 C26 115.8(4) . .
C24 C25 C26 121.4(4) . .
N1 C29 H29 118.8 . .
N1 C29 C30 122.5(12) . .
C30 C29 H29 118.8 . .
C29 C30 H30 122.0 . .
C29 C30 C26 116.1(10) . .
C26 C30 H30 122.0 . .
C25 C26 C30 113.6(6) . .
C27 C26 C25 124.1(5) . .
C27 C26 C30 118.4(6) . .
C27 C26 C32 109.7(7) . .
C32 C26 C25 121.1(6) . .
C26 C27 H27 119.3 . .
C28 C27 C26 121.3(6) . .
C28 C27 H27 119.3 . .
N1 C28 H28A 121.5 . .
C27 C28 N1 117.1(7) . .
C27 C28 H28A 121.5 . .
C27 C28 H28 110(7) . .
N2 C28 C27 125.3(7) . .
N2 C28 H28 121(7) . .
C19 C20 C23 122.6(4) . .
C21 C20 C23 120.3(4) . .
C21 C20 C19 117.1(4) . .
C20 C19 H19 119.1 . .
C18 C19 C20 121.8(5) . .
C18 C19 H19 119.1 . .
C19 C18 H18 120.5 . .
C17 C18 C19 118.9(4) . .
C17 C18 H18 120.5 . .
C18 C17 O5 118.1(4) . .
C22 C17 O5 120.7(4) . .
C22 C17 C18 121.1(4) . .
C17 C22 H22 120.5 . .
C17 C22 C21 119.0(4) . .
C21 C22 H22 120.5 . .
C20 C21 C22 122.0(4) . .
C20 C21 H21 119.0 . .
C22 C21 H21 119.0 . .
C12 C11 H11 119.9 . .
C10 C11 H11 119.9 . .
C10 C11 C12 120.1(4) . .
O5 C12 C11 120.6(4) . .
C13 C12 O5 119.4(4) . .
C13 C12 C11 119.9(4) . .
C12 C13 H13 119.5 . .
C12 C13 C14 121.1(4) . .
C14 C13 H13 119.5 . .
C13 C14 C15 121.5(4) . .
C16 C14 C13 119.4(4) . .
C16 C14 C15 119.1(5) . .
O3 C15 Cd2 59.3(2) . 1_456
O3 C15 O4 122.6(4) . .
O3 C15 C14 119.2(5) . .
O4 C15 Cd2 63.5(2) . 1_456
O4 C15 C14 118.2(5) . .
C14 C15 Cd2 174.4(3) . 1_456
C14 C16 H16 119.8 . .
C14 C16 C10 120.5(5) . .
C10 C16 H16 119.8 . .
C11 C10 C16 119.0(5) . .
C11 C10 C9 120.1(4) . .
C16 C10 C9 120.9(5) . .
O2 C9 Cd1 50.6(2) . .
O2 C9 C10 118.1(5) . .
O6 C9 Cd1 70.6(3) . .
O6 C9 O2 120.6(5) . .
O6 C9 C10 121.2(5) . .
C10 C9 Cd1 165.5(3) . .
O9 C1 C2 116.0(4) . .
O10 C1 O9 124.7(5) . .
O10 C1 C2 119.3(5) . .
C28 N2 C31 109.9(10) . .
N2 C31 H31 116.9 . .
N2 C31 C32 126.1(12) . .
C32 C31 H31 116.9 . .
C26 C32 H32 119.7 . .
C31 C32 C26 120.5(11) . .
C31 C32 H32 119.7 . .
loop_
_geom_bond_atom_site_label_1
_geom_bond_atom_site_label_2
_geom_bond_distance
_geom_bond_site_symmetry_2
Cd2 O3 2.403(3) 1_654
Cd2 O4 2.497(3) 1_654
Cd2 O9 2.213(3) .
Cd2 N10 2.289(4) .
Cd2 N12 2.351(4) .
Cd2 N4 2.389(4) 2
Cd2 C15 2.789(5) 1_654
Cd1 O1 2.545(4) .
Cd1 O7 2.284(4) .
Cd1 O2 2.181(4) .
Cd1 O6 2.617(4) .
Cd1 N5 2.243(4) .
Cd1 N7 2.267(4) 2
Cd1 C8 2.753(5) .
Cd1 C9 2.755(5) .
O8 C49 1.406(5) .
O8 C4 1.396(5) .
O1 C8 1.216(6) .
O7 C8 1.239(7) .
O2 C9 1.278(6) .
O6 C9 1.228(6) .
O3 Cd2 2.403(3) 1_456
O3 C15 1.262(6) .
O4 Cd2 2.497(3) 1_456
O4 C15 1.269(6) .
O9 C1 1.258(5) .
O10 C1 1.218(6) .
O5 C17 1.395(5) .
O5 C12 1.387(5) .
N10 C70 1.312(6) .
N10 C78 1.389(6) .
N11 C70 1.343(6) .
N11 C77 1.345(6) .
N11 C71 1.414(6) .
N12 C79 1.318(6) .
N12 C87 1.375(6) .
N13 C79 1.340(5) .
N13 C86 1.402(7) .
N13 C80 1.427(6) .
N5 C40 1.309(6) .
N5 C48 1.354(6) .
N6 C40 1.343(6) .
N6 C47 1.360(6) .
N6 C41 1.435(6) .
N7 Cd1 2.267(4) 2
N7 C60 1.333(6) .
N7 C61 1.327(6) .
N8 C57 1.335(5) .
N8 C63 1.342(5) .
N9 C66 1.322(8) .
N9 C67 1.343(8) .
N4 Cd2 2.389(4) 2
N4 C36 1.332(6) .
N4 C37 1.303(6) .
N3 C33 1.325(5) .
N3 C25 1.340(6) .
N1 C29 1.313(16) .
N1 C28 1.537(15) .
C70 H70 0.9300 .
C78 H78 0.9300 .
C78 C77 1.377(7) .
C77 H77 0.9300 .
C71 C72 1.354(7) .
C71 C76 1.338(7) .
C72 H72 0.9300 .
C72 C73 1.382(8) .
C73 H73 0.9300 .
C73 C74 1.375(7) .
C74 C74 1.497(10) 2_464
C74 C75 1.372(7) .
C75 H75 0.9300 .
C75 C76 1.386(8) .
C76 H76 0.9300 .
C79 H79 0.9300 .
C87 H87 0.9300 .
C87 C86 1.361(7) .
C86 H86 0.9300 .
C80 C81 1.355(7) .
C80 C85 1.363(6) .
C81 H81 0.9300 .
C81 C82 1.371(7) .
C82 H82 0.9300 .
C82 C83 1.395(6) .
C83 C83 1.482(9) 2_665
C83 C84 1.388(7) .
C84 H84 0.9300 .
C84 C85 1.364(7) .
C85 H85 0.9300 .
C40 H40 0.9300 .
C48 H48 0.9300 .
C48 C47 1.346(8) .
C47 H47 0.9300 .
C41 C42 1.352(7) .
C41 C46 1.371(6) .
C42 H42 0.9300 .
C42 C43 1.365(8) .
C43 H43 0.9300 .
C43 C44 1.367(7) .
C44 C44 1.482(10) 2_365
C44 C45 1.376(6) .
C45 H45 0.9300 .
C45 C46 1.356(7) .
C46 H46 0.9300 .
C60 H60 0.9300 .
C60 C59 1.374(6) .
C59 H59 0.9300 .
C59 C58 1.378(6) .
C58 C62 1.377(6) .
C58 C57 1.481(6) .
C62 H62 0.9300 .
C62 C61 1.362(7) .
C61 H61 0.9300 .
C57 C56 1.395(6) .
C56 H56 0.9300 .
C56 C55 1.386(6) .
C55 C69 1.380(6) .
C55 C52 1.469(6) .
C69 H69 0.9300 .
C69 C63 1.395(6) .
C63 C64 1.475(6) .
C66 H66 0.9300 .
C66 C65 1.358(7) .
C65 H65 0.9300 .
C65 C64 1.385(6) .
C64 C68 1.392(7) .
C68 H68 0.9300 .
C68 C67 1.368(8) .
C67 H67 0.9300 .
C52 C51 1.395(6) .
C52 C53 1.401(6) .
C51 H51 0.9300 .
C51 C50 1.386(6) .
C50 H50 0.9300 .
C50 C49 1.374(6) .
C49 C54 1.376(6) .
C54 H54 0.9300 .
C54 C53 1.379(6) .
C53 H53 0.9300 .
C5 H5 0.9300 .
C5 C4 1.405(6) .
C5 C6 1.400(7) .
C4 C3 1.387(6) .
C3 H3 0.9300 .
C3 C2 1.383(6) .
C2 C7 1.363(6) .
C2 C1 1.513(6) .
C7 H7 0.9300 .
C7 C6 1.410(7) .
C6 C8 1.526(6) .
C36 H36 0.9300 .
C36 C35 1.377(6) .
C35 H35 0.9300 .
C35 C34 1.381(6) .
C34 C38 1.387(6) .
C34 C33 1.486(6) .
C38 H38 0.9300 .
C38 C37 1.381(7) .
C37 H37 0.9300 .
C33 C39 1.398(6) .
C39 H39 0.9300 .
C39 C23 1.395(6) .
C23 C24 1.378(6) .
C23 C20 1.485(6) .
C24 H24 0.9300 .
C24 C25 1.392(6) .
C25 C26 1.473(7) .
C29 H29 0.9300 .
C29 C30 1.415(15) .
C30 H30 0.9300 .
C30 C26 1.521(14) .
C26 C27 1.363(7) .
C26 C32 1.404(12) .
C27 H27 0.9300 .
C27 C28 1.362(8) .
C28 H28A 0.9300 .
C28 H28 1.06(13) .
C28 N2 1.305(12) .
C20 C19 1.389(6) .
C20 C21 1.377(6) .
C19 H19 0.9300 .
C19 C18 1.385(6) .
C18 H18 0.9300 .
C18 C17 1.370(6) .
C17 C22 1.364(6) .
C22 H22 0.9300 .
C22 C21 1.391(6) .
C21 H21 0.9300 .
C11 H11 0.9300 .
C11 C12 1.392(6) .
C11 C10 1.379(6) .
C12 C13 1.358(6) .
C13 H13 0.9300 .
C13 C14 1.379(7) .
C14 C15 1.499(6) .
C14 C16 1.377(6) .
C15 Cd2 2.789(5) 1_456
C16 H16 0.9300 .
C16 C10 1.398(6) .
C10 C9 1.496(7) .
N2 C31 1.323(17) .
C31 H31 0.9300 .
C31 C32 1.385(16) .
C32 H32 0.9300 .
loop_
_geom_torsion_atom_site_label_1
_geom_torsion_atom_site_label_2
_geom_torsion_atom_site_label_3
_geom_torsion_atom_site_label_4
_geom_torsion
_geom_torsion_site_symmetry_1
_geom_torsion_site_symmetry_4
Cd2 O3 C15 O4 5.4(5) 1_456 .
Cd2 O3 C15 C14 -173.8(4) 1_456 .
Cd2 O4 C15 O3 -5.1(5) 1_456 .
Cd2 O4 C15 C14 174.0(4) 1_456 .
Cd2 O9 C1 O10 15.6(6) . .
Cd2 O9 C1 C2 -163.9(3) . .
Cd2 N10 C70 N11 171.1(3) . .
Cd2 N10 C78 C77 -170.3(3) . .
Cd2 N12 C79 N13 174.3(3) . .
Cd2 N12 C87 C86 -172.8(4) . .
Cd2 N4 C36 C35 -167.6(4) 2 .
Cd2 N4 C37 C38 167.3(6) 2 .
Cd1 O1 C8 O7 1.8(6) . .
Cd1 O1 C8 C6 -176.9(4) . .
Cd1 O7 C8 O1 -2.0(6) . .
Cd1 O7 C8 C6 176.7(3) . .
Cd1 O2 C9 O6 -9.7(6) . .
Cd1 O2 C9 C10 168.9(3) . .
Cd1 O6 C9 O2 7.9(5) . .
Cd1 O6 C9 C10 -170.6(4) . .
Cd1 N5 C40 N6 -176.8(3) . .
Cd1 N5 C48 C47 178.0(4) . .
Cd1 N7 C60 C59 -167.7(4) 2 .
Cd1 N7 C61 C62 168.1(6) 2 .
O8 C49 C54 C53 -179.5(4) . .
O8 C4 C3 C2 -174.4(4) . .
O5 C17 C22 C21 -179.4(4) . .
O5 C12 C13 C14 177.1(4) . .
N10 C78 C77 N11 -0.7(6) . .
N11 C71 C72 C73 -179.2(5) . .
N11 C71 C76 C75 178.4(7) . .
N12 C87 C86 N13 -0.6(7) . .
N13 C80 C81 C82 -176.4(5) . .
N13 C80 C85 C84 178.7(5) . .
N5 C48 C47 N6 -1.2(8) . .
N6 C41 C42 C43 -178.5(7) . .
N6 C41 C46 C45 179.9(5) . .
N7 C60 C59 C58 0.7(9) . .
N8 C57 C56 C55 -3.9(7) . .
N8 C63 C64 C65 148.3(5) . .
N8 C63 C64 C68 -32.4(8) . .
N9 C66 C65 C64 -0.6(12) . .
N4 C36 C35 C34 0.6(8) . .
N3 C33 C39 C23 -1.1(8) . .
N3 C25 C26 C30 -44.2(10) . .
N3 C25 C26 C27 158.4(6) . .
N3 C25 C26 C32 6.4(12) . .
N1 C29 C30 C26 12(2) . .
C70 N10 C78 C77 -0.4(5) . .
C70 N11 C77 C78 1.4(6) . .
C70 N11 C71 C72 170.5(5) . .
C70 N11 C71 C76 -7.8(8) . .
C78 N10 C70 N11 1.3(5) . .
C77 N11 C70 N10 -1.7(5) . .
C77 N11 C71 C72 -10.1(8) . .
C77 N11 C71 C76 171.6(6) . .
C71 N11 C70 N10 177.8(4) . .
C71 N11 C77 C78 -178.1(4) . .
C71 C72 C73 C74 1.5(10) . .
C72 C71 C76 C75 0.1(11) . .
C72 C73 C74 C74 179.2(7) . 2_464
C72 C73 C74 C75 -1.2(10) . .
C73 C74 C75 C76 0.4(11) . .
C74 C74 C75 C76 -180.0(8) 2_464 .
C74 C75 C76 C71 0.1(13) . .
C76 C71 C72 C73 -0.9(10) . .
C79 N12 C87 C86 0.1(6) . .
C79 N13 C86 C87 0.9(6) . .
C79 N13 C80 C81 19.7(8) . .
C79 N13 C80 C85 -160.4(5) . .
C87 N12 C79 N13 0.6(6) . .
C86 N13 C79 N12 -0.9(6) . .
C86 N13 C80 C81 -161.8(6) . .
C86 N13 C80 C85 18.1(8) . .
C80 N13 C79 N12 177.8(4) . .
C80 N13 C86 C87 -177.8(4) . .
C80 C81 C82 C83 -2.3(11) . .
C81 C80 C85 C84 -1.4(8) . .
C81 C82 C83 C83 -179.6(6) . 2_665
C81 C82 C83 C84 -1.3(9) . .
C82 C83 C84 C85 3.6(8) . .
C83 C83 C84 C85 -178.1(6) 2_665 .
C83 C84 C85 C80 -2.4(9) . .
C85 C80 C81 C82 3.7(10) . .
C40 N5 C48 C47 0.1(7) . .
C40 N6 C47 C48 1.8(7) . .
C40 N6 C41 C42 37.0(8) . .
C40 N6 C41 C46 -141.9(5) . .
C48 N5 C40 N6 1.1(6) . .
C47 N6 C40 N5 -1.8(6) . .
C47 N6 C41 C42 -139.7(7) . .
C47 N6 C41 C46 41.4(8) . .
C41 N6 C40 N5 -179.2(4) . .
C41 N6 C47 C48 179.1(5) . .
C41 C42 C43 C44 -0.6(13) . .
C42 C41 C46 C45 0.9(9) . .
C42 C43 C44 C44 179.5(8) . 2_365
C42 C43 C44 C45 -0.7(11) . .
C43 C44 C45 C46 2.1(8) . .
C44 C44 C45 C46 -178.0(6) 2_365 .
C44 C45 C46 C41 -2.3(8) . .
C46 C41 C42 C43 0.4(11) . .
C60 N7 C61 C62 -2.6(10) . .
C60 C59 C58 C62 -3.4(8) . .
C60 C59 C58 C57 173.3(5) . .
C59 C58 C62 C61 3.2(10) . .
C59 C58 C57 N8 -3.0(7) . .
C59 C58 C57 C56 -178.8(5) . .
C58 C62 C61 N7 -0.2(12) . .
C58 C57 C56 C55 171.7(4) . .
C62 C58 C57 N8 173.6(5) . .
C62 C58 C57 C56 -2.3(8) . .
C61 N7 C60 C59 2.3(8) . .
C57 N8 C63 C69 1.7(7) . .
C57 N8 C63 C64 177.5(4) . .
C57 C58 C62 C61 -173.6(6) . .
C57 C56 C55 C69 5.0(7) . .
C57 C56 C55 C52 -171.7(4) . .
C56 C55 C69 C63 -2.9(7) . .
C56 C55 C52 C51 -154.6(5) . .
C56 C55 C52 C53 28.6(7) . .
C55 C69 C63 N8 -0.4(8) . .
C55 C69 C63 C64 -176.0(5) . .
C55 C52 C51 C50 -179.3(5) . .
C55 C52 C53 C54 179.0(5) . .
C69 C55 C52 C51 28.9(7) . .
C69 C55 C52 C53 -147.9(5) . .
C69 C63 C64 C65 -35.8(8) . .
C69 C63 C64 C68 143.5(6) . .
C63 N8 C57 C58 -175.4(4) . .
C63 N8 C57 C56 0.5(7) . .
C63 C64 C68 C67 -178.8(6) . .
C66 N9 C67 C68 1.7(13) . .
C66 C65 C64 C63 179.8(6) . .
C66 C65 C64 C68 0.5(9) . .
C65 C64 C68 C67 0.6(10) . .
C64 C68 C67 N9 -1.8(13) . .
C67 N9 C66 C65 -0.6(12) . .
C52 C55 C69 C63 173.7(4) . .
C52 C51 C50 C49 1.8(8) . .
C51 C52 C53 C54 2.1(7) . .
C51 C50 C49 O8 179.1(5) . .
C51 C50 C49 C54 -0.5(8) . .
C50 C49 C54 C53 0.1(8) . .
C49 O8 C4 C5 147.2(4) . .
C49 O8 C4 C3 -36.5(6) . .
C49 C54 C53 C52 -0.9(8) . .
C53 C52 C51 C50 -2.5(8) . .
C5 C4 C3 C2 1.7(6) . .
C5 C6 C8 O1 -23.7(7) . .
C5 C6 C8 O7 157.6(5) . .
C4 O8 C49 C50 136.3(5) . .
C4 O8 C49 C54 -44.1(6) . .
C4 C5 C6 C7 2.1(6) . .
C4 C5 C6 C8 -177.8(4) . .
C4 C3 C2 C7 2.1(6) . .
C4 C3 C2 C1 178.3(4) . .
C3 C2 C7 C6 -3.6(6) . .
C3 C2 C1 O9 6.8(6) . .
C3 C2 C1 O10 -172.8(4) . .
C2 C7 C6 C5 1.5(6) . .
C2 C7 C6 C8 -178.6(4) . .
C7 C2 C1 O9 -177.0(4) . .
C7 C2 C1 O10 3.4(7) . .
C7 C6 C8 O1 156.4(5) . .
C7 C6 C8 O7 -22.4(7) . .
C6 C5 C4 O8 172.6(4) . .
C6 C5 C4 C3 -3.7(6) . .
C36 N4 C37 C38 -3.2(10) . .
C36 C35 C34 C38 -3.0(8) . .
C36 C35 C34 C33 175.7(5) . .
C35 C34 C38 C37 2.3(9) . .
C35 C34 C33 N3 -2.9(7) . .
C35 C34 C33 C39 -177.9(5) . .
C34 C38 C37 N4 0.8(12) . .
C34 C33 C39 C23 173.6(5) . .
C38 C34 C33 N3 175.7(5) . .
C38 C34 C33 C39 0.8(8) . .
C37 N4 C36 C35 2.5(8) . .
C33 N3 C25 C24 2.9(8) . .
C33 N3 C25 C26 -177.5(5) . .
C33 C34 C38 C37 -176.4(6) . .
C33 C39 C23 C24 1.1(7) . .
C33 C39 C23 C20 -176.7(5) . .
C39 C23 C24 C25 0.8(8) . .
C39 C23 C20 C19 -157.5(5) . .
C39 C23 C20 C21 22.5(7) . .
C23 C24 C25 N3 -2.9(9) . .
C23 C24 C25 C26 177.5(6) . .
C23 C20 C19 C18 178.7(6) . .
C23 C20 C21 C22 -178.5(5) . .
C24 C23 C20 C19 24.8(8) . .
C24 C23 C20 C21 -155.1(5) . .
C24 C25 C26 C30 135.4(8) . .
C24 C25 C26 C27 -22.0(11) . .
C24 C25 C26 C32 -174.0(10) . .
C25 N3 C33 C34 -175.9(5) . .
C25 N3 C33 C39 -0.9(8) . .
C25 C26 C27 C28 -179.0(7) . .
C25 C26 C32 C31 171.1(12) . .
C29 N1 C28 C27 11.3(17) . .
C29 C30 C26 C25 -178.6(10) . .
C29 C30 C26 C27 -19.8(16) . .
C30 C26 C27 C28 24.6(12) . .
C26 C27 C28 N1 -19.9(12) . .
C26 C27 C28 N2 31.8(15) . .
C27 C26 C32 C31 15.5(17) . .
C27 C28 N2 C31 -23.3(19) . .
C28 N1 C29 C30 -8(2) . .
C28 N2 C31 C32 14(2) . .
C20 C23 C24 C25 178.6(5) . .
C20 C19 C18 C17 -0.8(10) . .
C19 C20 C21 C22 1.6(8) . .
C19 C18 C17 O5 179.7(5) . .
C19 C18 C17 C22 2.9(9) . .
C18 C17 C22 C21 -2.7(8) . .
C17 O5 C12 C11 -47.7(6) . .
C17 O5 C12 C13 135.1(4) . .
C17 C22 C21 C20 0.4(8) . .
C21 C20 C19 C18 -1.4(9) . .
C11 C12 C13 C14 -0.1(7) . .
C11 C10 C9 Cd1 19.9(16) . .
C11 C10 C9 O2 -16.5(7) . .
C11 C10 C9 O6 162.0(5) . .
C12 O5 C17 C18 139.6(5) . .
C12 O5 C17 C22 -43.5(6) . .
C12 C11 C10 C16 2.4(7) . .
C12 C11 C10 C9 -175.1(4) . .
C12 C13 C14 C15 -177.3(4) . .
C12 C13 C14 C16 1.4(7) . .
C13 C14 C15 O3 158.6(5) . .
C13 C14 C15 O4 -20.6(7) . .
C13 C14 C16 C10 -0.8(7) . .
C14 C16 C10 C11 -1.1(7) . .
C14 C16 C10 C9 176.4(4) . .
C15 C14 C16 C10 178.0(4) . .
C16 C14 C15 O3 -20.2(7) . .
C16 C14 C15 O4 160.6(4) . .
C16 C10 C9 Cd1 -157.5(12) . .
C16 C10 C9 O2 166.0(5) . .
C16 C10 C9 O6 -15.4(7) . .
C10 C11 C12 O5 -179.0(4) . .
C10 C11 C12 C13 -1.8(7) . .
C1 C2 C7 C6 -179.8(4) . .
N2 C31 C32 C26 -12(3) . .
C32 C26 C27 C28 -24.3(12) . .
