#------------------------------------------------------------------------------
#$Date: 2017-09-06 14:00:00 +0300 (Wed, 06 Sep 2017) $
#$Revision: 200217 $
#$URL: file:///home/coder/svn-repositories/cod/cif/4/51/41/4514179.cif $
#------------------------------------------------------------------------------
#
# This file is available in the Crystallography Open Database (COD),
# http://www.crystallography.net/
#
# All data on this site have been placed in the public domain by the
# contributors.
#
data_4514179
loop_
_publ_author_name
'Chen, Ya'
'Wang, Bin'
'Wang, Xiaoqing'
'Xie, Lin-Hua'
'Li, Jinping'
'Xie, Yabo'
'Li, Jian-Rong'
_publ_section_title
;
 A Copper(II)-Paddlewheel Metal-Organic Framework with Exceptional
 Hydrolytic Stability and Selective Adsorption and Detection Ability of
 Aniline in Water.
;
_journal_issue                   32
_journal_name_full               'ACS applied materials &amp; interfaces'
_journal_page_first              27027
_journal_page_last               27035
_journal_paper_doi               10.1021/acsami.7b07920
_journal_volume                  9
_journal_year                    2017
_chemical_formula_sum            'C40 H27 Cu2 N2.5 O8'
_chemical_formula_weight         797.72
_space_group_crystal_system      tetragonal
_space_group_IT_number           129
_space_group_name_Hall           '-P 4a 2a'
_space_group_name_H-M_alt        'P 4/n m m'
_symmetry_space_group_name_Hall  '-P 4a 2a'
_symmetry_space_group_name_H-M   'P 4/n m m :2'
_atom_sites_solution_hydrogens   geom
_audit_creation_method           SHELXL-2014/7
_cell_angle_alpha                90
_cell_angle_beta                 90
_cell_angle_gamma                90
_cell_formula_units_Z            4
_cell_length_a                   18.8487(2)
_cell_length_b                   18.8487(2)
_cell_length_c                   13.8659(3)
_cell_measurement_reflns_used    4915
_cell_measurement_temperature    100(2)
_cell_measurement_theta_max      73.5630
_cell_measurement_theta_min      3.9280
_cell_volume                     4926.19(13)
_computing_cell_refinement       'CrysAlisPro 1.171.38.43f (Rigaku OD, 2015)'
_computing_data_collection       'CrysAlisPro 1.171.38.43f (Rigaku OD, 2015)'
_computing_data_reduction        'CrysAlisPro 1.171.38.43f (Rigaku OD, 2015)'
_computing_structure_refinement  'SHELXL-2014/7 (Sheldrick, 2014)'
_diffrn_ambient_temperature      100(2)
_diffrn_detector_area_resol_mean 10.3376
_diffrn_measured_fraction_theta_full 0.999
_diffrn_measured_fraction_theta_max 0.987
_diffrn_measurement_device_type  'SuperNova, Dual, Cu at zero, AtlasS2'
_diffrn_measurement_method       '\w scans'
_diffrn_radiation_type           CuK\a
_diffrn_radiation_wavelength     1.54184
_diffrn_reflns_av_R_equivalents  0.0376
_diffrn_reflns_av_unetI/netI     0.0217
_diffrn_reflns_Laue_measured_fraction_full 0.999
_diffrn_reflns_Laue_measured_fraction_max 0.987
_diffrn_reflns_limit_h_max       22
_diffrn_reflns_limit_h_min       -16
_diffrn_reflns_limit_k_max       23
_diffrn_reflns_limit_k_min       -23
_diffrn_reflns_limit_l_max       12
_diffrn_reflns_limit_l_min       -17
_diffrn_reflns_number            14536
_diffrn_reflns_point_group_measured_fraction_full 0.999
_diffrn_reflns_point_group_measured_fraction_max 0.987
_diffrn_reflns_theta_full        67.679
_diffrn_reflns_theta_max         74.065
_diffrn_reflns_theta_min         3.958
_diffrn_source                   'micro-focus sealed X-ray tube'
_exptl_absorpt_coefficient_mu    1.414
_exptl_absorpt_correction_T_max  1.00000
_exptl_absorpt_correction_T_min  0.70921
_exptl_absorpt_correction_type   multi-scan
_exptl_absorpt_process_details
; 
CrysAlisPro 1.171.38.43f (Rigaku Oxford Diffraction, 2015) 
Empirical absorption correction using spherical harmonics, 
 implemented in SCALE3 ABSPACK scaling algorithm. 
;
_exptl_crystal_density_diffrn    1.076
_exptl_crystal_description       block
_exptl_crystal_F_000             1626
_exptl_crystal_size_max          0.180
_exptl_crystal_size_mid          0.150
_exptl_crystal_size_min          0.120
_refine_diff_density_max         0.636
_refine_diff_density_min         -0.508
_refine_diff_density_rms         0.098
_refine_ls_extinction_method     none
_refine_ls_goodness_of_fit_ref   0.967
_refine_ls_hydrogen_treatment    constr
_refine_ls_matrix_type           full
_refine_ls_number_parameters     169
_refine_ls_number_reflns         2752
_refine_ls_number_restraints     220
_refine_ls_restrained_S_all      1.028
_refine_ls_R_factor_all          0.0901
_refine_ls_R_factor_gt           0.0797
_refine_ls_shift/su_max          0.000
_refine_ls_shift/su_mean         0.000
_refine_ls_structure_factor_coef Fsqd
_refine_ls_weighting_details
'w=1/[\s^2^(Fo^2^)+(0.1437P)^2^+18.0000P] where P=(Fo^2^+2Fc^2^)/3'
_refine_ls_weighting_scheme      calc
_refine_ls_wR_factor_gt          0.2487
_refine_ls_wR_factor_ref         0.2594
_reflns_Friedel_coverage         0.000
_reflns_number_gt                2286
_reflns_number_total             2752
_reflns_threshold_expression     'I > 2\s(I)'
_cod_data_source_file            am7b07920_si_002.cif
_cod_data_source_block           aniline@BUT-155
_cod_original_cell_volume        4926.19(15)
_cod_original_formula_sum        'C40 H27 Cu2 N2.50 O8'
_cod_database_code               4514179
_shelx_shelxl_version_number     2014/7
_shelx_space_group_comment
; 
The symmetry employed for this shelxl refinement is uniquely defined 
by the following loop, which should always be used as a source of 
symmetry information in preference to the above space-group names. 
They are only intended as comments. 
;
_shelx_estimated_absorpt_t_min   0.785
_shelx_estimated_absorpt_t_max   0.849
_shelx_res_file
; 
  
    shelx.res created by SHELXL-2014/7 
  
TITL shelxt_a.res in P4/nmm 
CELL  1.54178  18.8487  18.8487  13.8659   90.000   90.000   90.000 
ZERR     4.00   0.0002   0.0002   0.0003    0.000    0.000    0.000 
LATT   1 
SYMM  1/2 - X, 1/2 - Y,   Z 
SYMM  1/2 - Y,   X,   Z 
SYMM    Y, 1/2 - X,   Z 
SYMM  - X, 1/2 + Y, - Z 
SYMM  1/2 + X, - Y, - Z 
SYMM  1/2 + Y, 1/2 + X, - Z 
SYMM  - Y, - X, - Z 
SFAC  C    H    N    O    CU 
UNIT  160 108 10 32 8 
MERG   2 
ABIN 
sadi c21 c22 c22 c23 c23 c24 c24 c25 c25 c26 c26 c21 
sadi c21 c23 c22 c24 c23 c25 c24 c26 c25 c21 c26 c22 
flat c21 c22  c23  c24  c25 c26 n1 
eqiv $10  -y+3/2, -x+3/2, z 
eqiv $3   y, x, z 
eqiv $8   -y+3/2, x, z 
eqiv $6   -x+3/2, y, z 
eqiv $7   x, -y+3/2, z 
sadi c31 c32 c32 C32_$10 
sadi c31 C32_$10 c32 C32_$3 
flat n2 c31 c32 C32_$10 C32_$3 
free c32 C32_$6 
free c32 C31_$8 
free c32 N2_$8 
free c22 C22_$7 
free C23 C22_$7 
free C24 C25_$7 
DELU 
SIMU 
FMAP   2 
PLAN   60 
SIZE     0.120   0.150   0.180 
ACTA 
BOND   $H 
L.S.   20    0   26 
TEMP  -173.00 
WGHT    0.143700   18.000000 
FVAR       0.08853 
CU01  5    0.534702    0.534702    1.068508    10.50000    0.03932    0.03932 = 
         0.05464   -0.01193   -0.01193    0.01381 
O2    4    0.560699    0.455616    0.875519    11.00000    0.04190    0.05680 = 
         0.06212   -0.01547   -0.00522    0.01269 
O1    4    0.619385    0.516226    0.990129    11.00000    0.04576    0.05897 = 
         0.06736   -0.02039   -0.00260    0.01064 
C9    1    0.750000    0.250000    0.554075    10.25000    0.03967    0.04422 = 
         0.02983    0.00000    0.00000    0.00000 
C6    1    0.750000    0.313211    0.704921    10.50000    0.02258    0.05079 = 
         0.04057   -0.00569    0.00000    0.00000 
C8    1    0.750000    0.314120    0.604597    10.50000    0.03760    0.04979 = 
         0.03872   -0.00399    0.00000    0.00000 
C7    1    0.750000    0.250000    0.754684    10.25000    0.02498    0.05406 = 
         0.03390    0.00000    0.00000    0.00000 
C5    1    0.750000    0.379830    0.763413    10.50000    0.03690    0.04905 = 
         0.04129   -0.00597    0.00000    0.00000 
C3    1    0.686268    0.405946    0.798209    11.00000    0.03851    0.04930 = 
         0.05112   -0.00645   -0.00718    0.00265 
AFIX  43 
H3    2    0.642725    0.388575    0.773051    11.00000   -1.20000 
AFIX   0 
C4    1    0.750000    0.480858    0.907079    10.50000    0.04682    0.04050 = 
         0.05921   -0.00730    0.00000    0.00000 
AFIX  43 
H4    2    0.749999    0.513580    0.959189    10.50000   -1.20000 
AFIX   0 
C2    1    0.685881    0.457287    0.869541    11.00000    0.04424    0.03791 = 
         0.05317   -0.00655   -0.00284    0.00587 
C1    1    0.615937    0.478592    0.914955    11.00000    0.04517    0.04394 = 
         0.06308   -0.00735   -0.00555    0.01032 
C10   1    0.750000    0.383890    0.551430    10.50000    0.09297    0.05161 = 
         0.05017   -0.00034    0.00000    0.00000 
AFIX  33 
H10A  2    0.750000    0.375037    0.481785    10.50000   -1.50000 
H10B  2    0.707548    0.410992    0.568972    10.50000   -1.50000 
H10C  2    0.792452    0.410993    0.568972    10.50000   -1.50000 
AFIX   0 
C11   1    0.750000    0.250000    0.864579    10.25000    0.07326    0.08037 = 
         0.03458    0.00000    0.00000    0.00000 
AFIX  33 
H11A  2    0.750000    0.200981    0.888138    10.25000   -1.50000 
H11B  2    0.792452    0.274510    0.888138    10.25000   -1.50000 
H11C  2    0.707548    0.274510    0.888138    10.25000   -1.50000 
AFIX   0 
N1    3    0.596761    0.596761    1.176469    10.50000    0.08315    0.08315 = 
         0.08297   -0.03120   -0.03120    0.00076 
C21   1    0.544619    0.653828    1.220329    10.50000    0.06481    0.07694 = 
         0.06480   -0.01895   -0.01247   -0.00797 
C26   1    0.506591    0.640464    1.300519    10.50000    0.10926    0.08011 = 
         0.06989    0.00369   -0.00289    0.01750 
AFIX  43 
H26   2    0.514251    0.596608    1.332638    10.50000   -1.20000 
AFIX   0 
C22   1    0.526759    0.714007    1.172819    10.50000    0.08426    0.07893 = 
         0.06182   -0.00532   -0.00408   -0.00288 
AFIX  43 
H22   2    0.551045    0.728514    1.116115    10.50000   -1.20000 
AFIX   0 
C23   1    0.476165    0.750000    1.207576    10.50000    0.07601    0.13614 = 
         0.07547    0.00000    0.00092    0.00000 
AFIX  43 
H23   2    0.456488    0.783349    1.163717    10.50000   -1.20000 
AFIX   0 
C24   1    0.446017    0.750000    1.291877    10.50000    0.07921    0.07556 = 
         0.08386    0.00000    0.00438    0.00000 
AFIX  43 
H24   2    0.419266    0.787892    1.318684    10.50000   -1.20000 
AFIX   0 
C25   1    0.459710    0.684165    1.336972    10.50000    0.13340    0.08655 = 
         0.08522   -0.00546    0.01962    0.02768 
AFIX  43 
H25   2    0.434786    0.671555    1.394001    10.50000   -1.20000 
AFIX   0 
C31   1    0.700627    0.700627    0.968673    10.25000    0.12303    0.12303 = 
         0.37096    0.11039    0.11039    0.03029 
N2    3    0.655815    0.655815    0.977630    10.12500    0.12043    0.12043 = 
         0.38318    0.10360    0.10360    0.02998 
C32   1    0.768483    0.681910    0.962840    10.50000    0.11292    0.13390 = 
         0.41564    0.06207    0.05686    0.02916 
AFIX  43 
H32   2    0.781248    0.633247    0.958701    10.50000   -1.20000 
AFIX   0 
HKLF    4 
  
REM  shelxt_a.res in P4/nmm 
REM R1 =  0.0797 for    2286 Fo > 4sig(Fo)  and  0.0901 for all    2752 data 
REM    169 parameters refined using    220 restraints 
  
END 
  
WGHT      0.1387     10.5032 
  
REM Highest difference peak  0.636,  deepest hole -0.508,  1-sigma level  0.098 
Q1    1   0.7500  0.2500  0.7882  10.25000  0.05    0.64 
Q2    1   0.7500  0.3085  0.6590  10.50000  0.05    0.62 
Q3    1   0.7500  0.2228  0.7295  10.50000  0.05    0.60 
Q4    1   0.7259  0.2500  0.7289  10.50000  0.05    0.58 
Q5    1   0.5641  0.5641  1.1233  10.50000  0.05    0.50 
Q6    1   0.5530  0.5530  1.1406  10.50000  0.05    0.50 
Q7    1   0.5391  0.5391  0.9926  10.50000  0.05    0.49 
Q8    1   0.7500  0.3354  0.7075  10.50000  0.05    0.48 
Q9    1   0.4988  0.5994  1.3987  11.00000  0.05    0.47 
Q10   1   0.4883  0.5849  1.3782  11.00000  0.05    0.44 
Q11   1   0.6566  0.6566  1.0054  10.50000  0.05    0.43 
Q12   1   0.7500  0.2800  0.5885  10.50000  0.05    0.40 
Q13   1   0.5652  0.5887  1.2329  11.00000  0.05    0.37 
Q14   1   0.5567  0.6768  1.3188  11.00000  0.05    0.34 
Q15   1   0.5305  0.5305  1.3243  10.50000  0.05    0.32 
Q16   1   0.7500  0.2500  0.5331  10.25000  0.05    0.31 
Q17   1   0.5800  0.5186  1.0200  11.00000  0.05    0.30 
Q18   1   0.7186  0.3783  0.5168  11.00000  0.05    0.28 
Q19   1   0.5112  0.7500  1.2824  10.50000  0.05    0.28 
Q20   1   0.7500  0.4263  0.5819  10.50000  0.05    0.27 
Q21   1   0.7071  0.5103  0.8322  11.00000  0.05    0.27 
Q22   1   0.5267  0.7500  1.1737  10.50000  0.05    0.27 
Q23   1   0.6269  0.6269  1.1283  10.50000  0.05    0.27 
Q24   1   0.4469  0.7798  1.0814  11.00000  0.05    0.26 
Q25   1   0.5091  0.4517  0.8882  11.00000  0.05    0.26 
Q26   1   0.5545  0.4507  0.9241  11.00000  0.05    0.25 
Q27   1   0.4999  0.7717  1.2966  11.00000  0.05    0.25 
Q28   1   0.4107  0.7500  1.0330  10.50000  0.05    0.24 
Q29   1   0.7887  0.3928  0.5081  11.00000  0.05    0.24 
Q30   1   0.6305  0.4762  1.0064  11.00000  0.05    0.24 
Q31   1   0.4860  0.5680  1.0568  11.00000  0.05    0.23 
Q32   1   0.5265  0.4783  0.9176  11.00000  0.05    0.23 
Q33   1   0.5155  0.7500  1.3653  10.50000  0.05    0.23 
Q34   1   0.6547  0.3972  1.0205  11.00000  0.05    0.23 
Q35   1   0.5597  0.4291  0.8392  11.00000  0.05    0.22 
Q36   1   0.5003  0.6083  1.3243  11.00000  0.05    0.22 
Q37   1   0.5177  0.7299  1.3515  11.00000  0.05    0.22 
Q38   1   0.4767  0.7781  1.2344  11.00000  0.05    0.22 
Q39   1   0.4836  0.8090  1.1657  11.00000  0.05    0.21 
Q40   1   0.7500  0.7500  0.6999  10.12500  0.05    0.21 
Q41   1   0.7233  0.3754  0.7863  11.00000  0.05    0.21 
Q42   1   0.4333  0.7500  1.1448  10.50000  0.05    0.20 
Q43   1   0.5108  0.6182  1.2946  11.00000  0.05    0.20 
Q44   1   0.5764  0.7500  1.2286  10.50000  0.05    0.20 
Q45   1   0.7500  0.7500  0.9682  10.12500  0.05    0.20 
Q46   1   0.5565  0.4937  0.8219  11.00000  0.05    0.19 
Q47   1   0.7500  0.1808  0.8658  10.50000  0.05    0.19 
Q48   1   0.6253  0.5091  0.9544  11.00000  0.05    0.19 
Q49   1   0.5791  0.4824  0.8633  11.00000  0.05    0.19 
Q50   1   0.4324  0.7500  1.0647  10.50000  0.05    0.19 
Q51   1   0.6871  0.4161  0.8633  11.00000  0.05    0.18 
Q52   1   0.5248  0.5400  1.2441  11.00000  0.05    0.18 
Q53   1   0.5866  0.5086  0.9345  11.00000  0.05    0.18 
Q54   1   0.7961  0.6567  0.9637  11.00000  0.05    0.18 
Q55   1   0.6541  0.4791  0.8886  11.00000  0.05    0.18 
Q56   1   0.8001  0.5912  0.9058  11.00000  0.05    0.18 
Q57   1   0.7212  0.7500  1.2257  10.50000  0.05    0.18 
Q58   1   0.7500  0.4107  0.9872  10.50000  0.05    0.18 
Q59   1   0.7500  0.7500  1.2693  10.12500  0.05    0.18 
Q60   1   0.5819  0.6809  1.2410  11.00000  0.05    0.17 
;
_shelx_res_checksum              48238
_shelx_hkl_file
; 
   0   0   2   10.64    0.39 
   0   0   3   31.55    0.82 
   0   0   4   32.61    0.98 
   0   0   5   47.01    1.31 
   0   0   6   61.79    1.69 
   0   0   7    6.27    0.63 
   0   0   8   19.17    1.16 
   0   0   9    9.74    0.92 
   0   0  10   10.69    1.04 
   0   0 -10   11.56    0.53 
   0   0  11   -0.12    0.30 
   0   0 -11    0.18    0.12 
   0   0 -11   -0.09    0.17 
   0   0 -12    0.20    0.17 
   0   0  12   -0.46    0.30 
   0   0 -13   19.24    0.75 
   0   0 -14   16.18    0.67 
   0   0 -15   12.38    0.53 
   0   0 -16    5.41    0.33 
   0  -1   1    0.22    0.07 
   0  -1  -1    0.21    0.06 
   1   0  -1    0.31    0.07 
  -1   0  -1    0.23    0.03 
   1   0   1    0.24    0.06 
   1   0   2    0.08    0.09 
   0  -1   2    0.01    0.10 
   0   1   3   43.23    0.50 
   1   0   3   46.11    0.96 
   0   1   3   45.19    0.95 
   0  -1   3   46.76    1.01 
  -1   0   3   43.83    1.00 
   0  -1   4   13.08    0.63 
   1   0   4   12.49    0.59 
  -1   0   4   12.09    0.62 
   0   1   4   12.15    0.61 
   0  -1   5    6.68    0.53 
  -1   0   5    6.44    0.53 
   0   1   5    6.89    0.52 
   1   0   5    6.45    0.49 
   0  -1   6    7.42    0.61 
   0   1   6    7.87    0.63 
   1   0   6    7.59    0.60 
  -1   0   6    7.67    0.63 
   0  -1   7    3.50    0.49 
   1   0   7    3.20    0.44 
   0   1   7    3.84    0.49 
  -1   0   7    3.48    0.49 
   0  -1   8    0.43    0.28 
   1   0   8    0.44    0.24 
  -1   0   8    0.35    0.28 
   0   1   8    0.48    0.24 
   0  -1   9    9.29    0.92 
  -1   0   9    9.52    0.95 
   1   0   9    9.93    0.93 
   0   1   9    9.86    0.92 
   0  -1  10    4.73    0.72 
   0  -1 -10    5.76    0.37 
   0   1 -10    6.11    0.39 
   1   0  10    6.19    0.80 
   1   0 -10    5.73    0.38 
   0   1  10    4.39    0.70 
  -1   0 -10    5.99    0.40 
  -1   0  10    5.85    0.79 
  -1   0 -11    4.19    0.35 
  -1   0  11    3.02    0.67 
   1   0  11    4.02    0.72 
   0   1 -11    4.03    0.34 
   0  -1 -11    4.65    0.37 
   0   1  11    3.78    0.72 
  -1   0 -11    3.51    0.31 
   0  -1  11    3.36    0.65 
   1   0 -11    4.05    0.34 
   0   1 -11    2.98    0.30 
   0  -1  12    1.23    0.47 
  -1   0  12    1.19    0.46 
   1   0  12    2.75    0.56 
   0   1 -12    2.00    0.24 
   1   0 -12    2.83    0.31 
   0   1 -12    3.10    0.32 
   0   1  12    1.44    0.28 
   0  -1 -12    2.81    0.32 
  -1   0 -12    3.19    0.34 
  -1   0 -12    2.33    0.27 
   0   1 -13    0.24    0.18 
   0  -1 -13    0.62    0.21 
  -1   0 -13    0.52    0.19 
  -1   0 -13    0.46    0.15 
   1   0 -13    0.34    0.19 
   1   0 -14    0.51    0.20 
   0  -1 -14    0.10    0.18 
  -1   0 -14    0.14    0.19 
   0   1 -14    0.30    0.20 
   1   0 -15    0.08    0.16 
   0   1 -15    0.04    0.15 
  -1   0 -15    0.53    0.19 
   0  -1 -15    0.18    0.16 
   0   1 -16    0.12    0.12 
  -1   0 -16    0.41    0.14 
   0  -1 -16    0.49    0.15 
   1   0 -16    0.39    0.15 
   0   1 -17   -0.21    0.10 
  -1  -1   1   26.84    0.50 
   1   1   1   27.05    0.35 
   1  -1   1   27.89    0.53 
   1  -1  -1   26.75    0.51 
   1  -1   2   85.26    1.17 
   1  -1  -2   82.39    1.14 
   1   1   2   84.46    1.03 
  -1  -1   2   83.51    1.19 
   1   1   3   95.70    1.39 
   1  -1   3   97.01    1.48 
  -1   1   3   96.60    1.04 
  -1  -1   3   94.52    1.51 
  -1  -1   4    3.91    0.38 
   1   1   4    4.63    0.38 
  -1   1   4    4.25    0.39 
   1  -1   4    3.99    0.38 
  -1  -1   5    0.82    0.24 
   1  -1   5    0.76    0.24 
   1   1   5    0.48    0.20 
  -1   1   5    0.74    0.24 
   1   1   6   35.09    1.27 
  -1   1   6   36.29    1.34 
  -1  -1   6   36.86    1.32 
   1  -1   6   35.51    1.28 
  -1   1   7    4.85    0.58 
   1   1   7    4.50    0.53 
  -1  -1   7    3.60    0.50 
   1  -1   7    4.42    0.54 
   1   1   8    0.38    0.27 
  -1  -1   8    0.20    0.24 
  -1   1   8    0.26    0.29 
   1  -1   8    0.66    0.29 
  -1   1   9    6.28    0.75 
   1   1   9    6.05    0.75 
   1  -1   9    5.85    0.74 
  -1  -1   9    6.62    0.78 
   1   1  10    0.56    0.26 
  -1   1  10    0.05    0.27 
  -1   1 -10    0.34    0.15 
   1  -1 -10    0.17    0.14 
   1   1 -10    0.33    0.15 
  -1  -1 -10    0.22    0.15 
  -1  -1 -10    0.18    0.12 
   1  -1  10   -0.23    0.37 
  -1  -1  10    0.28    0.33 
   1   1 -11    0.74    0.20 
  -1  -1 -11    0.86    0.22 
  -1  -1  11    0.43    0.33 
   1   1  11    0.22    0.29 
  -1   1 -11    0.83    0.21 
   1  -1  11    0.77    0.37 
  -1   1  11    0.93    0.37 
  -1  -1 -11    0.41    0.15 
   1  -1 -11    0.77    0.19 
  -1   1  12    2.50    0.58 
   1   1 -12    3.78    0.36 
  -1   1 -12    3.45    0.31 
  -1  -1 -12    2.97    0.29 
   1  -1  12    3.02    0.66 
   1  -1 -12    4.11    0.37 
  -1  -1 -12    4.08    0.37 
  -1   1 -12    4.05    0.36 
   1  -1 -13    0.56    0.20 
  -1  -1 -13    0.63    0.21 
  -1   1 -13    0.38    0.19 
  -1  -1 -13    0.33    0.15 
   1   1 -13    0.36    0.19 
  -1   1 -13    0.60    0.16 
   1  -1 -14    0.06    0.16 
   1   1 -14   -0.02    0.18 
  -1   1 -14    0.08    0.20 
  -1  -1 -14   -0.04    0.17 
  -1  -1 -15    0.01    0.14 
   1   1 -15   -0.13    0.16 
  -1   1 -15    0.16    0.16 
   1  -1 -15    0.07    0.14 
  -1  -1 -16    0.29    0.13 
   1  -1 -16   -0.09    0.13 
   1   1 -16    0.09    0.13 
  -1   1 -16    0.36    0.14 
   1   1 -17   -0.06    0.08 
  -1   1 -17   -0.13    0.10 
  -2   0   0  348.55    2.15 
   0  -2   0  351.98    2.10 
   2   0   0  353.74    1.98 
   0  -2  -1  698.74    3.58 
   0  -2   1  697.76    3.86 
   2   0  -1  701.63    3.75 
  -2   0  -1  702.43    3.41 
   2   0   1  701.58    3.47 
   2   0  -2  465.17    3.18 
   0  -2  -2  459.90    2.99 
   2   0   2  459.74    2.97 
   0  -2   2  454.95    3.27 
   0  -2   3    0.23    0.18 
   0  -2  -3    0.29    0.14 
  -2   0   3    0.31    0.18 
   2   0   3    0.28    0.15 
  -2   0   4   81.23    1.61 
   0  -2   4   82.88    1.62 
   0   2   4   84.90    1.54 
   2   0   4   82.52    1.51 
   0   2   4   78.04    0.90 
  -2   0   5   97.23    1.98 
   0  -2   5   94.90    1.93 
   2   0   5   95.55    1.84 
   0   2   5   96.73    1.90 
  -2   0   6   12.71    0.82 
   0  -2   6   13.07    0.82 
   2   0   6   13.25    0.78 
   0   2   6   13.04    0.81 
   2   0   7   80.36    2.14 
  -2   0   7   79.33    2.21 
   0   2   7   83.74    2.19 
   0  -2   7   80.30    2.20 
   2   0   8   19.81    1.16 
  -2   0   8   19.66    1.21 
   0  -2   8   20.81    1.22 
   0   2   8   19.73    1.18 
   0   2   9    3.29    0.56 
   2   0   9    3.00    0.53 
  -2   0   9    3.02    0.56 
   0  -2   9    2.96    0.56 
   0   2  10   -0.20    0.31 
   0   2 -10    0.33    0.14 
   0  -2 -10    0.16    0.16 
   2   0  10    0.27    0.27 
   2   0 -10    0.07    0.14 
  -2   0  10    0.14    0.26 
   0  -2  10   -0.20    0.33 
  -2   0 -10    0.29    0.15 
  -2   0  11    0.73    0.44 
   0   2  11    0.78    0.50 
   0  -2  11    1.27    0.51 
  -2   0 -11    1.10    0.21 
  -2   0 -11    1.51    0.24 
   0  -2 -11    1.22    0.22 
   2   0 -11    1.31    0.21 
   0   2 -11    1.50    0.24 
   2   0  11    1.64    0.49 
   0  -2 -12    6.89    0.46 
  -2   0 -12    5.35    0.39 
   0   2 -12    4.77    0.37 
   0   2 -12    6.21    0.44 
  -2   0 -12    6.96    0.47 
   2   0 -12    6.44    0.45 
   0   2 -13    3.82    0.36 
   0  -2 -13    4.07    0.37 
  -2   0 -13    3.17    0.30 
   2   0 -13    3.99    0.37 
  -2   0 -13    4.06    0.37 
  -2   0 -14   12.17    0.58 
   0  -2 -14   11.22    0.55 
   0   2 -14   11.77    0.57 
   2   0 -14   11.13    0.55 
   0   2 -15    7.32    0.42 
  -2   0 -15    7.45    0.42 
   0  -2 -15    7.94    0.43 
   2   0 -15    7.73    0.43 
   0   2 -16    2.23    0.23 
   0  -2 -16    2.15    0.22 
  -2   0 -16    2.58    0.23 
   2   0 -16    2.14    0.23 
   0   2 -17    0.56    0.11 
   2  -1   0   -0.04    0.07 
   1  -2   0    0.07    0.07 
  -1  -2   0    0.02    0.04 
   2   1   0    0.11    0.04 
  -1  -2  -1    4.49    0.17 
   2  -1  -1    4.10    0.26 
   2  -1   1    3.96    0.25 
   2   1   1    3.75    0.13 
   1  -2   1    4.78    0.27 
   1  -2  -1    4.47    0.24 
  -2   1   1    4.49    0.26 
  -1  -2   1    4.77    0.25 
   1  -2  -2   12.69    0.45 
   2  -1   2   13.02    0.47 
   2  -1  -2   12.00    0.46 
  -2  -1   2   12.17    0.47 
   2   1   2   12.34    0.37 
  -1  -2   2   12.68    0.48 
  -1  -2  -2   12.27    0.37 
   1  -2   2   12.41    0.49 
  -2   1   2   13.05    0.42 
   1  -2  -3   31.57    0.85 
   2  -1  -3   30.44    0.84 
  -2   1   3   31.10    0.69 
   2  -1   3   31.41    0.85 
  -2  -1   3   31.35    0.89 
   2   1   3   30.10    0.74 
   1   2   3   30.98    0.76 
   1  -2   3   32.09    0.89 
  -1  -2   3   30.97    0.88 
  -2  -1   4   28.96    0.98 
  -1  -2   4   29.13    0.96 
   2  -1   4   29.58    0.94 
   1   2   4   30.83    0.91 
  -1   2   4   30.03    0.65 
   2   1   4   29.69    0.87 
   1  -2   4   29.54    0.97 
   1  -2   5    0.51    0.22 
  -2  -1   5    0.27    0.22 
  -1   2   5    0.50    0.21 
  -1  -2   5    0.19    0.19 
   2  -1   5    0.40    0.20 
  -2   1   5    0.37    0.22 
   1   2   5    0.35    0.19 
   2   1   5    0.49    0.21 
  -2  -1   6    8.82    0.68 
  -2   1   6    8.92    0.71 
   2   1   6    8.27    0.62 
  -1  -2   6    8.07    0.65 
   2  -1   6    8.72    0.66 
   1   2   6    8.11    0.63 
   1  -2   6    8.50    0.66 
  -1   2   6    9.58    0.72 
  -1  -2   7   18.75    1.08 
   1   2   7   19.09    1.05 
  -2  -1   7   20.37    1.11 
  -1   2   7   19.46    1.11 
  -2   1   7   19.94    1.12 
   1  -2   7   19.14    1.06 
   2  -1   7   19.38    1.06 
   2   1   7   18.79    1.04 
  -2   1   8    2.00    0.44 
   1  -2   8    2.62    0.48 
   2   1   8    2.26    0.45 
  -1  -2   8    1.91    0.46 
   2  -1   8    2.10    0.43 
  -2  -1   8    1.82    0.45 
   1   2   8    1.83    0.42 
  -1   2   8    2.18    0.44 
   1   2   9    3.31    0.56 
  -2  -1   9    3.73    0.61 
  -1   2   9    4.04    0.67 
  -2   1   9    4.25    0.65 
   2   1   9    4.20    0.63 
   1  -2   9    3.30    0.56 
   2  -1   9    3.47    0.58 
  -1  -2   9    3.66    0.62 
   1   2  10    4.19    0.67 
  -2   1 -10    4.38    0.35 
   1  -2 -10    4.32    0.34 
   2   1 -10    4.11    0.33 
  -1  -2 -10    2.98    0.27 
   1   2 -10    4.49    0.34 
  -2  -1  10    3.93    0.68 
  -2  -1 -10    4.43    0.34 
  -1   2 -10    3.96    0.34 
  -2   1  10    3.68    0.65 
  -1  -2  10    4.06    0.69 
   2  -1  10    3.06    0.58 
  -1   2  10    4.14    0.69 
   2   1  10    3.85    0.61 
   1  -2  10    4.06    0.70 
  -2  -1 -10    3.19    0.28 
  -1  -2 -10    4.35    0.34 
   2  -1 -10    4.25    0.33 
  -1  -2 -11    1.40    0.24 
  -2  -1  11    1.03    0.54 
  -2  -1 -11    1.02    0.19 
  -2  -1 -11    0.97    0.21 
   2  -1 -11    1.39    0.23 
   2   1 -11    0.96    0.22 
  -2   1 -11    1.34    0.23 
   1   2  11    1.24    0.45 
  -1  -2 -11    1.09    0.19 
  -2   1  11    1.06    0.50 
   1   2 -11    1.68    0.25 
   2   1  11    0.81    0.39 
   2  -1  11    0.80    0.45 
   1  -2 -11    1.42    0.23 
  -1   2  11    1.45    0.50 
  -1   2 -11    1.58    0.24 
  -1  -2  11    1.16    0.46 
   1  -2  11    0.63    0.36 
  -2  -1 -12    0.57    0.17 
   1   2 -12    0.88    0.21 
  -2  -1 -12    0.65    0.21 
  -1  -2 -12    0.55    0.16 
  -1   2 -12    0.88    0.23 
  -1   2 -12    0.84    0.20 
  -1  -2 -12    1.04    0.22 
   2  -1 -12    1.03    0.23 
  -2   1 -12    0.58    0.19 
   2   1 -12    0.55    0.19 
  -2   1 -12    1.02    0.21 
   1  -2 -12    0.76    0.21 
   1   2 -13    0.16    0.17 
   2  -1 -13   -0.10    0.18 
  -2  -1 -13    0.13    0.17 
  -1   2 -13    0.32    0.17 
  -1  -2 -13    0.03    0.14 
  -1  -2 -13   -0.02    0.19 
  -1   2 -13    0.17    0.19 
  -2   1 -13   -0.01    0.15 
  -2  -1 -13   -0.12    0.15 
  -2   1 -13    0.27    0.20 
   2   1 -13    0.32    0.20 
   1  -2 -13    0.31    0.19 
  -1   2 -14    0.06    0.12 
  -1   2 -14    0.15    0.17 
  -2   1 -14    0.11    0.13 
  -2  -1 -14   -0.03    0.12 
  -2  -1 -14   -0.06    0.17 
  -2   1 -14   -0.11    0.16 
   2   1 -14    0.21    0.18 
  -1  -2 -14    0.00    0.16 
   1  -2 -14   -0.01    0.16 
   2  -1 -14    0.01    0.17 
   1   2 -14   -0.20    0.19 
  -1  -2 -15    0.18    0.16 
  -2   1 -15   -0.03    0.15 
   2  -1 -15   -0.15    0.16 
   2   1 -15    0.04    0.15 
   1  -2 -15    0.02    0.15 
   1   2 -15   -0.11    0.15 
  -1   2 -15   -0.02    0.15 
  -2  -1 -15   -0.13    0.15 
   2   1 -16    0.29    0.13 
  -1  -2 -16    0.43    0.14 
  -1   2 -16    0.36    0.14 
   1   2 -16    0.21    0.13 
  -2  -1 -16    0.22    0.12 
   1  -2 -16    0.09    0.12 
   2  -1 -16    0.08    0.12 
  -2   1 -16    0.25    0.13 
   1   2 -17   -0.12    0.09 
  -1   2 -17   -0.10    0.09 
  -2   1 -17   -0.11    0.08 
   2   1 -17   -0.22    0.10 
   2  -2   0  554.28    3.40 
  -2  -2   0  564.48    2.64 
   2  -2   1   31.76    0.70 
  -2  -2   1   33.35    0.63 
   2  -2  -1   31.65    0.68 
   2  -2  -2  441.81    3.25 
  -2  -2   2  438.47    3.24 
   2  -2   2  439.94    3.34 
   2   2   2  440.32    2.57 
  -2  -2   3   62.58    1.26 
   2   2   3   62.71    1.04 
  -2   2   3   62.90    1.05 
   2  -2  -3   62.95    1.24 
   2  -2   3   64.55    1.31 
  -2  -2   4    8.04    0.54 
   2  -2  -4    8.62    0.53 
   2   2   4    8.55    0.48 
  -2   2   4    8.71    0.42 
   2  -2   4    8.43    0.54 
   2   2   5   56.26    1.39 
  -2  -2   5   58.83    1.55 
  -2   2   5   61.08    1.56 
   2  -2   5   58.75    1.53 
   2   2   6  135.86    2.43 
   2  -2   6  135.47    2.61 
  -2  -2   6  133.47    2.59 
  -2   2   6  139.23    2.65 
  -2  -2   7    6.32    0.65 
  -2   2   7    6.81    0.68 
   2   2   7    5.51    0.56 
   2  -2   7    6.65    0.66 
  -2  -2   8    6.27    0.72 
  -2   2   8    6.60    0.75 
   2   2   8    6.81    0.71 
   2  -2   8    6.35    0.71 
   2   2   9   20.53    1.31 
   2  -2   9   21.12    1.35 
  -2  -2   9   19.56    1.33 
  -2   2   9   20.77    1.35 
   2   2 -10    9.03    0.47 
   2   2  10    8.66    0.92 
  -2  -2 -10    7.30    0.40 
  -2  -2  10    7.70    0.93 
   2  -2 -10    8.93    0.47 
  -2  -2 -10    9.38    0.48 
   2  -2  10    7.78    0.90 
  -2   2 -10    9.15    0.48 
  -2   2  10    8.48    0.97 
  -2   2  11    0.73    0.36 
  -2   2 -11    0.58    0.19 
   2  -2  11    0.79    0.44 
  -2  -2 -11    0.38    0.15 
   2   2 -11    0.35    0.18 
  -2  -2 -11    0.75    0.21 
  -2  -2  11    0.40    0.32 
   2  -2 -11    0.81    0.20 
  -2  -2 -12    1.16    0.25 
  -2  -2 -12    0.82    0.18 
  -2   2 -12    1.13    0.21 
  -2   2 -12    1.22    0.24 
   2  -2 -12    1.38    0.25 
   2   2 -12    1.62    0.25 
   2  -2 -13    7.57    0.47 
   2   2 -13    7.78    0.48 
  -2   2 -13    7.20    0.48 
  -2   2 -13    6.54    0.41 
  -2  -2 -13    7.56    0.47 
  -2  -2 -13    5.82    0.38 
  -2  -2 -14    2.40    0.24 
  -2  -2 -14    3.16    0.33 
   2   2 -14    3.06    0.32 
   2  -2 -14    3.35    0.33 
  -2   2 -14    3.31    0.32 
   2  -2 -15    4.31    0.33 
   2   2 -15    4.67    0.34 
  -2  -2 -15    3.60    0.31 
  -2   2 -15    4.66    0.34 
   2   2 -16    3.82    0.27 
   2  -2 -16    3.65    0.26 
  -2   2 -16    3.79    0.27 
  -2  -2 -16    3.89    0.27 
   2   2 -17    0.84    0.12 
  -2   2 -17    0.56    0.10 
   3   0   0    0.01    0.07 
   0  -3   0    0.05    0.08 
   0  -3  -1  168.21    1.52 
   3   0   1  170.37    1.45 
   3   0  -1  171.98    1.63 
   0  -3  -2  359.78    2.68 
   3   0   2  354.80    2.59 
   3   0  -2  355.69    2.89 
   0  -3   2  364.00    3.01 
   3   0   3   73.99    1.25 
   0  -3  -3   69.58    1.25 
   0  -3   3   72.06    1.39 
   3   0   4    5.94    0.42 
  -3   0   4    5.84    0.46 
   0  -3   4    5.93    0.47 
   0   3   5   79.50    1.74 
  -3   0   5   80.22    1.84 
   0  -3   5   78.48    1.81 
   3   0   5   77.31    1.66 
   0  -3   6   17.56    0.95 
  -3   0   6   17.35    0.98 
   3   0   6   16.83    0.88 
   0   3   6   17.68    0.94 
   3   0   7   -0.19    0.21 
   0   3   7   -0.06    0.21 
   0  -3   7   -0.09    0.21 
  -3   0   7    0.11    0.25 
   0  -3   8    9.86    0.86 
   0   3   8    9.56    0.83 
   3   0   8   10.78    0.87 
  -3   0   8   10.32    0.91 
  -3   0   9   15.21    1.18 
   0   3   9   13.09    1.08 
   0  -3   9   14.06    1.12 
   3   0   9   13.94    1.09 
   3   0 -10    7.67    0.43 
   0  -3 -10    7.73    0.44 
   0  -3  10    7.40    0.92 
  -3   0  10    6.38    0.85 
  -3   0 -10    7.76    0.45 
   0   3  10    7.08    0.85 
   3   0  10    7.59    0.88 
   0   3 -10    7.39    0.44 
  -3   0 -11    7.99    0.48 
   3   0  11    5.57    0.84 
   0   3 -11    7.80    0.48 
   0  -3  11    8.39    1.04 
  -3   0  11    6.98    0.95 
  -3   0 -11    7.80    0.45 
   3   0 -11    8.20    0.47 
   0  -3 -11    8.08    0.48 
   0   3  11    4.98    0.76 
  -3   0 -12    7.05    0.45 
   0  -3 -12    8.27    0.49 
   0   3 -12    7.67    0.48 
  -3   0 -12    8.78    0.51 
   3   0 -12    8.27    0.49 
  -3   0 -13    5.52    0.39 
   0   3 -13    6.99    0.46 
   3   0 -13    6.71    0.45 
  -3   0 -13    6.56    0.46 
   0  -3 -13    7.32    0.47 
  -3   0 -14    0.19    0.14 
  -3   0 -14    0.41    0.18 
   3   0 -14    0.21    0.17 
   0   3 -14    0.08    0.17 
   0  -3 -14    0.06    0.18 
   3   0 -15    0.68    0.19 
  -3   0 -15    0.50    0.17 
  -3   0 -15    0.79    0.16 
   0   3 -15    0.69    0.18 
   0  -3 -15    0.54    0.18 
   3   0 -16    0.21    0.12 
   0   3 -16    0.14    0.12 
  -3   0 -16    0.11    0.11 
   0   3 -17    0.21    0.09 
   1  -3   0   59.70    0.94 
  -3   1   0   59.57    0.95 
  -1  -3   0   56.96    0.77 
   3  -1   0   58.06    0.89 
   3   1   0   60.79    0.69 
   1  -3  -1   46.19    0.85 
   3  -1   1   46.84    0.82 
   3  -1  -1   46.58    0.88 
  -1  -3  -1   46.50    0.65 
   3   1   1   47.82    0.54 
  -3   1   1   48.31    0.89 
  -3   1  -1   46.66    0.80 
   3   1  -1   47.99    0.79 
  -1  -3   1   48.49    0.85 
   1  -3   1   45.91    0.89 
  -3   1  -2   21.50    0.56 
   3  -1  -2   24.56    0.72 
  -1  -3  -2   24.83    0.59 
  -1  -3   2   25.12    0.76 
  -3   1   2   26.42    0.69 
   3   1   2   24.05    0.55 
   1  -3  -2   27.04    0.73 
   3  -1   2   23.08    0.71 
   1  -3   2   24.07    0.78 
  -3   1   3    7.13    0.40 
  -3  -1   3    6.30    0.43 
  -1  -3   3    6.18    0.44 
   3  -1  -3    5.68    0.41 
   3  -1   3    6.58    0.42 
  -1  -3  -3    5.71    0.34 
  -3   1  -3    6.17    0.26 
   3   1   3    5.65    0.34 
   1  -3   3    6.02    0.44 
   1  -3  -3    5.42    0.39 
   3   1   4    3.54    0.31 
   1   3   4    3.79    0.34 
  -3  -1   4    3.84    0.39 
   1  -3   4    3.34    0.37 
   1  -3  -4    3.53    0.35 
   3  -1   4    3.83    0.37 
  -1  -3   4    3.97    0.40 
   3  -1   5    2.47    0.35 
   1   3   5    2.90    0.36 
   1   3   5    1.78    0.13 
  -1   3   5    2.59    0.23 
  -3   1   5    2.82    0.39 
  -3  -1   5    2.43    0.36 
  -1  -3   5    2.15    0.34 
   1  -3   5    2.55    0.38 
   3   1   5    2.54    0.32 
   1   3   6    0.88    0.30 
   3   1   6    0.76    0.24 
   1  -3   6    0.90    0.26 
  -1  -3   6    0.89    0.27 
  -3   1   6    0.89    0.31 
  -3  -1   6    0.98    0.29 
   3  -1   6    1.14    0.31 
  -1   3   6    1.17    0.32 
   3  -1   7    0.83    0.30 
  -3   1   7    1.13    0.35 
  -3  -1   7    0.98    0.29 
   3   1   7    0.97    0.30 
   1   3   7    0.89    0.30 
  -1   3   7    0.75    0.28 
  -1  -3   7    0.99    0.35 
   1  -3   7    1.17    0.36 
   3  -1   8    2.26    0.44 
  -3  -1   8    2.23    0.46 
   1  -3   8    2.87    0.50 
  -1   3   8    2.42    0.47 
   1   3   8    2.45    0.47 
  -1  -3   8    2.31    0.47 
   3   1   8    2.27    0.43 
  -3   1   8    2.54    0.51 
   1   3   9    5.40    0.70 
  -3   1   9    5.24    0.73 
   3  -1   9    4.72    0.66 
  -3  -1   9    4.98    0.71 
  -1   3   9    5.66    0.74 
   1  -3   9    5.84    0.75 
   3   1   9    5.31    0.68 
  -1  -3   9    4.81    0.68 
  -3  -1  10    0.35    0.35 
  -1  -3  10    0.16    0.32 
   3  -1 -10    0.33    0.14 
  -1  -3 -10    0.41    0.13 
   3  -1  10    0.47    0.36 
  -3  -1 -10    0.12    0.16 
  -3   1  10   -0.01    0.30 
  -3   1 -10    0.37    0.17 
   1  -3  10    0.25    0.28 
   1   3  10    0.13    0.27 
   3   1  10    0.45    0.33 
   1   3 -10    0.50    0.16 
   1  -3 -10    0.55    0.19 
  -1   3 -10    0.31    0.15 
  -1  -3 -10    0.46    0.14 
   3   1 -10    0.23    0.15 
  -3  -1 -10    0.31    0.15 
  -1   3  10    0.53    0.39 
   1  -3 -11    0.45    0.16 
  -1  -3 -11    0.22    0.16 
  -1   3  11    0.10    0.35 
   3  -1  11    0.46    0.39 
  -1   3 -11    0.35    0.19 
  -3   1 -11    0.01    0.17 
   3   1 -11    0.20    0.15 
  -3  -1 -11    0.08    0.16 
  -3  -1 -11    0.19    0.15 
   1   3 -11    0.62    0.20 
   1   3  11   -0.31    0.37 
  -3  -1  11   -0.10    0.35 
  -1  -3  11    0.64    0.36 
   3  -1 -11    0.11    0.15 
  -1  -3 -11    0.47    0.16 
   1  -3  11    0.24    0.35 
  -3   1  11    0.52    0.38 
   1  -3 -12    0.10    0.17 
  -3   1 -12    0.26    0.18 
   3   1 -12    0.18    0.16 
  -1  -3 -12    0.25    0.17 
  -1  -3 -12    0.05    0.12 
   1   3 -12    0.34    0.19 
  -3  -1 -12    0.15    0.15 
  -3  -1 -12    0.12    0.16 
  -3   1 -12    0.08    0.15 
  -1   3 -12    0.24    0.18 
   3  -1 -12    0.25    0.17 
  -1   3 -13    2.01    0.26 
  -3  -1 -13    2.68    0.31 
   1   3 -13    2.64    0.31 
  -3  -1 -13    2.34    0.28 
  -3   1 -13    2.54    0.30 
   1  -3 -13    2.43    0.31 
   3   1 -13    2.55    0.31 
  -3   1 -13    1.93    0.26 
  -1  -3 -13    2.31    0.30 
  -1   3 -13    2.36    0.31 
   3  -1 -13    2.67    0.32 
  -3  -1 -14    0.22    0.17 
   1  -3 -14    0.09    0.17 
  -1  -3 -14    0.06    0.17 
  -1   3 -14    0.21    0.17 
  -3   1 -14   -0.08    0.13 
   3   1 -14   -0.06    0.15 
  -3  -1 -14    0.12    0.15 
   1   3 -14   -0.11    0.18 
   3  -1 -14   -0.06    0.16 
  -1   3 -14   -0.15    0.14 
  -3   1 -14   -0.10    0.19 
  -1   3 -15    0.20    0.15 
   3   1 -15    0.42    0.17 
   1  -3 -15    0.11    0.14 
  -3  -1 -15    0.22    0.11 
   3  -1 -15    0.07    0.14 
  -1  -3 -15    0.06    0.14 
   1   3 -15   -0.05    0.15 
  -3  -1 -15    0.45    0.17 
  -3   1 -15    0.37    0.16 
  -3   1 -15    0.02    0.11 
  -3   1 -16    0.22    0.11 
   3   1 -16    0.29    0.13 
   3  -1 -16    0.25    0.12 
  -3  -1 -16    0.38    0.13 
  -1   3 -16    0.28    0.12 
   1   3 -16    0.35    0.13 
  -1   3 -17    0.25    0.08 
   1   3 -17    0.16    0.08 
   3  -2   0   -0.04    0.12 
  -3  -2   0    0.00    0.05 
  -2  -3   0    0.01    0.06 
   2  -3   0   -0.10    0.12 
  -3  -2   1   11.12    0.39 
  -2  -3   1   10.70    0.40 
  -2  -3  -1    9.92    0.24 
   3  -2  -1   10.51    0.45 
   3  -2   1   10.97    0.46 
   2  -3   1   10.72    0.47 
   2  -3  -1   10.25    0.45 
   3   2   2    7.53    0.24 
  -3  -2   2    7.32    0.40 
   3  -2   2    7.73    0.42 
   2  -3  -2    7.01    0.41 
   3  -2  -2    7.66    0.43 
   2  -3   2    7.72    0.45 
  -2  -3   2    7.68    0.41 
   3   2   3   30.69    0.69 
   2  -3   3   30.97    0.98 
   3  -2  -3   31.11    0.91 
   2   3   3   29.89    0.72 
  -3  -2   3   30.07    0.94 
  -3   2   3   31.76    0.85 
  -2  -3   3   29.98    0.91 
   2  -3  -3   32.02    0.91 
   3  -2   3   32.18    0.94 
   3  -2   4  103.07    1.90 
   2  -3   4   98.99    1.91 
   2  -3  -4  101.35    1.81 
   3   2   4   94.70    1.51 
  -3   2   4   98.87    1.55 
   3  -2  -4   95.28    1.78 
  -3  -2   4   97.00    1.85 
  -2   3   4   98.95    1.50 
   2   3   4   98.14    1.60 
  -2  -3   4   97.29    1.83 
   2  -3   5   13.61    0.78 
   3  -2   5   13.68    0.76 
   2   3   5   13.11    0.67 
  -3  -2   5   13.35    0.78 
   3   2   5   13.52    0.66 
  -2  -3   5   12.95    0.75 
  -2   3   5   12.85    0.54 
   3   2   6    2.95    0.39 
  -2   3   6    2.71    0.43 
  -3   2   6    2.91    0.44 
  -2  -3   6    2.59    0.42 
   2  -3   6    3.29    0.46 
   2   3   6    2.65    0.36 
   3  -2   6    3.26    0.44 
  -3  -2   6    2.75    0.42 
   2   3   7    0.46    0.25 
   3   2   7    0.55    0.23 
   2  -3   7    0.39    0.23 
   3  -2   7    0.86    0.31 
  -3   2   7    0.97    0.31 
  -3  -2   7    0.74    0.28 
  -2   3   7    0.95    0.34 
  -2  -3   7    0.32    0.26 
  -3   2   8    1.20    0.39 
   2   3   8    1.79    0.41 
   3  -2   8    1.50    0.41 
   3   2   8    1.87    0.38 
   2  -3   8    1.82    0.44 
  -2   3   8    1.88    0.48 
  -2  -3   8    1.87    0.40 
  -3  -2   8    1.96    0.47 
   2   3   9    8.88    0.88 
   3  -2   9    8.46    0.89 
   3   2   9    9.36    0.89 
  -2   3   9    7.87    0.88 
   2  -3   9    9.82    0.95 
  -2  -3   9    9.40    0.95 
  -3   2   9    7.89    0.90 
  -3  -2   9    8.53    0.91 
  -3  -2 -10   12.03    0.53 
  -3  -2 -10   13.21    0.58 
   3   2 -10   12.57    0.55 
  -2   3  10   13.77    1.19 
  -2  -3 -10   13.10    0.58 
   2  -3  10   12.59    1.19 
   3  -2  10   12.36    1.15 
  -2  -3 -10   10.83    0.49 
   2   3  10   11.12    1.04 
  -3   2  10   12.48    1.17 
  -3  -2  10   11.50    1.13 
  -2   3 -10   13.70    0.59 
   2   3 -10   13.05    0.56 
  -2  -3  10   12.25    1.15 
   2  -3 -10   13.56    0.58 
  -3   2 -10   13.79    0.60 
   3  -2 -10   13.02    0.57 
   3   2  10   11.20    1.05 
  -2   3  11   10.84    1.12 
   2   3 -11   13.55    0.61 
  -3  -2  11   11.35    1.19 
  -2  -3 -11   13.81    0.62 
   3  -2  11   10.97    1.14 
  -3   2  11   11.49    1.23 
  -2  -3  11   12.74    1.26 
  -3  -2 -11   12.21    0.56 
   2  -3  11   11.33    1.21 
   3   2 -11   14.49    0.61 
   3  -2 -11   13.53    0.61 
  -2   3 -11   14.13    0.62 
   2  -3 -11   13.66    0.61 
  -3  -2 -11   14.84    0.64 
  -3   2 -11   14.54    0.63 
  -2  -3 -11   11.43    0.53 
   3  -2 -12    6.79    0.45 
  -3  -2 -12    6.27    0.44 
   2  -3 -12    6.21    0.44 
  -2  -3 -12    5.70    0.39 
   2   3 -12    6.40    0.44 
   3   2 -12    6.07    0.43 
  -3   2 -12    7.00    0.46 
  -2   3 -12    6.66    0.46 
  -3   2 -12    5.71    0.42 
  -2  -3 -12    6.09    0.44 
  -3  -2 -12    5.75    0.41 
   3  -2 -13    1.80    0.27 
  -3   2 -13    1.67    0.24 
  -2  -3 -13    1.86    0.27 
  -3   2 -13    1.99    0.29 
   3   2 -13    1.89    0.27 
   2  -3 -13    1.83    0.28 
  -3  -2 -13    1.48    0.23 
  -2  -3 -13    1.48    0.21 
  -3  -2 -13    2.03    0.27 
   2   3 -13    1.94    0.27 
  -2   3 -13    1.35    0.24 
  -2   3 -13    1.70    0.27 
  -3   2 -14    0.68    0.17 
   2  -3 -14    0.72    0.20 
  -2   3 -14    0.95    0.21 
  -2   3 -14    0.71    0.17 
   2   3 -14    0.56    0.19 
  -2  -3 -14    0.48    0.15 
   3   2 -14    0.90    0.21 
  -3  -2 -14    0.55    0.15 
   3  -2 -14    0.85    0.21 
  -3  -2 -14    0.88    0.21 
  -2  -3 -14    0.74    0.21 
  -3   2 -14    0.66    0.18 
  -2   3 -15   -0.19    0.11 
  -3  -2 -15   -0.05    0.14 
   3  -2 -15    0.09    0.13 
  -2   3 -15    0.00    0.14 
  -3   2 -15   -0.08    0.14 
   3   2 -15    0.02    0.14 
  -2  -3 -15   -0.08    0.14 
   2   3 -15   -0.06    0.15 
  -3   2 -15    0.02    0.11 
   2  -3 -15   -0.24    0.16 
  -3  -2 -15   -0.08    0.12 
  -2   3 -16   -0.02    0.11 
   3   2 -16    0.01    0.11 
   2   3 -16    0.17    0.12 
  -3   2 -16   -0.03    0.10 
   2   3 -17    0.17    0.08 
   3   2 -17    0.20    0.08 
  -3  -3   0  200.08    1.39 
   3  -3   0  197.51    2.11 
   3  -3   1   12.82    0.54 
   3  -3  -1   12.31    0.53 
  -3  -3   1   12.59    0.43 
   3  -3   2    3.25    0.31 
  -3  -3   2    2.80    0.26 
   3   3   2    2.70    0.12 
   3  -3  -2    3.11    0.31 
  -3  -3   3   14.97    0.66 
   3   3   3   14.18    0.44 
   3  -3  -3   13.65    0.63 
   3  -3   3   14.38    0.67 
   3  -3   4  128.23    2.20 
  -3  -3   4  124.05    2.15 
   3  -3  -4  118.88    2.08 
  -3   3   4  131.28    1.89 
   3   3   4  124.17    1.69 
   3  -3   5   24.20    1.06 
   3   3   5   24.60    0.87 
   3  -3  -5   24.31    1.01 
  -3   3   5   23.50    0.81 
  -3  -3   5   24.22    1.04 
  -3   3   6    0.06    0.20 
   3   3   6    0.01    0.17 
  -3  -3   6   -0.06    0.25 
   3  -3   6   -0.15    0.25 
   3   3   7   35.75    1.36 
  -3  -3   7   35.48    1.51 
  -3   3   7   35.77    1.56 
   3  -3   7   35.19    1.52 
  -3   3   8   42.65    1.85 
  -3  -3   8   40.65    1.77 
   3  -3   8   41.83    1.80 
   3   3   8   40.39    1.62 
   3  -3   9    3.50    0.59 
  -3   3   9    3.30    0.63 
   3   3   9    3.72    0.56 
  -3  -3   9    3.27    0.56 
   3   3 -10    0.11    0.14 
  -3   3 -10    0.07    0.15 
   3  -3  10    0.09    0.27 
  -3  -3  10    0.09    0.33 
  -3  -3 -10    0.02    0.14 
  -3  -3 -10    0.33    0.15 
   3  -3 -10    0.30    0.15 
  -3   3  10    0.32    0.27 
  -3  -3  11    0.96    0.39 
  -3  -3 -11    0.63    0.19 
  -3   3 -11    0.75    0.21 
   3  -3 -11    0.52    0.19 
  -3  -3 -11    0.47    0.18 
   3   3 -11    0.71    0.21 
   3  -3  11    0.46    0.41 
  -3   3  11    0.20    0.28 
  -3  -3 -12    0.73    0.19 
  -3  -3 -12    0.60    0.19 
  -3   3 -12    0.84    0.22 
   3  -3 -12    0.67    0.20 
   3   3 -12    0.75    0.21 
   3  -3 -13    1.27    0.25 
  -3  -3 -13    1.12    0.21 
   3   3 -13    1.08    0.22 
  -3  -3 -13    1.26    0.24 
  -3   3 -13    1.08    0.22 
  -3   3 -13    1.17    0.23 
  -3   3 -14    1.22    0.22 
   3  -3 -14    1.21    0.22 
  -3  -3 -14    1.08    0.21 
  -3   3 -14    1.11    0.21 
  -3  -3 -14    1.04    0.19 
   3   3 -14    1.47    0.24 
  -3   3 -15    0.31    0.13 
  -3  -3 -15    0.04    0.13 
  -3   3 -15    0.19    0.14 
   3   3 -15    0.49    0.15 
   3  -3 -15    0.23    0.15 
   3   3 -16   -0.08    0.12 
  -3   3 -16    0.00    0.10 
   0  -4   0  995.49    5.41 
   4   0   0 1000.00    5.19 
   4   0  -1  125.56    1.51 
   0  -4  -1  124.26    1.43 
   4   0   1  120.40    1.31 
   0  -4   1  122.20    1.58 
   0  -4   2   45.38    1.07 
   0  -4  -2   44.70    0.91 
   4   0  -2   44.73    1.00 
   4   0   2   42.80    0.84 
   4   0  -3    3.08    0.32 
   0  -4   3    3.07    0.34 
   4   0   3    3.06    0.28 
   0  -4  -3    2.87    0.29 
   0  -4  -4   48.04    1.20 
   0  -4   4   49.24    1.35 
   4   0   4   49.19    1.20 
  -4   0   5   99.42    2.17 
   4   0   5  103.93    1.97 
   0  -4   5  101.72    2.15 
   0  -4   6  101.86    2.33 
  -4   0   6  105.07    2.41 
   0   4   6  102.30    2.26 
   4   0   6  102.16    2.17 
   0  -4   7    5.13    0.62 
   4   0   7    4.61    0.53 
  -4   0   7    5.12    0.62 
   0   4   7    5.04    0.59 
   0   4   8    8.16    0.80 
   4   0   8    9.26    0.82 
   0  -4   8    8.43    0.84 
  -4   0   8    8.89    0.86 
   4   0   9    3.23    0.55 
  -4   0   9    3.55    0.61 
   0   4   9    3.19    0.57 
   0  -4   9    3.32    0.58 
   0  -4 -10    2.02    0.25 
   0  -4  10    2.83    0.63 
   0   4  10    2.09    0.50 
  -4   0 -10    2.32    0.28 
  -4   0  10    2.46    0.59 
   0   4 -10    2.23    0.26 
   4   0 -10    2.11    0.25 
   4   0  10    2.00    0.49 
  -4   0  11   -0.30    0.32 
   4   0 -11    0.08    0.15 
  -4   0 -11    0.19    0.15 
  -4   0 -11    0.28    0.18 
   0  -4 -11   -0.10    0.20 
   0   4 -11    0.20    0.16 
   0  -4  11   -0.01    0.34 
   0   4  11   -0.06    0.36 
   0   4 -12    0.34    0.19 
  -4   0 -12    0.36    0.17 
   0  -4 -12    0.30    0.17 
   4   0 -12    0.37    0.17 
  -4   0 -12    0.06    0.17 
  -4   0 -13    5.16    0.41 
   0   4 -13    5.34    0.41 
   4   0 -13    5.18    0.40 
   0  -4 -13    4.95    0.39 
   0   4 -13    3.76    0.32 
  -4   0 -13    4.46    0.36 
   0   4 -14    3.02    0.31 
  -4   0 -14    2.92    0.29 
  -4   0 -14    2.61    0.29 
   4   0 -14    3.55    0.32 
   0  -4 -14    3.38    0.32 
   0   4 -15    1.34    0.21 
   0  -4 -15    1.27    0.21 
  -4   0 -15    1.13    0.18 
  -4   0 -15    1.36    0.21 
   4   0 -15    1.33    0.21 
   4   0 -16    0.83    0.15 
  -4   0 -16    0.76    0.14 
   0   4 -16    0.46    0.13 
   0   4 -17    0.31    0.09 
   4   1   0    0.14    0.09 
  -4   1   0   -0.01    0.14 
  -1  -4   0   -0.02    0.10 
   1  -4   0    0.07    0.12 
   4  -1   0    0.09    0.13 
   1  -4   1  136.18    1.75 
   4  -1  -1  143.88    1.72 
   4   1   1  142.21    1.21 
   1  -4  -1  136.70    1.65 
  -4   1   1  143.21    1.73 
   4  -1   1  136.98    1.61 
  -1  -4  -1  135.25    1.37 
  -4   1  -1  141.16    1.61 
   4   1  -1  142.73    1.57 
  -1  -4   1  137.09    1.63 
  -1  -4  -2   91.42    1.22 
  -4   1  -2   88.07    1.21 
   4  -1  -2   88.69    1.45 
   1  -4  -2   88.93    1.39 
   4  -1   2   90.96    1.38 
   1  -4   2   89.94    1.51 
  -1  -4   2   90.86    1.48 
  -4   1   2   91.60    1.43 
   4   1   2   88.94    1.07 
  -1  -4   3   29.31    0.95 
   4   1   3   29.32    0.73 
   4  -1   3   29.72    0.87 
  -4   1  -3   28.82    0.65 
  -1  -4  -3   30.82    0.80 
   4  -1  -3   30.10    0.93 
   1  -4  -3   29.03    0.88 
  -4  -1   3   29.33    0.92 
   1  -4   3   31.18    1.00 
   1  -4   4   17.06    0.82 
   4  -1  -4   15.39    0.75 
  -4  -1   4   17.86    0.82 
   4   1   4   16.36    0.65 
   1  -4  -4   17.33    0.75 
  -1  -4   4   16.82    0.80 
   4  -1   4   16.83    0.74 
  -1   4   5   29.71    0.84 
   4   1   5   29.41    0.99 
   4  -1   5   30.94    1.12 
  -4  -1   5   28.37    1.15 
  -4   1   5   28.76    1.14 
   1  -4   5   28.76    1.16 
  -1  -4   5   28.73    1.14 
   1   4   5   30.21    1.05 
  -1   4   6    2.38    0.41 
   1  -4   6    2.59    0.41 
  -1  -4   6    2.52    0.42 
  -4   1   6    2.85    0.44 
  -4  -1   6    2.80    0.45 
   4  -1   6    2.52    0.40 
   4   1   6    2.97    0.40 
   1   4   6    2.76    0.40 
   1  -4   7    1.90    0.40 
  -4  -1   7    2.52    0.47 
   4  -1   7    2.32    0.43 
  -4   1   7    2.51    0.48 
   1   4   7    1.88    0.40 
   4   1   7    1.43    0.33 
  -1   4   7    2.21    0.42 
  -1  -4   7    2.32    0.44 
  -4  -1   8    0.66    0.33 
   1  -4   8    0.90    0.32 
   4  -1   8    0.86    0.30 
  -1  -4   8    1.07    0.37 
  -4   1   8    1.13    0.40 
  -1   4   8    1.58    0.43 
   1   4   8    1.00    0.29 
   4   1   8    1.04    0.31 
   1   4   9    1.45    0.39 
  -4  -1   9    2.50    0.53 
   4  -1   9    2.72    0.55 
  -4   1   9    2.11    0.51 
  -1   4   9    1.82    0.47 
  -1  -4   9    2.03    0.47 
   1  -4   9    2.03    0.48 
   4   1   9    2.00    0.43 
  -4  -1  10   -0.37    0.37 
  -4   1  10    0.02    0.33 
   4  -1 -10    0.16    0.16 
  -4   1 -10    0.13    0.17 
  -1  -4 -10    0.26    0.17 
  -1  -4  10   -0.09    0.35 
   4  -1  10    0.09    0.23 
  -1  -4 -10    0.06    0.11 
   1  -4 -10    0.14    0.15 
   1   4 -10    0.17    0.14 
  -1   4  10    0.81    0.40 
   4   1 -10    0.14    0.15 
  -1   4 -10    0.06    0.14 
   1   4  10   -0.01    0.30 
   1  -4  10   -0.12    0.32 
  -4  -1 -10   -0.02    0.15 
  -4  -1 -10   -0.18    0.16 
  -4  -1 -11    0.35    0.16 
  -4   1 -11    0.49    0.20 
   4  -1 -11    0.49    0.19 
  -1   4  11    0.22    0.29 
  -1  -4 -11    0.35    0.15 
   4  -1  11    0.15    0.30 
  -4  -1  11    0.16    0.29 
   1   4 -11    0.44    0.18 
  -4   1 -11    0.47    0.18 
   4   1 -11    0.19    0.16 
  -4  -1 -11    0.38    0.17 
  -4   1  11    0.17    0.33 
  -1   4 -11    0.62    0.21 
  -1  -4  11   -0.21    0.33 
   1  -4 -11    0.39    0.18 
   1  -4  11    0.70    0.44 
  -1  -4 -11    0.37    0.19 
  -1  -4 -12    1.00    0.19 
   1   4 -12    1.87    0.28 
   4  -1 -12    1.26    0.23 
  -1   4 -12    1.37    0.25 
  -4  -1 -12    1.54    0.25 
  -1  -4 -12    1.61    0.27 
   4   1 -12    1.31    0.25 
  -4   1 -12    1.41    0.25 
   1  -4 -12    1.28    0.24 
  -4  -1 -12    1.43    0.26 
  -4   1 -12    1.60    0.26 
   4  -1 -13    0.72    0.21 
  -1   4 -13    0.81    0.21 
   1  -4 -13    1.02    0.22 
   4   1 -13    0.97    0.22 
  -1  -4 -13    1.30    0.24 
  -4  -1 -13    0.94    0.20 
   1   4 -13    1.01    0.22 
  -4   1 -13    1.10    0.21 
  -1   4 -13    1.00    0.22 
  -4  -1 -13    1.27    0.24 
  -4   1 -13    0.94    0.21 
   4   1 -14    0.01    0.15 
  -1   4 -14    0.09    0.16 
  -1   4 -14   -0.09    0.13 
  -1  -4 -14   -0.22    0.18 
  -4   1 -14   -0.09    0.16 
   4  -1 -14    0.05    0.15 
  -4  -1 -14   -0.07    0.14 
  -4   1 -14   -0.08    0.16 
   1  -4 -14   -0.12    0.18 
   1   4 -14    0.08    0.15 
  -4  -1 -14   -0.11    0.16 
  -4  -1 -15    0.23    0.14 
   4  -1 -15    0.27    0.14 
  -1  -4 -15    0.39    0.16 
   4   1 -15    0.38    0.17 
   1  -4 -15   -0.06    0.15 
  -4  -1 -15    0.36    0.14 
  -4   1 -15    0.25    0.14 
   1   4 -15    0.05    0.14 
  -4   1 -15    0.07    0.12 
  -1   4 -15    0.22    0.16 
   4  -1 -16   -0.05    0.11 
  -1   4 -16   -0.04    0.11 
   4   1 -16   -0.05    0.11 
  -4   1 -16   -0.06    0.08 
  -4   1 -16   -0.04    0.10 
   1   4 -16    0.00    0.11 
  -4  -1 -16   -0.08    0.11 
   1   4 -17    0.07    0.07 
  -2  -4   0    1.93    0.17 
   2  -4   0    2.19    0.26 
   4  -2   0    2.02    0.24 
  -4   2   0    1.79    0.25 
  -2  -4  -1    5.73    0.24 
   2  -4   1    5.75    0.41 
   4  -2   1    6.31    0.39 
   2  -4  -1    5.73    0.39 
  -4   2   1    6.28    0.43 
  -4  -2   1    6.01    0.32 
   4  -2  -1    6.24    0.41 
  -2  -4   1    5.92    0.34 
  -2  -4   2   26.51    0.79 
   4  -2  -2   26.50    0.83 
  -4   2   2   25.85    0.79 
   4  -2   2   26.39    0.80 
   2  -4  -2   26.29    0.80 
  -2  -4  -2   27.99    0.58 
  -4  -2   2   24.80    0.74 
   4   2   2   23.29    0.38 
   2  -4   2   25.89    0.83 
   4  -2   3   17.01    0.71 
  -2  -4   3   18.08    0.75 
   2  -4   3   18.33    0.78 
   4  -2  -3   18.47    0.75 
   4   2   3   18.69    0.53 
  -4   2   3   19.41    0.71 
   2  -4  -3   17.68    0.72 
  -4   2  -3   18.09    0.58 
  -4  -2   3   17.72    0.74 
   2  -4   4    4.70    0.47 
  -4  -2   4    4.84    0.46 
  -4   2  -4    4.48    0.28 
   2   4   4    4.50    0.36 
   4   2   4    4.34    0.32 
  -2  -4   4    4.73    0.44 
   4  -2   4    4.73    0.43 
  -4   2   4    4.75    0.38 
   2  -4  -4    4.76    0.43 
   4  -2  -4    4.52    0.44 
   2  -4  -5   24.26    1.01 
  -4  -2   5   24.78    1.09 
   2   4   5   23.43    0.91 
   4  -2   5   24.53    1.03 
   4   2   5   22.73    0.85 
  -2   4   5   23.35    0.80 
  -2  -4   5   23.63    1.05 
   2  -4   5   25.38    1.11 
   2  -4   6   40.24    1.51 
   4   2   6   39.47    1.27 
  -4  -2   6   40.76    1.50 
  -4   2   6   39.04    1.50 
   4  -2   6   39.16    1.43 
  -2  -4   6   39.95    1.50 
  -2   4   6   36.35    0.99 
   2   4   6   41.86    1.35 
   2  -4   7   68.24    2.15 
   4  -2   7   69.94    2.08 
  -2   4   7   71.36    2.13 
  -4  -2   7   66.65    2.13 
  -2  -4   7   69.58    2.13 
  -4   2   7   74.65    2.25 
   4   2   7   70.08    1.91 
   2   4   7   68.46    1.92 
  -4   2   8   36.60    1.74 
   4  -2   8   33.35    1.60 
   4   2   8   34.35    1.49 
  -2   4   8   34.85    1.65 
  -4  -2   8   33.02    1.63 
  -2  -4   8   33.09    1.58 
   2  -4   8   35.17    1.67 
   2   4   8   32.26    1.47 
  -4   2   9    8.69    0.95 
   4  -2   9   10.50    0.97 
   2   4  -9    8.78    0.43 
   2  -4  -9    9.18    0.45 
  -2  -4   9    8.09    0.88 
  -4  -2   9    8.22    0.89 
  -2   4  -9    8.77    0.46 
  -2   4   9   10.06    0.96 
   2   4   9    8.86    0.86 
   2  -4   9   10.07    1.00 
   2   4 -10    3.81    0.32 
   2  -4 -10    4.08    0.33 
  -2  -4 -10    3.86    0.33 
   4   2 -10    3.97    0.33 
  -4   2 -10    4.23    0.35 
  -4  -2  10    3.30    0.66 
  -2  -4 -10    2.99    0.27 
  -2  -4  10    3.43    0.70 
   2  -4  10    4.00    0.74 
   4  -2  10    3.13    0.61 
  -4  -2 -10    3.94    0.32 
  -2   4 -10    4.26    0.35 
   4  -2 -10    4.17    0.35 
  -2   4  10    3.96    0.69 
  -4  -2 -10    4.15    0.34 
  -4   2  10    3.86    0.69 
  -2  -4 -11   -0.18    0.18 
   2   4 -11    0.11    0.16 
   4  -2 -11    0.07    0.16 
   4  -2  11    0.05    0.38 
   4   2 -11   -0.11    0.17 
  -4  -2  11    0.06    0.28 
   2  -4 -11   -0.08    0.17 
  -2   4 -11    0.25    0.17 
  -2   4  11    0.18    0.37 
  -4   2 -11   -0.11    0.19 
   2  -4  11    0.18    0.41 
  -2  -4 -11    0.03    0.13 
  -4  -2 -11    0.06    0.16 
  -4  -2 -11   -0.04    0.15 
  -2  -4  11   -0.28    0.37 
  -4   2  11   -0.49    0.27 
  -2   4 -12    0.28    0.21 
   2   4 -12    0.31    0.18 
  -4  -2 -12    0.35    0.18 
  -4   2 -12    0.22    0.17 
   4   2 -12    0.34    0.17 
  -4  -2 -12    0.51    0.19 
  -2  -4 -12    0.11    0.17 
   2  -4 -12    0.38    0.18 
  -2  -4 -12    0.01    0.18 
  -4   2 -12    0.35    0.18 
   4  -2 -12    0.22    0.17 
   4   2 -13    0.54    0.20 
   2   4 -13    0.42    0.20 
  -4  -2 -13    0.38    0.16 
   4  -2 -13    0.51    0.20 
  -2   4 -13    0.57    0.21 
  -2   4 -13    0.63    0.20 
  -4   2 -13    0.60    0.21 
   2  -4 -13    0.70    0.22 
  -2  -4 -13    0.51    0.20 
  -4   2 -13    0.08    0.16 
  -2  -4 -13    0.09    0.13 
  -4  -2 -13    0.51    0.19 
  -2  -4 -14    1.53    0.24 
  -4  -2 -14    1.84    0.24 
  -4   2 -14    1.28    0.22 
   2  -4 -14    1.97    0.26 
  -4   2 -14    1.49    0.23 
  -2   4 -14    1.90    0.26 
  -2   4 -14    1.36    0.21 
   4   2 -14    1.59    0.24 
  -4  -2 -14    1.29    0.20 
   2   4 -14    1.77    0.25 
   4  -2 -14    1.90    0.25 
  -4   2 -15    0.77    0.16 
  -2  -4 -15    1.23    0.21 
   4  -2 -15    0.91    0.18 
  -4   2 -15    1.28    0.20 
  -2   4 -15    1.38    0.21 
   4   2 -15    1.06    0.19 
  -4  -2 -15    0.90    0.16 
   2  -4 -15    1.20    0.19 
   2   4 -15    1.27    0.20 
  -4  -2 -15    1.08    0.18 
  -2   4 -15    0.75    0.15 
  -2   4 -16    0.25    0.12 
   2   4 -16    0.33    0.13 
  -4   2 -16    0.29    0.10 
   4   2 -16    0.41    0.13 
  -4   2 -16    0.31    0.11 
   4  -3   0   -0.09    0.17 
  -3  -4   0    0.04    0.08 
   3  -4   0    0.20    0.20 
  -4  -3   0    0.03    0.06 
   3  -4  -1   64.02    1.27 
  -4  -3   1   63.19    1.00 
  -3  -4   1   63.87    1.04 
   3  -4   1   65.05    1.31 
   4  -3   1   65.38    1.27 
   4  -3  -1   63.42    1.25 
  -3  -4   2    7.42    0.46 
   4  -3  -2    7.75    0.50 
   4  -3   2    7.09    0.50 
   3  -4   2    8.14    0.52 
   3  -4  -2    7.37    0.50 
  -4  -3   2    7.39    0.44 
   4   3   3   46.39    0.71 
   4  -3   3   48.40    1.26 
  -4   3   3   50.05    1.19 
  -3  -4   3   49.42    1.23 
   3  -4   3   47.08    1.25 
   4  -3  -3   46.99    1.21 
  -4  -3   3   47.39    1.20 
   3  -4  -3   48.34    1.23 
   3   4   3   48.71    0.82 
   4  -3  -4   61.98    1.53 
  -3  -4   4   62.54    1.55 
  -4   3   4   64.81    1.42 
  -3   4   4   68.08    1.44 
  -4  -3   4   63.75    1.55 
   4   3   4   63.45    1.12 
   3  -4   4   64.24    1.59 
   4  -3   4   63.43    1.56 
   3   4   4   65.24    1.19 
   3  -4  -4   62.54    1.51 
   3   4   5   14.88    0.68 
   4  -3   5   15.25    0.84 
  -3   4   5   13.81    0.68 
   3  -4   5   15.42    0.87 
  -3  -4   5   15.12    0.85 
   3  -4  -5   14.91    0.82 
   4   3   5   14.14    0.64 
  -4   3   5   14.83    0.71 
  -4   3  -5   14.03    0.52 
   4  -3  -5   13.30    0.78 
  -4  -3   5   14.22    0.83 
  -3   4   6    0.21    0.15 
   3  -4   6    0.38    0.24 
  -4  -3   6    0.64    0.29 
   3   4   6    0.34    0.19 
  -3  -4   6    0.39    0.22 
   4  -3   6    0.38    0.25 
   4   3   6    0.51    0.21 
  -4   3   7    0.42    0.32 
   4   3   7    0.21    0.17 
  -3   4   7    0.36    0.30 
  -3  -4   7    0.19    0.21 
  -4  -3   7    0.17    0.25 
   3   4   7    0.24    0.22 
   4  -3   7    0.10    0.23 
   3  -4   7    0.02    0.21 
   3   4   8    0.97    0.32 
   4  -3   8    0.88    0.30 
   3  -4   8    0.96    0.36 
  -3  -4   8    0.67    0.29 
  -3   4   8    1.47    0.40 
  -4   3   8    0.91    0.36 
  -4  -3   8    0.95    0.39 
  -4   3   9    0.02    0.29 
   4  -3  -9    0.48    0.15 
   4  -3   9    0.49    0.33 
  -3  -4   9    0.51    0.31 
  -4   3  -9    0.57    0.15 
   3  -4  -9    0.41    0.15 
   3   4  -9    0.34    0.14 
  -3  -4  -9    0.27    0.12 
  -3   4   9    0.32    0.32 
  -4  -3   9    0.39    0.27 
   4   3  -9    0.23    0.12 
  -3   4  -9    0.63    0.17 
   3  -4   9    0.23    0.27 
  -4  -3  -9    0.36    0.12 
   4   3 -10    2.85    0.29 
  -4  -3  10    2.04    0.56 
  -3   4  10    2.50    0.58 
  -4   3 -10    2.76    0.30 
  -3  -4 -10    2.85    0.28 
   3   4 -10    2.82    0.28 
  -4  -3 -10    2.51    0.27 
  -4   3  10    2.16    0.54 
  -3  -4  10    1.94    0.60 
  -4  -3 -10    2.41    0.27 
  -3  -4 -10    2.38    0.26 
  -3   4 -10    2.83    0.29 
   3  -4 -10    2.46    0.27 
   4  -3  10    2.20    0.51 
   3  -4  10    2.54    0.58 
   4  -3 -10    2.65    0.29 
   3  -4 -11    5.70    0.41 
   3   4 -11    5.53    0.40 
   4   3 -11    5.36    0.39 
  -4  -3 -11    5.31    0.38 
  -3  -4 -11    5.61    0.39 
  -4   3 -11    5.85    0.42 
  -3  -4  11    4.59    0.80 
  -3   4 -11    5.96    0.42 
  -3   4  11    4.61    0.76 
  -3  -4 -11    5.38    0.40 
   4  -3  11    3.22    0.68 
   3  -4  11    4.04    0.73 
  -4   3  11    5.47    0.85 
  -4  -3  11    5.32    0.87 
  -4  -3 -11    5.20    0.39 
   4  -3 -11    5.06    0.39 
   4  -3 -12    2.09    0.28 
  -3  -4 -12    1.65    0.26 
   4   3 -12    1.82    0.27 
   3  -4 -12    1.68    0.27 
   3   4 -12    2.09    0.28 
  -3   4 -12    1.76    0.27 
  -4  -3 -12    1.30    0.24 
  -3  -4 -12    1.62    0.24 
  -4   3 -12    1.49    0.26 
  -4  -3 -12    1.67    0.25 
  -4   3 -13    0.38    0.19 
   3  -4 -13    0.32    0.17 
   4  -3 -13    0.26    0.17 
  -4   3 -13    0.37    0.18 
  -3  -4 -13    0.36    0.16 
  -3   4 -13    0.37    0.20 
   4   3 -13    0.33    0.18 
   3   4 -13    0.08    0.17 
  -4  -3 -13    0.25    0.15 
  -3  -4 -13    0.60    0.20 
  -3   4 -13    0.31    0.16 
  -4  -3 -13    0.45    0.18 
   3  -4 -14   -0.29    0.18 
  -3  -4 -14   -0.05    0.16 
   4   3 -14    0.15    0.15 
  -4  -3 -14    0.22    0.13 
   4  -3 -14    0.06    0.16 
  -4  -3 -14    0.25    0.16 
  -3   4 -14    0.15    0.15 
   3   4 -14   -0.08    0.16 
  -3   4 -14    0.25    0.13 
  -4   3 -14    0.14    0.16 
  -3  -4 -14   -0.22    0.15 
  -4   3 -14    0.13    0.13 
   4   3 -15   -0.09    0.14 
  -3   4 -15   -0.21    0.15 
   3   4 -15    0.12    0.15 
  -4  -3 -15   -0.03    0.13 
  -3   4 -15   -0.13    0.12 
  -4   3 -15    0.11    0.12 
  -4  -3 -15   -0.22    0.13 
  -4   3 -15   -0.02    0.12 
   4  -3 -15   -0.16    0.14 
   4   3 -16    0.07    0.10 
  -3   4 -16    0.08    0.10 
  -4   3 -16   -0.01    0.10 
  -4   3 -16   -0.09    0.08 
   3   4 -16    0.09    0.10 
  -4  -4   0    0.09    0.06 
   4  -4   0    0.20    0.16 
   4  -4  -1    4.20    0.36 
  -4  -4   1    4.16    0.28 
   4  -4   1    4.75    0.40 
  -4  -4   2   53.68    1.15 
   4  -4  -2   53.35    1.29 
   4  -4   2   53.79    1.31 
  -4  -4   3  106.79    1.83 
   4  -4  -3  110.11    1.97 
   4  -4   3  110.77    2.01 
   4   4   4   70.12    1.10 
  -4   4   4   80.14    1.66 
   4  -4  -4   73.86    1.73 
   4  -4   4   76.73    1.80 
  -4  -4   4   74.34    1.71 
   4   4   5   18.26    0.70 
   4  -4   5   19.87    0.99 
  -4   4   5   19.63    0.86 
  -4  -4   5   19.01    0.95 
   4  -4  -5   18.44    0.96 
   4  -4   6   19.87    1.09 
  -4   4   6   18.97    0.85 
  -4  -4   6   19.65    1.08 
   4   4   6   18.59    0.82 
  -4  -4   7   30.61    1.47 
   4  -4   7   30.11    1.45 
  -4   4   7   28.42    1.45 
  -4   4   8   23.10    1.39 
  -4  -4   8   20.62    1.33 
   4  -4   8   21.79    1.33 
   4  -4   9   19.54    1.35 
   4   4  -9   18.15    0.62 
  -4   4  -9   20.14    0.67 
   4  -4  -9   19.01    0.66 
  -4   4   9   20.33    1.45 
  -4  -4   9   18.54    1.34 
  -4  -4  -9   17.74    0.63 
  -4  -4  -9   18.14    0.62 
  -4   4 -10    5.08    0.38 
  -4  -4  10    4.27    0.72 
   4  -4  10    4.58    0.74 
  -4  -4 -10    4.39    0.35 
   4   4 -10    4.23    0.33 
  -4  -4 -10    4.63    0.35 
   4  -4 -10    4.49    0.36 
  -4   4  10    3.29    0.68 
  -4  -4 -11    0.22    0.17 
   4  -4 -11    0.29    0.16 
  -4  -4  11   -0.07    0.26 
   4  -4  11    0.51    0.39 
  -4   4  11   -0.26    0.30 
  -4   4 -11    0.22    0.16 
  -4  -4 -11    0.14    0.15 
   4   4 -11    0.25    0.17 
   4   4 -12    0.00    0.16 
   4  -4 -12    0.01    0.16 
  -4   4 -12   -0.04    0.16 
  -4  -4 -12    0.13    0.17 
  -4  -4 -12    0.07    0.15 
   4   4 -13    0.33    0.17 
  -4   4 -13    0.12    0.15 
   4  -4 -13    0.42    0.20 
  -4  -4 -13    0.26    0.14 
  -4   4 -13    0.39    0.18 
  -4  -4 -13   -0.02    0.16 
   4   4 -14    0.20    0.15 
  -4   4 -14    0.38    0.16 
  -4  -4 -14    0.25    0.16 
   4  -4 -14    0.31    0.16 
  -4  -4 -14    0.09    0.13 
  -4   4 -14    0.16    0.14 
  -4  -4 -15    0.75    0.15 
  -4   4 -15    1.10    0.18 
   4   4 -15    0.96    0.18 
  -4   4 -15    0.73    0.15 
   4   4 -16    0.17    0.10 
  -4   4 -16    0.08    0.08 
  -4   4 -16    0.23    0.10 
   0  -5   0   -0.02    0.13 
   5   0   0    0.07    0.12 
   0  -5   1   26.16    0.78 
   5   0   1   26.56    0.66 
   5   0  -1   26.83    0.74 
   0  -5  -1   25.49    0.71 
   5   0   2  741.14    4.57 
   0  -5  -2  737.63    4.82 
   5   0  -2  743.66    5.13 
   0  -5   2  743.30    5.23 
   0  -5   3  171.63    2.49 
   5   0   3  165.36    2.03 
   5   0  -3  166.17    2.32 
   0  -5  -3  165.42    2.12 
   5   0   4  112.23    1.86 
   0  -5   4  115.18    2.21 
   0  -5  -4  118.12    1.99 
  -5   0   5   30.89    1.24 
   0  -5   5   29.93    1.21 
   5   0   5   29.72    1.05 
   5   0   6   20.90    0.99 
   0   5   6   21.02    1.04 
   0  -5   6   21.33    1.12 
  -5   0   6   22.87    1.17 
   5   0   7    0.50    0.25 
   0   5   7    0.30    0.23 
   0  -5   7    0.40    0.25 
  -5   0   7    0.46    0.30 
   0  -5   8    8.80    0.85 
   0   5   8    9.79    0.86 
   5   0   8    9.36    0.82 
  -5   0   8    9.26    0.92 
   0  -5  -9   16.15    0.60 
   0   5  -9   16.32    0.59 
   5   0   9   15.43    1.13 
  -5   0   9   15.34    1.24 
   0  -5   9   15.12    1.20 
   0   5   9   15.05    1.15 
  -5   0 -10   25.20    0.80 
  -5   0  10   24.90    1.66 
   0  -5 -10   25.90    0.80 
   0  -5  10   24.12    1.66 
  -5   0 -10   25.43    0.78 
   5   0 -10   24.98    0.77 
   0   5  10   20.71    1.42 
   0   5 -10   23.94    0.76 
   0  -5  11   15.86    1.41 
  -5   0 -11   17.19    0.68 
  -5   0  11   16.14    1.44 
  -5   0 -11   19.77    0.72 
   5   0 -11   18.20    0.68 
   0  -5 -11   19.81    0.73 
   0   5 -11   19.06    0.71 
  -5   0 -12    5.05    0.39 
   0   5 -12    5.98    0.43 
   5   0 -12    5.35    0.40 
   0  -5 -12    6.03    0.43 
  -5   0 -12    5.72    0.41 
   5   0 -13    5.67    0.40 
  -5   0 -13    6.19    0.42 
   0   5 -13    6.70    0.45 
  -5   0 -13    5.92    0.41 
   0  -5 -13    6.79    0.44 
  -5   0 -14    3.79    0.32 
   0   5 -14    3.37    0.31 
  -5   0 -14    3.85    0.32 
   5   0 -14    3.03    0.30 
   0  -5 -14    3.52    0.32 
   5   0 -15    0.02    0.12 
  -5   0 -15    0.17    0.12 
   0   5 -15    0.12    0.14 
  -5   0 -15    0.08    0.13 
  -5   0 -16    1.11    0.14 
  -5   0 -16    0.93    0.13 
   0   5 -16    1.33    0.17 
   5   0 -16    1.30    0.16 
   5  -1   0  146.28    1.78 
   1  -5   0  147.09    1.86 
   5   1   0  148.83    1.54 
  -1  -5   0  141.74    1.67 
  -5   1   0  143.06    1.84 
   1  -5   1    1.91    0.26 
  -1  -5   1    1.92    0.24 
  -5   1   1    1.80    0.25 
   1  -5  -1    1.77    0.23 
   5  -1  -1    2.05    0.26 
   5   1   1    1.83    0.16 
   5   1  -1    2.14    0.23 
  -1  -5  -1    1.72    0.19 
  -5   1  -1    2.04    0.25 
   5  -1   1    1.92    0.22 
  -5   1   2   12.24    0.59 
   5   1   2   11.87    0.41 
  -5   1  -2   11.53    0.50 
   1  -5   2   11.74    0.60 
   1  -5  -2   12.01    0.56 
  -1  -5   2   11.63    0.59 
   5  -1  -2   12.19    0.59 
  -1  -5  -2   11.73    0.48 
   5   1  -2   12.31    0.56 
   5  -1   2   11.80    0.54 
   5  -1  -3   18.28    0.78 
   1  -5   3   19.24    0.82 
   1  -5  -3   19.42    0.75 
  -1  -5  -3   19.55    0.68 
  -1  -5   3   19.37    0.82 
   5  -1   3   19.86    0.74 
   5   1   3   19.06    0.60 
   5   1   4   23.14    0.78 
   5  -1   4   23.13    0.88 
  -1  -5  -4   22.92    0.84 
   1  -5  -4   23.57    0.93 
  -1  -5   4   23.13    0.98 
   5  -1  -4   22.99    0.93 
  -5  -1   4   21.72    0.95 
   1  -5   4   23.68    1.02 
   1  -5   5   24.09    1.10 
   5   1   5   24.17    0.90 
   5  -1   5   23.79    0.99 
   1   5   5   23.75    0.95 
  -5  -1   5   23.99    1.10 
  -1  -5   5   23.32    1.06 
   1  -5  -5   23.86    1.01 
   5  -1   6    2.06    0.36 
  -1  -5   6    1.80    0.39 
   1  -5   6    1.96    0.38 
  -5   1   6    2.00    0.41 
   1   5   6    1.53    0.34 
  -5  -1   6    1.83    0.41 
   5   1   6    1.97    0.35 
   1  -5   7   23.11    1.28 
   5   1   7   21.17    1.07 
   1   5   7   21.94    1.15 
  -5  -1   7   22.82    1.27 
  -1  -5   7   21.71    1.22 
  -5   1   7   23.06    1.29 
  -1   5   7   22.31    1.20 
   5  -1   7   22.39    1.16 
   5   1   8   12.56    0.92 
  -5  -1   8   13.67    1.09 
   1  -5   8   12.18    1.01 
   5  -1   8   11.27    0.91 
  -5   1   8   11.95    1.03 
  -1  -5   8   10.49    0.93 
  -1   5   8   12.01    0.99 
   1   5   8   11.71    0.92 
   1  -5   9    7.04    0.87 
  -1  -5   9    5.45    0.76 
  -1   5  -9    6.71    0.40 
   5  -1  -9    5.95    0.37 
   5  -1   9    8.17    0.85 
  -5  -1   9    6.99    0.87 
  -5   1   9    5.87    0.80 
   1  -5  -9    6.91    0.40 
   1   5   9    5.53    0.69 
  -1  -5  -9    6.86    0.40 
   1   5  -9    7.10    0.40 
  -1   5   9    6.62    0.80 
  -5  -1  -9    6.31    0.39 
  -5  -1 -10    0.01    0.16 
  -5   1 -10   -0.13    0.18 
  -1  -5 -10    0.11    0.12 
  -1   5  10   -0.09    0.34 
  -1   5 -10    0.09    0.16 
   1   5 -10    0.10    0.17 
  -5   1  10   -0.31    0.32 
  -5  -1 -10    0.01    0.17 
   5   1 -10    0.08    0.17 
  -5  -1  10    0.61    0.35 
   1  -5  10   -0.68    0.40 
  -1  -5  10    0.02    0.30 
   1  -5 -10    0.02    0.14 
   5  -1  10   -0.03    0.27 
  -1  -5 -10    0.27    0.16 
   5  -1 -10   -0.01    0.17 
  -1   5 -11    0.46    0.17 
  -1  -5  11    0.40    0.39 
   5   1 -11    0.64    0.17 
   5  -1 -11    0.53    0.18 
  -5  -1 -11    0.22    0.16 
  -5  -1  11    0.60    0.35 
  -5  -1 -11    0.74    0.20 
   1  -5  11    0.82    0.47 
  -5   1  11    0.11    0.29 
  -5   1 -11    0.50    0.19 
   1  -5 -11    0.68    0.20 
   1   5 -11    0.61    0.19 
  -5   1 -11    0.60    0.19 
  -1   5  11    1.17    0.52 
  -1  -5 -11    0.88    0.21 
  -1  -5 -11   -0.01    0.13 
  -5  -1 -12    1.65    0.26 
  -1   5 -12    1.97    0.28 
   1  -5 -12    2.23    0.30 
   5   1 -12    1.76    0.27 
  -5   1 -12    1.67    0.24 
  -5   1 -12    1.90    0.28 
   1   5 -12    2.21    0.30 
  -1  -5 -12    1.31    0.20 
  -5  -1 -12    1.78    0.27 
  -1  -5 -12    1.95    0.29 
   5  -1 -12    1.84    0.27 
  -5   1 -13    0.09    0.15 
   1  -5 -13    0.06    0.17 
   5  -1 -13    0.08    0.15 
  -5  -1 -13    0.13    0.15 
  -5  -1 -13   -0.13    0.17 
   5   1 -13   -0.12    0.17 
  -1   5 -13   -0.08    0.18 
  -1  -5 -13    0.02    0.16 
   1   5 -13   -0.14    0.17 
  -5   1 -13   -0.17    0.17 
  -1   5 -14    0.11    0.15 
  -5  -1 -14    0.11    0.15 
  -5   1 -14    0.27    0.17 
  -1   5 -14    0.03    0.13 
  -1  -5 -14   -0.23    0.17 
   1  -5 -14   -0.33    0.18 
   1   5 -14    0.09    0.15 
   5   1 -14   -0.17    0.15 
  -5   1 -14   -0.01    0.14 
   5  -1 -14   -0.23    0.17 
  -5  -1 -14   -0.15    0.15 
   5   1 -15    0.21    0.14 
  -5   1 -15    0.12    0.12 
  -5  -1 -15    0.15    0.12 
   5  -1 -15    0.05    0.12 
  -5   1 -15    0.36    0.13 
  -5  -1 -15    0.11    0.11 
   1   5 -15    0.43    0.16 
  -1   5 -15    0.09    0.14 
   1   5 -16    0.05    0.11 
  -1   5 -16    0.07    0.11 
  -5  -1 -16   -0.01    0.09 
   5   1 -16   -0.03    0.10 
  -5   1 -16    0.09    0.09 
  -5   1 -16   -0.04    0.10 
   2  -5   0   -0.04    0.16 
  -5   2   0   -0.07    0.15 
  -2  -5   0    0.02    0.09 
   5   2   0    0.02    0.08 
   5  -2   0   -0.02    0.15 
  -5   2   1   77.20    1.42 
   2  -5  -1   73.78    1.38 
  -2  -5   1   74.20    1.25 
  -2  -5  -1   73.01    0.99 
   5  -2   1   75.44    1.37 
   2  -5   1   73.95    1.44 
   5  -2  -1   74.51    1.40 
  -5   2  -1   73.21    1.33 
  -5   2  -2   32.01    0.87 
  -2  -5  -2   33.26    0.71 
   2  -5  -2   30.97    0.95 
   2  -5   2   31.31    0.98 
  -2  -5   2   32.30    0.94 
   5  -2  -2   31.81    0.97 
  -5   2   2   33.23    0.96 
   5  -2   2   32.35    0.94 
  -5  -2   2   31.72    0.88 
   2  -5  -3   76.40    1.57 
   5  -2   3   77.63    1.56 
  -5   2  -3   74.21    1.30 
   5   2   3   71.94    1.01 
  -2  -5  -3   79.57    1.28 
  -2  -5   3   75.08    1.60 
  -5   2   3   80.13    1.56 
   5  -2  -3   72.94    1.57 
   2  -5   3   75.47    1.64 
  -5  -2   3   75.43    1.56 
  -2  -5   4  127.07    2.30 
   2  -5   4  129.51    2.34 
   5  -2  -4  119.65    2.24 
  -5   2  -4  122.57    1.63 
  -5  -2   4  130.52    2.31 
   2  -5  -4  123.44    2.18 
   5   2   4  123.91    1.68 
   2   5   4  126.61    1.86 
   5  -2   4  130.80    2.20 
   5   2   5   91.24    1.68 
   2   5   5   91.29    1.82 
   5  -2   5   89.58    1.99 
  -2  -5   5   89.48    2.08 
  -5  -2   5   92.09    2.13 
   5  -2  -5   85.62    1.99 
   2  -5   5   89.21    2.12 
   2  -5  -5   87.58    1.99 
  -5  -2   6   30.52    1.35 
   5   2   6   30.16    1.12 
   5  -2   6   27.82    1.22 
  -5   2   6   30.17    1.34 
   2   5   6   30.46    1.18 
  -2  -5   6   30.53    1.33 
  -2   5   6   27.27    0.94 
   2  -5   6   31.32    1.37 
  -2  -5   7    4.64    0.60 
  -5   2   7    4.38    0.61 
  -2   5   7    4.21    0.58 
   2  -5   7    4.40    0.59 
  -5  -2   7    4.86    0.64 
   5   2   7    4.59    0.53 
   2   5   7    2.62    0.41 
   5  -2   7    4.92    0.59 
   5  -2   8    0.22    0.26 
  -5  -2   8    0.18    0.28 
   2   5   8    0.14    0.23 
  -2   5   8    0.10    0.25 
   2  -5   8   -0.28    0.29 
  -5   2   8    0.33    0.24 
  -2  -5   8    0.02    0.29 
  -2   5   9   18.78    1.31 
  -2  -5  -9   18.34    0.65 
  -5  -2  -9   18.25    0.63 
  -5   2   9   18.98    1.39 
   2  -5  -9   17.93    0.64 
  -2  -5   9   18.73    1.34 
  -5  -2   9   17.08    1.29 
  -2   5  -9   18.13    0.64 
   5  -2  -9   16.37    0.61 
   5   2  -9   16.59    0.59 
   5  -2   9   18.14    1.28 
   2  -5   9   18.03    1.31 
   2   5  -9   17.89    0.61 
   2  -5 -10   19.04    0.68 
  -5  -2 -10   19.85    0.69 
  -2   5 -10   20.64    0.71 
   5  -2  10   16.37    1.29 
   2   5 -10   18.97    0.68 
  -5  -2 -10   18.80    0.68 
  -2  -5 -10   15.20    0.59 
   2  -5  10   18.87    1.44 
   5   2 -10   19.05    0.67 
  -2  -5 -10   18.95    0.68 
  -5  -2  10   18.80    1.47 
  -2   5  10   16.42    1.34 
  -5   2  10   16.69    1.41 
  -5   2 -10   19.38    0.70 
   5  -2 -10   18.92    0.69 
  -2  -5  10   16.19    1.34 
  -5   2  11    6.44    0.94 
  -5  -2 -11    8.55    0.48 
   2   5 -11    9.00    0.50 
  -2  -5  11    7.01    0.96 
  -2   5 -11    8.81    0.50 
  -5  -2  11    7.71    1.04 
  -2   5  11    4.84    0.76 
   2  -5  11    5.79    0.87 
  -2  -5 -11    6.46    0.40 
  -5   2 -11    7.88    0.47 
  -5  -2 -11    7.87    0.46 
   5  -2 -11    7.88    0.47 
   5   2 -11    7.99    0.46 
  -2  -5 -11    8.39    0.49 
   2  -5 -11    7.92    0.47 
  -5  -2 -12    9.42    0.52 
  -5  -2 -12    9.91    0.53 
   2  -5 -12   10.16    0.54 
   5  -2 -12    9.02    0.51 
   5   2 -12    8.92    0.51 
  -2  -5 -12    9.05    0.47 
   2   5 -12    9.53    0.53 
  -5   2 -12    9.31    0.52 
  -2   5 -12   10.06    0.55 
  -2  -5 -12   10.42    0.55 
  -5   2 -12    9.74    0.53 
  -5  -2 -13    3.42    0.33 
  -2   5 -13    3.52    0.35 
   2   5 -13    3.76    0.35 
   5   2 -13    3.14    0.32 
  -5   2 -13    3.46    0.33 
   5  -2 -13    3.13    0.32 
   2  -5 -13    3.30    0.33 
  -2  -5 -13    3.46    0.34 
  -5   2 -13    3.67    0.34 
  -5  -2 -13    3.33    0.32 
  -2  -5 -13    2.71    0.27 
  -5   2 -14    0.20    0.15 
   2  -5 -14   -0.09    0.16 
  -2   5 -14    0.08    0.13 
  -2   5 -14   -0.12    0.16 
  -2  -5 -14    0.20    0.17 
   2   5 -14    0.10    0.15 
  -5  -2 -14    0.04    0.15 
   5   2 -14    0.05    0.16 
  -5   2 -14    0.07    0.14 
   5  -2 -14    0.02    0.14 
  -5  -2 -14   -0.22    0.15 
   5  -2 -15    0.21    0.14 
   5   2 -15    0.01    0.13 
  -2   5 -15    0.21    0.14 
  -5   2 -15    0.24    0.13 
  -5  -2 -15   -0.04    0.12 
  -2   5 -15    0.19    0.12 
  -5  -2 -15    0.11    0.12 
   2   5 -15    0.36    0.16 
  -5   2 -15   -0.01    0.12 
  -5  -2 -16    0.63    0.11 
  -2   5 -16    0.67    0.13 
   5   2 -16    0.59    0.13 
  -5   2 -16    0.53    0.11 
  -5   2 -16    0.64    0.12 
   2   5 -16    0.64    0.13 
  -3  -5   0   34.04    0.68 
  -5  -3   0   31.64    0.54 
   5  -3   0   34.62    0.99 
   3  -5   0   33.68    0.99 
   3  -5   1   43.21    1.15 
   3  -5  -1   43.47    1.12 
  -3  -5  -1   41.96    0.61 
   5  -3  -1   42.76    1.12 
  -5   3   1   45.76    1.13 
  -3  -5   1   43.59    0.94 
   5  -3   1   45.49    1.14 
  -5  -3   1   41.47    0.86 
  -5  -3   2   12.12    0.55 
  -3  -5   2   12.32    0.58 
   5  -3   2   13.00    0.65 
  -5   3   2   13.13    0.64 
   3  -5  -2   12.39    0.63 
   5  -3  -2   12.53    0.64 
   3  -5   2   11.66    0.64 
  -3  -5  -2   11.56    0.32 
  -3  -5   3   29.90    1.00 
   5  -3  -3   28.86    1.01 
  -5  -3   3   30.06    0.99 
   3  -5  -3   31.61    1.05 
   3   5   3   29.25    0.65 
  -5   3   3   31.48    1.03 
  -5   3  -3   31.37    0.91 
   3  -5   3   29.67    1.05 
   5  -3   3   31.40    1.05 
  -5   3  -4    7.34    0.44 
  -3  -5   4    7.14    0.56 
  -5   3   4    7.35    0.53 
   5   3   4    6.78    0.34 
   5  -3   4    7.80    0.59 
  -5  -3   4    7.50    0.57 
   3  -5   4    7.64    0.61 
   3   5   4    7.50    0.42 
   3  -5  -4    7.62    0.58 
   5  -3  -4    7.49    0.58 
   3  -5   5    0.21    0.24 
  -5  -3   5    0.16    0.24 
   3  -5  -5    0.30    0.23 
   5  -3  -5    0.54    0.25 
   5   3   5    0.42    0.17 
  -3  -5   5    0.15    0.22 
  -5   3  -5    0.22    0.12 
   5  -3   5    0.43    0.26 
  -3   5   5    0.38    0.20 
   3   5   5    0.33    0.18 
   5  -3   6    7.21    0.66 
  -5  -3   6    6.89    0.66 
   3  -5  -6    6.84    0.65 
  -3   5   6    6.17    0.49 
   3  -5   6    7.68    0.71 
  -3  -5   6    6.59    0.65 
   3   5   6    6.08    0.52 
  -3   5   7   30.82    1.45 
  -5   3   7   33.64    1.55 
   5  -3   7   32.05    1.45 
   3  -5   7   33.87    1.54 
  -3  -5   7   30.71    1.48 
  -5  -3   7   31.75    1.50 
  -3  -5   8   33.21    1.65 
  -3   5   8   32.55    1.64 
   3  -5   8   35.28    1.69 
  -5  -3   8   35.40    1.72 
   5  -3   8   32.73    1.59 
  -5   3   8   34.73    1.74 
   5  -3   9   13.06    1.08 
   5   3  -9   11.47    0.49 
  -3   5   9   11.60    1.08 
  -3  -5  -9   11.11    0.49 
  -3   5  -9   12.78    0.54 
   5  -3  -9   12.06    0.52 
   3   5  -9   12.26    0.52 
  -5  -3  -9   11.12    0.50 
  -5  -3   9   13.44    1.18 
  -5   3   9   13.24    1.19 
  -5  -3  -9   12.26    0.52 
   3  -5   9   12.20    1.08 
  -5   3  -9   12.10    0.52 
  -3  -5  -9   11.94    0.52 
  -3  -5   9   12.91    1.15 
   3  -5  -9   12.66    0.55 
  -3   5 -10    3.17    0.32 
  -3   5  10    2.77    0.61 
  -3  -5 -10    3.34    0.30 
  -5   3 -10    3.76    0.33 
   5  -3 -10    3.15    0.30 
   3  -5 -10    3.56    0.33 
   3  -5  10    2.71    0.60 
  -5   3  10    2.86    0.65 
  -3  -5 -10    3.29    0.31 
   5   3 -10    3.06    0.30 
  -5  -3  10    2.98    0.62 
  -3  -5  10    2.16    0.52 
   3   5 -10    3.28    0.32 
   5  -3  10    2.89    0.61 
  -5  -3 -10    3.19    0.30 
  -5  -3 -10    2.89    0.29 
   5  -3 -11    0.00    0.16 
   3  -5 -11   -0.09    0.16 
  -5  -3 -11    0.08    0.16 
   5   3 -11    0.07    0.16 
   3  -5  11    0.77    0.46 
  -5   3 -11    0.16    0.17 
  -3  -5  11    0.18    0.42 
  -5   3  11    0.13    0.28 
   3   5 -11    0.13    0.17 
   5  -3  11    0.24    0.35 
  -3   5 -11    0.01    0.16 
  -5  -3  11   -0.60    0.33 
  -3   5  11    0.31    0.23 
  -3  -5 -11    0.03    0.16 
  -5  -3 -11    0.03    0.17 
  -3  -5 -11   -0.16    0.16 
  -5  -3 -12    1.06    0.22 
  -3   5 -12    1.02    0.23 
   3  -5 -12    1.18    0.23 
  -3  -5 -12    0.53    0.20 
   3   5 -12    1.32    0.24 
   5   3 -12    0.87    0.20 
  -3  -5 -12    0.56    0.17 
   5  -3 -12    0.98    0.23 
  -5   3 -12    0.78    0.22 
  -5  -3 -12    0.89    0.21 
  -5  -3 -13    0.72    0.19 
  -5  -3 -13    0.66    0.19 
  -3   5 -13    0.80    0.20 
  -5   3 -13    1.00    0.22 
   5   3 -13    0.81    0.21 
   3   5 -13    1.00    0.21 
  -3  -5 -13    0.82    0.21 
  -3  -5 -13    0.89    0.19 
   5  -3 -13    1.09    0.23 
   3  -5 -13    0.79    0.21 
  -5   3 -13    0.72    0.20 
  -5  -3 -14    2.49    0.26 
  -3   5 -14    2.32    0.25 
   5   3 -14    2.64    0.27 
  -5   3 -14    2.62    0.27 
   3  -5 -14    3.10    0.29 
   3   5 -14    2.85    0.29 
  -5   3 -14    2.16    0.26 
  -3  -5 -14    2.31    0.24 
  -5  -3 -14    2.25    0.25 
  -3   5 -14    3.18    0.30 
  -3  -5 -14    2.74    0.29 
   5  -3 -14    2.75    0.28 
   5   3 -15    2.53    0.25 
  -3   5 -15    2.13    0.21 
  -5   3 -15    2.57    0.23 
  -5  -3 -15    2.10    0.21 
   3   5 -15    2.58    0.25 
  -5   3 -15    2.44    0.24 
  -3   5 -15    2.93    0.26 
   3   5 -16    0.82    0.14 
  -3   5 -16    0.90    0.14 
  -5   3 -16    0.62    0.11 
  -5   3 -16    0.70    0.12 
   5   3 -16    0.78    0.13 
   4  -5   0    0.12    0.17 
  -5  -4   0    0.03    0.05 
   5  -4   0   -0.08    0.17 
  -4  -5   0   -0.01    0.07 
   4  -5  -1    1.16    0.26 
   4  -5   1    0.98    0.26 
   5  -4  -1    1.02    0.24 
   5  -4   1    1.27    0.26 
  -4  -5   1    1.12    0.19 
  -5  -4   1    0.87    0.15 
   4  -5  -2   41.31    1.19 
  -4  -5   2   41.36    1.05 
   5  -4  -2   41.99    1.22 
   4  -5   2   42.68    1.23 
   5  -4   2   43.44    1.24 
  -5  -4   2   40.66    1.01 
  -5  -4   3   77.31    1.62 
  -5   4   3   85.05    1.75 
   5  -4  -3   79.93    1.75 
   4  -5  -3   80.90    1.78 
   4  -5   3   81.69    1.83 
  -4  -5   3   78.40    1.65 
   5  -4   3   84.20    1.81 
  -5   4   4   35.35    1.17 
   5  -4   4   34.51    1.24 
  -5  -4   4   33.77    1.18 
   4  -5  -4   31.56    1.19 
   4  -5   4   33.53    1.23 
  -4  -5   4   34.61    1.22 
   5  -4  -4   32.99    1.19 
  -4   5   4   36.48    1.19 
   4  -5   5   36.13    1.37 
  -5   4   5   39.34    1.27 
  -5  -4   5   36.47    1.35 
   5  -4  -5   33.24    1.34 
  -4  -5   5   36.32    1.36 
  -4   5   5   37.23    1.23 
   5  -4   5   37.62    1.39 
  -5   4  -5   36.07    1.02 
   4  -5  -5   34.79    1.35 
  -5  -4   6   22.34    1.17 
   5  -4  -6   22.04    1.13 
  -4  -5   6   21.42    1.16 
   4  -5   6   22.53    1.19 
   4  -5  -6   20.79    1.12 
  -4   5   6   20.74    0.94 
   5  -4   6   21.13    1.13 
   4  -5   7    2.55    0.48 
  -4  -5   7    2.61    0.49 
  -5  -4   7    2.44    0.45 
  -5   4   7    2.66    0.48 
   5  -4   7    1.98    0.41 
  -4   5   8    0.36    0.30 
  -5   4   8   -0.31    0.35 
  -4  -5   8    0.05    0.24 
  -5  -4   8    0.39    0.29 
   5  -4   8    0.02    0.22 
   4  -5   8    0.09    0.26 
   5  -4  -9   -0.23    0.18 
  -4  -5  -9    0.13    0.12 
  -5  -4   9   -0.13    0.27 
  -4  -5  -9    0.09    0.12 
  -5   4   9    0.32    0.36 
   5   4  -9   -0.13    0.16 
  -4  -5   9    0.07    0.30 
  -4   5  -9   -0.03    0.14 
  -5  -4  -9   -0.22    0.17 
   4   5  -9    0.14    0.13 
   4  -5   9    0.07    0.28 
   4  -5  -9    0.03    0.13 
  -4   5   9   -0.04    0.35 
  -5   4  -9   -0.06    0.15 
  -5  -4  -9   -0.16    0.16 
   5  -4   9   -0.37    0.27 
  -5   4  10    6.10    0.87 
  -4  -5 -10    5.90    0.39 
  -5  -4 -10    5.76    0.39 
  -5   4 -10    6.28    0.41 
  -4  -5 -10    6.22    0.41 
  -5  -4  10    5.17    0.82 
  -5  -4 -10    5.63    0.38 
   4  -5  10    5.92    0.84 
   5  -4  10    5.12    0.76 
   4   5 -10    5.93    0.40 
   5   4 -10    5.61    0.39 
  -4  -5  10    5.52    0.83 
  -4   5  10    4.74    0.81 
  -4   5 -10    6.06    0.41 
   5  -4 -10    6.34    0.42 
   4  -5 -10    6.47    0.42 
  -5   4  11    8.08    1.03 
  -5  -4 -11   11.55    0.56 
  -5  -4 -11   11.71    0.55 
  -5  -4  11   12.01    1.27 
  -4  -5  11    8.83    1.09 
   5  -4 -11   11.59    0.57 
  -4   5 -11   12.49    0.58 
   5   4 -11   11.04    0.53 
  -4  -5 -11   11.65    0.54 
  -4  -5 -11   11.57    0.56 
   4  -5 -11   11.51    0.57 
   4   5 -11   10.67    0.54 
   5  -4  11    7.83    0.97 
   4  -5  11   10.36    1.13 
  -5   4 -11   12.17    0.58 
  -4   5  11    9.13    1.05 
  -5   4 -12    1.25    0.23 
  -4  -5 -12    1.21    0.22 
  -5  -4 -12    1.18    0.23 
  -5  -4 -12    1.20    0.22 
   4  -5 -12    1.17    0.23 
  -4  -5 -12    1.02    0.22 
   5  -4 -12    0.82    0.22 
   5   4 -12    1.25    0.22 
   4   5 -12    1.01    0.22 
  -4   5 -12    1.43    0.26 
  -4   5 -13   -0.03    0.15 
   5   4 -13    0.07    0.16 
   4  -5 -13   -0.16    0.17 
  -4  -5 -13    0.05    0.15 
   5  -4 -13    0.04    0.16 
  -4  -5 -13    0.11    0.14 
  -5  -4 -13   -0.14    0.17 
  -5  -4 -13    0.14    0.15 
   4   5 -13    0.04    0.15 
  -5   4 -13   -0.23    0.18 
  -5   4 -13   -0.13    0.16 
  -5   4 -14    0.04    0.14 
  -4   5 -14   -0.08    0.14 
  -4   5 -14    0.18    0.14 
  -5  -4 -14   -0.03    0.13 
   5  -4 -14    0.25    0.14 
   4   5 -14    0.08    0.14 
  -5   4 -14    0.21    0.15 
   5   4 -14    0.04    0.15 
  -4  -5 -14    0.22    0.14 
  -5  -4 -14    0.04    0.15 
  -5   4 -15   -0.04    0.12 
  -4  -5 -15    0.16    0.11 
  -4   5 -15    0.06    0.11 
   4   5 -15    0.05    0.12 
   5   4 -15    0.12    0.13 
  -5  -4 -15   -0.16    0.12 
  -5   4 -15    0.07    0.11 
  -4   5 -15    0.15    0.12 
  -4   5 -16    0.57    0.12 
  -4   5 -16    0.38    0.09 
   5   4 -16    0.47    0.10 
  -5   4 -16    0.33    0.09 
  -5   4 -16    0.47    0.10 
   4   5 -16    0.60    0.12 
   5  -5   0    0.27    0.21 
  -5  -5   0    0.15    0.05 
   5  -5  -1   12.54    0.68 
   5  -5   1   13.67    0.72 
  -5  -5   1   13.00    0.51 
   5  -5  -2   47.97    1.35 
  -5  -5   2   47.18    1.14 
   5  -5   2   49.37    1.40 
   5  -5  -3   34.49    1.20 
  -5  -5   3   33.92    1.10 
   5  -5   3   34.97    1.23 
  -5   5   4    0.69    0.23 
  -5  -5   4    0.63    0.22 
   5  -5  -4    0.54    0.23 
   5  -5   4    0.63    0.23 
  -5  -5   5    6.96    0.63 
   5  -5  -5    6.41    0.61 
   5  -5   5    7.43    0.66 
  -5   5   5    6.89    0.57 
   5  -5  -6   28.95    1.36 
  -5   5   6   31.41    1.23 
  -5  -5   6   30.87    1.40 
   5  -5   6   30.82    1.40 
  -5  -5   7   72.42    2.35 
   5  -5   7   75.30    2.34 
  -5   5   8   58.28    2.29 
  -5  -5   8   58.89    2.28 
   5  -5   8   56.38    2.19 
   5  -5  -9   42.84    1.00 
   5  -5   9   43.26    2.04 
  -5  -5   9   42.06    2.08 
  -5   5   9   44.02    2.13 
  -5   5  -9   43.53    0.99 
  -5  -5  -9   42.97    0.97 
   5   5  -9   39.43    0.92 
  -5  -5  10    5.15    0.85 
  -5  -5 -10    6.24    0.40 
   5   5 -10    5.86    0.39 
  -5  -5 -10    6.04    0.40 
   5  -5  10    4.39    0.72 
  -5   5  10    4.84    0.80 
  -5   5 -10    6.06    0.41 
   5  -5 -10    6.44    0.42 
   5  -5 -11    0.17    0.18 
  -5   5 -11    0.17    0.17 
  -5  -5 -11    0.09    0.16 
  -5  -5 -11    0.29    0.14 
   5   5 -11    0.04    0.16 
   5   5 -12    6.66    0.43 
  -5  -5 -12    6.90    0.44 
  -5   5 -12    7.35    0.46 
  -5  -5 -12    6.35    0.42 
   5  -5 -12    6.60    0.44 
   5  -5 -13    5.86    0.40 
  -5   5 -13    5.17    0.39 
   5   5 -13    5.54    0.38 
  -5  -5 -13    5.46    0.38 
  -5   5 -13    5.81    0.40 
  -5  -5 -13    6.05    0.39 
   5   5 -14    1.83    0.24 
  -5   5 -14    2.11    0.25 
  -5  -5 -14    1.58    0.22 
  -5   5 -14    1.94    0.24 
   5   5 -15    2.04    0.21 
  -5   5 -15    2.22    0.22 
  -5  -5 -15    1.96    0.19 
  -5   5 -15    2.16    0.22 
   5   5 -16    0.33    0.10 
  -5   5 -16    0.38    0.09 
  -5   5 -16    0.34    0.08 
   0  -6   0   30.13    0.86 
   6   0   0   31.55    0.84 
   0  -6   1   65.38    1.35 
   0  -6  -1   64.44    1.25 
   6   0   1   64.33    1.15 
   6   0  -1   64.77    1.27 
   6   0  -2   74.66    1.50 
   0  -6   2   70.39    1.51 
   6   0   2   71.91    1.25 
   0  -6  -2   70.72    1.37 
   0  -6  -3   73.02    1.48 
   6   0   3   73.40    1.38 
   6   0  -3   72.79    1.62 
   0  -6   3   73.93    1.67 
   0  -6  -4   -0.09    0.16 
   6   0   4    0.14    0.16 
   0  -6   4   -0.01    0.20 
   0  -6   5    0.92    0.34 
   6   0   5    0.75    0.21 
   0  -6  -5    0.48    0.20 
  -6   0   5    1.06    0.33 
   0   6   6    1.38    0.30 
   0  -6   6    1.91    0.39 
  -6   0   6    2.11    0.42 
   6   0   6    2.15    0.36 
   0  -6   7   11.49    0.93 
   6   0   7   10.20    0.76 
   0   6   7   10.84    0.82 
  -6   0   7   11.47    0.96 
  -6   0   8    1.56    0.44 
   0   6   8    0.88    0.30 
   0  -6   8    0.75    0.40 
   6   0   8    0.95    0.34 
   0   6   9    1.41    0.38 
   0  -6  -9    1.36    0.20 
   6   0  -9    0.98    0.18 
   0   6  -9    1.25    0.20 
   0  -6   9    0.90    0.38 
   0  -6 -10    3.18    0.31 
   0  -6  10    2.76    0.63 
   6   0 -10    3.21    0.31 
  -6   0 -10    2.80    0.31 
  -6   0  10    1.96    0.58 
  -6   0 -10    3.04    0.29 
   0   6 -10    3.08    0.30 
  -6   0 -11    0.38    0.19 
  -6   0  11    0.42    0.33 
   0  -6  11    0.33    0.35 
   6   0 -11    0.29    0.17 
  -6   0 -11    0.21    0.18 
   0   6 -11    0.14    0.16 
   0  -6 -11    0.26    0.18 
   0  -6 -12    2.83    0.31 
   6   0 -12    2.72    0.30 
  -6   0 -12    3.21    0.32 
  -6   0 -12    2.43    0.30 
   0   6 -12    2.97    0.33 
  -6   0 -13    0.90    0.21 
   6   0 -13    0.81    0.20 
   0  -6 -13    0.83    0.20 
   0   6 -13    1.08    0.24 
  -6   0 -13    0.91    0.21 
   0   6 -14    2.24    0.26 
  -6   0 -14    1.71    0.22 
  -6   0 -14    1.60    0.24 
   6   0 -14    2.06    0.25 
  -6   0 -15    0.90    0.17 
  -6   0 -15    0.60    0.13 
   0   6 -15    0.76    0.18 
   6   0 -15    0.70    0.15 
   0   6 -16    0.12    0.11 
  -6   0 -16    0.05    0.09 
   6  -1   0   -0.04    0.14 
   1  -6   0   -0.07    0.14 
  -1  -6   0   -0.09    0.12 
  -6   1   0    0.36    0.18 
   6   1   0    0.03    0.11 
   6   1   1    6.67    0.34 
   1  -6  -1    6.77    0.44 
  -1  -6   1    6.87    0.45 
  -6   1   1    6.58    0.47 
   1  -6   1    7.52    0.50 
  -1  -6  -1    6.48    0.39 
   6  -1   1    7.02    0.43 
   6  -1  -1    7.39    0.49 
   6   1  -1    6.62    0.42 
  -6   1  -1    6.55    0.45 
  -1  -6   2    1.32    0.24 
  -1  -6  -2    1.25    0.20 
   6  -1   2    1.16    0.22 
   1  -6  -2    1.10    0.22 
   6   1   2    1.27    0.16 
   6   1  -2    1.27    0.24 
   1  -6   2    1.04    0.25 
   6  -1  -2    0.96    0.25 
   1  -6  -3   20.71    0.82 
   6  -1   3   20.81    0.80 
  -1  -6  -3   20.73    0.75 
   6   1   3   20.24    0.64 
  -1  -6   3   20.78    0.90 
   1  -6   3   20.65    0.90 
   6  -1  -3   20.67    0.89 
   6   1   4   14.87    0.63 
   1  -6   4   14.92    0.84 
   6  -1   4   15.24    0.75 
   1  -6  -4   15.48    0.77 
  -1  -6  -4   15.98    0.74 
  -1  -6   4   15.51    0.85 
   6  -1  -4   14.73    0.81 
  -6  -1   4   15.57    0.83 
  -6  -1   5    0.26    0.20 
   1  -6  -5    0.18    0.21 
  -1  -6   5   -0.11    0.26 
   1  -6   5    0.45    0.23 
   6   1   5    0.20    0.15 
   6  -1   5    0.12    0.21 
  -1  -6   6    3.94    0.55 
   6  -1   6    3.48    0.45 
  -6  -1   6    4.18    0.56 
   1  -6   6    3.93    0.53 
   6   1   6    4.28    0.45 
  -6   1   6    4.17    0.56 
   1   6   6    4.14    0.49 
   1  -6   7    4.07    0.58 
   1   6   7    3.85    0.52 
  -6  -1   7    3.57    0.57 
  -1  -6   7    3.93    0.56 
   6  -1   7    4.06    0.53 
  -6   1   7    3.80    0.59 
  -1   6   7    2.99    0.49 
   6   1   7    2.15    0.36 
   6  -1   8    6.60    0.71 
  -6  -1   8    6.67    0.81 
  -6   1   8    7.16    0.83 
   1  -6   8    6.18    0.74 
  -1  -6   8    5.76    0.72 
   1   6   8    5.91    0.68 
  -1   6   8    6.27    0.73 
  -6  -1  -9    0.56    0.17 
  -1  -6  -9    0.40    0.15 
   6  -1   9    0.32    0.25 
   6   1  -9    0.39    0.14 
  -1   6  -9    0.45    0.15 
  -1  -6   9    0.15    0.27 
   1  -6   9    0.44    0.31 
   1   6  -9    0.26    0.13 
  -6   1   9    0.16    0.28 
  -6  -1   9    0.69    0.35 
   1  -6  -9    0.40    0.15 
   6  -1  -9    0.31    0.14 
  -1   6   9    0.09    0.26 
  -1  -6  -9    0.31    0.11 
   1  -6  10    0.11    0.33 
  -6  -1 -10    0.30    0.15 
   1  -6 -10    0.43    0.19 
  -1   6  10    0.91    0.43 
  -6  -1  10    0.00    0.29 
   1   6 -10    0.34    0.17 
  -6  -1 -10    0.01    0.16 
   6   1 -10    0.30    0.16 
  -1  -6  10    0.26    0.34 
  -6   1  10    0.77    0.38 
  -6   1 -10    0.14    0.14 
  -1  -6 -10    0.21    0.15 
  -1   6 -10    0.40    0.17 
  -1  -6 -10    0.53    0.18 
   6  -1 -10    0.35    0.16 
  -6   1 -11    0.22    0.18 
   1   6 -11    0.19    0.17 
   6  -1 -11   -0.03    0.17 
  -1  -6 -11    0.08    0.17 
   6   1 -11    0.02    0.15 
  -1  -6  11   -0.22    0.40 
  -6  -1 -11   -0.09    0.17 
  -6  -1 -11   -0.11    0.17 
  -1   6 -11    0.05    0.17 
  -6   1  11   -0.83    0.39 
   1  -6  11   -0.19    0.37 
   1  -6 -11    0.03    0.16 
  -6   1 -11    0.15    0.17 
  -6  -1  11    0.19    0.37 
  -1  -6 -11   -0.24    0.14 
  -6   1 -12    0.91    0.21 
  -6  -1 -12    0.84    0.22 
   6  -1 -12    0.69    0.19 
  -1   6 -12    0.84    0.23 
   1   6 -12    1.13    0.24 
   1  -6 -12    0.88    0.23 
  -6   1 -12    0.86    0.21 
  -1  -6 -12    0.81    0.23 
  -6  -1 -12    0.97    0.22 
   6   1 -12    0.95    0.21 
   1  -6 -13    2.60    0.30 
   6  -1 -13    2.29    0.28 
  -6  -1 -13    2.30    0.28 
  -6  -1 -13    2.25    0.27 
  -1  -6 -13    2.27    0.29 
  -1   6 -13    2.56    0.31 
  -6   1 -13    2.58    0.29 
  -6   1 -13    2.36    0.28 
   6   1 -13    2.23    0.27 
   1   6 -13    2.24    0.29 
   1   6 -14    1.18    0.22 
   6  -1 -14    0.86    0.19 
  -6   1 -14    1.05    0.20 
  -6  -1 -14    0.96    0.18 
   6   1 -14    0.77    0.18 
  -1   6 -14    1.59    0.25 
  -1   6 -14    0.95    0.19 
  -6  -1 -14    1.09    0.20 
  -6   1 -14    1.03    0.18 
  -6  -1 -15   -0.02    0.10 
   6  -1 -15   -0.11    0.12 
   6   1 -15   -0.08    0.13 
  -1   6 -15    0.21    0.14 
  -6   1 -15    0.17    0.10 
   1   6 -15   -0.10    0.14 
  -6  -1 -15    0.09    0.12 
  -6   1 -15    0.16    0.13 
  -6   1 -16   -0.04    0.08 
  -1   6 -16    0.26    0.11 
  -6  -1 -16   -0.01    0.08 
   1   6 -16    0.26    0.11 
   2  -6   0   25.73    0.88 
   6  -2   0   24.81    0.84 
  -6   2   0   24.25    0.84 
  -2  -6   0   24.14    0.70 
   6   2   0   25.51    0.62 
   6  -2  -1   20.37    0.80 
   6  -2   1   19.79    0.75 
   2  -6  -1   20.33    0.80 
  -6   2   1   19.35    0.77 
   2  -6   1   19.01    0.80 
  -6   2  -1   19.52    0.75 
  -2  -6   1   19.37    0.70 
  -2  -6  -1   19.26    0.58 
   6   2   1   19.69    0.44 
  -6   2   2    3.64    0.39 
  -6   2  -2    3.54    0.34 
   2  -6   2    3.46    0.39 
   6   2   2    3.13    0.17 
  -2  -6   2    3.36    0.36 
   6  -2  -2    3.57    0.39 
   6  -2   2    3.61    0.37 
  -2  -6  -2    3.86    0.29 
   2  -6  -2    3.86    0.38 
  -6  -2   2    3.57    0.33 
  -6  -2   3    1.30    0.26 
  -6   2   3    1.42    0.27 
   6  -2   3    1.25    0.25 
   6   2   3    1.27    0.14 
   2  -6  -3    1.34    0.24 
  -2  -6   3    1.60    0.30 
  -6   2  -3    1.24    0.22 
  -2  -6  -3    1.33    0.20 
   2  -6   3    1.27    0.28 
   6  -2  -3    1.19    0.28 
  -6  -2   4    3.50    0.43 
   6  -2   4    3.75    0.42 
   2  -6   4    3.81    0.45 
  -2  -6   4    3.14    0.41 
   2  -6  -4    3.32    0.40 
  -6   2  -4    3.16    0.30 
   6   2   4    3.10    0.26 
   6  -2  -4    3.42    0.42 
   6  -2  -5    0.75    0.26 
   2   6   5    0.74    0.23 
  -6  -2   5    0.55    0.24 
   2  -6  -5    0.24    0.22 
   2  -6   5    0.65    0.29 
  -2  -6   5    0.30    0.25 
   6   2   5    0.38    0.18 
   6  -2   5    0.76    0.26 
  -6  -2   6    7.10    0.71 
   2  -6  -6    6.75    0.64 
   2  -6   6    6.66    0.68 
   6  -2   6    6.70    0.62 
  -2   6   6    6.28    0.49 
   2   6   6    5.82    0.53 
  -2  -6   6    6.91    0.69 
  -2   6   7    2.19    0.43 
   6  -2   7    2.13    0.42 
  -6  -2   7    2.30    0.46 
  -6   2   7    2.55    0.51 
   2   6   7    1.87    0.35 
  -2  -6   7    2.01    0.44 
   2  -6   7    2.15    0.45 
  -6   2   8    2.32    0.50 
   2  -6   8    1.77    0.44 
  -6  -2   8    1.54    0.43 
  -2  -6   8    2.08    0.46 
   6  -2   8    1.84    0.41 
  -2   6   8    1.62    0.42 
  -2  -6   9    0.09    0.30 
  -6  -2  -9    0.05    0.12 
  -2   6   9   -0.14    0.33 
  -2  -6  -9   -0.04    0.14 
   6   2  -9    0.04    0.11 
  -6  -2   9   -0.09    0.31 
   6  -2  -9   -0.13    0.14 
   2  -6  -9    0.05    0.13 
  -2   6  -9   -0.04    0.14 
  -6   2  -9    0.02    0.12 
   6  -2   9   -0.44    0.33 
   2   6  -9   -0.06    0.15 
  -6   2   9    0.52    0.40 
   2  -6   9    0.25    0.29 
  -2  -6  -9    0.01    0.11 
  -6  -2  10    3.90    0.75 
   2  -6 -10    2.66    0.29 
  -2  -6 -10    3.08    0.30 
   6  -2 -10    2.78    0.29 
  -2  -6  10    3.63    0.72 
  -2   6 -10    2.97    0.30 
  -6  -2 -10    2.50    0.27 
   2   6 -10    2.63    0.28 
   2  -6  10    2.40    0.60 
  -6   2  10    3.03    0.67 
  -6   2 -10    2.82    0.29 
  -6  -2 -10    2.67    0.30 
  -2   6  10    2.41    0.57 
  -2  -6 -10    2.61    0.27 
   6   2 -10    2.85    0.29 
   2  -6  11   -0.04    0.25 
  -6  -2  11    0.91    0.46 
  -6  -2 -11    0.54    0.19 
  -6  -2 -11    0.32    0.16 
  -2  -6  11    0.74    0.39 
   6   2 -11    0.27    0.15 
  -6   2 -11    0.40    0.19 
   2   6 -11    0.39    0.18 
  -2  -6 -11    0.43    0.15 
  -2   6 -11    0.68    0.22 
   6  -2 -11    0.40    0.17 
  -6   2  11    1.19    0.44 
   2  -6 -11    0.18    0.17 
  -2  -6 -11    0.18    0.16 
  -6   2 -12    0.16    0.17 
  -6   2 -12    0.16    0.16 
   2   6 -12    0.28    0.19 
  -2  -6 -12    0.15    0.19 
  -2   6 -12    0.19    0.19 
   2  -6 -12    0.16    0.16 
  -2  -6 -12   -0.02    0.13 
  -6  -2 -12    0.09    0.16 
  -6  -2 -12    0.42    0.18 
   6  -2 -12    0.11    0.16 
  -6   2 -13    0.72    0.21 
   6  -2 -13    0.44    0.17 
  -6  -2 -13    0.71    0.19 
  -6   2 -13    0.76    0.19 
   2   6 -13    0.78    0.22 
  -2   6 -13    0.88    0.22 
  -2  -6 -13    0.41    0.16 
   6   2 -13    0.57    0.19 
  -6  -2 -13    0.70    0.20 
  -2  -6 -13    0.71    0.21 
   2  -6 -13    0.70    0.22 
  -6   2 -14    0.71    0.19 
  -6  -2 -14    0.82    0.18 
  -6  -2 -14    0.92    0.19 
   6   2 -14    0.83    0.18 
   2   6 -14    0.92    0.20 
   6  -2 -14    0.86    0.18 
  -2   6 -14    0.89    0.20 
  -2   6 -14    0.94    0.18 
  -6   2 -14    0.82    0.17 
  -2   6 -15    0.52    0.12 
  -6  -2 -15    0.63    0.15 
  -2   6 -15    0.72    0.17 
  -6   2 -15    0.74    0.15 
  -6   2 -15    0.72    0.14 
   6   2 -15    0.70    0.16 
   2   6 -15    1.16    0.19 
   6   2 -16    0.50    0.11 
   2   6 -16    0.78    0.13 
  -2   6 -16    0.59    0.12 
  -6  -2 -16    0.71    0.11 
  -6   2 -16    0.64    0.12 
  -6  -3   0   -0.08    0.07 
  -3  -6   0    0.01    0.09 
  -6   3   0    0.08    0.18 
   6  -3   0    0.16    0.18 
   3  -6   0   -0.11    0.17 
  -6  -3   1    2.03    0.22 
   3  -6  -1    2.53    0.33 
   6  -3  -1    2.08    0.31 
  -6   3  -1    2.18    0.29 
  -3  -6   1    1.88    0.24 
  -3  -6  -1    2.13    0.18 
   3  -6   1    2.43    0.32 
   6  -3   1    2.23    0.30 
  -6   3   1    2.37    0.32 
  -6   3  -2   11.75    0.62 
   3  -6   2   11.58    0.68 
   6  -3  -2   12.29    0.69 
   6  -3   2   12.79    0.67 
  -6   3   2   12.28    0.67 
  -3  -6  -2   11.60    0.40 
   3  -6  -2   11.70    0.65 
  -3  -6   2   12.15    0.63 
  -6  -3   2   11.56    0.57 
  -3  -6   3    0.82    0.22 
   6  -3  -3    0.62    0.21 
   3  -6  -3    0.76    0.23 
  -6  -3   3    0.55    0.17 
   6  -3   3    0.74    0.24 
  -6   3  -3    0.81    0.21 
   3  -6   3    0.60    0.23 
  -6   3   3    0.87    0.25 
  -6   3   4   26.30    1.03 
   6  -3   4   25.79    1.06 
   3  -6   4   24.73    1.11 
   3  -6  -4   25.64    1.04 
  -3  -6   4   25.78    1.07 
  -6  -3   4   24.63    1.04 
   6  -3  -4   25.18    1.07 
   3   6   4   25.52    0.77 
  -6   3  -4   24.83    0.85 
   3  -6  -5    0.70    0.29 
  -6  -3   5    0.47    0.21 
  -6   3  -5    0.66    0.18 
   6  -3  -5    0.86    0.29 
  -3  -6   5    0.71    0.28 
   3  -6   5    0.67    0.28 
   6  -3   5    0.74    0.25 
   3  -6  -6    0.49    0.28 
  -3   6   6    0.15    0.18 
  -6  -3   6    0.26    0.25 
  -3  -6   6    0.23    0.24 
   6  -3   6    0.18    0.23 
   3  -6   6    0.46    0.27 
  -6  -3   7    0.98    0.35 
  -3  -6   7    0.75    0.28 
   3  -6   7    0.75    0.32 
   6  -3   7    0.72    0.30 
  -6   3   7    0.79    0.35 
  -3   6   8    0.75    0.37 
   6  -3   8    0.59    0.21 
  -3  -6   8    0.68    0.34 
  -6  -3   8    0.04    0.28 
   3  -6   8    0.42    0.28 
  -6   3   8    1.07    0.42 
  -3  -6  -9    3.59    0.29 
   3  -6  -9    3.90    0.32 
  -3  -6  -9    3.45    0.30 
   6  -3  -9    3.19    0.29 
  -6  -3  -9    3.28    0.30 
  -6   3   9    3.68    0.67 
   6  -3   9    2.88    0.60 
  -3   6  -9    3.54    0.30 
   3  -6   9    2.92    0.60 
   6   3  -9    2.98    0.27 
   3   6  -9    3.51    0.30 
  -6   3  -9    2.72    0.27 
  -3  -6   9    3.38    0.64 
  -6  -3   9    4.13    0.72 
  -3   6   9    3.29    0.60 
  -3   6  10    0.42    0.30 
  -6  -3  10    0.09    0.36 
   3  -6  10    0.18    0.34 
   3  -6 -10    0.34    0.17 
  -6   3  10    0.77    0.46 
  -3  -6  10    0.41    0.28 
  -6   3 -10    0.44    0.17 
  -3   6 -10    0.50    0.18 
   6  -3 -10    0.22    0.17 
   3   6 -10    0.43    0.18 
  -3  -6 -10    0.41    0.17 
  -6  -3 -10    0.59    0.18 
   6  -3  10    0.12    0.34 
   6   3 -10    0.50    0.17 
  -6  -3 -10    0.29    0.15 
  -3  -6 -10    0.41    0.19 
  -6  -3 -11    2.15    0.27 
  -3  -6 -11    2.14    0.28 
  -6   3 -11    2.28    0.28 
  -3   6  11    0.96    0.43 
   6  -3 -11    1.98    0.26 
  -3   6 -11    1.87    0.27 
   6   3 -11    1.89    0.25 
   3   6 -11    1.80    0.26 
  -6  -3 -11    2.30    0.28 
  -3  -6 -11    2.02    0.26 
   3  -6 -11    1.87    0.27 
  -6   3 -12    1.63    0.26 
  -6  -3 -12    2.34    0.28 
  -3   6 -12    2.13    0.29 
   6  -3 -12    2.21    0.27 
  -6   3 -12    1.98    0.26 
  -6  -3 -12    2.27    0.29 
   6   3 -12    2.12    0.26 
   3   6 -12    2.18    0.29 
  -3  -6 -12    2.47    0.30 
   3  -6 -12    2.55    0.30 
  -3  -6 -12    2.06    0.26 
  -6   3 -13    1.09    0.22 
  -3   6 -13    1.64    0.25 
   3  -6 -13    1.42    0.24 
  -3  -6 -13    1.67    0.25 
  -6   3 -13    1.18    0.21 
   6  -3 -13    1.26    0.22 
   3   6 -13    1.52    0.25 
  -6  -3 -13    1.64    0.23 
  -3  -6 -13    1.52    0.22 
   6   3 -13    1.16    0.22 
  -6  -3 -13    1.50    0.24 
  -3   6 -14    0.22    0.14 
  -6  -3 -14    0.20    0.13 
  -6   3 -14    0.16    0.14 
   6  -3 -14    0.08    0.15 
   6   3 -14    0.14    0.13 
  -6  -3 -14    0.23    0.15 
  -3   6 -14    0.06    0.15 
  -3  -6 -14    0.13    0.12 
  -6   3 -14    0.15    0.14 
   3   6 -14    0.01    0.15 
  -6   3 -15    0.25    0.13 
   3   6 -15   -0.03    0.14 
  -3   6 -15    0.11    0.13 
  -6   3 -15    0.10    0.11 
  -6  -3 -15   -0.06    0.12 
   6   3 -15    0.06    0.11 
  -3   6 -15   -0.10    0.11 
  -6  -3 -16   -0.02    0.07 
   3   6 -16    0.06    0.09 
  -3   6 -16   -0.02    0.09 
   6   3 -16   -0.09    0.09 
  -6   3 -16    0.03    0.08 
   4  -6   0   20.87    0.87 
   6  -4   0   21.18    0.88 
  -4  -6   0   18.88    0.52 
  -6   4   1   12.65    0.69 
  -6  -4   1   10.73    0.45 
   4  -6   1   12.14    0.68 
   4  -6  -1   11.84    0.69 
   6  -4   1   11.80    0.67 
  -4  -6   1   11.65    0.52 
   6  -4  -1   11.33    0.66 
  -6  -4   2    9.27    0.50 
  -4  -6   2   10.21    0.57 
   4  -6   2   10.02    0.65 
   6  -4   2   10.18    0.64 
   4  -6  -2   10.37    0.64 
  -6   4   2    9.86    0.62 
   6  -4  -2    9.85    0.64 
  -6  -4   3    4.26    0.42 
   4  -6   3    5.45    0.54 
  -6   4  -3    4.92    0.44 
   6  -4   3    5.07    0.51 
  -6   4   3    4.41    0.47 
   6  -4  -3    5.27    0.51 
  -4  -6   3    4.63    0.45 
   4  -6  -3    4.95    0.51 
   4  -6  -4   10.42    0.71 
   4  -6   4   10.16    0.73 
  -6   4  -4    9.64    0.58 
  -6   4   4    9.81    0.68 
   6  -4   4   10.27    0.72 
   6  -4  -4   10.33    0.72 
  -4  -6   4    9.80    0.68 
  -6  -4   4    9.37    0.65 
   6  -4   5    2.35    0.40 
  -6   4   5    1.97    0.37 
  -4  -6   5    1.77    0.36 
  -6   4  -5    1.89    0.28 
  -6  -4   5    1.79    0.36 
   4  -6   5    2.20    0.41 
  -4   6   5    2.39    0.39 
   6  -4  -5    2.10    0.40 
   4  -6  -5    2.48    0.42 
  -4   6   6    1.84    0.35 
   4  -6  -6    1.73    0.37 
  -6  -4   6    1.74    0.40 
   4  -6   6    2.10    0.43 
   6  -4   6    1.38    0.35 
   6  -4  -6    1.40    0.37 
  -4  -6   6    1.45    0.38 
  -6  -4   7    9.19    0.86 
  -4  -6   7    9.49    0.88 
   4  -6   7    9.61    0.87 
   6  -4   7    9.72    0.85 
   6  -4   8    9.15    0.89 
  -6  -4  -8    8.46    0.42 
  -6   4   8    8.06    0.92 
  -6  -4   8    7.72    0.85 
   4  -6   8    9.25    0.92 
  -4   6   8    9.66    0.92 
  -4  -6   8    9.63    0.94 
   4  -6   9    7.54    0.90 
   4  -6  -9    8.73    0.46 
  -4  -6  -9    7.35    0.42 
  -6  -4   9    7.57    0.93 
   4   6  -9    7.57    0.42 
   6   4  -9    6.97    0.39 
   6  -4   9    7.76    0.88 
  -4  -6   9    7.04    0.89 
  -6   4  -9    7.21    0.41 
   6  -4  -9    7.38    0.43 
  -4  -6  -9    7.95    0.43 
  -6  -4  -9    7.58    0.42 
  -4   6   9    8.41    0.97 
  -4   6  -9    8.27    0.45 
  -6   4   9    6.84    0.91 
  -6  -4 -10    0.41    0.16 
  -4   6  10   -0.29    0.41 
   6  -4 -10    0.61    0.19 
  -6  -4  10    0.31    0.31 
   4  -6  10    0.49    0.35 
  -4   6 -10    0.69    0.19 
   4  -6 -10    0.52    0.18 
   6  -4  10   -0.12    0.32 
  -6   4  10    0.23    0.32 
  -4  -6 -10    0.53    0.19 
  -6   4 -10    0.45    0.18 
   6   4 -10    0.50    0.18 
  -4  -6 -10    0.54    0.18 
   4   6 -10    0.55    0.17 
  -4  -6  10    1.24    0.47 
  -6  -4 -10    0.53    0.16 
   4  -6 -11    0.81    0.21 
  -4   6 -11    0.89    0.22 
  -6  -4 -11    0.49    0.18 
  -4  -6 -11    0.88    0.20 
   4   6 -11    0.75    0.20 
   6   4 -11    0.59    0.19 
  -6  -4 -11    0.62    0.19 
  -4  -6 -11    0.60    0.18 
   6  -4 -11    0.70    0.19 
  -6   4 -11    0.81    0.21 
  -4  -6 -12   -0.06    0.17 
   6   4 -12    0.16    0.16 
   4   6 -12    0.05    0.16 
   6  -4 -12    0.09    0.15 
  -6   4 -12    0.07    0.16 
  -4   6 -12   -0.06    0.18 
   4  -6 -12    0.21    0.18 
  -6  -4 -12    0.00    0.17 
  -4  -6 -12    0.19    0.14 
  -6  -4 -12   -0.05    0.16 
   4   6 -13    0.01    0.16 
   6   4 -13    0.25    0.16 
  -4  -6 -13    0.09    0.13 
  -6   4 -13   -0.01    0.16 
  -4   6 -13    0.14    0.17 
   6  -4 -13    0.04    0.17 
  -6  -4 -13   -0.13    0.16 
  -6   4 -13    0.15    0.15 
  -6  -4 -13    0.04    0.15 
   6   4 -14    0.28    0.14 
  -6   4 -14    0.01    0.14 
  -6   4 -14    0.03    0.12 
  -4   6 -14    0.22    0.14 
  -4   6 -14   -0.01    0.15 
  -6  -4 -14   -0.25    0.15 
  -4  -6 -14    0.04    0.13 
   4   6 -14   -0.02    0.15 
   4   6 -15    0.09    0.12 
   6   4 -15    0.13    0.11 
  -6   4 -15    0.22    0.12 
  -4   6 -15   -0.15    0.11 
  -6  -4 -15   -0.06    0.12 
  -6   4 -15    0.04    0.11 
  -4   6 -15    0.12    0.12 
  -4   6 -16    0.23    0.09 
   6   4 -16   -0.05    0.08 
   4   6 -16    0.21    0.09 
  -6   4 -16    0.15    0.08 
   5  -6   0    0.11    0.20 
  -5  -6   0    0.03    0.06 
   6  -5   0   -0.08    0.19 
   6  -5  -1    0.67    0.26 
  -5  -6   1    0.97    0.17 
  -6  -5   1    0.77    0.15 
   5  -6   1    0.91    0.26 
   6  -5   1    0.91    0.26 
   5  -6  -1    0.91    0.25 
   5  -6  -2    2.12    0.36 
   6  -5  -2    1.99    0.34 
   5  -6   2    1.79    0.32 
   6  -5   2    1.65    0.31 
  -6  -5   2    1.73    0.24 
  -5  -6   2    2.26    0.29 
  -6   5   2    1.71    0.33 
  -6   5   3   -0.03    0.23 
   6  -5   3    0.44    0.24 
  -6  -5   3    0.16    0.15 
   5  -6   3    0.19    0.22 
  -5  -6   3    0.05    0.14 
   5  -6  -3    0.12    0.20 
   6  -5  -3    0.10    0.21 
   5  -6   4    0.63    0.27 
   6  -5   4    0.66    0.26 
   6  -5  -4    0.65    0.29 
  -6  -5   4    0.48    0.23 
  -6   5   4    0.50    0.25 
  -5  -6   4    0.52    0.22 
  -5   6   4    0.88    0.29 
   5  -6  -4    0.58    0.25 
  -5  -6   5   12.52    0.85 
   5  -6   5   12.95    0.90 
  -5   6   5   12.69    0.82 
   6  -5  -5   11.42    0.85 
  -6  -5   5   11.99    0.83 
   6  -5   5   12.40    0.88 
   5  -6  -5   11.30    0.84 
  -6   5   5   12.24    0.80 
  -6   5  -5   11.92    0.68 
   5  -6  -6    2.19    0.42 
   5  -6   6    2.89    0.50 
  -6  -5   6    2.24    0.45 
  -6   5   6    2.54    0.42 
  -5  -6   6    1.70    0.39 
   6  -5  -6    2.06    0.42 
   6  -5   6    2.75    0.47 
  -5   6   6    1.68    0.35 
   5  -6   7    0.08    0.23 
  -5  -6   7    0.20    0.26 
  -6  -5   7    0.21    0.25 
   6  -5   7    0.14    0.24 
  -5   6  -8    1.22    0.20 
  -5   6   8    1.19    0.37 
  -5  -6   8    1.44    0.46 
  -6  -5   8    1.23    0.37 
  -6   5   8    1.04    0.40 
   6  -5  -8    1.21    0.20 
  -6  -5  -8    1.47    0.20 
  -5  -6  -8    1.47    0.20 
   5  -6   8    1.06    0.38 
   5  -6  -8    1.40    0.21 
   6  -5   8    0.95    0.31 
   5   6  -9    0.17    0.13 
  -6   5  -9    0.18    0.13 
   6   5  -9    0.12    0.13 
   5  -6  -9    0.36    0.17 
   6  -5  -9    0.55    0.18 
  -5  -6  -9    0.04    0.14 
   5  -6   9   -0.30    0.39 
  -5  -6   9    0.01    0.35 
  -6   5   9   -0.69    0.39 
  -5   6   9    0.54    0.34 
  -5   6  -9    0.03    0.14 
  -5  -6  -9    0.15    0.13 
  -6  -5  -9    0.00    0.13 
   6  -5   9   -0.22    0.31 
  -6  -5   9    0.23    0.36 
  -5   6 -10    0.00    0.16 
   6  -5 -10    0.26    0.16 
  -6  -5 -10   -0.10    0.14 
   6   5 -10   -0.16    0.16 
  -5  -6 -10    0.01    0.15 
   5  -6  10   -0.39    0.37 
  -6  -5  10   -0.20    0.34 
   5   6 -10    0.02    0.15 
  -6   5 -10   -0.03    0.20 
  -5  -6  10   -0.03    0.34 
  -5  -6 -10   -0.03    0.17 
  -5   6  10   -0.04    0.35 
   5  -6 -10   -0.06    0.16 
  -6  -5 -10    0.23    0.17 
   6  -5  10   -0.19    0.40 
  -5   6 -11    0.99    0.22 
  -6   5 -11    1.39    0.23 
   5   6 -11    0.85    0.21 
  -6  -5 -11    1.43    0.22 
   6  -5 -11    1.43    0.24 
  -5  -6 -11    1.30    0.23 
   5  -6 -11    1.34    0.24 
  -5  -6 -11    1.22    0.23 
   6   5 -11    1.31    0.21 
  -6  -5 -11    1.27    0.22 
  -6  -5 -12    0.53    0.17 
   5   6 -12    0.63    0.19 
   6  -5 -12    0.53    0.19 
  -6   5 -12    0.41    0.17 
   5  -6 -12    0.68    0.20 
   6   5 -12    0.63    0.19 
  -5   6 -12    0.72    0.21 
  -6  -5 -12    0.34    0.18 
  -5  -6 -12    0.52    0.19 
  -5  -6 -12    0.48    0.18 
  -5  -6 -13    0.23    0.16 
  -6   5 -13    0.37    0.17 
  -5   6 -13    0.44    0.17 
   6   5 -13    0.40    0.17 
  -6   5 -13    0.62    0.19 
   5   6 -13    0.54    0.18 
  -6  -5 -13    0.63    0.18 
  -6   5 -14    0.10    0.14 
  -5   6 -14    0.07    0.15 
  -6   5 -14    0.42    0.14 
   6   5 -14    0.22    0.13 
   5   6 -14    0.12    0.13 
  -5   6 -14   -0.10    0.13 
  -5  -6 -14    0.05    0.13 
  -6  -5 -14    0.23    0.15 
  -6  -5 -15    0.27    0.12 
  -5  -6 -15   -0.04    0.10 
   5   6 -15    0.09    0.11 
  -6   5 -15   -0.02    0.11 
  -5   6 -15   -0.14    0.12 
  -6   5 -15    0.16    0.10 
  -5   6 -15    0.09    0.10 
   6   5 -15    0.01    0.10 
  -6   5 -16    0.16    0.08 
   6  -6   0   21.35    0.98 
   6  -6   1    1.08    0.29 
  -6  -6   1    1.34    0.17 
   6  -6  -1    1.15    0.29 
   6  -6  -2   -0.01    0.20 
  -6  -6   2    0.03    0.13 
   6  -6   2   -0.01    0.19 
  -6  -6   3    3.48    0.39 
   6  -6   3    4.23    0.50 
  -6   6   3    3.90    0.48 
   6  -6  -3    3.97    0.49 
  -6   6   4    0.29    0.24 
   6  -6   4    0.35    0.25 
  -6  -6   4    0.34    0.20 
   6  -6  -4    0.22    0.23 
   6  -6   5    9.38    0.79 
  -6   6   5    9.13    0.73 
  -6  -6   5    8.75    0.72 
   6  -6  -5    8.32    0.75 
   6  -6   6    0.68    0.33 
   6  -6  -6    0.79    0.33 
  -6   6   6    0.14    0.24 
  -6  -6   6    0.18    0.21 
   6  -6   7    2.50    0.47 
  -6  -6   7    2.02    0.46 
  -6   6   8   -0.10    0.24 
  -6  -6   8   -0.10    0.30 
   6  -6  -8    0.14    0.14 
  -6   6  -8    0.00    0.12 
   6   6  -8   -0.09    0.12 
  -6  -6  -8   -0.09    0.14 
   6   6  -9   -0.20    0.15 
  -6   6  -9   -0.19    0.17 
  -6  -6   9   -0.40    0.40 
   6  -6  -9    0.09    0.15 
  -6  -6  -9   -0.05    0.15 
   6  -6   9   -0.25    0.36 
  -6   6   9   -0.23    0.33 
  -6   6  10   12.04    1.22 
  -6  -6 -10   12.45    0.54 
  -6  -6  10   10.90    1.19 
   6   6 -10   12.88    0.56 
   6  -6  10   11.20    1.13 
  -6   6 -10   13.81    0.59 
   6  -6 -10   13.63    0.61 
  -6  -6 -10   13.30    0.58 
  -6  -6 -11   -0.06    0.14 
   6  -6 -11   -0.13    0.17 
   6   6 -11    0.06    0.15 
  -6  -6 -11    0.13    0.17 
  -6   6 -11   -0.19    0.17 
  -6   6 -12    1.16    0.22 
   6   6 -12    1.05    0.21 
  -6  -6 -12    0.98    0.21 
   6   6 -13    0.07    0.15 
  -6  -6 -13    0.03    0.15 
  -6   6 -13   -0.19    0.16 
  -6   6 -14    0.22    0.14 
  -6   6 -14   -0.06    0.12 
  -6  -6 -14    0.19    0.13 
   6   6 -14   -0.03    0.12 
   6   6 -15    0.27    0.11 
  -6   6 -15    0.06    0.10 
  -6  -6 -15    0.26    0.11 
  -6   6 -15    0.21    0.11 
   0  -7   0   -0.16    0.17 
   7   0   0    0.09    0.14 
   7   0  -1   38.92    1.06 
   0  -7  -1   38.42    1.05 
   7   0   1   38.65    0.97 
   0  -7   1   36.94    1.10 
   0  -7   2   86.04    1.77 
   0  -7  -2   83.53    1.60 
   7   0   2   86.13    1.49 
   7   0  -2   87.45    1.74 
   7   0  -3  459.54    4.55 
   7   0   3  460.29    3.93 
   0  -7   3  450.97    4.60 
   0  -7  -3  462.24    4.23 
   7   0   4  446.73    4.16 
   0  -7   4  447.50    4.88 
   0  -7  -4  438.33    4.42 
   0  -7   5   92.65    2.30 
   7   0   5   89.68    1.90 
  -7   0   5   94.73    2.33 
   0  -7  -5   91.91    2.08 
   7   0   6    0.32    0.22 
  -7   0   6    0.36    0.25 
   0  -7   6    0.59    0.26 
   0  -7   7   21.65    1.30 
   0   7   7   19.29    1.10 
  -7   0   7   20.88    1.34 
   0  -7   8    4.76    0.70 
   0   7   8    3.39    0.54 
  -7   0   8    5.07    0.73 
   0   7  -9   26.90    0.77 
   0  -7   9   24.43    1.57 
   0  -7  -9   25.90    0.78 
  -7   0  -9   25.20    0.78 
   7   0  -9   22.62    0.70 
  -7   0   9   26.39    1.70 
   0  -7  10   25.64    1.71 
   0   7 -10   29.61    0.84 
  -7   0  10   26.90    1.82 
   0  -7 -10   28.95    0.86 
  -7   0 -10   29.02    0.87 
   7   0 -10   25.96    0.79 
  -7   0 -11   24.56    0.81 
   0  -7 -11   24.36    0.80 
   0   7 -11   23.42    0.78 
  -7   0 -11   22.52    0.74 
   0  -7 -12   23.70    0.81 
   7   0 -12   20.76    0.72 
  -7   0 -12   22.01    0.74 
   0   7 -12   23.27    0.79 
  -7   0 -12   23.72    0.80 
  -7   0 -13    0.64    0.19 
   7   0 -13    0.55    0.18 
   0   7 -13    0.88    0.21 
  -7   0 -13    0.70    0.18 
   0   7 -14    0.24    0.16 
   7   0 -14    0.43    0.15 
  -7   0 -14    0.30    0.13 
  -7   0 -14    0.22    0.14 
   0   7 -15    0.59    0.16 
   7   0 -15    0.80    0.15 
  -7   0 -15    0.61    0.14 
   0   7 -16    0.68    0.12 
  -7   0 -16    0.52    0.10 
   7   1   0   40.08    0.95 
  -1  -7   0   38.61    1.03 
   1  -7   0   38.81    1.13 
   7  -1   0   39.78    1.10 
   7   1  -1    1.91    0.25 
   1  -7  -1    1.76    0.29 
   7  -1   1    1.99    0.29 
  -1  -7  -1    1.95    0.26 
  -1  -7   1    1.76    0.27 
   7   1   1    2.03    0.23 
   7  -1  -1    2.00    0.29 
   1  -7   1    1.93    0.29 
   7   1  -2   12.61    0.66 
  -1  -7  -2   12.68    0.59 
   7  -1   2   12.71    0.62 
   1  -7   2   13.28    0.72 
  -1  -7   2   12.70    0.68 
   7   1   2   13.32    0.51 
   1  -7  -2   12.56    0.65 
   7  -1  -2   12.91    0.69 
   7  -1  -3    4.56    0.47 
  -1  -7   3    5.06    0.50 
  -1  -7  -3    4.26    0.40 
   1  -7  -3    4.18    0.44 
   7  -1   3    4.52    0.43 
   1  -7   3    4.99    0.52 
   7   1   3    3.93    0.32 
   1  -7   4   73.48    1.91 
   7   1   4   69.59    1.39 
   7  -1   4   73.32    1.69 
   1  -7  -4   73.58    1.74 
  -1  -7  -4   72.48    1.63 
   7  -1  -4   70.81    1.82 
  -1  -7   4   71.27    1.88 
  -7  -1   4   73.95    1.88 
   1  -7  -5   17.04    0.94 
  -1  -7   5   18.56    1.06 
   1  -7   5   17.47    1.02 
   7   1   5   16.10    0.75 
   7  -1   5   16.91    0.88 
  -7  -1   5   17.04    1.02 
  -7  -1   6    8.86    0.81 
   1  -7   6    7.87    0.76 
  -1  -7   6    9.48    0.83 
   7  -1   6    8.54    0.69 
  -7   1   6    8.96    0.80 
   1   7   6    7.90    0.65 
  -7   1   7    3.14    0.55 
   1  -7   7    2.24    0.45 
  -1  -7   7    2.82    0.54 
  -7  -1   7    2.63    0.53 
  -1   7   7    2.42    0.45 
   1   7   7    2.84    0.44 
   7  -1   7    2.31    0.40 
   1  -7  -8    4.00    0.31 
  -1   7   8    3.32    0.52 
  -1   7  -8    3.31    0.27 
   1  -7   8    3.39    0.56 
  -1  -7   8    4.11    0.65 
  -7   1   8    3.78    0.67 
   1   7  -8    3.77    0.29 
  -7  -1  -8    3.31    0.28 
  -7  -1   8    3.95    0.65 
  -7  -1  -9   -0.04    0.16 
  -1  -7   9    0.19    0.33 
  -7   1   9    0.35    0.35 
   7   1  -9   -0.07    0.14 
  -7  -1   9    0.30    0.34 
   7  -1  -9    0.06    0.14 
   1  -7  -9    0.22    0.15 
   1  -7   9    0.47    0.32 
  -1   7  -9    0.30    0.16 
   1   7  -9    0.33    0.16 
  -1  -7  -9    0.15    0.14 
  -1  -7  -9    0.20    0.12 
  -1   7   9    0.49    0.21 
   1  -7 -10    5.30    0.40 
   7  -1 -10    3.93    0.33 
   1   7 -10    4.53    0.35 
   7   1 -10    4.29    0.34 
  -1   7 -10    4.44    0.36 
  -7   1  10    4.11    0.77 
  -7  -1 -10    4.64    0.37 
  -1  -7  10    4.26    0.75 
  -7   1 -10    4.30    0.37 
   1  -7  10    4.22    0.72 
  -1  -7 -10    4.07    0.31 
  -1  -7 -10    4.81    0.37 
  -7  -1  10    3.81    0.78 
  -7  -1 -11    0.23    0.16 
   7   1 -11    0.10    0.15 
  -7   1 -11   -0.11    0.18 
  -1  -7 -11    0.38    0.18 
   1  -7 -11    0.14    0.16 
  -7  -1 -11    0.24    0.17 
  -7   1 -11   -0.31    0.18 
  -1   7 -11    0.42    0.21 
   1   7 -11    0.12    0.18 
   7  -1 -11    0.03    0.15 
  -1  -7 -11    0.28    0.15 
  -7  -1 -12    0.36    0.19 
  -7   1 -12    0.56    0.20 
  -1  -7 -12    0.73    0.22 
   7   1 -12    0.39    0.17 
  -7  -1 -12    0.59    0.18 
  -7   1 -12    0.54    0.20 
   7  -1 -12    0.46    0.20 
  -1   7 -12    0.39    0.19 
   1   7 -12    0.50    0.20 
   1  -7 -12    0.46    0.20 
  -7  -1 -13    2.08    0.27 
  -7   1 -13    2.05    0.28 
  -7   1 -13    2.20    0.25 
   7   1 -13    1.96    0.25 
  -7  -1 -13    2.07    0.25 
   1   7 -13    2.19    0.28 
  -1   7 -13    2.39    0.30 
   7  -1 -13    2.12    0.25 
  -7   1 -14   -0.13    0.15 
  -1   7 -14    0.23    0.13 
   7  -1 -14    0.18    0.13 
  -7   1 -14    0.19    0.12 
  -1   7 -14    0.13    0.14 
   1   7 -14    0.02    0.14 
   7   1 -14    0.10    0.13 
  -7  -1 -14    0.05    0.14 
  -7  -1 -14    0.01    0.11 
   7   1 -15    0.01    0.10 
  -1   7 -15    0.11    0.13 
   1   7 -15   -0.18    0.13 
  -7  -1 -15   -0.12    0.11 
  -7   1 -15   -0.10    0.11 
  -1   7 -16    0.29    0.10 
  -7   1 -16    0.30    0.09 
   1   7 -16    0.34    0.10 
  -7  -1 -16    0.18    0.08 
   7   2   0   -0.03    0.10 
  -2  -7   0   -0.06    0.12 
   2  -7   0    0.05    0.16 
  -7   2   0   -0.20    0.21 
   7  -2   0   -0.12    0.17 
   2  -7  -1    6.12    0.48 
   2  -7   1    5.77    0.50 
  -2  -7  -1    5.62    0.36 
  -7   2   1    6.21    0.48 
   7  -2   1    6.30    0.47 
  -7   2  -1    6.42    0.47 
   7  -2  -1    5.99    0.49 
  -2  -7   1    5.86    0.42 
   7   2   1    6.04    0.29 
  -2  -7  -2  130.51    1.76 
  -2  -7   2  128.39    2.13 
   2  -7  -2  129.95    2.17 
  -7   2  -2  128.86    2.06 
   2  -7   2  127.24    2.26 
   7  -2   2  131.23    2.14 
  -7  -2   2  124.93    1.96 
   7  -2  -2  130.49    2.23 
  -7   2   2  131.04    2.22 
  -7   2  -3  128.11    2.05 
  -2  -7  -3  132.95    1.92 
  -2  -7   3  130.74    2.34 
   2  -7  -3  127.49    2.29 
   7  -2   3  131.11    2.24 
   7  -2  -3  123.90    2.33 
  -7  -2   3  126.08    2.23 
   2  -7   3  127.80    2.38 
  -2  -7  -4  163.25    2.33 
   7  -2   4  155.91    2.64 
   2  -7   4  155.79    2.82 
  -2  -7   4  159.34    2.83 
  -7  -2   4  153.79    2.75 
   2  -7  -4  149.26    2.61 
   7  -2  -4  153.44    2.76 
  -2  -7   5  168.06    3.18 
   7  -2   5  163.94    2.87 
   7  -2  -5  160.14    3.00 
  -7  -2   5  167.91    3.15 
   2  -7   5  160.14    3.10 
   2  -7  -5  164.68    2.98 
   2   7   5  158.68    2.48 
  -7  -2   6   53.54    1.93 
   2  -7   6   51.49    1.86 
   7  -2   6   49.82    1.69 
   2  -7  -6   53.27    1.81 
  -2  -7   6   52.28    1.90 
  -7  -2   7    2.89    0.53 
   2  -7   7    2.65    0.47 
  -7   2   7    2.95    0.52 
  -2  -7   7    2.66    0.51 
   7  -2   7    2.79    0.47 
   7  -2   8   25.61    1.40 
  -2   7  -8   26.34    0.74 
  -7  -2   8   27.06    1.61 
   2   7  -8   25.08    0.70 
   2  -7   8   24.76    1.51 
  -2   7   8   24.71    1.40 
  -7   2   8   26.73    1.63 
  -7  -2  -8   25.23    0.73 
  -2  -7   8   28.43    1.62 
   2  -7  -8   27.46    0.76 
  -7   2   9   10.17    1.08 
  -2   7   9    8.26    0.88 
  -7  -2   9    8.23    0.98 
   2  -7  -9    9.69    0.49 
  -2  -7  -9    9.33    0.48 
   7  -2  -9    7.50    0.42 
  -2  -7   9    9.11    1.02 
  -2   7  -9    9.11    0.47 
   2  -7   9    8.39    0.94 
  -7  -2  -9    8.87    0.47 
   2   7  -9    9.53    0.47 
   7   2  -9    7.30    0.40 
  -2  -7  -9    7.88    0.42 
  -2   7  10    9.53    1.00 
  -7   2  10   12.75    1.28 
   7  -2 -10   12.75    0.56 
   2  -7  10   11.91    1.18 
   2   7 -10   14.02    0.58 
  -2  -7  10   12.87    1.26 
  -2   7 -10   13.39    0.59 
  -7  -2  10   12.85    1.29 
   2  -7 -10   13.12    0.59 
  -2  -7 -10   12.94    0.54 
   7   2 -10   12.33    0.54 
  -7   2 -10   12.69    0.55 
  -7  -2 -10   14.01    0.60 
  -2  -7 -10   13.84    0.60 
   7   2 -11   30.04    0.85 
  -2  -7 -11   31.29    0.91 
   7  -2 -11   29.97    0.86 
  -7  -2 -11   30.11    0.90 
  -2   7 -11   30.85    0.92 
  -2  -7 -11   27.33    0.81 
   2   7 -11   31.39    0.90 
  -7   2 -11   30.13    0.86 
  -7   2 -11   30.07    0.91 
   2  -7 -11   31.85    0.91 
   7  -2 -12    2.90    0.29 
  -7  -2 -12    3.04    0.29 
  -2   7 -12    3.18    0.33 
  -7   2 -12    2.96    0.31 
   2   7 -12    2.63    0.31 
  -7   2 -12    3.27    0.33 
   7   2 -12    3.00    0.30 
  -2  -7 -12    3.54    0.34 
   2  -7 -12    3.40    0.34 
  -2  -7 -12    2.71    0.28 
  -7  -2 -12    2.88    0.32 
  -7   2 -13    0.81    0.21 
  -2   7 -13    1.24    0.23 
   7  -2 -13    0.88    0.19 
  -7  -2 -13    0.44    0.16 
   2   7 -13    0.92    0.22 
   7   2 -13    0.78    0.18 
  -7   2 -13    0.88    0.19 
  -2  -7 -13    0.84    0.18 
  -7  -2 -13    0.96    0.22 
  -7   2 -14    0.07    0.14 
  -2   7 -14   -0.08    0.12 
   7  -2 -14    0.12    0.15 
   7   2 -14   -0.12    0.13 
  -2   7 -14    0.11    0.16 
  -7  -2 -14   -0.35    0.17 
  -7   2 -14    0.12    0.12 
   2   7 -14    0.10    0.15 
  -2   7 -15    0.14    0.09 
   2   7 -15    0.12    0.12 
  -7   2 -15    0.10    0.11 
   7   2 -15    0.21    0.11 
  -2   7 -15    0.46    0.14 
  -7  -2 -15    0.08    0.12 
   2   7 -16    1.79    0.17 
  -2   7 -16    1.88    0.17 
  -7   2 -16    1.33    0.14 
  -7  -2 -16    1.40    0.14 
   3  -7   0    4.40    0.43 
  -7   3   0    4.13    0.41 
  -3  -7   0    4.40    0.31 
   7  -3   0    4.99    0.46 
  -7  -3   0    3.41    0.22 
  -7   3   1    4.00    0.41 
  -3  -7   1    4.11    0.35 
   3  -7   1    4.24    0.43 
   3  -7  -1    4.16    0.44 
   7  -3   1    4.67    0.45 
  -3  -7  -1    3.91    0.27 
   7  -3  -1    4.32    0.43 
  -7   3  -1    4.54    0.42 
  -7  -3   1    4.34    0.32 
  -7  -3   2   37.30    1.06 
  -3  -7  -2   38.75    0.82 
  -7   3  -2   40.95    1.20 
   3  -7   2   40.39    1.30 
  -3  -7   2   39.40    1.15 
   7  -3   2   41.71    1.27 
   7  -3  -2   40.16    1.31 
   3  -7  -2   38.19    1.25 
  -7   3   2   39.94    1.26 
   7  -3  -3  148.17    2.58 
   3  -7   3  148.54    2.66 
  -3  -7   3  154.49    2.57 
  -7   3   3  153.42    2.56 
  -7   3  -3  152.16    2.33 
  -3  -7  -3  143.05    1.75 
   3  -7  -3  156.70    2.64 
   7  -3   3  156.81    2.60 
  -7  -3   3  146.96    2.41 
  -7  -3   4   16.13    0.89 
   3  -7   4   15.79    0.94 
  -3  -7   4   16.05    0.91 
   7  -3   4   17.09    0.91 
   3  -7  -4   16.71    0.90 
  -7   3  -4   16.30    0.75 
   7  -3  -4   16.50    0.92 
  -7  -3   5   13.63    0.90 
   7  -3  -5   12.26    0.87 
  -3  -7   5   13.84    0.91 
   7  -3   5   13.42    0.86 
   3  -7   5   12.51    0.89 
   3  -7  -5   13.30    0.88 
  -7  -3   6   37.68    1.62 
   3  -7   6   38.38    1.62 
  -3   7   6   38.64    1.37 
   7  -3   6   37.72    1.52 
  -3  -7   6   39.38    1.64 
   3  -7  -6   39.41    1.57 
  -7  -3   7   35.10    1.68 
  -3  -7   7   35.36    1.68 
   3  -7   7   34.00    1.66 
   7  -3   7   34.68    1.56 
  -7   3   7   34.63    1.70 
  -7  -3   8   21.91    1.44 
   3  -7  -8   21.43    0.69 
  -3  -7  -8   19.88    0.64 
   7  -3   8   21.61    1.33 
   3  -7   8   23.58    1.45 
  -3  -7   8   21.99    1.43 
  -7  -3  -8   20.48    0.66 
  -3   7  -8   20.60    0.67 
  -7   3   8   20.60    1.43 
  -3  -7  -8   18.98    0.61 
  -3   7   8   17.75    1.24 
   3   7  -8   20.06    0.63 
   3  -7  -9   18.81    0.68 
  -3  -7  -9   19.62    0.69 
   7  -3  -9   17.72    0.63 
   3   7  -9   19.22    0.66 
  -3   7  -9   20.83    0.70 
   3  -7   9   18.40    1.38 
   7  -3   9   17.74    1.29 
  -3  -7  -9   17.80    0.63 
  -7  -3   9   20.29    1.48 
  -7  -3  -9   19.10    0.67 
  -3  -7   9   18.29    1.43 
   7   3  -9   15.56    0.59 
  -3   7   9   16.10    1.26 
  -7   3   9   16.33    1.43 
  -7  -3 -10    0.04    0.17 
  -7   3 -10    0.32    0.16 
   3   7 -10    0.39    0.17 
  -3   7 -10    0.32    0.17 
   3  -7  10    0.58    0.33 
  -3   7  10    0.68    0.42 
   7  -3 -10    0.23    0.16 
   3  -7 -10    0.47    0.18 
   7   3 -10    0.31    0.16 
  -3  -7  10   -0.06    0.32 
  -3  -7 -10    0.39    0.19 
  -7  -3  10   -0.27    0.45 
  -3  -7 -10    0.61    0.19 
  -7   3  10    0.90    0.44 
  -7  -3 -11    0.06    0.17 
  -3  -7 -11    0.29    0.18 
  -3   7 -11    0.41    0.20 
   7  -3 -11    0.21    0.16 
   3  -7 -11    0.45    0.19 
  -3  -7 -11    0.51    0.18 
   3   7 -11    0.56    0.20 
   7   3 -11   -0.05    0.15 
  -7   3 -11    0.00    0.15 
   7   3 -12    2.36    0.27 
  -7   3 -12    2.45    0.28 
  -7   3 -12    2.43    0.30 
  -3  -7 -12    2.22    0.26 
  -7  -3 -12    2.41    0.29 
  -3   7 -12    2.63    0.30 
   7  -3 -12    2.20    0.27 
   3   7 -12    2.23    0.29 
   7  -3 -13    5.70    0.38 
   3   7 -13    6.57    0.42 
  -3   7 -13    6.19    0.42 
  -7  -3 -13    6.05    0.41 
  -7   3 -13    6.16    0.41 
  -7   3 -13    5.30    0.35 
   7   3 -13    6.03    0.38 
   7   3 -14    2.73    0.25 
  -7   3 -14    3.05    0.26 
  -3   7 -14    3.55    0.30 
  -7  -3 -14    3.37    0.30 
  -7   3 -14    3.50    0.30 
   3   7 -14    3.36    0.29 
  -3   7 -14    2.41    0.27 
  -3  -7 -14    2.78    0.24 
  -7   3 -15    0.53    0.13 
  -3   7 -15    0.37    0.12 
  -3   7 -15    0.18    0.13 
   7   3 -15    0.26    0.11 
   3   7 -15    0.34    0.13 
  -7  -3 -15    0.36    0.13 
   3   7 -16    0.14    0.09 
  -3   7 -16   -0.03    0.09 
  -7   3 -16   -0.01    0.07 
  -4  -7   0   -0.02    0.08 
   4  -7   0    0.08    0.19 
  -7   4   0    0.12    0.19 
   7  -4   0   -0.15    0.21 
   7  -4  -1   13.79    0.77 
  -7   4  -1   13.61    0.74 
   4  -7   1   13.81    0.77 
  -4  -7   1   13.53    0.60 
  -7  -4   1   12.71    0.50 
  -7   4   1   13.74    0.76 
   4  -7  -1   14.45    0.80 
   7  -4   1   14.38    0.78 
  -4  -7   2   58.98    1.41 
  -7   4  -2   60.81    1.52 
  -7   4   2   58.77    1.58 
   7  -4   2   61.29    1.62 
   4  -7   2   58.75    1.61 
   4  -7  -2   58.34    1.61 
   7  -4  -2   59.93    1.65 
  -7  -4   2   54.81    1.27 
  -7   4   3   96.22    2.09 
   4  -7  -3   95.72    2.14 
   7  -4   3   96.02    2.13 
  -4  -7   3   96.81    2.03 
   4  -7   3   92.85    2.14 
  -7   4  -3   94.16    1.92 
   7  -4  -3   92.43    2.08 
  -7  -4   3   88.70    1.84 
  -7  -4   4   73.91    1.88 
  -4  -7   4   76.93    1.94 
   7  -4   4   81.17    2.05 
  -7   4  -4   77.57    1.73 
   4  -7   4   79.38    2.09 
  -7   4   4   76.93    1.96 
   4  -7  -4   75.88    1.98 
   7  -4  -4   76.78    2.00 
  -7   4  -5    7.62    0.54 
   7  -4  -5    6.95    0.68 
   7  -4   5    8.17    0.72 
   4  -7   5    7.43    0.71 
  -4  -7   5    7.33    0.67 
  -7  -4   5    7.62    0.68 
   4  -7  -5    7.06    0.67 
   7  -4  -6   28.35    1.39 
  -7  -4   6   28.29    1.40 
   7  -4   6   30.84    1.45 
  -4  -7   6   30.36    1.44 
   4  -7   6   29.73    1.46 
   4  -7  -6   28.72    1.40 
  -4   7   6   28.45    1.23 
   7  -4   7    3.86    0.57 
  -7  -4   7    3.15    0.56 
   4  -7   7    3.76    0.58 
  -4  -7   7    4.48    0.65 
  -4  -7   8    0.58    0.35 
   7  -4   8    0.29    0.31 
  -4   7   8    0.21    0.24 
  -7   4   8    0.29    0.29 
  -4  -7  -8    0.12    0.12 
  -7  -4   8    0.18    0.27 
   4  -7   8    0.68    0.34 
   4  -7  -8    0.39    0.16 
  -4   7  -8    0.31    0.16 
   4   7  -8    0.33    0.14 
  -7  -4  -8    0.27    0.14 
  -4  -7  -8    0.60    0.17 
   4   7  -9   16.41    0.60 
   4  -7  -9   18.96    0.68 
  -4  -7  -9   16.37    0.62 
   7  -4  -9   15.41    0.62 
  -7  -4   9   15.33    1.34 
   7  -4   9   16.08    1.25 
   7   4  -9   14.63    0.57 
  -4   7  -9   16.60    0.64 
  -7   4  -9   14.45    0.57 
  -4  -7  -9   16.72    0.62 
  -4  -7   9   17.17    1.37 
  -7   4   9   17.22    1.41 
  -4   7   9   14.09    1.23 
  -7  -4  -9   15.80    0.62 
   4  -7   9   15.29    1.27 
  -4   7  10   13.08    1.22 
  -7   4  10   16.19    1.46 
   4  -7 -10   18.30    0.69 
  -4  -7 -10   17.98    0.67 
   7  -4 -10   17.70    0.67 
  -7  -4  10   15.85    1.42 
   4  -7  10   15.09    1.33 
   7  -4  10   11.83    1.15 
  -4   7 -10   17.84    0.67 
  -4  -7 -10   16.97    0.64 
  -7   4 -10   17.89    0.66 
   7   4 -10   17.25    0.63 
  -7  -4 -10   17.76    0.68 
  -4  -7  10   17.72    1.50 
   4   7 -10   17.33    0.65 
   4  -7 -11    2.58    0.31 
   7  -4 -11    2.42    0.27 
  -7   4 -11    2.61    0.29 
  -4   7 -11    2.88    0.31 
  -7  -4 -11    2.65    0.30 
   7   4 -11    2.10    0.27 
   4   7 -11    2.40    0.29 
  -4  -7 -11    2.38    0.28 
  -4  -7 -11    2.19    0.28 
  -7   4 -12    0.53    0.19 
   4   7 -12    0.56    0.18 
   7   4 -12    0.50    0.18 
  -7   4 -12    0.57    0.16 
  -4   7 -12    0.47    0.18 
   7  -4 -12    0.44    0.17 
  -4  -7 -12    0.44    0.17 
  -7  -4 -12    0.40    0.18 
  -4  -7 -13    0.20    0.15 
  -7   4 -13    0.10    0.16 
  -7   4 -13    0.06    0.14 
   4   7 -13    0.57    0.19 
  -7  -4 -13    0.30    0.16 
  -4   7 -13    0.15    0.16 
   7   4 -13    0.17    0.15 
  -4   7 -14    0.24    0.14 
   7   4 -14   -0.11    0.13 
   4   7 -14    0.28    0.14 
  -4  -7 -14    0.11    0.12 
  -7   4 -14   -0.03    0.13 
  -7   4 -14    0.01    0.11 
  -4   7 -14    0.06    0.13 
  -7  -4 -14    0.21    0.15 
  -7   4 -15    1.03    0.16 
  -4   7 -15    0.67    0.13 
   7   4 -15    0.87    0.14 
  -4   7 -15    0.84    0.15 
   4   7 -15    1.06    0.16 
  -7  -4 -15    0.96    0.16 
   4   7 -16    0.79    0.11 
  -7   4 -16    0.83    0.11 
  -7   5   0   13.76    0.79 
   5  -7   0   14.22    0.80 
   7  -5   0   14.94    0.82 
  -7   5  -1   44.53    1.40 
  -7  -5   1   37.82    0.86 
  -5  -7   1   40.02    0.98 
   7  -5   1   43.28    1.41 
   5  -7  -1   43.49    1.41 
  -7   5   1   43.02    1.37 
   7  -5  -1   41.88    1.38 
   5  -7   1   40.67    1.38 
  -7  -5   2   57.08    1.30 
  -5  -7   2   58.31    1.39 
   5  -7  -2   60.51    1.71 
   5  -7   2   58.24    1.67 
   7  -5   2   61.41    1.70 
  -7   5  -2   62.95    1.64 
   7  -5  -2   59.58    1.69 
  -7   5   2   60.58    1.66 
  -7  -5   3    5.90    0.49 
  -7   5   3    6.31    0.61 
   5  -7   3    5.85    0.58 
   7  -5   3    6.47    0.61 
   5  -7  -3    5.58    0.56 
  -5  -7   3    5.90    0.51 
   7  -5  -3    6.06    0.60 
  -7   5  -3    5.94    0.54 
   5  -7   4    1.12    0.34 
   7  -5   4    1.40    0.35 
   7  -5  -4    1.15    0.34 
  -7   5  -4    0.92    0.28 
  -7  -5   4    0.58    0.22 
  -5  -7   4    1.09    0.31 
  -7   5   4    0.96    0.32 
   5  -7  -4    0.69    0.26 
  -7  -5   5   31.73    1.37 
  -5   7   5   35.16    1.41 
   5  -7   5   35.13    1.51 
  -5  -7   5   33.18    1.40 
   7  -5   5   35.78    1.49 
   7  -5  -5   33.70    1.45 
  -7   5  -5   32.30    1.17 
  -7   5   5   33.46    1.38 
   5  -7  -5   34.36    1.45 
  -7  -5   6   71.12    2.22 
  -5  -7   6   71.43    2.26 
  -5   7   6   72.76    2.07 
   5  -7   6   74.74    2.35 
   7  -5   6   75.60    2.32 
   7  -5  -6   72.47    2.24 
   5  -7  -6   70.93    2.23 
   5  -7  -7   77.46    2.47 
  -7  -5   7   78.02    2.55 
  -5  -7   7   78.77    2.54 
   5  -7   7   79.42    2.57 
   7  -5   7   78.79    2.54 
   5  -7  -8   65.55    1.22 
   7  -5  -8   55.27    1.10 
   5  -7   8   63.43    2.43 
   7  -5   8   61.71    2.35 
  -5   7  -8   59.40    1.15 
  -5  -7  -8   54.95    1.08 
  -5   7   8   59.92    2.32 
  -7  -5   8   64.19    2.49 
  -7   5   8   65.55    2.53 
  -5  -7  -8   62.23    1.15 
  -7  -5  -8   62.89    1.16 
  -5  -7   8   64.08    2.46 
   5  -7   9   20.57    1.50 
  -5  -7  -9   19.65    0.67 
   5  -7  -9   22.46    0.75 
   7  -5  -9   21.68    0.71 
   7  -5   9   18.62    1.38 
  -7  -5  -9   19.92    0.68 
  -5   7  -9   21.33    0.71 
  -7  -5   9   21.94    1.57 
  -5  -7   9   20.56    1.53 
   5   7  -9   19.49    0.66 
  -7   5  -9   19.02    0.66 
  -5  -7  -9   18.85    0.67 
   7   5  -9   17.80    0.62 
  -5   7   9   19.28    1.42 
  -7   5   9   20.85    1.58 
  -7   5  10   19.29    1.57 
   7  -5 -10   22.09    0.73 
   5   7 -10   21.18    0.71 
   7  -5  10   15.07    1.32 
   7   5 -10   19.49    0.68 
   5  -7  10   16.69    1.41 
  -7   5 -10   22.38    0.73 
  -7  -5  10   19.59    1.58 
  -5  -7  10   18.70    1.54 
  -7  -5 -10   22.99    0.76 
  -5  -7 -10   22.10    0.73 
  -5   7 -10   22.42    0.74 
  -5   7  10   16.56    1.40 
   7  -5 -11    1.33    0.23 
  -7   5 -11    1.19    0.21 
   5   7 -11    1.39    0.23 
  -5   7 -11    1.52    0.25 
   7   5 -11    1.15    0.21 
  -5  -7 -11    1.33    0.23 
  -7  -5 -11    1.35    0.23 
  -7   5 -12    8.27    0.46 
  -5   7 -12    8.83    0.48 
  -5  -7 -12    7.99    0.47 
  -7  -5 -12    7.67    0.47 
   7   5 -12    7.93    0.44 
   5   7 -12    8.35    0.47 
  -7   5 -13    6.31    0.38 
  -7  -5 -13    6.65    0.41 
  -5   7 -13    6.21    0.40 
  -7   5 -13    6.64    0.41 
   5   7 -13    6.08    0.39 
  -5  -7 -13    6.15    0.38 
   7   5 -13    5.66    0.37 
  -7   5 -14    2.67    0.23 
   7   5 -14    2.97    0.25 
   5   7 -14    3.18    0.27 
  -5   7 -14    3.28    0.27 
  -7  -5 -14    3.50    0.29 
  -7   5 -14    3.39    0.28 
  -5   7 -14    3.11    0.27 
  -5  -7 -14    3.06    0.25 
  -5   7 -15    0.63    0.13 
  -7   5 -15    0.55    0.14 
   7   5 -15    0.70    0.13 
  -7  -5 -15    0.66    0.14 
   5   7 -15    0.75    0.14 
  -5  -7 -15    0.55    0.11 
  -5   7 -15    0.53    0.13 
   6  -7   0   -0.19    0.24 
   7  -6   0    0.09    0.20 
   7  -6   1   24.34    1.12 
   6  -7   1   24.13    1.12 
   7  -6  -1   24.01    1.11 
   6  -7  -1   23.46    1.08 
  -7   6   2   29.78    1.25 
  -7  -6   2   28.15    0.94 
   6  -7   2   29.92    1.28 
   7  -6   2   31.43    1.28 
   7  -6  -2   30.16    1.29 
  -6  -7   2   30.32    0.99 
   6  -7  -2   30.30    1.30 
  -6  -7   3    3.50    0.41 
   7  -6   3    3.97    0.51 
   6  -7   3    3.75    0.49 
   6  -7  -3    4.24    0.53 
   7  -6  -3    3.79    0.50 
  -7   6   3    4.63    0.54 
  -7  -6   3    3.67    0.40 
  -7  -6   4    3.46    0.46 
  -7   6   4    4.89    0.58 
   6  -7   4    4.03    0.53 
   7  -6   4    4.57    0.55 
  -6   7   4    4.37    0.55 
  -7   6  -4    4.56    0.52 
  -6  -7   4    4.06    0.50 
   6  -7  -4    4.12    0.52 
   7  -6  -4    3.41    0.50 
  -7  -6   5   11.73    0.85 
  -7   6  -5   12.79    0.80 
   6  -7  -5   13.61    0.96 
  -6   7   5   14.05    0.95 
  -6  -7   5   13.16    0.90 
   6  -7   5   13.69    0.99 
  -7   6   5   12.67    0.89 
   7  -6   5   13.24    0.95 
   7  -6  -5   13.75    0.97 
   6  -7   6    2.98    0.53 
  -7   6   6    3.16    0.50 
  -7  -6   6    2.38    0.46 
   7  -6  -6    2.95    0.54 
  -6  -7   6    2.71    0.50 
   7  -6   6    2.29    0.49 
  -6   7   6    3.11    0.51 
   6  -7  -6    3.11    0.56 
   7  -6   7    1.55    0.47 
   6  -7   7    0.80    0.37 
  -7  -6   7    1.32    0.45 
  -6  -7   7    1.13    0.42 
  -6  -7  -7    1.47    0.23 
   6  -7  -7    1.07    0.42 
  -7  -6  -7    1.02    0.21 
   6  -7   8    1.08    0.35 
  -6   7   8    1.23    0.46 
  -7   6   8    1.21    0.46 
   7  -6   8    1.59    0.48 
  -7   6  -8    1.18    0.20 
  -7  -6   8    1.93    0.53 
  -6  -7  -8    1.60    0.24 
  -6   7  -8    1.52    0.24 
   6   7  -8    1.24    0.22 
  -6  -7   8    1.94    0.52 
  -7  -6  -8    1.40    0.23 
   7   6  -9    1.77    0.23 
   6  -7   9    1.43    0.54 
   7  -6   9    1.39    0.49 
  -6   7   9    0.96    0.40 
  -7   6   9    1.07    0.43 
  -7   6  -9    1.43    0.23 
  -6   7  -9    1.83    0.26 
  -7  -6   9    1.41    0.38 
  -6  -7   9    1.58    0.55 
   6   7  -9    1.67    0.24 
  -7  -6  -9    1.56    0.23 
  -6  -7  -9    1.80    0.25 
  -6   7 -10    0.87    0.21 
   7  -6  10    0.58    0.36 
  -7   6 -10    0.96    0.20 
   6   7 -10    0.77    0.17 
   7   6 -10    0.95    0.18 
  -6  -7 -10    1.01    0.20 
  -7  -6 -10    0.99    0.21 
   7   6 -11    0.36    0.17 
   6   7 -11    0.37    0.16 
  -7   6 -11    0.43    0.17 
  -7  -6 -11    0.47    0.18 
  -6   7 -11    0.34    0.17 
  -6  -7 -11    0.40    0.18 
  -6   7 -12    0.13    0.14 
   6   7 -12    0.06    0.15 
  -6  -7 -12    0.14    0.15 
  -7   6 -12   -0.02    0.14 
   7   6 -12   -0.03    0.14 
  -7  -6 -12    0.08    0.16 
   7   6 -13   -0.07    0.13 
  -6   7 -13    0.32    0.15 
   6   7 -13   -0.08    0.14 
  -7   6 -13    0.11    0.12 
  -6  -7 -13    0.12    0.15 
  -7   6 -13    0.14    0.15 
  -7  -6 -13    0.06    0.15 
  -7   6 -14    0.38    0.15 
  -6   7 -14    0.40    0.15 
  -7  -6 -14    0.38    0.14 
  -7   6 -14    0.27    0.12 
   7   6 -14    0.47    0.14 
   6   7 -14    0.35    0.13 
  -6   7 -14    0.46    0.15 
  -6  -7 -14    0.57    0.15 
  -7   6 -15    0.02    0.10 
  -6   7 -15    0.30    0.11 
   7   6 -15    0.32    0.10 
   6   7 -15    0.27    0.10 
  -6   7 -15    0.34    0.11 
  -7  -6 -15    0.27    0.11 
  -6  -7 -15    0.22    0.10 
   7  -7   0   63.69    1.88 
   7  -7   1   79.18    2.09 
   7  -7  -1   77.02    2.06 
   7  -7  -2    1.40    0.38 
   7  -7   2    1.41    0.34 
  -7   7   3   10.71    0.82 
   7  -7  -3   10.94    0.85 
  -7  -7   3   10.14    0.67 
   7  -7   3   10.98    0.83 
   7  -7  -4    2.47    0.45 
   7  -7   4    2.34    0.42 
  -7  -7   4    1.66    0.34 
  -7   7   4    2.29    0.44 
  -7   7  -5   14.44    0.93 
  -7   7   5   12.68    0.94 
   7  -7   5   13.24    0.99 
   7  -7  -5   11.84    0.94 
  -7  -7   5   12.19    0.89 
  -7   7   6   75.17    2.28 
   7  -7   6   77.75    2.52 
  -7  -7   6   69.22    2.27 
   7  -7  -6   73.38    2.44 
   7  -7  -7  135.70    3.48 
  -7  -7   7  135.92    3.44 
   7  -7   7  144.07    3.59 
  -7  -7  -7  137.84    1.75 
  -7  -7   8  119.21    3.48 
   7  -7   8  127.28    3.55 
  -7  -7  -8  126.14    1.72 
  -7   7   8  128.01    3.62 
  -7   7  -8  115.43    1.63 
  -7   7   9   50.26    2.43 
   7  -7   9   50.32    2.35 
  -7   7  -9   58.92    1.16 
   7   7  -9   52.79    1.09 
  -7  -7  -9   59.80    1.20 
  -7  -7   9   50.24    2.44 
  -7   7 -10   12.25    0.55 
  -7  -7 -10   12.48    0.57 
   7   7 -10   11.62    0.53 
   7   7 -11    3.51    0.31 
  -7  -7 -11    3.70    0.35 
  -7   7 -11    3.88    0.33 
  -7  -7 -12    2.48    0.29 
  -7   7 -12    2.69    0.28 
   7   7 -12    2.54    0.26 
  -7  -7 -13    6.18    0.39 
   7   7 -13    6.00    0.35 
  -7   7 -13    6.21    0.37 
  -7   7 -13    6.93    0.41 
   7   7 -14    6.00    0.32 
  -7   7 -14    5.88    0.31 
  -7   7 -14    6.12    0.34 
  -7  -7 -14    6.58    0.35 
  -7   7 -15    2.05    0.18 
  -7  -7 -15    1.84    0.16 
   0  -8   0   24.74    0.93 
   8   0   0   25.19    0.89 
   8   0   1    1.69    0.25 
   0  -8   1    1.43    0.27 
   0  -8  -1    1.59    0.26 
   8   0  -1    1.79    0.29 
   0  -8   2   15.68    0.81 
   0  -8  -2   14.56    0.71 
   8   0   2   15.74    0.67 
   8   0  -2   15.60    0.79 
   8   0  -3   29.19    1.14 
   0  -8   3   27.19    1.12 
   8   0   3   29.35    0.95 
   0  -8  -3   27.82    1.03 
   0  -8   4  148.46    2.86 
   8   0   4  154.25    2.39 
   0  -8  -4  152.45    2.57 
   0  -8  -5    9.20    0.69 
  -8   0   5    9.78    0.79 
   0  -8   5    9.56    0.79 
   8   0   5    8.85    0.61 
  -8   0   6    2.39    0.48 
   0  -8   6    2.01    0.42 
   0   8   7    1.41    0.33 
  -8   0   7    1.81    0.50 
   0  -8   7    2.29    0.45 
  -8   0  -8    0.03    0.13 
   0  -8  -8    0.18    0.14 
  -8   0   8    0.09    0.28 
   0   8  -8    0.27    0.15 
   0  -8   8    0.24    0.25 
   0  -8  -9    3.59    0.32 
  -8   0   9    4.68    0.77 
   0  -8   9    3.55    0.63 
   0   8  -9    3.82    0.31 
  -8   0  -9    4.15    0.36 
  -8   0 -10    0.99    0.22 
  -8   0  10    0.72    0.42 
   0  -8 -10    1.09    0.22 
   0   8 -10    1.12    0.20 
   8   0 -10    0.44    0.16 
   0  -8  10    0.33    0.36 
   8   0 -11   12.06    0.56 
   0   8 -11   13.36    0.60 
  -8   0 -11   13.89    0.63 
  -8   0 -12   12.00    0.58 
   8   0 -12   11.31    0.52 
   0   8 -12   11.76    0.58 
   8   0 -13   10.48    0.48 
   0   8 -13   12.20    0.56 
  -8   0 -13   11.95    0.54 
   8   0 -14    0.07    0.12 
   0   8 -14   -0.04    0.14 
  -8   0 -14   -0.06    0.14 
   0   8 -15    3.89    0.27 
  -8   0 -15    4.16    0.28 
  -8   0 -16    0.14    0.08 
   0   8 -16    0.45    0.11 
  -1  -8   0   -0.05    0.14 
   8  -1   0   -0.15    0.16 
   8   1   0    0.08    0.13 
   1  -8   0   -0.08    0.18 
   8  -1   1    0.98    0.23 
  -1  -8   1    0.96    0.22 
   8  -1  -1    0.92    0.23 
   1  -8   1    0.79    0.22 
   8   1  -1    0.81    0.20 
   1  -8  -1    1.30    0.27 
  -1  -8  -1    1.34    0.24 
   8   1   1    0.90    0.19 
   8   1  -2   21.50    0.90 
   8   1   2   21.68    0.71 
  -1  -8   2   22.42    0.95 
  -1  -8  -2   20.98    0.80 
   1  -8   2   21.19    0.96 
   8  -1   2   21.64    0.87 
   8  -1  -2   22.22    0.96 
   1  -8  -2   21.26    0.90 
   8  -1  -3    1.69    0.35 
   1  -8  -3    1.56    0.31 
  -1  -8  -3    1.50    0.28 
   8  -1   3    1.51    0.28 
  -1  -8   3    1.74    0.35 
   1  -8   3    1.58    0.37 
   8  -1  -4    2.93    0.48 
  -8  -1   4    2.58    0.43 
   8  -1   4    2.56    0.37 
   1  -8  -4    2.05    0.38 
  -1  -8  -4    2.55    0.36 
  -1  -8   4    2.23    0.42 
   1  -8   4    2.68    0.45 
  -8  -1   5    2.65    0.46 
   1  -8   5    2.58    0.48 
   8  -1   5    3.06    0.42 
  -1  -8   5    2.99    0.48 
  -1  -8  -5    2.70    0.38 
   1  -8  -5    3.16    0.45 
   1   8   6    1.80    0.33 
  -8   1   6    1.83    0.40 
   8  -1   6    1.84    0.34 
  -8  -1   6    1.48    0.37 
  -1  -8   6    1.78    0.42 
   1  -8   6    1.99    0.44 
   1  -8  -6    1.86    0.42 
  -1   8   7    0.72    0.25 
  -8   1   7    0.73    0.35 
  -1  -8   7    1.13    0.36 
   1  -8   7    0.67    0.32 
  -8  -1   7    0.96    0.41 
  -1  -8  -8    4.79    0.34 
  -8  -1   8    4.79    0.73 
   1  -8  -8    5.10    0.35 
  -8  -1  -8    4.69    0.34 
   1   8  -8    5.04    0.34 
  -1  -8   8    4.90    0.73 
  -1   8  -8    4.53    0.32 
   1  -8   8    4.74    0.70 
  -1  -8  -8    3.56    0.28 
  -1   8   8    3.49    0.54 
  -8   1   8    3.91    0.69 
  -8  -1  -9    0.27    0.14 
  -8   1   9    0.42    0.29 
   8  -1  -9    0.08    0.13 
   1  -8   9    0.20    0.27 
  -1  -8  -9    0.04    0.15 
   1  -8  -9    0.05    0.15 
  -8  -1   9    0.12    0.33 
   1   8  -9    0.24    0.15 
  -1   8  -9    0.03    0.13 
  -1  -8  -9    0.13    0.13 
  -1  -8  10    0.14    0.26 
  -8  -1  10    0.17    0.33 
   8   1 -10    0.12    0.14 
   8  -1 -10    0.17    0.14 
   1   8 -10    0.22    0.15 
  -8   1  10   -0.07    0.38 
  -8  -1 -10    0.41    0.18 
   1  -8  10   -0.19    0.32 
  -1   8 -10    0.40    0.18 
  -1  -8 -10    0.33    0.16 
   1  -8 -10    0.33    0.17 
  -8   1 -10    0.28    0.17 
  -8   1 -11    0.48    0.19 
   8   1 -11    0.46    0.16 
  -8  -1 -11    0.73    0.20 
   8  -1 -11    0.64    0.18 
  -1   8 -11    0.64    0.20 
   1   8 -11    0.88    0.21 
  -1  -8 -11    0.44    0.16 
  -8   1 -12    0.72    0.20 
   8   1 -12    0.61    0.16 
   8  -1 -12    0.62    0.17 
   1   8 -12    1.08    0.22 
  -1   8 -12    0.94    0.23 
  -8  -1 -12    0.85    0.22 
  -8   1 -13    0.00    0.15 
  -8  -1 -13   -0.29    0.19 
   8  -1 -13   -0.26    0.15 
   1   8 -13    0.21    0.19 
  -1   8 -13   -0.05    0.16 
   8   1 -13   -0.05    0.14 
  -8   1 -14    0.04    0.14 
  -1   8 -14    0.18    0.12 
  -1   8 -14    0.00    0.14 
   8   1 -14   -0.10    0.12 
   1   8 -14   -0.05    0.14 
   8  -1 -14   -0.02    0.11 
  -8  -1 -14   -0.09    0.13 
  -1   8 -15    0.02    0.11 
  -8   1 -15    0.11    0.11 
   1   8 -15    0.29    0.12 
  -8  -1 -15    0.27    0.12 
  -1   8 -16    0.09    0.08 
  -8   1 -16    0.01    0.07 
  -8  -1 -16    0.03    0.07 
   1   8 -16    0.07    0.09 
   8   2   0   23.25    0.72 
   2  -8   0   23.83    0.98 
  -2  -8   0   22.45    0.81 
   8  -2   0   24.55    0.98 
  -8   2   0   22.95    0.95 
   8   2   1    0.72    0.13 
  -2  -8   1    0.42    0.15 
   2  -8   1    0.75    0.24 
  -8   2  -1    0.77    0.23 
  -8   2   1    0.52    0.23 
   8  -2  -1    0.64    0.24 
   2  -8  -1    0.65    0.23 
  -2  -8  -1    0.67    0.17 
   8  -2   1    0.90    0.22 
   8  -2  -2    9.12    0.63 
   2  -8  -2    8.43    0.60 
   2  -8   2    8.51    0.63 
  -2  -8   2    8.84    0.60 
  -8  -2   2    8.36    0.54 
  -2  -8  -2    8.62    0.49 
   8  -2   2    8.79    0.60 
   2  -8  -3   90.14    2.01 
   8  -2   3   89.84    1.96 
  -2  -8  -3   89.32    1.64 
   2  -8   3   86.76    2.08 
  -2  -8   3   85.49    1.99 
   8  -2  -3   87.46    2.04 
  -8  -2   3   85.22    1.92 
   8  -2   4   24.41    1.07 
  -8  -2   4   24.06    1.13 
  -2  -8   4   24.19    1.15 
   2  -8  -4   23.66    1.09 
   8  -2  -4   24.27    1.14 
   2  -8   4   24.62    1.19 
  -2  -8  -4   24.03    0.92 
  -2  -8   5    3.87    0.53 
   2  -8   5    3.24    0.48 
   8  -2   5    4.13    0.48 
   8  -2  -5    3.63    0.50 
   2  -8  -5    3.55    0.47 
  -8  -2   5    3.52    0.52 
   2  -8  -6    4.42    0.56 
  -8  -2   6    4.13    0.59 
   8  -2   6    4.75    0.56 
  -2  -8   6    4.27    0.60 
   2  -8   6    4.36    0.62 
  -8   2   7    0.18    0.27 
   8  -2   7   -0.14    0.21 
  -8  -2   7    0.23    0.28 
  -2  -8   7    0.15    0.27 
   2  -8   7    0.38    0.28 
  -8  -2  -8    0.56    0.16 
   2  -8  -8    0.27    0.14 
  -2   8   8    0.72    0.30 
  -8   2   8    0.53    0.37 
  -8  -2   8    0.13    0.27 
  -2  -8  -8    0.40    0.15 
  -2  -8   8    0.33    0.31 
   2   8  -8    0.53    0.16 
  -2   8  -8    0.56    0.15 
   2  -8   8    0.30    0.25 
  -2  -8  -8    0.57    0.16 
  -8  -2  -9    0.68    0.18 
  -8  -2   9    0.31    0.39 
   8  -2  -9    0.54    0.17 
  -2  -8   9    0.31    0.32 
  -2  -8  -9    0.79    0.17 
  -2   8   9    1.45    0.48 
  -2  -8  -9    0.58    0.18 
   2  -8  -9    0.34    0.15 
   2   8  -9    0.68    0.17 
  -2   8  -9    0.80    0.18 
  -8   2   9    0.45    0.42 
   2  -8   9    0.80    0.36 
  -8   2  10   14.19    1.37 
  -8  -2 -10   15.86    0.64 
  -8  -2  10   13.68    1.35 
   8  -2 -10   14.44    0.59 
  -2  -8  10   13.31    1.29 
   8   2 -10   12.56    0.55 
   2   8 -10   14.62    0.61 
  -2  -8 -10   14.14    0.57 
  -2   8 -10   15.98    0.64 
   2  -8  10   13.82    1.27 
   8  -2 -11    4.93    0.37 
   8   2 -11    4.69    0.35 
  -2   8 -11    5.31    0.40 
  -8  -2 -11    5.01    0.39 
  -8   2 -11    5.04    0.41 
   2   8 -11    5.27    0.39 
  -2  -8 -11    4.68    0.35 
   8  -2 -12    2.93    0.30 
   8   2 -12    2.71    0.28 
   2   8 -12    3.61    0.34 
  -8   2 -12    2.66    0.31 
  -2   8 -12    3.06    0.32 
  -2  -8 -12    3.23    0.30 
  -8  -2 -12    3.26    0.33 
   8  -2 -13    0.69    0.18 
   8   2 -13    0.85    0.18 
  -2   8 -13    1.20    0.22 
   2   8 -13    1.10    0.23 
  -8   2 -13    0.82    0.19 
  -8  -2 -13    1.21    0.22 
  -2   8 -14    0.32    0.14 
   8   2 -14    0.29    0.13 
   2   8 -14    0.33    0.16 
  -2   8 -14    0.15    0.15 
  -8   2 -14    0.12    0.14 
  -8  -2 -14    0.05    0.14 
  -2   8 -15    0.41    0.10 
   8   2 -15    0.26    0.09 
  -2   8 -15    0.52    0.13 
   2   8 -15    0.55    0.14 
  -8  -2 -15    0.43    0.13 
  -8   2 -15    0.44    0.12 
   2   8 -16    1.79    0.15 
  -2   8 -16    1.69    0.15 
  -8   2 -16    1.48    0.14 
   8  -3   0   -0.30    0.21 
  -8   3   0   -0.19    0.22 
   3  -8   0    0.12    0.21 
  -3  -8   0   -0.11    0.13 
  -8  -3   0    0.08    0.08 
  -8  -3   1   14.39    0.59 
  -8   3  -1   15.95    0.81 
   8  -3   1   16.88    0.85 
  -3  -8   1   15.44    0.70 
   3  -8   1   14.95    0.82 
   3  -8  -1   16.38    0.86 
  -3  -8  -1   14.40    0.56 
   8  -3  -1   16.45    0.87 
  -8   3   1   16.14    0.83 
  -8   3  -2   13.94    0.76 
   3  -8  -2   13.29    0.78 
  -3  -8   2   13.63    0.73 
   8  -3   2   14.01    0.80 
   3  -8   2   13.08    0.80 
  -8   3   2   13.99    0.80 
  -8  -3   2   12.24    0.64 
   8  -3  -2   13.92    0.81 
   3  -8   3    3.07    0.43 
  -8   3  -3    3.63    0.41 
  -3  -8   3    3.06    0.40 
   8  -3   3    3.73    0.45 
   8  -3  -3    3.32    0.44 
  -8   3   3    3.66    0.45 
   3  -8  -3    3.44    0.46 
  -8  -3   3    3.54    0.41 
   3  -8   4    1.65    0.37 
  -3  -8   4    1.43    0.35 
  -8  -3   4    1.12    0.29 
   8  -3   4    1.93    0.36 
   8  -3  -4    1.92    0.38 
   3  -8  -4    1.53    0.35 
  -8  -3   5    1.37    0.36 
   8  -3  -5    1.13    0.34 
   8  -3   5    1.29    0.31 
  -3  -8   5    1.41    0.39 
   3  -8  -5    1.32    0.33 
   3  -8   5    1.35    0.37 
  -8  -3   6    5.80    0.68 
  -3   8   6    5.23    0.58 
  -3  -8   6    6.33    0.72 
   8  -3   6    5.50    0.61 
   3  -8   6    5.37    0.66 
   3  -8  -6    5.77    0.65 
  -8   3   7    0.46    0.31 
   8  -3   7    0.45    0.28 
  -3  -8   7    0.39    0.32 
  -8  -3   7   -0.14    0.36 
   3  -8   7    0.06    0.23 
  -8  -3   8    5.04    0.75 
  -3  -8   8    6.75    0.84 
  -3   8  -8    6.50    0.39 
   8  -3   8    5.77    0.71 
  -3  -8  -8    6.18    0.37 
   3  -8   8    6.71    0.81 
  -8  -3  -8    6.67    0.40 
  -3   8   8    5.41    0.70 
   3   8  -8    5.92    0.36 
  -8   3   8    5.69    0.81 
  -8  -3  -9    0.51    0.18 
  -3  -8   9    0.85    0.44 
  -3   8   9    0.15    0.25 
  -8  -3   9    0.36    0.30 
   8  -3  -9    0.57    0.16 
   3   8  -9    0.53    0.18 
  -8   3   9    0.09    0.34 
  -3   8  -9    0.53    0.17 
   3  -8   9    0.30    0.32 
  -3  -8  -9    0.63    0.17 
  -8  -3 -10    0.02    0.16 
  -8  -3  10   -0.37    0.34 
  -3   8 -10    0.10    0.15 
   8   3 -10   -0.17    0.15 
   3   8 -10    0.07    0.15 
  -3  -8  10    0.10    0.30 
   8  -3 -10    0.03    0.14 
  -3   8  10   -0.35    0.30 
  -3  -8 -10   -0.34    0.17 
   3  -8  10    0.11    0.30 
   8  -3 -11    6.38    0.41 
  -3  -8 -11    6.15    0.40 
   8   3 -11    5.85    0.39 
  -8  -3 -11    6.03    0.42 
  -3   8 -11    6.82    0.45 
  -8   3 -11    6.31    0.45 
   3   8 -11    6.92    0.44 
  -8   3 -12    0.07    0.18 
  -3   8 -12    0.23    0.17 
   8  -3 -12    0.17    0.14 
   8   3 -12    0.05    0.15 
   3   8 -12    0.32    0.16 
  -3  -8 -12    0.17    0.14 
  -8  -3 -12    0.12    0.16 
  -8   3 -13    1.31    0.22 
   3   8 -13    1.34    0.22 
   8   3 -13    1.13    0.20 
  -3   8 -13    1.26    0.22 
  -3  -8 -13    1.28    0.21 
  -8  -3 -13    1.41    0.23 
   8   3 -14    2.07    0.21 
  -8  -3 -14    2.24    0.24 
  -3   8 -14    2.31    0.24 
  -8   3 -14    2.13    0.24 
   3   8 -14    1.90    0.23 
  -3   8 -14    1.95    0.22 
   3   8 -15   -0.02    0.11 
  -3   8 -15    0.09    0.11 
  -3   8 -15    0.01    0.09 
  -8  -3 -15    0.09    0.11 
  -8   3 -15    0.10    0.11 
  -4  -8   0    0.19    0.09 
   8  -4   0   -0.21    0.21 
   4  -8   0    0.12    0.20 
  -8   4   0    0.16    0.20 
  -4  -8   1    0.95    0.21 
  -8   4  -1    0.83    0.27 
   8  -4  -1    0.45    0.22 
   8  -4   1    0.67    0.23 
  -8  -4   1    0.38    0.12 
   4  -8   1    0.36    0.25 
   4  -8  -1    0.40    0.22 
  -8   4   1    0.77    0.25 
  -8   4  -2    0.56    0.25 
  -8  -4   2    0.70    0.21 
  -8   4   2    0.61    0.27 
   4  -8  -2    0.92    0.27 
   8  -4  -2    0.91    0.30 
  -4  -8   2    0.96    0.24 
   4  -8   2    0.87    0.31 
   8  -4   2    0.75    0.28 
  -8  -4   3    7.52    0.56 
   4  -8   3    8.35    0.70 
  -4  -8   3    7.62    0.60 
  -8   4  -3    7.27    0.58 
   8  -4  -3    8.61    0.70 
   8  -4   3    8.23    0.66 
   4  -8  -3    8.14    0.69 
  -8   4   3    8.14    0.67 
  -8   4  -4    7.30    0.57 
  -8   4   4    8.06    0.68 
  -8  -4   4    7.17    0.62 
   4  -8   4    7.95    0.72 
   8  -4   4    8.28    0.69 
  -4  -8   4    7.58    0.66 
   8  -4  -4    7.76    0.69 
   4  -8  -4    7.49    0.67 
  -4  -8   5    5.15    0.62 
   8  -4   5    5.08    0.59 
   4  -8   5    5.15    0.62 
  -8  -4   5    4.32    0.53 
   4  -8  -5    5.14    0.60 
   8  -4  -5    5.28    0.61 
   4  -8   6    1.43    0.42 
  -8  -4   6    1.43    0.40 
   8  -4   6    1.59    0.36 
   4  -8  -6    1.62    0.40 
  -4  -8   6    1.67    0.39 
   8  -4  -6    1.48    0.35 
  -4   8   6    1.61    0.36 
   4  -8  -7    4.93    0.67 
   8  -4   7    4.75    0.63 
   4  -8   7    5.09    0.70 
  -8  -4   7    4.32    0.63 
  -4  -8  -7    4.67    0.32 
  -8  -4  -7    4.39    0.31 
  -4  -8   7    4.00    0.63 
  -8  -4  -8    0.17    0.13 
  -4   8   8    0.36    0.24 
  -8   4   8    0.20    0.28 
   8  -4   8    0.14    0.22 
   8  -4  -8    0.22    0.14 
  -4  -8   8    0.18    0.29 
  -8  -4   8    0.32    0.33 
   4   8  -8   -0.03    0.14 
  -4   8  -8    0.05    0.12 
  -4  -8  -8    0.22    0.14 
   4  -8   8    0.21    0.27 
  -4  -8  -9    5.11    0.36 
   8  -4  -9    4.35    0.34 
   8  -4   9    4.83    0.74 
  -4   8   9    3.45    0.63 
   4  -8   9    5.51    0.79 
  -4   8  -9    4.71    0.36 
   4   8  -9    5.02    0.36 
  -8  -4   9    4.41    0.75 
  -4  -8   9    4.61    0.76 
  -8   4   9    3.80    0.71 
  -8  -4  -9    5.08    0.37 
   8   4 -10    0.24    0.13 
  -4   8  10    0.15    0.25 
  -8  -4  10   -0.14    0.51 
   8  -4 -10    0.24    0.16 
  -4  -8  10    0.11    0.36 
   4   8 -10    0.03    0.15 
  -4   8 -10    0.31    0.17 
  -8   4  10   -0.29    0.43 
  -4  -8 -10   -0.02    0.15 
  -8  -4 -10    0.03    0.17 
   4  -8  10    0.14    0.28 
   8   4 -11    2.26    0.27 
   8  -4 -11    2.14    0.26 
   4   8 -11    1.91    0.26 
  -4  -8 -11    2.11    0.27 
  -4   8 -11    2.12    0.28 
  -8  -4 -11    1.90    0.27 
  -8   4 -12    0.10    0.17 
   4   8 -12    0.56    0.18 
  -8   4 -12    0.62    0.18 
   8   4 -12    0.33    0.16 
  -4   8 -12    0.41    0.17 
  -4  -8 -12    0.68    0.19 
  -8  -4 -12    0.53    0.19 
  -8   4 -13   -0.31    0.18 
   8   4 -13   -0.02    0.14 
   4   8 -13    0.09    0.15 
  -4   8 -13    0.20    0.16 
  -8  -4 -13    0.14    0.15 
  -4  -8 -13    0.26    0.14 
  -8   4 -14    0.13    0.14 
  -4   8 -14    0.03    0.12 
   8   4 -14   -0.08    0.10 
   4   8 -14   -0.02    0.13 
  -4   8 -14    0.03    0.12 
  -4  -8 -14   -0.03    0.11 
  -8  -4 -14   -0.13    0.15 
  -4   8 -15    0.23    0.10 
  -4   8 -15   -0.09    0.11 
   4   8 -15    0.12    0.11 
  -8  -4 -15    0.17    0.12 
  -8   4 -15   -0.01    0.10 
  -8   5   0   -0.06    0.21 
   8  -5   0    0.07    0.19 
   5  -8   0    0.10    0.23 
  -8   5  -1   19.00    0.96 
   8  -5  -1   19.87    1.04 
  -5  -8   1   17.10    0.67 
   8  -5   1   21.26    1.06 
   5  -8   1   18.29    0.98 
   5  -8  -1   20.05    1.01 
  -8   5   1   19.31    0.98 
  -8  -5   2   12.87    0.63 
  -8   5  -2   14.66    0.85 
   5  -8   2   13.96    0.90 
  -5  -8   2   14.12    0.73 
   5  -8  -2   14.26    0.89 
  -8   5   2   14.87    0.88 
   8  -5   2   14.78    0.89 
   8  -5  -2   15.33    0.94 
  -8   5   3    1.26    0.32 
   5  -8  -3    0.66    0.28 
  -8  -5   3    0.52    0.18 
   8  -5   3    1.11    0.31 
  -8   5  -3    1.01    0.28 
   5  -8   3    0.61    0.25 
  -5  -8   3    0.85    0.23 
   8  -5  -3    0.68    0.26 
  -8   5  -4    1.06    0.29 
   5  -8   4    0.86    0.31 
   8  -5  -4    1.28    0.34 
   8  -5   4    0.93    0.29 
  -8  -5   4    0.60    0.26 
  -5  -8   4    0.93    0.31 
  -8   5   4    1.28    0.34 
   5  -8  -4    1.04    0.33 
   8  -5  -5    2.08    0.47 
   5  -8   5    2.15    0.46 
  -8   5  -5    1.85    0.33 
  -8   5   5    2.51    0.43 
  -5   8   5    2.52    0.45 
  -8  -5   5    1.74    0.39 
   8  -5   5    2.54    0.44 
   5  -8  -5    1.89    0.41 
  -5  -8   5    2.19    0.43 
   5  -8   6    2.95    0.54 
  -5   8   6    2.35    0.41 
   8  -5   6    2.70    0.48 
   5  -8  -6    2.95    0.50 
  -8  -5   6    2.99    0.52 
  -5  -8   6    2.32    0.45 
   8  -5  -6    3.71    0.59 
   5  -8   7    0.49    0.32 
  -5  -8   7    0.70    0.34 
  -8  -5   7    0.20    0.32 
   5  -8  -7    0.50    0.31 
   8  -5   7   -0.11    0.24 
  -5   8  -7    0.44    0.16 
  -5  -8  -7    0.25    0.14 
  -8  -5  -7    0.37    0.15 
  -8   5   8    1.70    0.49 
   5  -8   8    1.68    0.48 
  -5   8  -8    2.14    0.26 
  -8  -5   8    1.61    0.47 
   8  -5  -8    1.61    0.23 
  -5   8   8    1.61    0.48 
   8  -5   8    2.90    0.58 
   5   8  -8    1.80    0.23 
  -5  -8   8    1.73    0.51 
  -8  -5  -8    2.04    0.25 
  -5  -8  -8    1.98    0.23 
   5  -8   9    1.85    0.49 
  -5   8   9    1.55    0.46 
  -8   5   9    2.71    0.66 
   8  -5   9    2.64    0.63 
  -5  -8  -9    2.70    0.28 
   5   8  -9    2.53    0.27 
  -5   8  -9    2.53    0.28 
   8  -5  -9    2.11    0.26 
  -8  -5  -9    2.56    0.27 
  -8  -5   9    2.69    0.59 
  -5  -8   9    2.60    0.65 
   5   8 -10    1.71    0.25 
  -5  -8 -10    1.89    0.26 
  -5   8 -10    1.77    0.24 
  -8  -5 -10    1.74    0.24 
  -5   8 -11    0.12    0.15 
   8   5 -11   -0.02    0.13 
  -8   5 -11    0.06    0.14 
   5   8 -11   -0.01    0.14 
  -5  -8 -11   -0.01    0.15 
  -8  -5 -11    0.06    0.16 
  -8   5 -12    0.84    0.21 
   5   8 -12    1.09    0.21 
  -5   8 -12    0.80    0.20 
   8   5 -12    1.03    0.19 
  -8   5 -12    0.84    0.20 
  -5  -8 -12    0.85    0.20 
  -8  -5 -12    1.19    0.23 
   8   5 -13    2.66    0.25 
  -8   5 -13    2.97    0.26 
   5   8 -13    2.94    0.29 
  -5   8 -13    3.23    0.30 
  -8   5 -13    3.09    0.29 
  -5  -8 -13    3.26    0.29 
  -8  -5 -13    3.55    0.32 
  -8   5 -14   -0.09    0.13 
  -5   8 -14    0.24    0.14 
  -5   8 -14    0.25    0.14 
   5   8 -14    0.27    0.13 
  -5  -8 -14    0.27    0.13 
  -8  -5 -14    0.25    0.13 
  -8   5 -15    0.67    0.13 
  -5   8 -15    0.50    0.12 
  -5   8 -15    0.54    0.13 
   5   8 -15    0.64    0.12 
  -8  -5 -15    0.70    0.14 
   6  -8   0   19.79    1.06 
  -8   6   0   19.11    1.00 
   8  -6   0   20.32    1.06 
   8  -6  -1   12.27    0.85 
   8  -6   1   11.85    0.83 
   6  -8   1   11.44    0.82 
  -8   6   1   11.38    0.80 
   6  -8  -1   11.28    0.82 
  -8   6  -1   12.39    0.81 
   8  -6   2   -0.05    0.22 
   8  -6  -2   -0.04    0.22 
  -8   6  -2    0.18    0.21 
   6  -8   2   -0.01    0.20 
   6  -8  -2    0.00    0.22 
  -8   6   2    0.09    0.24 
  -8   6   3   22.04    1.15 
  -8  -6   3   18.60    0.87 
   6  -8   3   20.99    1.14 
  -6  -8   3   20.38    0.96 
  -8   6  -3   21.62    1.08 
   6  -8  -3   21.16    1.18 
   8  -6  -3   19.88    1.12 
   8  -6   3   22.24    1.17 
  -8   6  -4    1.21    0.33 
  -8   6   4    1.37    0.35 
  -8  -6   4    0.40    0.18 
   6  -8   4    1.25    0.34 
  -6   8   4    1.40    0.41 
  -6  -8   4    1.16    0.33 
   8  -6  -4    0.76    0.28 
   8  -6   4    1.57    0.39 
   6  -8  -4    0.98    0.31 
  -6   8   5    0.65    0.33 
  -8   6  -5    0.34    0.23 
  -8  -6   5    0.39    0.23 
  -8   6   5    0.67    0.31 
   6  -8   5    0.46    0.26 
   6  -8  -5    0.28    0.21 
  -6  -8   5    0.52    0.27 
   8  -6   5    0.47    0.28 
   8  -6  -5    0.55    0.32 
   6  -8   6    1.01    0.38 
   6  -8  -6    0.76    0.31 
   8  -6  -6    1.04    0.38 
   8  -6   6    0.98    0.31 
  -6   8   6    1.10    0.36 
  -6  -8   6    0.69    0.33 
  -8  -6   6    1.12    0.35 
   6  -8   7   -0.20    0.29 
  -6  -8   7    0.08    0.28 
   6  -8  -7   -0.26    0.23 
  -6   8  -7    0.17    0.14 
  -8  -6   7    0.14    0.27 
   8  -6   7    0.36    0.29 
  -6  -8  -7    0.13    0.14 
  -8  -6  -7    0.24    0.15 
  -8   6   8    0.52    0.40 
   6  -8   8   -0.21    0.39 
  -8  -6   8    0.40    0.36 
  -6  -8   8   -0.20    0.37 
   6   8  -8    0.34    0.13 
  -6   8  -8    0.28    0.14 
  -6  -8  -8    0.57    0.18 
  -8  -6  -8    0.24    0.15 
   6  -8   9    0.83    0.33 
  -6   8   9    0.98    0.40 
  -8   6   9    1.27    0.49 
   8  -6   9    0.86    0.29 
   6   8  -9    1.27    0.21 
  -6  -8   9    1.25    0.52 
  -8  -6   9    1.44    0.43 
  -6   8  -9    1.31    0.22 
  -6  -8  -9    1.72    0.23 
  -8  -6  -9    1.53    0.23 
  -6   8 -10   20.51    0.71 
  -8   6 -10   20.68    0.69 
  -6  -8 -10   21.74    0.74 
   6   8 -10   18.95    0.69 
  -8  -6 -10   20.80    0.73 
  -8   6 -11    0.32    0.15 
  -6  -8 -11    0.42    0.17 
   8   6 -11    0.48    0.17 
   6   8 -11    0.19    0.15 
  -6   8 -11    0.34    0.17 
  -8  -6 -11    0.39    0.17 
   6   8 -12    0.02    0.13 
   8   6 -12    0.17    0.14 
  -6   8 -12    0.16    0.14 
  -8   6 -12    0.09    0.13 
  -6  -8 -12    0.26    0.15 
  -8  -6 -12    0.25    0.16 
  -8   6 -13    0.10    0.14 
  -6  -8 -13    0.01    0.13 
   6   8 -13    0.06    0.14 
   8   6 -13    0.13    0.12 
  -8   6 -13    0.07    0.12 
  -6   8 -13    0.10    0.14 
  -8  -6 -13   -0.10    0.15 
  -8   6 -14    0.23    0.13 
  -6   8 -14    0.30    0.13 
  -6   8 -14    0.21    0.12 
   6   8 -14    0.26    0.13 
  -6  -8 -14    0.25    0.13 
  -8  -6 -14    0.39    0.14 
  -8   6 -15    0.03    0.09 
  -6   8 -15    0.23    0.09 
   6   8 -15    0.09    0.08 
  -6  -8 -15    0.00    0.07 
  -6   8 -15    0.09    0.09 
  -8  -6 -15   -0.03    0.09 
  -8   7   0    0.27    0.29 
   7  -8   0    0.04    0.22 
   8  -7   0    0.10    0.22 
   7  -8  -1    0.24    0.23 
  -8   7  -1    0.28    0.30 
  -8   7   1    0.37    0.25 
   8  -7  -1    0.02    0.24 
   7  -8   1    0.12    0.21 
   8  -7   1    0.17    0.24 
  -8   7  -2    2.32    0.45 
  -8   7   2    2.26    0.44 
   7  -8  -2    1.78    0.40 
   8  -7  -2    1.65    0.37 
   7  -8   2    2.01    0.39 
   8  -7   2    2.05    0.41 
  -8   7   3    1.05    0.34 
  -7   8   3    1.32    0.40 
   7  -8   3    0.25    0.23 
   7  -8  -3    0.53    0.29 
   8  -7   3    0.26    0.22 
   8  -7  -3    0.48    0.24 
  -8   7  -3    1.10    0.34 
   7  -8  -4   -0.12    0.25 
  -7  -8   4    0.25    0.24 
   8  -7  -4    0.40    0.25 
   7  -8   4    0.07    0.22 
  -8   7  -4    0.16    0.22 
   8  -7   4    0.05    0.22 
  -8   7   4    0.14    0.26 
  -7   8   4   -0.16    0.25 
  -7  -8   5    0.29    0.21 
  -8   7  -5   -0.03    0.18 
   8  -7   5    0.16    0.25 
  -8  -7   5   -0.05    0.19 
   7  -8  -5   -0.21    0.36 
   7  -8   5   -0.01    0.31 
  -8   7   5   -0.03    0.30 
   8  -7  -5    0.23    0.24 
  -7   8   5    0.41    0.32 
   8  -7  -6    0.20    0.22 
  -8   7   6   -0.16    0.29 
  -7  -8   6   -0.09    0.21 
   7  -8  -6    0.36    0.28 
   7  -8   6    0.26    0.31 
  -8  -7   6   -0.01    0.23 
   8  -7   6   -0.04    0.29 
  -7   8   6    0.05    0.24 
  -7  -8  -6    0.28    0.13 
  -8  -7  -6    0.14    0.14 
   7  -8  -7    1.08    0.42 
   8  -7   7    2.11    0.52 
   7  -8   7    1.88    0.55 
  -7   8  -7    1.83    0.24 
   8  -7  -7    2.56    0.60 
  -8  -7   7    2.01    0.53 
  -7  -8   7    1.65    0.48 
  -8  -7  -7    2.11    0.26 
   8  -7  -7    1.80    0.27 
  -7  -8  -7    1.81    0.23 
  -8  -7   8    4.91    0.75 
  -8  -7  -8    5.90    0.40 
   8  -7   8    5.12    0.79 
  -7  -8   8    4.74    0.75 
  -7   8  -8    6.06    0.39 
  -7  -8  -8    6.04    0.40 
   7  -8   8    5.12    0.78 
  -8   7   8    6.37    0.89 
   8  -7   9    3.69    0.67 
  -7   8   9    2.81    0.62 
  -8   7   9    3.48    0.69 
  -7  -8   9    4.05    0.70 
   7   8  -9    4.57    0.34 
   7  -8   9    4.25    0.74 
  -7   8  -9    4.86    0.36 
  -7  -8  -9    5.28    0.39 
  -8  -7   9    3.54    0.68 
  -8  -7  -9    5.34    0.38 
  -8   7  -9    4.77    0.36 
  -7   8 -10    1.08    0.20 
   7   8 -10    1.09    0.21 
  -8   7 -10    1.07    0.20 
  -7  -8 -10    1.10    0.22 
  -8  -7 -10    0.78    0.20 
   8   7 -11    0.12    0.15 
  -8  -7 -11    0.02    0.16 
  -7   8 -11   -0.07    0.15 
  -8   7 -11    0.17    0.14 
  -7  -8 -11    0.03    0.15 
   7   8 -11    0.05    0.13 
  -8  -7 -12    1.55    0.24 
   8   7 -12    1.13    0.19 
  -7   8 -12    1.47    0.22 
  -8   7 -12    1.08    0.19 
   7   8 -12    1.23    0.21 
  -7  -8 -12    1.60    0.23 
  -8   7 -13    1.20    0.17 
  -8   7 -13    1.23    0.21 
  -7   8 -13    1.00    0.17 
   7   8 -13    1.02    0.17 
  -7  -8 -13    1.49    0.21 
  -8  -7 -13    1.44    0.22 
  -8   7 -14    0.77    0.16 
  -7   8 -14    0.82    0.16 
  -8  -7 -14    0.93    0.17 
   7   8 -14    0.83    0.14 
  -7   8 -14    0.81    0.15 
  -7  -8 -14    0.63    0.14 
  -8   7 -15    0.40    0.10 
  -7   8 -15    0.18    0.09 
  -7  -8 -15    0.14    0.08 
  -8  -7 -15    0.19    0.09 
   8  -8   0  141.11    3.06 
  -8   8   1   75.58    2.25 
   8  -8   1   77.76    2.29 
   8  -8  -1   75.75    2.29 
  -8   8   2   15.03    1.01 
   8  -8   2   14.91    1.03 
   8  -8  -2   13.75    1.01 
  -8   8   3    8.30    0.79 
   8  -8   3    7.46    0.76 
   8  -8  -3    6.80    0.73 
   8  -8  -4    0.08    0.22 
  -8   8  -4   -0.07    0.25 
   8  -8   4    0.00    0.27 
  -8   8   4    0.12    0.26 
  -8   8  -5    1.50    0.35 
  -8   8   5    1.28    0.38 
   8  -8   5    1.42    0.39 
   8  -8  -5    1.61    0.22 
   8  -8  -5    1.24    0.38 
  -8  -8  -5    1.75    0.21 
  -8   8   6    0.66    0.35 
   8  -8   6    0.75    0.27 
   8  -8  -6    0.74    0.40 
   8  -8  -6    0.88    0.19 
  -8  -8  -6    0.98    0.18 
   8  -8  -7   -0.15    0.17 
   8  -8   7   -0.62    0.44 
   8  -8  -7    0.52    0.37 
  -8  -8   7    0.15    0.33 
  -8  -8  -7    0.02    0.14 
   8  -8   8    5.65    0.80 
  -8   8  -8    6.17    0.38 
  -8  -8  -8    6.86    0.42 
  -8   8  -9   24.63    0.76 
  -8  -8  -9   26.48    0.82 
  -8   8 -10    2.76    0.28 
  -8  -8 -10    2.87    0.31 
  -8  -8 -11    0.20    0.16 
  -8   8 -11   -0.27    0.16 
  -8   8 -12    0.02    0.14 
  -8  -8 -12    0.38    0.16 
  -8   8 -13   -0.14    0.14 
  -8   8 -13    0.09    0.10 
  -8  -8 -13    0.14    0.14 
  -8   8 -14    0.01    0.11 
  -8  -8 -14    0.18    0.12 
  -8   8 -15    0.07    0.08 
   0  -9   0   -0.03    0.17 
   9   0   0   -0.06    0.18 
   9   0  -1   29.37    1.08 
   0  -9   1   29.32    1.12 
   0  -9  -1   28.58    1.06 
   9   0   1   31.58    1.05 
   0  -9  -2  270.17    3.39 
   0  -9   2  272.34    3.68 
   9   0   2  281.66    3.23 
   9   0  -2  285.57    3.69 
   9   0  -3  128.53    2.57 
   0  -9   3  124.73    2.59 
   9   0   3  126.40    2.13 
   0  -9  -3  122.03    2.33 
   0  -9  -4   94.44    2.10 
   0  -9   4   96.13    2.40 
   0  -9   5   12.93    0.94 
  -9   0   5   13.71    0.99 
   0  -9  -5   12.98    0.84 
  -9   0   6    0.63    0.32 
   0  -9   6    0.69    0.36 
  -9   0   7    2.15    0.51 
   0   9  -7    2.37    0.23 
  -9   0  -7    2.55    0.26 
   0  -9   7    2.50    0.50 
  -9   0   8   11.84    1.18 
   0   9  -8   11.33    0.51 
   0  -9   8   10.13    1.01 
  -9   0  -8   12.52    0.56 
   0  -9  -8    9.82    0.45 
  -9   0   9    7.27    0.98 
   0   9  -9    6.46    0.41 
   0  -9  -9    5.47    0.36 
   0  -9   9    5.94    0.83 
  -9   0  -9    6.86    0.44 
  -9   0  10    8.38    1.11 
  -9   0 -10    7.75    0.48 
   0   9 -10    7.56    0.44 
  -9   0 -11   17.58    0.70 
   0   9 -11   16.54    0.66 
   9   0 -12    9.70    0.47 
   0   9 -12   11.18    0.55 
  -9   0 -12   11.54    0.57 
   0   9 -13   10.37    0.50 
  -9   0 -13   10.70    0.50 
   0   9 -14    1.18    0.20 
  -9   0 -14    0.91    0.17 
   0   9 -15   -0.09    0.12 
  -9   0 -15    0.14    0.11 
  -1  -9   0    9.40    0.60 
   1  -9   0    9.35    0.64 
   9  -1   0    9.66    0.64 
   9   1   0   10.14    0.58 
   1  -9   1    8.37    0.63 
   9  -1   1    8.96    0.61 
  -1  -9   1    8.54    0.61 
   1  -9  -1    9.16    0.65 
  -1  -9  -1    8.44    0.56 
   9   1   1    8.58    0.50 
   9  -1  -1    7.91    0.59 
   9   1  -1    8.21    0.57 
   9   1  -2    2.71    0.39 
   1  -9  -2    2.85    0.39 
   1  -9   2    2.10    0.40 
  -1  -9   2    3.06    0.44 
  -1  -9  -2    2.43    0.34 
   9  -1  -2    2.40    0.40 
   9  -1   2    2.67    0.39 
  -1  -9   3    6.66    0.62 
   1  -9   3    7.47    0.67 
   9  -1   3    7.60    0.59 
   9  -1  -3    7.62    0.68 
   1  -9  -3    7.27    0.61 
  -1  -9  -3    7.80    0.56 
   9  -1  -4    4.76    0.57 
   1  -9   4    5.61    0.63 
   9  -1   4    4.97    0.52 
  -1  -9   4    5.68    0.61 
   1  -9  -4    4.79    0.51 
  -1  -9  -4    5.23    0.50 
  -9  -1   4    5.24    0.59 
   1  -9   5    6.37    0.68 
  -1  -9   5    6.53    0.68 
   1  -9  -5    6.52    0.63 
  -9  -1   5    7.03    0.71 
   1  -9  -6    3.99    0.55 
  -9   1   6    3.60    0.59 
   1  -9   6    3.85    0.60 
  -1  -9   6    3.79    0.58 
  -9  -1   6    4.38    0.65 
   1  -9   7    2.70    0.51 
  -9   1   7    2.43    0.49 
  -1   9  -7    2.38    0.23 
   1   9  -7    2.43    0.24 
  -9  -1   7    2.34    0.51 
  -1  -9   7    2.36    0.48 
  -1   9   7    2.04    0.42 
  -9  -1  -7    2.57    0.25 
  -9  -1  -8    3.12    0.30 
  -9   1   8    3.33    0.67 
   1   9  -8    2.73    0.27 
  -1   9  -8    3.04    0.28 
  -9  -1   8    4.17    0.71 
   1  -9   8    2.74    0.55 
  -1  -9  -8    2.50    0.25 
  -1  -9   8    1.90    0.42 
  -1   9  -9    3.67    0.32 
  -9  -1   9    3.13    0.67 
  -1  -9  -9    3.11    0.28 
  -9   1   9    3.60    0.70 
  -9  -1  -9    3.38    0.32 
  -9   1  -9    3.92    0.35 
   1   9  -9    3.88    0.33 
  -1  -9   9    2.14    0.54 
   1  -9   9    3.50    0.67 
  -9  -1 -10    2.27    0.28 
  -9  -1  10    1.80    0.52 
   1   9 -10    2.04    0.26 
  -1   9 -10    2.23    0.27 
  -9   1 -10    2.36    0.30 
  -1  -9 -10    1.93    0.24 
  -9  -1 -11   -0.03    0.17 
  -9   1 -11    0.19    0.18 
   1   9 -11    0.09    0.16 
   9  -1 -11    0.06    0.13 
  -1   9 -11    0.30    0.18 
  -1  -9 -11    0.00    0.14 
  -9  -1 -12    0.15    0.17 
  -9   1 -12    0.00    0.18 
   9  -1 -12   -0.20    0.16 
   1   9 -12    0.30    0.19 
  -1   9 -12    0.45    0.19 
  -9   1 -13   -0.01    0.16 
   9  -1 -13    0.05    0.13 
   1   9 -13    0.12    0.17 
  -1   9 -13    0.28    0.17 
  -9  -1 -13   -0.08    0.16 
  -9   1 -14    0.39    0.14 
   1   9 -14    0.53    0.16 
  -1   9 -14    0.89    0.18 
  -9  -1 -14    0.76    0.17 
  -1   9 -15    0.60    0.14 
   1   9 -15    0.51    0.13 
  -9  -1 -15    0.42    0.12 
  -9   1 -15    0.68    0.14 
   2  -9   0   -0.05    0.21 
   9  -2   0    0.17    0.21 
  -2  -9   0   -0.11    0.14 
   9  -2   1   80.00    1.88 
  -2  -9   1   80.87    1.79 
   2  -9   1   83.91    2.00 
   2  -9  -1   84.76    1.99 
  -2  -9  -1   76.98    1.56 
   9  -2  -1   84.51    1.99 
  -2  -9   2   34.69    1.25 
   2  -9   2   33.92    1.32 
   9  -2   2   34.94    1.25 
  -2  -9  -2   33.02    1.01 
   2  -9  -2   33.22    1.26 
   9  -2  -2   33.51    1.29 
  -9  -2   2   32.42    1.10 
  -2  -9   3   31.00    1.25 
   2  -9   3   32.26    1.34 
   9  -2   3   32.79    1.24 
   2  -9  -3   33.00    1.29 
   9  -2  -3   30.87    1.31 
  -9  -2   3   29.63    1.18 
  -2  -9   4   42.50    1.57 
  -9  -2   4   42.67    1.55 
   2  -9   4   43.24    1.65 
   9  -2   4   40.91    1.43 
   2  -9  -4   43.16    1.51 
   9  -2  -4   42.33    1.60 
   2  -9   5   21.59    1.24 
   9  -2   5   21.32    1.09 
   9  -2  -5   20.43    1.19 
  -2  -9   5   21.00    1.18 
   2  -9  -5   20.72    1.15 
  -9  -2   5   21.42    1.21 
  -9  -2   6    5.75    0.71 
  -2  -9   6    6.05    0.71 
   2  -9   6    4.98    0.66 
   9  -2   6    5.69    0.61 
   2  -9  -6    5.28    0.63 
  -9  -2  -7    0.10    0.12 
  -9   2   7    0.54    0.35 
  -9  -2   7    0.19    0.26 
  -2  -9   7    0.40    0.28 
   2   9  -7    0.16    0.13 
  -2   9  -7    0.04    0.12 
   2  -9   7   -0.09    0.24 
  -9  -2  -8    0.61    0.17 
  -2   9   8    0.50    0.29 
  -2   9  -8    0.63    0.17 
  -9   2   8    0.91    0.38 
  -9  -2   8    0.25    0.32 
   2   9  -8    0.74    0.17 
  -2  -9   8    0.73    0.27 
  -2  -9  -8    0.68    0.17 
   2  -9   8    0.96    0.40 
  -9   2   9   16.06    1.42 
  -9  -2   9   16.20    1.43 
  -2   9  -9   16.89    0.64 
  -2  -9   9   16.11    1.37 
   2  -9   9   15.46    1.30 
   2   9  -9   17.06    0.63 
  -2  -9  -9   17.18    0.62 
  -9  -2  -9   17.14    0.66 
  -2   9 -10    6.71    0.43 
   2   9 -10    7.07    0.43 
  -2  -9 -10    6.95    0.41 
  -9  -2 -10    7.36    0.46 
  -9   2 -10    7.33    0.47 
  -9  -2 -11    1.27    0.23 
  -9   2 -11    1.21    0.25 
   9  -2 -11    1.07    0.20 
  -2   9 -11    1.46    0.24 
   2   9 -11    1.68    0.25 
  -2  -9 -11    1.34    0.22 
   9  -2 -12   12.84    0.53 
   2   9 -12   14.32    0.60 
  -2   9 -12   15.77    0.63 
  -9  -2 -12   14.66    0.62 
  -9   2 -12   14.88    0.62 
  -2  -9 -12   12.91    0.52 
   2   9 -13    9.96    0.49 
  -9  -2 -13   10.43    0.50 
  -9   2 -13   10.32    0.50 
  -2   9 -13   10.44    0.51 
   2   9 -14    1.96    0.23 
  -9   2 -14    1.83    0.22 
  -2   9 -14    1.65    0.22 
  -9  -2 -14    1.58    0.21 
  -2   9 -15    0.09    0.07 
   2   9 -15    0.22    0.11 
  -9  -2 -15    0.04    0.10 
  -2   9 -15    0.15    0.12 
  -9   2 -15    0.26    0.11 
  -9   3   0   85.93    2.00 
  -3  -9   0   82.85    1.59 
   9  -3   0   86.64    2.05 
   3  -9   0   86.87    2.09 
  -9   3  -1   53.65    1.57 
   9  -3  -1   56.00    1.68 
  -9   3   1   52.02    1.58 
  -3  -9  -1   49.04    1.13 
   3  -9   1   54.07    1.67 
   3  -9  -1   55.49    1.68 
   9  -3   1   55.59    1.62 
  -3  -9   1   52.85    1.40 
  -9  -3   1   46.63    1.13 
  -9   3  -2   34.77    1.27 
   3  -9  -2   35.45    1.34 
  -3  -9   2   33.49    1.20 
   3  -9   2   33.86    1.35 
   9  -3  -2   33.47    1.34 
   9  -3   2   33.65    1.31 
  -9  -3   2   30.85    1.06 
  -3  -9   3    3.73    0.46 
   9  -3   3    4.83    0.53 
   3  -9   3    4.67    0.56 
   9  -3  -3    4.51    0.53 
   3  -9  -3    4.66    0.54 
  -9  -3   3    3.94    0.43 
  -9  -3   4    3.21    0.46 
   3  -9  -4    3.61    0.50 
   3  -9   4    3.77    0.53 
   9  -3   4    2.96    0.43 
   9  -3  -4    3.36    0.51 
  -3  -9   4    2.99    0.44 
   3  -9   5    2.89    0.53 
  -3  -9   5    2.14    0.39 
  -9  -3   5    1.88    0.40 
   9  -3  -5    2.77    0.49 
   9  -3   5    2.17    0.42 
   3  -9  -5    2.01    0.43 
  -9  -3   6    4.87    0.65 
  -3  -9   6    5.03    0.65 
   3  -9   6    5.15    0.67 
   9  -3   6    5.50    0.64 
   3  -9  -6    5.04    0.65 
  -9  -3   7    8.34    0.89 
  -3  -9   7    7.80    0.85 
  -3  -9  -7    7.99    0.41 
   3  -9   7    8.33    0.89 
  -3   9  -7    8.38    0.42 
   9  -3   7    7.73    0.77 
  -9  -3  -7    8.21    0.43 
   3   9  -7    8.24    0.40 
  -9   3   7    8.57    0.94 
  -9  -3  -8    1.54    0.22 
  -3   9   8    1.32    0.37 
  -9   3   8    0.62    0.38 
  -9  -3   8    1.31    0.43 
   3   9  -8    1.61    0.21 
  -3  -9   8    0.58    0.30 
  -3   9  -8    1.44    0.21 
  -3  -9  -8    1.40    0.21 
   3  -9   8    0.69    0.37 
  -9  -3  -9    0.19    0.15 
  -3   9  -9    0.33    0.16 
  -9   3   9    0.87    0.44 
  -3   9   9    0.03    0.26 
  -9  -3   9   -0.24    0.33 
   3   9  -9    0.30    0.16 
  -3  -9  -9    0.48    0.17 
   3  -9   9    0.39    0.33 
   9  -3 -10    2.07    0.26 
  -3   9 -10    2.73    0.30 
   3   9 -10    2.26    0.27 
  -9  -3 -10    2.74    0.30 
  -3  -9 -10    2.53    0.28 
  -9   3 -11    0.63    0.21 
  -3  -9 -11    0.65    0.18 
   9  -3 -11    0.22    0.16 
   3   9 -11    0.55    0.19 
  -3   9 -11    0.60    0.20 
  -9  -3 -11    0.52    0.19 
  -9   3 -12    0.06    0.16 
   3   9 -12    0.07    0.16 
  -3   9 -12   -0.13    0.16 
  -3  -9 -12    0.03    0.13 
  -9  -3 -12   -0.16    0.16 
  -9   3 -13    0.98    0.20 
  -3  -9 -13    0.59    0.16 
  -3   9 -13    0.85    0.20 
  -9  -3 -13    1.07    0.22 
   3   9 -13    1.25    0.22 
   3   9 -14    2.76    0.25 
  -3   9 -14    3.30    0.27 
  -9  -3 -14    3.01    0.26 
  -9   3 -14    2.93    0.26 
  -3   9 -14    2.47    0.23 
   3   9 -15    2.44    0.20 
  -3   9 -15    2.65    0.21 
  -9   3 -15    2.70    0.21 
  -9  -3 -15    2.59    0.21 
  -9   4   0    0.36    0.27 
   9  -4   0    0.14    0.24 
   4  -9   0    0.42    0.26 
  -9   4  -1   10.10    0.74 
  -9   4   1    9.82    0.73 
  -4  -9   1    8.91    0.56 
   4  -9   1   10.11    0.76 
   9  -4   1   10.99    0.77 
   4  -9  -1   10.15    0.76 
   9  -4  -1   10.13    0.75 
  -9  -4   2   27.96    0.97 
  -9   4  -2   32.46    1.27 
  -9   4   2   29.49    1.25 
   4  -9  -2   34.26    1.38 
  -4  -9   2   30.16    1.12 
   4  -9   2   31.25    1.34 
   9  -4   2   33.75    1.36 
   9  -4  -2   32.41    1.36 
  -9  -4   3   16.95    0.87 
   4  -9  -3   17.56    1.03 
  -9   4  -3   17.98    0.95 
  -4  -9   3   16.13    0.90 
  -9   4   3   18.06    1.02 
   4  -9   3   18.12    1.05 
   9  -4   3   18.24    1.03 
   9  -4  -3   17.22    1.04 
  -9  -4   4   11.30    0.79 
  -9   4  -4   11.45    0.76 
   4  -9   4   12.22    0.91 
   9  -4   4   12.21    0.88 
  -4  -9   4   11.41    0.81 
   4  -9  -4   11.57    0.87 
   9  -4  -4   11.27    0.89 
  -9  -4   5   17.51    1.06 
   4  -9  -5   19.04    1.16 
   4  -9   5   18.84    1.19 
   9  -4   5   19.36    1.15 
  -4  -9   5   17.81    1.10 
   9  -4  -5   17.86    1.13 
   4  -9   6    1.96    0.47 
  -4   9   6    1.39    0.36 
  -9  -4   6    1.16    0.34 
   9  -4   6    1.58    0.35 
   4  -9  -6    2.02    0.46 
  -4  -9   6    1.63    0.39 
   9  -4  -6    1.75    0.42 
  -9  -4  -7    0.97    0.18 
   4  -9   7    1.02    0.37 
   4  -9  -7    0.64    0.35 
  -4  -9   7    0.71    0.38 
   9  -4   7    1.04    0.32 
  -9  -4   7    0.64    0.35 
   4   9  -7    0.99    0.17 
  -4   9  -7    0.97    0.18 
  -4  -9  -7    1.17    0.19 
   4  -9   8    0.16    0.30 
  -4   9   8   -0.04    0.24 
  -9   4   8   -0.06    0.38 
  -9  -4   8    0.23    0.38 
  -4   9  -8    0.17    0.16 
  -4  -9  -8    0.18    0.14 
   4   9  -8    0.05    0.13 
  -4  -9   8    0.39    0.34 
  -9  -4  -8    0.18    0.14 
   4  -9   9    0.38    0.28 
  -4   9   9    0.77    0.32 
  -9   4   9    0.11    0.34 
  -4  -9   9   -0.01    0.39 
  -4   9  -9    0.14    0.15 
  -4  -9  -9    0.32    0.16 
   4   9  -9    0.21    0.14 
  -9  -4  -9    0.31    0.18 
   4   9 -10    2.46    0.28 
  -4   9 -10    2.68    0.30 
  -4  -9 -10    2.47    0.28 
  -9  -4 -10    2.28    0.28 
   4   9 -11    7.53    0.45 
  -4   9 -11    8.37    0.48 
  -4  -9 -11    7.78    0.45 
  -9  -4 -11    8.06    0.47 
  -9   4 -11    7.86    0.49 
   4   9 -12    2.52    0.27 
  -9  -4 -12    2.56    0.29 
  -4   9 -12    2.23    0.27 
  -4  -9 -12    2.56    0.27 
  -9   4 -12    2.38    0.28 
  -9   4 -13    0.72    0.19 
   4   9 -13    0.78    0.18 
  -4   9 -13    0.67    0.18 
  -4  -9 -13    0.70    0.17 
  -9  -4 -13    0.58    0.18 
  -9   4 -14    0.22    0.13 
  -4   9 -14    0.39    0.14 
  -4   9 -14    0.15    0.13 
  -4  -9 -14    0.07    0.10 
   4   9 -14   -0.02    0.12 
  -9  -4 -14   -0.14    0.13 
  -4   9 -15    0.27    0.10 
  -4   9 -15    0.20    0.11 
   4   9 -15    0.02    0.09 
  -9  -4 -15    0.11    0.10 
  -9   4 -15    0.00    0.09 
  -9   5   0   57.85    1.75 
   9  -5   0   54.15    1.78 
   5  -9   0   57.76    1.82 
  -9   5  -1   37.01    1.39 
  -9   5   1   34.38    1.37 
   9  -5  -1   38.63    1.50 
   5  -9   1   35.90    1.44 
   9  -5   1   38.59    1.51 
   5  -9  -1   37.60    1.46 
  -9   5  -2   23.72    1.13 
   5  -9   2   24.60    1.21 
   9  -5  -2   24.25    1.22 
  -5  -9   2   23.02    0.96 
   5  -9  -2   24.50    1.22 
   9  -5   2   25.32    1.23 
  -9   5   2   24.25    1.18 
  -9   5   3   10.95    0.84 
  -5  -9   3    9.16    0.66 
   5  -9   3   11.81    0.88 
  -9   5  -3   12.05    0.82 
   9  -5  -3   11.81    0.87 
   5  -9  -3   11.84    0.90 
   9  -5   3   11.86    0.87 
   9  -5  -4   16.68    1.07 
  -9   5  -4   15.89    0.92 
  -9  -5   4   14.31    0.87 
  -9   5   4   17.75    1.08 
   5  -9   4   16.21    1.08 
  -5  -9   4   16.38    0.97 
   9  -5   4   17.37    1.08 
   5  -9  -4   15.88    1.05 
  -9  -5   5   17.31    1.07 
  -5   9   5   20.04    1.21 
  -5  -9   5   16.46    1.06 
   5  -9   5   19.94    1.25 
   9  -5   5   20.15    1.21 
   5  -9  -5   17.20    1.15 
   9  -5  -5   17.54    1.17 
   9  -5  -6   17.83    1.21 
  -9  -5   6   17.65    1.18 
  -5   9   6   18.50    1.16 
  -5  -9   6   18.69    1.20 
   5  -9   6   18.81    1.28 
   9  -5   6   18.84    1.22 
  -9  -5  -6   17.79    0.60 
  -5  -9  -6   18.32    0.61 
   5  -9  -6   18.40    1.22 
   5  -9  -7   20.34    1.38 
  -9  -5   7   20.28    1.36 
   9  -5  -7   18.24    0.68 
  -5   9  -7   20.91    0.66 
   5  -9   7   21.54    1.43 
  -5  -9  -7   21.74    0.69 
   9  -5   7   20.93    1.34 
  -5  -9   7   21.50    1.40 
   5   9  -7   17.18    0.59 
  -9  -5  -7   21.24    0.68 
  -9  -5   8   14.67    1.25 
   5  -9   8   16.01    1.33 
  -9   5   8   15.03    1.34 
   5   9  -8   14.87    0.57 
   9  -5   8   15.45    1.23 
  -5  -9   8   15.95    1.29 
  -5  -9  -8   16.17    0.62 
  -5   9  -8   17.65    0.64 
  -9  -5  -8   16.51    0.62 
  -5  -9   9   13.80    1.26 
   5   9  -9   17.56    0.64 
  -5  -9  -9   18.38    0.67 
  -9  -5  -9   19.94    0.70 
   5  -9   9   16.12    1.38 
  -5   9  -9   18.85    0.69 
  -9  -5   9   14.73    1.33 
  -5   9   9   12.27    1.17 
  -9   5   9   16.69    1.50 
   5   9 -10    0.94    0.20 
  -5  -9 -10    0.92    0.20 
  -5   9 -10    0.96    0.21 
  -9  -5 -10    0.38    0.17 
  -5   9 -11    0.29    0.17 
   5   9 -11    0.63    0.19 
  -5  -9 -11    0.35    0.17 
  -9  -5 -11    0.52    0.18 
  -9   5 -12    0.64    0.20 
   5   9 -12    0.80    0.19 
  -5  -9 -12    0.79    0.19 
  -5   9 -12    1.01    0.21 
  -9  -5 -12    0.86    0.20 
   5   9 -13    2.73    0.26 
  -5   9 -13    2.84    0.27 
  -5  -9 -13    2.80    0.28 
  -9   5 -13    2.88    0.28 
  -9  -5 -13    3.64    0.31 
  -5   9 -14    2.20    0.22 
   5   9 -14    2.05    0.21 
  -5  -9 -14    1.86    0.19 
  -9  -5 -14    2.48    0.23 
  -9   5 -14    2.33    0.23 
  -5   9 -14    2.11    0.22 
  -5   9 -15    2.13    0.17 
   5   9 -15    1.95    0.16 
  -9   5 -15    2.20    0.18 
  -5   9 -15    1.80    0.16 
   9  -6   0    0.40    0.36 
  -9   6   0    0.70    0.34 
   6  -9   0    0.35    0.30 
   6  -9  -1    0.53    0.31 
  -9   6  -1    0.31    0.25 
  -9   6   1    0.65    0.31 
   9  -6  -1    0.52    0.28 
   6  -9   1    0.31    0.25 
   9  -6   1    0.62    0.29 
  -9   6  -2    0.43    0.26 
   6  -9   2    0.04    0.23 
  -9   6   2    0.21    0.22 
   9  -6  -2    0.06    0.25 
   9  -6   2    0.17    0.24 
   6  -9  -2    0.15    0.27 
  -9   6  -3    0.59    0.27 
  -9   6   3    0.13    0.23 
   6  -9   3    0.24    0.23 
   6  -9  -3    0.31    0.26 
   9  -6   3    0.72    0.32 
   9  -6  -3    0.20    0.26 
  -9   6  -4    1.64    0.37 
   6  -9   4    2.21    0.46 
   9  -6  -4    1.87    0.43 
   9  -6   4    1.82    0.41 
  -6  -9   4    1.67    0.33 
  -9   6   4    1.88    0.41 
   6  -9  -4    1.93    0.42 
   9  -6  -5    0.65    0.26 
  -6   9   5    1.53    0.44 
   6  -9   5    1.25    0.40 
   9  -6   5    1.28    0.38 
  -9  -6   5    0.73    0.28 
   6  -9  -5    1.09    0.35 
  -9   6   5    1.11    0.34 
  -6  -9   5    0.99    0.32 
  -6   9   6   -0.01    0.25 
   6  -9   6    0.49    0.38 
   9  -6   6    0.48    0.31 
  -9  -6   6   -0.05    0.24 
   6  -9  -6    0.30    0.25 
   9  -6  -6    0.31    0.26 
   9  -6  -6    0.31    0.18 
  -6  -9   6    0.49    0.29 
   6  -9  -6    0.44    0.16 
  -6   9  -6    0.36    0.14 
  -6  -9  -6    0.31    0.15 
  -9  -6  -6    0.32    0.15 
   9  -6   7    0.51    0.33 
  -9  -6   7    0.11    0.25 
   6  -9   7   -0.08    0.29 
   9  -6  -7   -0.05    0.16 
   6  -9  -7    0.23    0.25 
  -6  -9   7    0.39    0.38 
   6   9  -7    0.09    0.11 
  -6   9  -7    0.19    0.15 
  -6  -9  -7    0.23    0.15 
  -9  -6  -7    0.10    0.14 
  -9   6   8    0.91    0.39 
   6  -9   8    1.25    0.44 
   6   9  -8    1.00    0.19 
  -9  -6   8    0.26    0.26 
  -6   9  -8    0.98    0.19 
  -6  -9  -8    0.84    0.20 
  -6  -9   8   -0.01    0.33 
   9  -6   8    0.87    0.39 
  -9  -6  -8    0.90    0.20 
  -6   9   9    0.18    0.25 
   6  -9   9    1.12    0.41 
   6   9  -9    0.47    0.18 
  -6   9  -9    0.83    0.19 
  -6  -9   9    0.97    0.41 
  -6  -9  -9    0.85    0.20 
  -9  -6  -9    0.87    0.21 
  -6  -9 -10    0.95    0.22 
  -6   9 -10    1.00    0.22 
   6   9 -10    0.69    0.19 
  -9  -6 -10    0.52    0.19 
   6   9 -11    0.91    0.19 
  -9  -6 -11    1.52    0.24 
  -6   9 -11    1.28    0.22 
  -6  -9 -11    1.29    0.23 
  -9   6 -12    1.39    0.24 
   6   9 -12    1.30    0.22 
  -6   9 -12    1.18    0.21 
  -6  -9 -12    1.27    0.22 
  -9  -6 -12    1.30    0.22 
  -9   6 -13    0.41    0.16 
   6   9 -13    0.18    0.13 
  -9  -6 -13    0.06    0.14 
  -6   9 -13    0.18    0.14 
  -6  -9 -13    0.10    0.14 
  -9   6 -14   -0.01    0.11 
  -6   9 -14    0.01    0.12 
   6   9 -14    0.18    0.11 
  -6  -9 -14   -0.02    0.10 
  -6   9 -14    0.05    0.11 
  -9  -6 -14   -0.05    0.12 
  -6   9 -15    0.06    0.08 
  -9  -6 -15   -0.06    0.08 
  -9   6 -15    0.18    0.09 
   9  -7   0  136.67    3.05 
  -9   7   0  130.91    2.90 
   7  -9   0  129.98    2.95 
  -9   7  -1   92.26    2.41 
   7  -9   1   91.12    2.51 
   9  -7   1   93.68    2.53 
   7  -9  -1   89.39    2.47 
   9  -7  -1   92.53    2.55 
  -9   7   1   90.67    2.41 
  -9   7  -2   17.34    1.07 
  -9   7   2   18.87    1.13 
   7  -9   2   19.33    1.16 
   9  -7   2   17.67    1.15 
   7  -9  -2   17.52    1.13 
   9  -7  -2   18.59    1.18 
  -9   7  -3    4.42    0.56 
  -9   7   3    4.57    0.59 
   7  -9   3    4.26    0.58 
   9  -7   3    5.20    0.66 
   7  -9  -3    5.86    0.70 
   9  -7  -3    4.93    0.63 
   7  -9  -4   -0.16    0.26 
  -7   9   4    0.20    0.23 
  -9   7   4   -0.33    0.32 
   7  -9   4   -0.09    0.27 
   9  -7   4    0.24    0.25 
   9  -7  -4    0.01    0.23 
  -9   7  -4    0.17    0.22 
  -9   7   5   13.65    1.06 
   9  -7  -5   13.57    0.59 
   7  -9  -5   12.66    0.54 
  -7   9   5   13.03    1.05 
   7  -9   5   14.72    1.12 
   9  -7   5   14.15    1.09 
  -7  -9  -5   14.28    0.56 
  -9  -7  -5   13.41    0.53 
   7  -9  -5   13.22    1.05 
   9  -7  -5   12.08    1.03 
  -7   9   6   41.96    1.89 
   9  -7  -6   41.23    1.03 
   7  -9  -6   40.50    0.98 
   7  -9   6   42.59    2.00 
  -7  -9   6   39.10    1.76 
  -7   9  -6   37.84    0.87 
  -9  -7  -6   45.81    1.00 
   9  -7   6   43.79    2.00 
  -7  -9  -6   45.06    1.00 
   7  -9  -6   43.55    1.99 
   9  -7  -6   40.89    1.91 
   7  -9  -7   41.58    2.03 
   9  -7  -7   39.94    1.99 
  -9  -7  -7   42.88    0.99 
  -7   9  -7   41.73    0.94 
   7  -9  -7   38.66    0.97 
   7  -9   7   44.51    2.13 
  -7  -9  -7   42.36    0.99 
   9  -7  -7   41.55    1.04 
   9  -7   7   44.23    2.08 
  -7   9  -8   20.23    0.69 
  -7  -9   8   14.93    1.26 
   9  -7   8   17.87    1.37 
   7  -9   8   17.47    1.39 
  -7  -9  -8   20.60    0.70 
  -9  -7  -8   20.40    0.70 
  -9   7   8   16.85    1.45 
   7   9  -9    0.52    0.16 
  -7   9  -9    0.45    0.16 
  -7  -9  -9    0.58    0.18 
  -9  -7  -9    0.47    0.18 
  -7   9 -10   12.61    0.56 
  -7  -9 -10   12.86    0.58 
  -9  -7 -10   11.78    0.56 
   7   9 -10   12.00    0.52 
  -7   9 -11    0.08    0.14 
   7   9 -11    0.07    0.13 
  -7  -9 -11    0.11    0.15 
  -9  -7 -11    0.21    0.16 
  -7  -9 -12    3.51    0.31 
   7   9 -12    2.78    0.26 
  -7   9 -12    3.11    0.28 
  -9  -7 -12    3.66    0.32 
  -7   9 -13    4.11    0.29 
  -7  -9 -13    4.14    0.30 
  -9  -7 -13    4.33    0.31 
  -9   7 -13    3.96    0.31 
   7   9 -13    3.38    0.26 
  -7   9 -14    2.49    0.19 
  -9  -7 -14    3.16    0.24 
  -9   7 -14    3.08    0.24 
  -7   9 -14    2.83    0.23 
  -7  -9 -14    3.03    0.22 
  -9   7 -15    1.17    0.13 
  -7   9 -15    1.13    0.12 
   8  -9   0   -0.04    0.23 
   9  -8   0   -0.08    0.21 
  -9   8   0    0.04    0.26 
  -9   8   1    2.02    0.44 
   8  -9  -1    1.97    0.43 
   9  -8  -1    1.78    0.44 
   9  -8   1    2.09    0.46 
  -9   8  -1    1.72    0.42 
   8  -9   1    2.04    0.43 
  -8   9   2    7.08    0.78 
  -9   8  -2    7.78    0.77 
   8  -9   2    6.78    0.73 
   9  -8   2    6.99    0.76 
  -9   8   2    7.37    0.77 
   8  -9  -2    6.84    0.76 
   9  -8  -2    7.23    0.77 
  -8   9   3    5.04    0.68 
  -9   8  -3    4.37    0.61 
   9  -8   3    4.87    0.65 
   8  -9   3    4.08    0.60 
   8  -9  -3    4.52    0.66 
   9  -8  -3    3.79    0.59 
  -9   8   3    5.18    0.67 
   8  -9  -4    0.03    0.24 
  -8   9  -4   -0.13    0.24 
  -9   8  -4    0.29    0.24 
  -8   9   4   -0.13    0.29 
  -9   8   4    0.09    0.26 
  -8  -9  -4    0.38    0.14 
   9  -8  -4    0.03    0.23 
   9  -8   4    0.10    0.26 
   8  -9  -4   -0.04    0.16 
   9  -8  -4    0.24    0.17 
   8  -9   4   -0.44    0.39 
  -9  -8  -4    0.22    0.14 
  -8   9  -5   -0.20    0.29 
  -8   9   5    0.39    0.30 
  -9   8   5    0.01    0.29 
   8  -9  -5    0.05    0.16 
   8  -9   5    0.19    0.31 
   9  -8   5    0.09    0.25 
   9  -8  -5    0.24    0.17 
   8  -9  -5   -0.03    0.34 
   9  -8  -5    0.03    0.27 
  -8  -9  -5    0.23    0.15 
  -9  -8  -5    0.31    0.13 
   8  -9  -6    0.34    0.25 
   8  -9   6    0.54    0.36 
   9  -8   6    0.39    0.36 
   9  -8  -6    0.60    0.19 
   9  -8  -6    1.12    0.41 
   8  -9  -6    0.98    0.22 
  -8   9  -6    0.77    0.17 
  -8   9   6    0.21    0.28 
  -8  -9  -6    0.78    0.19 
  -9  -8  -6    0.83    0.18 
  -8  -9  -7    0.17    0.17 
   8  -9   7    0.32    0.30 
   9  -8   7    0.67    0.44 
   9  -8  -7    0.11    0.17 
  -8   9  -7    0.38    0.15 
   8  -9  -7    0.40    0.20 
   9  -8  -7    0.10    0.37 
   8  -9  -7   -0.14    0.28 
  -9  -8  -7    0.36    0.18 
  -9   8   8    3.51    0.69 
  -8   9  -8    3.51    0.32 
   9  -8  -8    3.39    0.33 
   8  -9   8    2.48    0.50 
   9  -8   8    2.31    0.54 
  -9  -8  -8    3.87    0.34 
  -8  -9  -8    3.62    0.32 
  -8   9  -9    6.14    0.39 
  -8  -9  -9    6.74    0.44 
  -9  -8  -9    6.43    0.43 
  -8   9 -10    2.08    0.26 
  -8  -9 -10    2.14    0.28 
  -9  -8 -10    1.83    0.26 
  -8   9 -11   -0.04    0.14 
  -8  -9 -11    0.24    0.16 
  -9  -8 -11   -0.11    0.16 
  -8  -9 -12    0.34    0.15 
  -9  -8 -12    0.02    0.16 
  -8   9 -12    0.07    0.13 
  -9   8 -13    0.65    0.16 
  -8   9 -13    0.58    0.16 
  -8   9 -13    0.33    0.11 
  -8  -9 -13    0.29    0.13 
  -9  -8 -13    0.40    0.15 
  -9   8 -14   -0.01    0.10 
  -8   9 -14    0.07    0.10 
  -9  -8 -14    0.14    0.10 
  -8  -9 -14    0.09    0.09 
   9  -9   0   63.85    2.24 
  -9   9   0   68.37    2.27 
  -9   9  -1   47.24    1.92 
  -9   9   1   46.85    1.90 
   9  -9   1   45.83    1.94 
   9  -9  -1   45.67    1.92 
  -9   9  -2   31.28    1.59 
  -9   9   2   32.88    1.63 
   9  -9   2   31.75    1.64 
   9  -9  -2   28.64    0.80 
   9  -9  -2   32.28    1.63 
  -9   9  -3   28.45    1.53 
   9  -9  -3   25.84    0.78 
  -9  -9  -3   25.33    0.75 
   9  -9   3   28.34    1.54 
  -9   9   3   27.61    1.52 
   9  -9  -3   26.75    1.52 
  -9   9  -4    9.68    0.91 
  -9   9   4    8.37    0.89 
   9  -9  -4    8.60    0.48 
  -9  -9  -4    9.18    0.46 
   9  -9  -4    7.51    0.84 
   9  -9   4    7.05    0.81 
  -9   9   5   14.49    1.16 
   9  -9  -5   15.99    0.64 
  -9  -9  -5   16.90    0.63 
   9  -9   5   14.56    1.19 
   9  -9  -5   14.83    1.20 
  -9   9   6    2.99    0.57 
   9  -9  -6    3.96    0.35 
   9  -9   6    4.16    0.67 
  -9  -9  -6    3.96    0.32 
   9  -9  -6    3.36    0.63 
   9  -9  -7    0.63    0.29 
  -9  -9  -7    0.61    0.17 
   9  -9   7    0.55    0.29 
   9  -9  -7    0.82    0.24 
   9  -9  -8    3.32    0.33 
  -9  -9  -8    3.96    0.34 
  -9  -9  -9   14.34    0.60 
  -9  -9 -10    0.16    0.15 
  -9  -9 -11    0.46    0.17 
  -9  -9 -12    0.42    0.15 
  -9  -9 -13    2.85    0.24 
  -9   9 -13    2.47    0.24 
  -9  -9 -14    2.39    0.18 
  -9   9 -14    2.41    0.19 
   0 -10   0  101.43    2.17 
  10   0   0  105.11    2.10 
   0 -10   1   15.26    0.88 
   0 -10  -1   16.40    0.86 
  10   0   1   16.67    0.81 
  10   0  -1   16.19    0.86 
   0 -10   2    1.55    0.35 
   0 -10  -2    1.75    0.35 
  10   0  -2    1.61    0.31 
   0 -10   3    0.47    0.27 
  10   0  -3    0.33    0.23 
   0 -10  -3   -0.01    0.14 
   0 -10  -4   14.82    0.87 
   0 -10   4   15.14    1.02 
   0 -10   5   61.15    2.12 
 -10   0   5   61.53    2.17 
   0 -10  -5   58.30    1.86 
   0 -10   6   55.59    2.14 
 -10   0   6   55.64    2.24 
 -10   0  -7    1.32    0.20 
 -10   0   7    1.73    0.49 
   0 -10  -7    1.22    0.17 
   0  10  -7    1.64    0.21 
   0 -10   7    1.71    0.46 
   0  10  -8    0.15    0.13 
 -10   0  -8    0.07    0.14 
 -10   0   8   -0.04    0.31 
   0 -10  -8   -0.02    0.14 
   0 -10   8   -0.08    0.28 
 -10   0  -9    0.77    0.20 
 -10   0   9    1.08    0.53 
   0 -10  -9    0.66    0.16 
   0  10  -9    0.71    0.18 
   0 -10   9    1.34    0.51 
   0  10 -10   11.11    0.54 
 -10   0 -10   11.25    0.56 
   0  10 -11    8.95    0.49 
 -10   0 -11    9.37    0.52 
   0  10 -12    2.58    0.29 
 -10   0 -12    3.16    0.32 
   0  10 -13    0.69    0.19 
 -10   0 -13    1.04    0.19 
   0  10 -14    0.99    0.18 
 -10   0 -14    1.02    0.17 
   0  10 -15    0.38    0.11 
 -10   0 -15    0.51    0.12 
  10   1   0   -0.04    0.16 
  -1 -10   0    0.04    0.20 
   1 -10   0    0.10    0.21 
  10  -1   0    0.05    0.18 
   1 -10   1   17.49    0.96 
  -1 -10  -1   17.20    0.85 
  10  -1   1   17.50    0.88 
  -1 -10   1   15.54    0.85 
   1 -10  -1   16.56    0.91 
  10  -1  -1   16.08    0.90 
  10   1  -1   16.57    0.83 
   1 -10  -2    4.98    0.52 
  10  -1   2    5.72    0.52 
  -1 -10   2    4.51    0.51 
   1 -10   2    4.59    0.52 
  -1 -10  -2    5.23    0.48 
  10  -1  -2    5.43    0.56 
  -1 -10   3   -0.26    0.23 
   1 -10   3    0.00    0.21 
   1 -10  -3   -0.01    0.18 
  10  -1  -3    0.26    0.20 
  -1 -10  -3    0.23    0.17 
  10  -1   3    0.11    0.18 
   1 -10   4    2.21    0.45 
 -10  -1   4    2.04    0.42 
   1 -10  -4    2.18    0.38 
  10  -1  -4    2.45    0.44 
  -1 -10   4    2.04    0.41 
  -1 -10   5   18.74    1.18 
   1 -10   5   18.73    1.19 
   1 -10  -5   16.63    1.02 
 -10  -1   5   17.94    1.16 
   1 -10  -6    3.78    0.53 
 -10   1   6    3.94    0.65 
  -1  10  -6    3.54    0.27 
   1 -10   6    4.26    0.64 
  -1 -10   6    3.89    0.60 
 -10  -1   6    4.37    0.68 
 -10  -1  -7    0.23    0.15 
 -10   1  -7    0.16    0.15 
 -10   1   7    0.23    0.27 
 -10  -1   7   -0.01    0.29 
   1  10  -7    0.10    0.12 
  -1  10  -7    0.21    0.13 
  -1 -10  -7    0.05    0.13 
  -1 -10   7   -0.22    0.31 
   1 -10   7    0.36    0.34 
 -10  -1  -8    0.91    0.20 
 -10   1  -8    1.07    0.22 
 -10   1   8    0.70    0.43 
 -10  -1   8    1.09    0.43 
   1 -10   8    0.94    0.43 
   1  10  -8    0.74    0.18 
  -1  10  -8    0.80    0.17 
  -1 -10  -8    0.91    0.18 
  -1 -10   8    0.87    0.34 
 -10  -1  -9    1.92    0.26 
 -10   1   9    2.52    0.67 
 -10  -1   9    1.55    0.49 
   1  10  -9    1.68    0.24 
 -10   1  -9    2.31    0.28 
  -1  10  -9    2.03    0.24 
  -1 -10  -9    2.06    0.24 
  -1 -10   9    2.06    0.52 
   1 -10   9    1.95    0.52 
 -10  -1 -10    0.44    0.18 
 -10   1 -10    0.21    0.17 
  -1 -10 -10    0.05    0.14 
   1  10 -10    0.43    0.17 
  -1  10 -10    0.09    0.16 
 -10  -1 -11    0.13    0.17 
 -10   1 -11    0.21    0.16 
  -1 -10 -11    0.06    0.13 
   1  10 -11    0.05    0.16 
  -1  10 -11    0.23    0.17 
 -10   1 -12    0.43    0.18 
   1  10 -12    0.54    0.19 
  -1  10 -12    0.34    0.17 
 -10  -1 -12    0.19    0.17 
 -10   1 -13    0.14    0.14 
   1  10 -13    0.27    0.17 
  -1  10 -13    0.08    0.15 
 -10  -1 -13    0.18    0.14 
   1  10 -14    0.65    0.16 
  -1  10 -14    0.51    0.15 
 -10  -1 -14    0.42    0.14 
 -10   1 -14    0.44    0.15 
  -1  10 -15    0.02    0.10 
   1  10 -15   -0.17    0.10 
 -10  -1 -15   -0.05    0.09 
 -10   1 -15    0.09    0.09 
  -2 -10   0   30.08    1.09 
   2 -10   0   31.94    1.30 
  10  -2   0   32.99    1.31 
  -2 -10   1   27.77    1.11 
  -2 -10  -1   27.21    0.99 
   2 -10  -1   30.83    1.28 
  10  -2   1   28.23    1.19 
   2 -10   1   29.18    1.25 
  10  -2  -1   28.95    1.24 
  -2 -10   2   10.76    0.74 
   2 -10  -2   11.12    0.78 
  10  -2   2   11.59    0.77 
   2 -10   2   10.80    0.79 
  10  -2  -2   10.97    0.79 
 -10  -2   2    9.73    0.64 
  -2 -10   3    0.78    0.26 
 -10  -2   3    0.48    0.22 
   2 -10   3    0.66    0.28 
   2 -10  -3    0.62    0.30 
  10  -2   3    0.90    0.25 
  10  -2  -3    1.11    0.35 
   2 -10  -4    2.67    0.43 
   2 -10   4    3.06    0.50 
  10  -2  -4    2.19    0.44 
 -10  -2   4    2.55    0.45 
  10  -2   4    2.64    0.41 
  -2 -10   4    2.57    0.46 
  -2 -10   5   10.52    0.89 
   2 -10   5    9.76    0.90 
   2 -10  -5    9.49    0.81 
 -10  -2   5    9.75    0.88 
 -10  -2   6   18.30    1.25 
  -2  10  -6   17.29    0.58 
  -2 -10   6   17.67    1.21 
   2 -10   6   19.24    1.28 
 -10   2   6   17.67    1.29 
   2 -10  -6   18.12    1.17 
 -10  -2   7   19.18    1.37 
   2 -10   7   17.66    1.31 
  -2  10  -7   18.66    0.63 
  -2 -10   7   16.72    1.26 
  -2 -10  -7   17.57    0.61 
 -10  -2  -7   17.42    0.63 
   2  10  -7   17.86    0.61 
 -10   2   7   18.49    1.39 
 -10  -2   8    7.24    0.92 
   2  10  -8    7.71    0.43 
  -2  10  -8    8.05    0.44 
  -2 -10   8    6.70    0.86 
   2 -10   8    8.43    0.95 
  -2 -10  -8    7.89    0.43 
 -10  -2  -8    7.98    0.45 
 -10   2   8    8.83    1.07 
  -2  10  -9    2.47    0.27 
 -10  -2   9    2.22    0.58 
 -10   2   9    1.69    0.53 
  -2 -10  -9    2.30    0.26 
 -10  -2  -9    2.54    0.29 
 -10   2  -9    2.67    0.30 
   2  10  -9    2.33    0.27 
  -2 -10   9    1.19    0.37 
   2 -10   9    1.44    0.45 
 -10  -2 -10    0.06    0.16 
 -10   2 -10    0.04    0.16 
  -2 -10 -10   -0.16    0.16 
  -2  10 -10   -0.05    0.18 
   2  10 -10   -0.18    0.17 
 -10   2 -11    0.36    0.19 
  -2 -10 -11    0.18    0.14 
  -2  10 -11    0.37    0.17 
   2  10 -11    0.56    0.18 
 -10  -2 -11    0.01    0.17 
 -10   2 -12    0.40    0.18 
  -2 -10 -12    0.53    0.15 
  -2  10 -12    0.67    0.20 
   2  10 -12    0.80    0.20 
 -10  -2 -12    0.60    0.20 
 -10   2 -13    0.26    0.16 
  -2  10 -13    0.04    0.14 
   2  10 -13    0.38    0.17 
 -10  -2 -13    0.12    0.14 
  -2  10 -14    0.95    0.17 
   2  10 -14    0.83    0.17 
 -10  -2 -14    0.69    0.16 
 -10   2 -14    0.85    0.17 
  -2  10 -15    0.29    0.11 
   2  10 -15    0.38    0.11 
 -10  -2 -15    0.34    0.10 
 -10   2 -15    0.34    0.10 
  10  -3   0    0.34    0.28 
   3 -10   0    0.16    0.21 
  -3 -10   0    0.20    0.16 
  -3 -10   1   10.79    0.67 
   3 -10  -1   11.88    0.84 
  10  -3  -1   10.94    0.81 
   3 -10   1   10.79    0.81 
  10  -3   1   10.69    0.80 
  -3 -10   2    2.61    0.37 
   3 -10   2    3.21    0.46 
  10  -3   2    3.54    0.48 
   3 -10  -2    3.36    0.49 
  10  -3  -2    3.36    0.47 
 -10  -3   3    9.77    0.70 
  -3 -10   3   10.69    0.78 
   3 -10   3   10.44    0.83 
   3 -10  -3   11.10    0.83 
  10  -3   3   11.20    0.83 
  10  -3  -3   11.38    0.86 
 -10  -3   4   17.23    1.02 
  -3 -10   4   18.13    1.07 
   3 -10   4   17.24    1.11 
  10  -3   4   18.54    1.07 
   3 -10  -4   18.41    1.08 
  10  -3  -4   19.01    1.15 
 -10  -3   5   14.49    1.01 
  10  -3  -5   15.85    1.11 
   3 -10   5   16.73    1.16 
  -3 -10   5   14.50    1.03 
  10  -3   5   14.96    1.00 
   3 -10  -5   14.75    1.05 
 -10  -3   6    5.27    0.69 
   3  10  -6    4.24    0.29 
  -3  10  -6    5.01    0.33 
  -3 -10   6    4.76    0.66 
 -10  -3  -6    4.57    0.32 
   3 -10   6    5.46    0.72 
  -3 -10  -6    4.88    0.33 
   3 -10  -6    4.93    0.66 
 -10  -3  -7    0.10    0.13 
   3 -10   7   -0.17    0.30 
 -10   3   7   -0.01    0.29 
 -10  -3   7    0.49    0.39 
   3  10  -7    0.27    0.14 
  -3 -10   7    0.00    0.26 
  -3  10  -7    0.19    0.15 
  -3 -10  -7    0.28    0.13 
   3 -10   8    3.20    0.65 
  -3  10   8    1.20    0.38 
 -10   3   8    1.74    0.51 
   3  10  -8    2.22    0.26 
 -10  -3   8    1.90    0.55 
  -3  10  -8    2.61    0.27 
  -3 -10  -8    2.09    0.25 
 -10  -3  -8    1.94    0.25 
  -3 -10   8    1.99    0.50 
 -10  -3  -9    0.14    0.15 
   3 -10   9    0.04    0.22 
 -10   3   9    0.29    0.31 
 -10  -3   9    0.03    0.28 
  -3 -10   9    0.10    0.30 
   3  10  -9    0.26    0.14 
  -3  10  -9    0.25    0.15 
  -3 -10  -9    0.34    0.15 
 -10   3 -10    0.31    0.17 
  -3  10 -10    0.09    0.16 
  -3 -10 -10    0.27    0.16 
   3  10 -10    0.33    0.16 
 -10  -3 -10    0.45    0.20 
  -3  10 -11    6.74    0.43 
   3  10 -11    6.57    0.41 
 -10  -3 -11    7.04    0.45 
 -10   3 -11    6.60    0.45 
  -3 -10 -11    5.68    0.38 
 -10   3 -12    2.16    0.27 
   3  10 -12    2.10    0.26 
  -3  10 -12    1.79    0.25 
  -3 -10 -12    1.54    0.21 
 -10  -3 -12    2.13    0.26 
 -10   3 -13    0.11    0.14 
   3  10 -13    0.44    0.16 
  -3  10 -13    0.29    0.16 
  -3 -10 -13    0.12    0.11 
 -10  -3 -13    0.39    0.18 
 -10   3 -14    0.24    0.14 
 -10  -3 -14    0.28    0.14 
  -3  10 -14    0.10    0.12 
   3  10 -14    0.07    0.12 
   3  10 -15    0.30    0.10 
  -3  10 -15    0.13    0.09 
 -10  -3 -15    0.09    0.09 
 -10   3 -15   -0.06    0.08 
 -10   4   0   31.05    1.32 
   4 -10   0   33.77    1.43 
  10  -4   0   33.41    1.45 
 -10   4  -1   20.96    1.09 
 -10   4   1   21.02    1.10 
   4 -10  -1   23.61    1.21 
  10  -4   1   22.91    1.16 
  10  -4  -1   23.13    1.22 
   4 -10   1   22.53    1.17 
  -4 -10   2    0.89    0.23 
 -10   4  -2    1.01    0.32 
   4 -10   2    0.98    0.32 
   4 -10  -2    0.98    0.32 
  10  -4  -2    1.10    0.35 
  10  -4   2    1.29    0.35 
  -4 -10   3    0.80    0.28 
   4 -10   3    1.18    0.35 
  10  -4   3    0.99    0.31 
  10  -4  -3    1.21    0.36 
   4 -10  -3    1.07    0.35 
 -10  -4   4    0.10    0.18 
   4 -10   4    0.31    0.30 
  10  -4   4    0.49    0.25 
  -4 -10   4    0.10    0.21 
   4 -10  -4    0.38    0.24 
  10  -4  -4    0.03    0.23 
  10  -4  -5    2.43    0.48 
   4 -10   5    3.01    0.53 
 -10  -4   5    3.04    0.49 
   4 -10  -5    2.04    0.42 
  10  -4   5    2.49    0.47 
  -4 -10   5    3.44    0.51 
   4 -10   6    1.11    0.38 
 -10  -4   6    0.73    0.32 
   4 -10  -6    1.42    0.39 
  10  -4   6    0.91    0.31 
  -4  10   6    1.20    0.41 
  -4 -10   6    0.72    0.29 
   4  10  -6    0.87    0.16 
  -4  10  -6    1.10    0.18 
  -4 -10  -6    0.91    0.17 
 -10  -4  -6    0.86    0.17 
 -10   4   7    1.25    0.46 
   4 -10   7    0.70    0.40 
 -10  -4   7    1.13    0.42 
   4 -10  -7    1.12    0.40 
  10  -4  -7    1.01    0.22 
   4  10  -7    1.00    0.18 
  -4 -10   7    0.20    0.28 
  -4  10  -7    0.93    0.18 
  -4 -10  -7    1.03    0.19 
 -10  -4  -7    1.06    0.19 
  -4  10   8    2.57    0.54 
   4 -10   8    4.14    0.70 
 -10   4   8    4.02    0.73 
   4  10  -8    4.27    0.33 
  10  -4  -8    4.47    0.37 
 -10  -4   8    4.36    0.78 
  -4  10  -8    4.57    0.34 
  -4 -10  -8    4.74    0.35 
 -10  -4  -8    4.60    0.35 
  -4 -10   8    2.67    0.50 
   4 -10   9    1.54    0.46 
 -10   4   9    1.27    0.47 
 -10  -4   9    0.94    0.32 
  -4 -10   9    1.38    0.46 
   4  10  -9    1.53    0.22 
  -4  10  -9    1.62    0.24 
  -4 -10  -9    1.67    0.24 
 -10  -4  -9    1.48    0.24 
  -4  10 -10    0.25    0.17 
   4  10 -10    0.42    0.17 
  -4 -10 -10    0.23    0.15 
 -10  -4 -10   -0.08    0.19 
 -10   4 -11   -0.10    0.18 
  -4  10 -11    0.04    0.15 
   4  10 -11   -0.07    0.15 
  -4 -10 -11   -0.07    0.15 
 -10  -4 -11   -0.20    0.19 
 -10   4 -12   -0.28    0.18 
   4  10 -12    0.26    0.16 
  -4  10 -12    0.10    0.15 
  -4 -10 -12    0.03    0.14 
 -10  -4 -12   -0.11    0.15 
 -10   4 -13    0.21    0.14 
  -4  10 -13   -0.08    0.14 
   4  10 -13    0.03    0.13 
  -4 -10 -13    0.03    0.12 
 -10  -4 -13    0.11    0.14 
 -10   4 -14    0.68    0.16 
  -4  10 -14    0.57    0.14 
  -4  10 -14    0.47    0.14 
   4  10 -14    0.59    0.15 
 -10  -4 -14    0.66    0.16 
  -4  10 -15    0.22    0.08 
  -4  10 -15    0.38    0.10 
 -10  -4 -15    0.31    0.10 
 -10   4 -15    0.16    0.09 
 -10   5   0    0.35    0.28 
  10  -5   0    0.41    0.31 
   5 -10   0    0.21    0.27 
   5 -10  -1    1.44    0.38 
  10  -5   1    1.38    0.37 
 -10   5  -1    1.22    0.37 
 -10   5   1    0.83    0.30 
  10  -5  -1    1.15    0.37 
   5 -10   1    1.46    0.39 
 -10   5  -2    5.74    0.61 
 -10   5   2    4.78    0.59 
  10  -5   2    6.00    0.66 
   5 -10  -2    5.96    0.66 
  10  -5  -2    6.09    0.66 
   5 -10   2    5.72    0.66 
 -10   5  -3   25.46    1.25 
 -10   5   3   26.66    1.34 
  10  -5   3   28.83    1.42 
   5 -10   3   25.14    1.34 
   5 -10  -3   27.47    1.41 
  10  -5  -3   25.77    1.37 
 -10   5  -4   33.45    1.41 
   5 -10   4   31.88    1.56 
  10  -5   4   31.99    1.54 
   5 -10  -4   30.43    1.52 
  -5 -10   4   31.28    1.39 
  10  -5  -4   30.85    1.53 
   5 -10   5   14.03    1.09 
  -5 -10   5   12.50    0.95 
  -5 -10  -5   13.58    0.53 
  10  -5   5   13.78    1.04 
   5 -10  -5   12.68    1.02 
  10  -5  -5   13.07    1.05 
 -10  -5  -6    2.11    0.25 
  -5  10   6    2.44    0.50 
   5 -10   6    2.10    0.52 
   5 -10  -6    1.67    0.43 
  -5 -10  -6    2.25    0.25 
  -5  10  -6    2.21    0.24 
 -10  -5   6    2.40    0.50 
  10  -5   6    1.83    0.44 
  10  -5  -6    2.13    0.27 
   5 -10  -6    2.00    0.24 
   5  10  -6    1.76    0.21 
  -5 -10   6    1.21    0.34 
  10  -5  -6    1.49    0.42 
   5 -10  -7    0.88    0.38 
  -5 -10  -7    1.13    0.20 
   5 -10   7    1.12    0.43 
  10  -5   7    1.21    0.39 
 -10  -5   7    1.28    0.41 
  10  -5  -7    0.61    0.19 
   5  10  -7    0.82    0.18 
  -5 -10   7   -0.11    0.34 
  -5  10  -7    1.05    0.19 
 -10  -5  -7    0.52    0.15 
 -10   5   8    0.50    0.38 
   5 -10   8    0.96    0.35 
 -10  -5   8    0.08    0.36 
  10  -5  -8    0.46    0.19 
   5  10  -8    0.32    0.16 
  -5  10  -8    0.48    0.19 
  -5 -10  -8    0.39    0.16 
 -10  -5  -8    0.56    0.19 
   5  10  -9    0.69    0.17 
  -5  10  -9    1.03    0.21 
  -5 -10  -9    0.88    0.20 
 -10  -5  -9    0.71    0.19 
   5  10 -10    3.25    0.31 
  -5  10 -10    3.25    0.31 
  -5 -10 -10    3.26    0.31 
 -10  -5 -10    3.32    0.33 
   5  10 -11    3.79    0.32 
  -5  10 -11    3.97    0.34 
  -5 -10 -11    3.70    0.32 
 -10  -5 -11    4.24    0.35 
 -10   5 -11    3.68    0.35 
  -5  10 -12    2.65    0.27 
   5  10 -12    2.38    0.26 
  -5 -10 -12    2.66    0.27 
 -10  -5 -12    3.39    0.31 
 -10   5 -12    2.87    0.29 
 -10   5 -13    0.60    0.17 
  -5  10 -13    0.79    0.17 
  -5 -10 -13    0.62    0.14 
 -10  -5 -13    0.85    0.19 
   5  10 -13    0.78    0.17 
 -10   5 -14    0.07    0.11 
  -5  10 -14    0.03    0.11 
   5  10 -14   -0.07    0.10 
  -5  10 -14    0.10    0.11 
  -5 -10 -14    0.14    0.10 
 -10  -5 -14    0.23    0.12 
 -10  -5 -15    0.10    0.08 
 -10   5 -15    0.04    0.08 
 -10   6   0    2.25    0.45 
  10  -6   0    3.01    0.49 
   6 -10   0    3.19    0.53 
  10  -6   1    0.28    0.27 
   6 -10  -1    0.33    0.23 
 -10   6  -1   -0.27    0.27 
 -10   6   1   -0.14    0.26 
  10  -6  -1    0.07    0.25 
   6 -10   1   -0.05    0.24 
 -10   6  -2    0.44    0.28 
 -10   6   2    0.35    0.24 
   6 -10  -2    0.65    0.32 
   6 -10   2    0.40    0.27 
  10  -6  -2   -0.18    0.28 
  10  -6   2    0.17    0.26 
  10  -6  -3    0.88    0.32 
 -10   6  -3    1.13    0.34 
 -10   6   3    0.99    0.35 
   6 -10  -3    1.14    0.36 
  10  -6   3    1.93    0.44 
   6 -10   3    1.83    0.43 
 -10   6  -4   -0.18    0.26 
 -10   6   4    0.34    0.25 
   6 -10   4    0.22    0.27 
  10  -6  -4    0.42    0.28 
  10  -6   4    0.24    0.31 
   6 -10  -4    0.05    0.24 
  -6  10   5    0.34    0.32 
  10  -6  -5    0.46    0.27 
   6 -10   5    0.30    0.27 
  10  -6   5    0.21    0.22 
  10  -6  -5    0.27    0.17 
   6 -10  -5    0.25    0.26 
  -6 -10  -5    0.20    0.15 
  -6  10  -5    0.14    0.13 
 -10  -6  -5    0.20    0.13 
   6 -10  -5    0.22    0.15 
  -6  10   6    0.06    0.29 
   6 -10   6   -0.05    0.25 
   6 -10  -6    0.01    0.28 
  -6  10  -6   -0.12    0.16 
   6 -10  -6   -0.06    0.15 
  10  -6  -6    0.14    0.26 
  10  -6  -6    0.01    0.17 
   6  10  -6    0.06    0.12 
  -6 -10   6    0.16    0.25 
  10  -6   6   -0.15    0.27 
  -6 -10  -6   -0.31    0.19 
 -10  -6  -6   -0.10    0.15 
   6 -10   7    0.95    0.45 
  10  -6   7    0.68    0.40 
  10  -6  -7    0.94    0.21 
   6 -10  -7    0.48    0.31 
  -6  10  -7    1.06    0.20 
  -6 -10   7    0.36    0.29 
   6  10  -7    0.74    0.16 
  -6 -10  -7    0.85    0.19 
 -10  -6  -7    0.97    0.19 
 -10   6   8    1.98    0.49 
   6 -10   8    2.05    0.55 
  10  -6  -8    1.61    0.26 
   6  10  -8    2.02    0.24 
  -6  10  -8    1.72    0.24 
  -6 -10   8    0.61    0.33 
  -6 -10  -8    2.07    0.26 
 -10  -6  -8    1.68    0.26 
   6  10  -9    1.38    0.22 
  -6  10  -9    1.17    0.21 
  -6 -10  -9    1.21    0.22 
 -10  -6  -9    1.15    0.22 
   6  10 -10    1.53    0.25 
  -6  10 -10    1.85    0.25 
  -6 -10 -10    2.00    0.26 
 -10  -6 -10    1.67    0.25 
  -6  10 -11    0.41    0.17 
   6  10 -11    0.53    0.18 
  -6 -10 -11    0.23    0.15 
 -10  -6 -11    0.26    0.16 
 -10   6 -12    0.05    0.15 
   6  10 -12   -0.05    0.13 
  -6  10 -12   -0.14    0.14 
  -6 -10 -12   -0.12    0.17 
 -10  -6 -12   -0.13    0.16 
 -10   6 -13   -0.08    0.13 
  -6  10 -13    0.09    0.12 
   6  10 -13   -0.04    0.11 
  -6 -10 -13   -0.02    0.13 
 -10  -6 -13    0.10    0.14 
 -10   6 -14    0.10    0.10 
  -6  10 -14   -0.09    0.11 
   6  10 -14    0.04    0.09 
  -6  10 -14   -0.04    0.11 
  -6 -10 -14    0.10    0.09 
 -10  -6 -14   -0.03    0.11 
 -10   6 -15    0.01    0.07 
 -10   7   0    0.27    0.25 
  10  -7   0   -0.08    0.22 
   7 -10   0    0.09    0.23 
 -10   7  -1    7.08    0.72 
 -10   7   1    7.63    0.77 
   7 -10  -1    7.81    0.80 
   7 -10   1    8.12    0.80 
  10  -7   1    8.59    0.83 
  10  -7  -1    7.54    0.77 
 -10   7  -2   10.43    0.88 
 -10   7   2    8.93    0.83 
   7 -10   2   10.23    0.90 
  10  -7   2   10.23    0.91 
   7 -10  -2   10.22    0.91 
  10  -7  -2    9.60    0.89 
 -10   7  -3    5.69    0.67 
 -10   7   3    5.96    0.70 
   7 -10   3    6.42    0.73 
  10  -7   3    6.08    0.73 
   7 -10  -3    7.06    0.80 
  10  -7  -3    5.91    0.71 
  -7  10   4    8.15    0.85 
 -10   7  -4    7.05    0.75 
 -10   7   4    7.47    0.81 
  10  -7  -4    7.28    0.45 
   7 -10   4    7.11    0.81 
  10  -7   4    7.96    0.84 
   7 -10  -4    7.60    0.43 
  -7 -10  -4    7.98    0.43 
 -10  -7  -4    6.53    0.38 
   7 -10  -4    6.48    0.77 
  10  -7  -4    6.65    0.76 
  -7  10   5    6.45    0.78 
  10  -7  -5    6.62    0.44 
   7 -10  -5    6.54    0.41 
   7 -10   5    6.07    0.78 
  -7  10  -5    5.40    0.34 
  -7 -10  -5    6.40    0.39 
 -10  -7  -5    6.39    0.39 
   7 -10  -5    6.65    0.81 
  10  -7   5    5.86    0.75 
  10  -7  -5    5.68    0.74 
  -7  10   6   22.29    1.42 
  10  -7  -6   25.59    0.83 
  -7  10  -6   23.40    0.71 
   7 -10   6   23.63    1.53 
   7 -10  -6   23.92    0.78 
  10  -7   6   23.55    1.49 
 -10  -7  -6   25.94    0.77 
  -7 -10  -6   24.60    0.76 
   7 -10  -6   20.91    1.44 
  10  -7  -6   23.25    1.51 
   7 -10  -7    7.21    0.90 
  10  -7  -7    8.19    0.49 
  -7 -10  -7    8.32    0.46 
   7 -10  -7    7.03    0.44 
   7 -10   7    6.75    0.89 
  10  -7   7    6.86    0.86 
 -10  -7  -7    8.18    0.46 
  -7  10  -7    8.11    0.44 
  -7 -10  -8    0.37    0.16 
  10  -7  -8    0.21    0.17 
   7  10  -8    0.24    0.15 
  -7  10  -8    0.31    0.14 
 -10  -7  -8    0.48    0.19 
   7  10  -9    7.45    0.42 
  -7  10  -9    8.50    0.46 
  -7 -10  -9    9.13    0.50 
 -10  -7  -9    8.49    0.48 
   7  10 -10    4.85    0.35 
  -7  10 -10    4.63    0.36 
 -10  -7 -10    5.23    0.39 
  -7 -10 -10    4.79    0.37 
   7  10 -11    1.23    0.21 
  -7  10 -11    1.03    0.20 
  -7 -10 -11    1.27    0.21 
 -10  -7 -11    1.32    0.22 
   7  10 -12    1.51    0.20 
  -7  10 -12    1.73    0.22 
 -10   7 -12    2.07    0.26 
  -7 -10 -12    1.63    0.22 
 -10  -7 -12    2.02    0.25 
 -10   7 -13    1.16    0.19 
   7  10 -13    0.50    0.13 
  -7  10 -13    0.98    0.16 
  -7 -10 -13    0.81    0.15 
 -10  -7 -13    0.90    0.17 
 -10   7 -14    1.27    0.17 
  -7  10 -14    0.93    0.14 
  -7  10 -14    0.69    0.11 
  -7 -10 -14    0.82    0.13 
 -10  -7 -14    1.32    0.16 
 -10   8   0   31.62    1.57 
  10  -8   0   31.56    1.60 
   8 -10   0   31.23    1.56 
 -10   8  -1   17.89    1.18 
 -10   8   1   18.20    1.20 
   8 -10   1   18.71    1.24 
  10  -8   1   17.25    1.21 
   8 -10  -1   17.85    1.20 
  10  -8  -1   17.20    1.22 
  -8  10   2    8.08    0.87 
 -10   8  -2    7.83    0.81 
 -10   8   2    7.06    0.78 
   8 -10  -2    6.90    0.42 
  10  -8  -2    6.71    0.41 
   8 -10   2    6.97    0.79 
  10  -8   2    8.44    0.87 
   8 -10  -2    7.90    0.84 
  10  -8  -2    6.99    0.84 
  -8  10   3    5.15    0.72 
 -10   8  -3    5.10    0.67 
 -10   8   3    5.41    0.71 
   8 -10  -3    5.02    0.37 
  10  -8  -3    5.12    0.37 
  -8 -10  -3    5.23    0.36 
   8 -10   3    5.27    0.71 
  10  -8   3    6.05    0.77 
 -10  -8  -3    4.94    0.34 
   8 -10  -3    4.86    0.70 
  10  -8  -3    5.05    0.69 
  -8  10   4    8.86    0.91 
 -10   8  -4    8.02    0.83 
 -10   8   4    8.05    0.86 
   8 -10  -4    9.47    0.49 
   8 -10   4    8.39    0.89 
  10  -8   4    8.23    0.89 
  10  -8  -4    9.04    0.49 
  -8 -10  -4    9.45    0.47 
 -10  -8  -4    9.15    0.46 
   8 -10  -4    8.16    0.87 
  10  -8  -4    8.81    0.91 
  10  -8   5    5.85    0.79 
 -10   8   5    5.20    0.74 
  -8  10   5    4.79    0.68 
   8 -10  -5    6.16    0.42 
  10  -8  -5    6.24    0.42 
  -8  10  -5    5.20    0.34 
  -8 -10  -5    5.94    0.39 
 -10  -8  -5    6.33    0.40 
   8 -10   5    4.80    0.70 
   8 -10  -5    4.73    0.71 
  10  -8  -5    4.81    0.71 
   8 -10  -6    0.32    0.30 
   8 -10   6    0.00    0.29 
   8 -10  -6    0.56    0.21 
  10  -8  -6    0.25    0.18 
  10  -8   6    0.47    0.34 
  -8  10  -6    0.39    0.15 
  -8 -10  -6    0.43    0.17 
 -10  -8  -6    0.37    0.15 
  -8  10   6   -0.25    0.40 
  10  -8  -6    0.47    0.37 
  -8  10  -7    2.77    0.28 
  10  -8  -7    2.97    0.32 
   8 -10   7    2.50    0.59 
  10  -8   7    2.07    0.48 
   8 -10  -7    2.66    0.30 
  -8 -10  -7    2.75    0.28 
 -10  -8  -7    2.72    0.29 
   8 -10  -7    2.58    0.61 
  10  -8  -8    1.49    0.26 
  -8  10  -8    1.22    0.21 
  -8 -10  -8    1.32    0.22 
 -10  -8  -8    1.43    0.23 
  -8  10  -9    0.72    0.18 
  -8 -10  -9    0.80    0.20 
 -10  -8  -9    0.81    0.21 
  -8  10 -10    1.93    0.24 
  -8 -10 -10    1.83    0.26 
 -10  -8 -10    2.00    0.26 
  -8  10 -11    0.40    0.15 
  -8 -10 -11    0.03    0.16 
 -10  -8 -11    0.38    0.17 
 -10   8 -12    0.15    0.14 
  -8  10 -12    0.15    0.12 
 -10  -8 -12    0.05    0.14 
  -8 -10 -12   -0.18    0.16 
 -10   8 -13    0.07    0.12 
  -8  10 -13    0.06    0.12 
  -8  10 -13   -0.12    0.12 
 -10  -8 -13   -0.08    0.13 
  -8 -10 -13   -0.10    0.12 
 -10   8 -14    0.02    0.09 
  -8  10 -14    0.07    0.09 
  -8 -10 -14   -0.05    0.08 
 -10  -8 -14    0.06    0.09 
   9 -10   0    0.20    0.23 
  -9  10   0    0.19    0.30 
 -10   9   0    0.12    0.33 
   9 -10   0    0.14    0.15 
  10  -9   0    0.24    0.28 
  10  -9   0   -0.11    0.17 
  -9  10  -1   11.21    1.01 
  -9  10   1    9.81    0.94 
 -10   9  -1    9.94    0.94 
 -10   9   1    9.55    0.91 
   9 -10  -1   10.10    0.49 
  10  -9   1    9.14    0.47 
  10  -9  -1    9.74    0.50 
  -9 -10  -1    8.84    0.44 
   9 -10   1    9.04    0.48 
   9 -10   1   10.07    0.95 
  10  -9   1   10.66    0.98 
   9 -10  -1    9.21    0.94 
  10  -9  -1    9.67    0.95 
  -9  10  -2   21.27    1.40 
  -9  10   2   18.99    1.30 
 -10   9  -2   19.91    1.30 
 -10   9   2   18.50    1.27 
  10  -9   2   16.96    0.64 
   9 -10  -2   18.62    0.66 
   9 -10   2   17.19    0.64 
   9 -10   2   19.30    1.31 
  10  -9   2   19.60    1.33 
  -9 -10  -2   18.34    0.63 
 -10  -9  -2   16.92    0.60 
  10  -9  -2   18.10    0.67 
   9 -10  -2   18.73    1.32 
  10  -9  -2   18.91    1.35 
  -9  10  -3   15.43    1.21 
  -9  10   3   14.60    1.17 
 -10   9  -3   14.07    1.13 
 -10   9   3   13.89    1.14 
   9 -10  -3   13.55    0.58 
   9 -10   3   13.55    1.13 
  10  -9   3   14.63    1.19 
  -9 -10  -3   14.00    0.56 
 -10  -9  -3   13.77    0.56 
   9 -10  -3   13.60    1.17 
  10  -9  -3   11.77    1.06 
  10  -9  -3   12.95    0.58 
   9 -10   3   12.21    0.54 
  -9  10  -4    6.81    0.82 
 -10   9  -4    5.21    0.73 
  -9  10   4    6.32    0.83 
  10  -9  -4    6.12    0.41 
   9 -10  -4    6.86    0.44 
  -9 -10  -4    6.64    0.42 
  10  -9  -4    5.08    0.73 
   9 -10   4    6.31    0.83 
  10  -9   4    5.93    0.80 
   9 -10  -4    4.27    0.73 
 -10  -9  -4    7.20    0.44 
 -10   9   4    4.83    0.70 
   9 -10  -5    6.49    0.43 
 -10   9   5    5.23    0.76 
  10  -9   5    6.43    0.86 
   9 -10   5    5.04    0.76 
  10  -9  -5    5.67    0.40 
  -9  10   5    4.92    0.72 
  -9 -10  -5    6.49    0.41 
 -10  -9  -5    6.50    0.40 
   9 -10  -5    5.40    0.79 
  10  -9  -5    6.41    0.87 
  -9  10   6   -0.06    0.35 
   9 -10  -6    0.61    0.22 
   9 -10  -6    0.54    0.28 
   9 -10   6    0.10    0.30 
  10  -9  -6    0.26    0.18 
  10  -9   6    0.33    0.30 
  10  -9  -6    0.45    0.28 
  -9 -10  -6    0.60    0.18 
 -10  -9  -6    0.88    0.20 
   9 -10  -7   -0.14    0.19 
  10  -9  -7    0.35    0.21 
  -9 -10  -7    0.20    0.17 
 -10  -9  -7    0.03    0.15 
   9 -10  -8    0.09    0.16 
  10  -9  -8    0.45    0.19 
  -9 -10  -8    0.66    0.20 
 -10  -9  -8    0.47    0.17 
  -9  10  -9    0.25    0.15 
  -9 -10  -9    0.07    0.16 
 -10  -9  -9    0.02    0.16 
  -9  10 -10    0.19    0.13 
  -9 -10 -10    0.61    0.17 
 -10  -9 -10    0.62    0.18 
  -9 -10 -11    1.66    0.23 
 -10  -9 -11    1.94    0.24 
 -10   9 -12    1.23    0.20 
 -10  -9 -12    1.04    0.17 
  -9 -10 -12    0.94    0.17 
 -10   9 -13    0.89    0.16 
  -9  10 -13    0.67    0.15 
  -9 -10 -13    0.78    0.14 
 -10  -9 -13    0.72    0.14 
 -10   9 -14    0.07    0.08 
  -9  10 -14    0.03    0.07 
  -9 -10 -14    0.03    0.07 
 -10  -9 -14   -0.01    0.07 
 -10  10   0   40.82    1.91 
  10 -10   0   44.03    1.04 
  10 -10   0   43.45    2.02 
 -10  10  -1   28.07    1.63 
 -10  10   1   28.70    1.62 
  10 -10  -1   28.43    0.85 
  10 -10   1   29.75    0.86 
  10 -10   1   29.55    1.66 
 -10 -10  -1   26.29    0.75 
  10 -10  -1   29.31    1.68 
 -10  10  -2    2.76    0.56 
 -10  10   2    2.49    0.58 
 -10 -10  -2    2.25    0.27 
  10 -10   2    2.54    0.29 
  10 -10  -2    2.48    0.30 
  10 -10  -2    2.44    0.55 
  10 -10   2    1.62    0.48 
 -10  10  -3    1.48    0.48 
 -10  10   3    1.20    0.45 
 -10 -10  -3    1.25    0.24 
  10 -10   3    1.33    0.23 
  10 -10  -3    1.04    0.23 
  10 -10  -3    0.98    0.46 
  10 -10   3    1.12    0.38 
 -10  10  -4    0.42    0.35 
 -10  10   4    0.09    0.37 
  10 -10  -4    0.74    0.41 
  10 -10  -4    0.63    0.21 
  10 -10   4    0.43    0.36 
 -10 -10  -4    0.39    0.16 
 -10  10   5    0.30    0.35 
  10 -10  -5    0.64    0.22 
  10 -10   5    0.81    0.41 
  10 -10  -5    0.10    0.29 
 -10 -10  -5    0.42    0.15 
  10 -10  -6    0.50    0.20 
  10 -10   6    0.78    0.38 
 -10 -10  -6    0.18    0.16 
  10 -10  -7    3.07    0.33 
 -10 -10  -7    3.04    0.30 
  10 -10  -8    1.44    0.24 
 -10 -10  -8    1.86    0.25 
 -10 -10  -9   -0.14    0.16 
 -10 -10 -10    0.23    0.16 
 -10 -10 -11   -0.23    0.16 
 -10  10 -12    0.04    0.13 
 -10 -10 -12   -0.22    0.14 
 -10  10 -13    0.00    0.10 
 -10 -10 -13    0.02    0.10 
  11   0   0    0.09    0.19 
   0 -11   0   -0.08    0.21 
   0 -11   1   57.87    1.82 
   0 -11  -1   57.89    1.73 
  11   0  -1   61.77    1.79 
  11   0  -2   38.48    1.48 
   0 -11   2   37.44    1.49 
   0 -11  -2   35.16    1.35 
   0 -11   3   73.93    2.20 
   0 -11  -3   70.99    1.94 
   0 -11   4   17.33    1.13 
 -11   0   4   17.68    1.13 
   0 -11   5    4.52    0.66 
 -11   0   5    5.05    0.65 
   0 -11   6    3.30    0.54 
 -11   0   6    3.75    0.63 
   0 -11  -6    2.69    0.25 
   0  11  -6    3.17    0.27 
 -11   0  -6    2.64    0.25 
 -11   0   7    5.03    0.80 
   0  11  -7    4.66    0.33 
   0 -11  -7    4.21    0.31 
 -11   0  -7    4.75    0.35 
   0 -11   7    4.41    0.70 
   0  11  -8    3.73    0.31 
   0 -11  -8    3.68    0.30 
 -11   0   8    3.83    0.73 
 -11   0  -8    3.65    0.33 
   0 -11   8    2.84    0.60 
   0 -11  -9    8.46    0.43 
   0  11  -9    9.79    0.49 
 -11   0  -9   10.02    0.53 
   0  11 -10   13.46    0.59 
 -11   0 -10   14.74    0.63 
   0  11 -11   12.55    0.56 
 -11   0 -11   13.04    0.59 
   0  11 -12    6.25    0.40 
 -11   0 -12    6.02    0.40 
   0  11 -13    0.20    0.14 
 -11   0 -13    0.34    0.15 
   0  11 -14    0.22    0.13 
 -11   0 -14    0.30    0.12 
   0  11 -15    0.09    0.08 
 -11   0 -15    0.19    0.09 
   1 -11   0   16.98    0.99 
  -1 -11   0   15.37    0.88 
  11  -1   0   16.27    0.91 
  -1 -11   1    0.36    0.23 
   1 -11   1    0.85    0.30 
  11  -1  -1    0.73    0.27 
  11  -1   1    0.86    0.29 
   1 -11  -1    0.45    0.23 
  -1 -11  -1    0.39    0.19 
  11  -1  -2    1.17    0.32 
   1 -11  -2    1.09    0.32 
  -1 -11   2    0.90    0.33 
   1 -11   2    1.41    0.37 
  -1 -11  -2    0.42    0.20 
  11  -1  -3    5.05    0.62 
  -1 -11   3    4.65    0.60 
   1 -11   3    4.69    0.59 
   1 -11  -3    4.57    0.55 
 -11  -1   3    4.40    0.54 
  -1 -11   4    1.40    0.40 
 -11  -1   4    1.65    0.38 
   1 -11   4    1.12    0.32 
   1 -11  -4    1.24    0.33 
  -1 -11   5    0.63    0.31 
   1 -11  -5    0.40    0.30 
 -11   1   5    0.33    0.30 
   1 -11   5    0.28    0.22 
 -11  -1   5    0.82    0.37 
 -11  -1  -6    0.23    0.12 
   1 -11   6    0.19    0.30 
 -11   1  -6    0.26    0.13 
 -11   1   6    0.07    0.31 
 -11  -1   6    0.92    0.39 
  -1 -11  -6    0.21    0.12 
   1  11  -6    0.21    0.12 
  -1  11  -6    0.20    0.13 
  -1 -11   6    0.12    0.30 
 -11  -1   7    6.66    0.87 
   1  11  -7    6.80    0.40 
  -1  11  -7    6.59    0.39 
  -1 -11   7    6.26    0.82 
   1 -11   7    7.54    0.89 
  -1 -11  -7    6.42    0.38 
 -11  -1  -7    6.62    0.40 
 -11   1  -7    6.87    0.42 
 -11   1   7    6.50    0.87 
   1 -11   8   -0.10    0.35 
 -11  -1  -8    0.07    0.14 
 -11   1  -8    0.29    0.15 
 -11   1   8    0.22    0.44 
 -11  -1   8    0.70    0.41 
   1  11  -8    0.14    0.15 
  -1  11  -8    0.32    0.15 
  -1 -11  -8    0.12    0.14 
  -1 -11   8    0.36    0.32 
 -11  -1  -9    1.57    0.24 
 -11   1  -9    1.51    0.24 
   1  11  -9    1.36    0.22 
  -1  11  -9    1.19    0.21 
  -1 -11  -9    1.20    0.19 
 -11  -1 -10    0.13    0.16 
 -11   1 -10    0.06    0.17 
   1  11 -10    0.45    0.18 
  -1  11 -10    0.33    0.17 
  -1 -11 -10    0.19    0.14 
 -11  -1 -11    0.03    0.17 
   1  11 -11    0.17    0.18 
 -11   1 -11   -0.04    0.17 
  -1  11 -11   -0.03    0.15 
 -11   1 -12   -0.10    0.16 
   1  11 -12    0.00    0.15 
  -1  11 -12   -0.08    0.14 
 -11  -1 -12    0.10    0.15 
   1  11 -13    0.44    0.16 
  -1  11 -13    0.57    0.16 
 -11  -1 -13    0.47    0.16 
 -11   1 -13    0.62    0.17 
   1  11 -14    0.34    0.14 
  -1  11 -14    0.35    0.13 
 -11  -1 -14    0.19    0.12 
 -11   1 -14    0.21    0.12 
   1  11 -15    0.31    0.10 
  -1  11 -15    0.44    0.10 
 -11  -1 -15    0.32    0.10 
 -11   1 -15    0.27    0.09 
  -2 -11   0    0.05    0.20 
   2 -11   0    0.22    0.24 
  11  -2   0    0.25    0.29 
  11  -2  -1    0.32    0.23 
  11  -2   1    0.37    0.25 
   2 -11   1    0.37    0.28 
  -2 -11   1    0.16    0.19 
   2 -11  -1    0.21    0.21 
   2 -11   2   39.30    1.59 
  -2 -11   2   37.21    1.44 
   2 -11  -2   38.81    1.55 
  11  -2   2   38.94    1.48 
  11  -2  -2   38.57    1.57 
   2 -11   3   30.98    1.48 
  -2 -11   3   30.41    1.38 
   2 -11  -3   30.07    1.41 
  11  -2  -3   32.29    1.49 
 -11  -2   3   28.62    1.27 
  11  -2  -4   16.86    1.13 
  -2 -11   4   17.20    1.10 
   2 -11   4   17.27    1.15 
   2 -11  -4   16.91    1.05 
 -11  -2   4   16.56    1.07 
   2 -11   5    0.89    0.35 
 -11  -2   5    1.35    0.37 
   2 -11  -5    1.58    0.39 
  -2 -11   5    1.02    0.37 
 -11  -2  -6    1.11    0.18 
 -11   2   6    1.38    0.47 
   2 -11   6    1.09    0.37 
   2 -11  -6    1.27    0.40 
  -2 -11   6    1.04    0.39 
 -11  -2   6    1.61    0.49 
  -2 -11  -6    1.43    0.20 
   2  11  -6    1.13    0.18 
  -2  11  -6    1.16    0.19 
 -11  -2  -7   -0.14    0.15 
   2 -11   7    0.28    0.35 
 -11   2  -7    0.29    0.15 
 -11   2   7   -0.02    0.31 
 -11  -2   7    0.18    0.28 
  -2  11  -7   -0.13    0.15 
   2  11  -7   -0.01    0.17 
  -2 -11  -7   -0.12    0.14 
  -2 -11   7    0.02    0.27 
   2 -11   8    2.94    0.65 
 -11   2   8    2.85    0.69 
  -2 -11  -8    2.69    0.28 
   2  11  -8    2.79    0.28 
 -11  -2   8    3.41    0.71 
 -11  -2  -8    2.76    0.29 
 -11   2  -8    3.11    0.32 
  -2  11  -8    3.01    0.29 
  -2 -11   8    2.87    0.60 
 -11  -2  -9    1.65    0.26 
 -11   2  -9    1.96    0.27 
  -2 -11  -9    1.92    0.24 
   2  11  -9    1.61    0.23 
  -2  11  -9    1.39    0.22 
   2  11 -10    3.96    0.35 
  -2  11 -10    4.19    0.35 
  -2 -11 -10    4.08    0.33 
 -11  -2 -10    4.40    0.37 
 -11   2 -10    4.15    0.36 
  -2  11 -11    7.57    0.45 
  -2 -11 -11    6.39    0.37 
 -11  -2 -11    7.29    0.45 
 -11   2 -11    7.54    0.46 
   2  11 -11    7.18    0.43 
 -11   2 -12    1.80    0.24 
   2  11 -12    1.56    0.23 
  -2  11 -12    1.73    0.24 
  -2 -11 -12    1.35    0.18 
 -11  -2 -12    1.85    0.25 
 -11   2 -13    0.28    0.15 
   2  11 -13    0.43    0.15 
  -2  11 -13    0.36    0.14 
 -11  -2 -13    0.53    0.15 
  -2  11 -14    0.97    0.16 
   2  11 -14    0.57    0.13 
 -11  -2 -14    0.71    0.15 
 -11   2 -14    0.72    0.15 
   2  11 -15   -0.03    0.07 
  -2  11 -15   -0.01    0.08 
 -11  -2 -15   -0.07    0.08 
 -11   2 -15    0.02    0.08 
   3 -11   0   32.10    1.45 
  11  -3   0   32.40    1.45 
   3 -11   1   19.42    1.13 
   3 -11  -1   20.40    1.14 
  11  -3   1   20.69    1.15 
  11  -3  -1   19.75    1.13 
  -3 -11   2   10.80    0.78 
   3 -11   2   10.69    0.87 
  11  -3  -2   11.90    0.90 
  11  -3   2   12.05    0.89 
   3 -11  -2   11.86    0.91 
  -3 -11   3    1.60    0.35 
   3 -11   3    1.43    0.40 
   3 -11  -3    1.76    0.42 
  11  -3  -3    1.65    0.38 
  11  -3   3    1.77    0.38 
  -3 -11   4    0.82    0.30 
 -11  -3   4    0.54    0.27 
   3 -11   4    1.01    0.33 
  11  -3  -4    0.55    0.27 
  11  -3   4    0.60    0.26 
   3 -11  -4    0.75    0.28 
  11  -3  -5    1.36    0.37 
   3 -11   5    0.64    0.34 
 -11  -3   5    0.50    0.26 
   3 -11  -5    0.44    0.22 
  -3 -11  -5    0.65    0.16 
   3  11  -5    0.42    0.14 
  -3 -11   5    0.74    0.29 
   3 -11   6    1.07    0.42 
  -3 -11   6    1.25    0.19 
 -11  -3   6    1.66    0.43 
   3 -11  -6    1.20    0.37 
   3  11  -6    1.13    0.18 
  -3 -11  -6    1.35    0.20 
  -3  11  -6    1.34    0.20 
  -3 -11   6    0.96    0.34 
 -11  -3  -6    1.07    0.19 
  -3  11  -7    1.08    0.19 
 -11   3   7    0.53    0.37 
   3 -11   7    0.42    0.29 
 -11  -3   7    0.54    0.38 
   3  11  -7    1.15    0.21 
  -3 -11  -7    0.91    0.18 
  -3 -11   7    0.78    0.26 
 -11  -3  -7    1.10    0.20 
   3 -11   8    0.23    0.38 
 -11   3   8    0.76    0.49 
 -11  -3   8   -0.09    0.40 
  11  -3  -8    0.51    0.20 
   3  11  -8    0.58    0.17 
  -3  11  -8    0.61    0.18 
  -3 -11  -8    0.62    0.18 
  -3 -11   8    0.38    0.33 
 -11  -3  -8    0.59    0.17 
 -11   3  -9    0.00    0.15 
   3  11  -9   -0.05    0.15 
  -3  11  -9   -0.37    0.20 
  -3 -11  -9   -0.10    0.17 
 -11  -3  -9   -0.25    0.20 
 -11   3 -10    0.05    0.16 
   3  11 -10    0.16    0.16 
  -3  11 -10   -0.04    0.16 
  -3 -11 -10   -0.14    0.16 
 -11  -3 -10   -0.07    0.16 
 -11   3 -11    0.04    0.16 
  -3  11 -11    0.18    0.17 
   3  11 -11    0.41    0.17 
  -3 -11 -11    0.49    0.15 
 -11  -3 -11   -0.03    0.16 
 -11   3 -12    0.53    0.18 
   3  11 -12    0.41    0.16 
  -3  11 -12    0.35    0.16 
  -3 -11 -12    0.31    0.14 
 -11  -3 -12    0.61    0.19 
 -11   3 -13    0.70    0.17 
   3  11 -13    0.92    0.18 
  -3  11 -13    0.79    0.18 
 -11  -3 -13    0.74    0.17 
  -3  11 -14    0.23    0.11 
   3  11 -14    0.06    0.11 
  -3  11 -14    0.20    0.12 
 -11  -3 -14    0.24    0.12 
 -11   3 -14    0.18    0.11 
 -11  -3 -15   -0.02    0.07 
 -11   3 -15   -0.01    0.08 
  11  -4   0    0.37    0.32 
   4 -11   0   -0.08    0.25 
   4 -11   1    4.18    0.62 
   4 -11  -1    4.63    0.60 
  11  -4   1    5.16    0.66 
  11  -4  -1    5.65    0.67 
   4 -11   2    5.08    0.62 
  11  -4   2    6.66    0.68 
   4 -11  -2    6.37    0.70 
  11  -4  -2    5.09    0.63 
  -4 -11   3   13.67    0.91 
   4 -11   3   13.60    1.01 
  11  -4   3   14.91    1.03 
   4 -11  -3   15.44    1.08 
  11  -4  -3   14.43    1.05 
  -4 -11   4    8.52    0.76 
   4 -11   4    8.68    0.87 
  11  -4   4    9.87    0.88 
   4 -11  -4    9.08    0.85 
  11  -4  -4    8.39    0.84 
  -4 -11   5    2.68    0.25 
   4 -11  -5    2.65    0.26 
   4 -11   5    2.64    0.54 
  -4  11  -5    2.99    0.25 
  11  -4  -5    3.32    0.59 
  -4 -11  -5    3.09    0.27 
   4  11  -5    2.02    0.21 
   4 -11  -5    2.66    0.49 
  11  -4   5    2.40    0.48 
 -11  -4  -5    2.35    0.24 
  -4 -11   5    2.52    0.49 
  -4  11   6    0.46    0.32 
   4 -11   6    0.29    0.29 
   4 -11  -6   -0.11    0.26 
   4 -11  -6   -0.13    0.15 
   4  11  -6    0.05    0.12 
  -4 -11  -6    0.03    0.15 
  -4  11  -6    0.06    0.13 
  -4 -11   6    0.07    0.21 
 -11  -4  -6    0.06    0.12 
 -11   4   7    0.20    0.30 
   4 -11   7    0.50    0.29 
 -11  -4   7   -0.05    0.31 
   4 -11  -7    0.31    0.30 
  11  -4  -7   -0.08    0.17 
   4  11  -7    0.11    0.13 
  -4  11  -7    0.07    0.14 
  -4 -11  -7    0.07    0.14 
  -4 -11   7   -0.04    0.26 
 -11  -4  -7    0.07    0.13 
  -4  11   8    0.39    0.36 
 -11   4   8   -0.18    0.38 
   4 -11   8   -0.09    0.36 
   4  11  -8   -0.01    0.14 
 -11  -4   8    0.63    0.41 
  11  -4  -8    0.17    0.17 
  -4  11  -8    0.08    0.14 
  -4 -11  -8    0.09    0.15 
  -4 -11   8   -0.16    0.36 
 -11  -4  -8   -0.03    0.15 
   4  11  -9    0.95    0.19 
  -4  11  -9    1.18    0.21 
  -4 -11  -9    1.41    0.22 
 -11  -4  -9    1.13    0.22 
   4  11 -10    2.67    0.28 
  -4 -11 -10    2.44    0.27 
  -4  11 -10    2.31    0.27 
 -11   4 -10    2.89    0.31 
 -11  -4 -10    2.13    0.28 
 -11   4 -11    1.14    0.23 
   4  11 -11    1.22    0.22 
  -4  11 -11    1.12    0.21 
  -4 -11 -11    0.86    0.19 
 -11  -4 -11    0.93    0.21 
 -11   4 -12    0.27    0.16 
   4  11 -12    0.26    0.15 
  -4  11 -12    0.09    0.14 
  -4 -11 -12    0.36    0.14 
 -11  -4 -12    0.18    0.16 
 -11   4 -13    0.21    0.13 
   4  11 -13   -0.02    0.11 
  -4  11 -13    0.20    0.13 
  -4 -11 -13    0.03    0.10 
 -11  -4 -13    0.11    0.13 
  -4  11 -14    0.21    0.11 
   4  11 -14    0.01    0.10 
  -4  11 -14    0.07    0.11 
 -11  -4 -14    0.09    0.12 
 -11   4 -14   -0.05    0.11 
 -11   4 -15   -0.09    0.08 
 -11   5   0   28.20    1.38 
   5 -11   0   29.99    1.47 
  11  -5   0   29.37    1.48 
 -11   5  -1   35.19    1.53 
 -11   5   1   33.65    1.51 
  11  -5   1   36.94    1.64 
   5 -11   1   36.21    1.61 
   5 -11  -1   36.38    1.62 
  11  -5  -1   38.02    1.69 
  11  -5   2   10.58    0.92 
 -11   5  -2    9.49    0.81 
   5 -11   2   10.45    0.89 
  11  -5  -2    9.91    0.87 
   5 -11  -2    9.66    0.87 
  11  -5  -3   -0.14    0.30 
   5 -11   3    0.34    0.23 
   5 -11  -3   -0.06    0.25 
  11  -5   3   -0.28    0.33 
  -5 -11   4    5.55    0.36 
   5 -11  -4    5.35    0.36 
   5 -11   4    6.06    0.74 
  11  -5   4    6.04    0.73 
  -5 -11  -4    5.71    0.36 
   5 -11  -4    5.59    0.69 
  11  -5  -4    6.36    0.76 
   5 -11   5   11.04    1.01 
   5  11  -5    9.32    0.43 
  11  -5  -5   11.37    0.56 
   5 -11  -5   10.92    0.51 
  -5 -11   5   10.40    0.49 
  11  -5   5   11.18    0.98 
  -5  11  -5   11.84    0.49 
  -5 -11  -5   12.04    0.52 
 -11  -5  -5    9.79    0.46 
   5 -11  -5   10.82    0.99 
  11  -5  -5   11.25    1.02 
  -5  11   6    4.93    0.72 
  -5  11  -6    5.10    0.34 
  11  -5  -6    5.15    0.39 
   5 -11  -6    5.00    0.70 
   5 -11   6    4.79    0.73 
   5 -11  -6    4.16    0.33 
  -5 -11  -6    5.66    0.37 
 -11  -5  -6    4.58    0.33 
  11  -5  -6    4.45    0.69 
   5  11  -6    4.13    0.30 
  -5 -11   6    3.88    0.60 
  -5  11  -7    2.63    0.27 
   5  11  -7    2.68    0.27 
   5 -11   7    2.68    0.58 
  11  -5  -7    2.57    0.32 
   5 -11  -7    1.88    0.45 
  -5 -11  -7    2.57    0.26 
 -11  -5  -7    2.31    0.26 
  -5 -11   7    1.84    0.44 
  -5  11   8    1.77    0.42 
 -11   5   8    3.46    0.72 
   5 -11   8    4.07    0.68 
   5  11  -8    4.11    0.33 
  11  -5  -8    4.26    0.38 
  -5  11  -8    4.45    0.35 
  -5 -11  -8    4.63    0.36 
 -11  -5  -8    4.35    0.35 
  -5 -11   8    2.01    0.41 
  -5  11  -9    2.95    0.31 
   5  11  -9    2.81    0.29 
  -5 -11  -9    2.83    0.29 
 -11  -5  -9    2.90    0.30 
 -11   5 -10    1.13    0.24 
  -5  11 -10    1.05    0.22 
   5  11 -10    0.83    0.19 
  -5 -11 -10    0.80    0.20 
 -11  -5 -10    1.18    0.23 
 -11   5 -11    0.47    0.18 
   5  11 -11    0.48    0.16 
  -5  11 -11    0.44    0.17 
  -5 -11 -11    0.24    0.15 
 -11  -5 -11    0.44    0.17 
 -11   5 -12    0.94    0.20 
  -5  11 -12    0.74    0.18 
   5  11 -12    0.59    0.16 
  -5 -11 -12    0.67    0.16 
 -11  -5 -12    0.71    0.19 
 -11   5 -13    0.35    0.15 
   5  11 -13    0.22    0.12 
  -5  11 -13    0.28    0.13 
  -5 -11 -13    0.01    0.10 
 -11  -5 -13    0.20    0.13 
  -5  11 -14    0.89    0.14 
   5  11 -14    0.62    0.12 
  -5  11 -14    0.77    0.13 
 -11  -5 -14    0.64    0.13 
 -11   5 -14    0.82    0.14 
 -11   6   0    0.36    0.27 
  11  -6   0    0.63    0.38 
   6 -11   0    0.46    0.35 
   6 -11  -1    0.56    0.40 
  11  -6   1    0.85    0.36 
 -11   6  -1    0.53    0.27 
 -11   6   1    0.29    0.32 
  11  -6  -1    0.77    0.37 
   6 -11   1    0.24    0.29 
  11  -6   2   -0.31    0.24 
 -11   6  -2   -0.12    0.32 
   6 -11  -2    0.29    0.30 
   6 -11   2   -0.04    0.23 
  11  -6  -2    0.24    0.23 
 -11   6   2   -0.20    0.30 
 -11   6  -3    0.05    0.27 
  -6 -11   3    0.28    0.14 
   6 -11  -3    0.05    0.13 
   6 -11   3    0.15    0.27 
  11  -6  -3    0.15    0.15 
   6 -11  -3   -0.06    0.27 
  11  -6  -3    0.21    0.22 
  -6 -11  -3    0.20    0.13 
  11  -6   3    0.51    0.31 
  -6 -11   4    1.07    0.19 
   6 -11   4    1.20    0.39 
   6 -11  -4    1.14    0.21 
  11  -6  -4    1.28    0.25 
  11  -6  -4    0.68    0.31 
  11  -6   4    0.72    0.34 
  -6 -11  -4    1.11    0.19 
 -11  -6  -4    0.58    0.15 
   6 -11  -4    0.81    0.37 
  -6  11   5   -0.27    0.32 
   6 -11   5    0.53    0.35 
   6 -11  -5   -0.05    0.15 
  11  -6  -5    0.41    0.33 
   6 -11  -5   -0.11    0.25 
  11  -6  -5    0.03    0.17 
  11  -6   5    0.30    0.31 
  -6 -11  -5   -0.19    0.16 
  -6  11  -5    0.07    0.13 
 -11  -6  -5    0.04    0.13 
  -6  11   6    1.68    0.49 
   6 -11  -6    1.22    0.43 
  -6  11  -6    2.15    0.26 
   6 -11   6    1.83    0.48 
  11  -6  -6    2.25    0.31 
   6 -11  -6    1.65    0.24 
  11  -6   6    1.70    0.47 
  11  -6  -6    2.97    0.61 
   6  11  -6    1.66    0.22 
  -6 -11  -6    1.98    0.23 
 -11  -6  -6    1.85    0.24 
   6 -11   7   -0.50    0.37 
   6 -11  -7    0.11    0.14 
  11  -6  -7    0.11    0.19 
   6  11  -7    0.03    0.15 
   6 -11  -7    0.20    0.30 
  -6  11  -7    0.32    0.16 
  -6 -11  -7    0.01    0.15 
 -11  -6  -7    0.08    0.16 
  11  -6  -8    0.32    0.20 
   6  11  -8    0.14    0.14 
  -6  11  -8    0.01    0.15 
  -6 -11  -8    0.03    0.15 
 -11  -6  -8    0.12    0.17 
  -6  11  -9    2.77    0.30 
   6  11  -9    2.19    0.25 
  -6 -11  -9    2.71    0.30 
 -11  -6  -9    2.69    0.30 
   6  11 -10    0.33    0.15 
  -6  11 -10    0.69    0.20 
  -6 -11 -10    0.32    0.15 
 -11  -6 -10    0.76    0.21 
 -11   6 -11   -0.07    0.16 
   6  11 -11   -0.03    0.14 
  -6  11 -11    0.16    0.15 
  -6 -11 -11   -0.20    0.17 
 -11  -6 -11    0.04    0.15 
 -11   6 -12    0.52    0.17 
  -6  11 -12    0.66    0.17 
   6  11 -12    0.59    0.16 
  -6 -11 -12    0.37    0.14 
 -11  -6 -12    0.67    0.18 
 -11   6 -13    0.29    0.14 
   6  11 -13    0.21    0.12 
  -6 -11 -13    0.23    0.13 
  -6  11 -13    0.42    0.13 
 -11  -6 -13    0.53    0.15 
 -11   6 -14    0.32    0.12 
  -6  11 -14    0.32    0.11 
  -6  11 -14    0.15    0.08 
  -6 -11 -14    0.03    0.07 
 -11  -6 -14    0.29    0.11 
 -11   7   0   48.94    1.93 
   7 -11   0   49.72    1.99 
   7 -11   0   48.27    1.03 
  11  -7   0   49.35    2.07 
  -7 -11   0   48.14    1.01 
 -11   7  -1   26.87    1.44 
 -11   7   1   26.74    1.44 
  -7 -11  -1   26.60    0.75 
  11  -7  -1   25.54    0.78 
   7 -11  -1   25.85    0.75 
  -7 -11   1   26.82    0.75 
   7 -11   1   29.08    1.54 
  11  -7   1   28.70    1.56 
  11  -7  -1   30.13    1.61 
   7 -11  -1   27.45    1.51 
 -11   7  -2   11.13    0.94 
 -11   7   2   10.03    0.92 
  -7 -11   2   10.89    0.48 
   7 -11   2    9.31    0.46 
   7 -11  -2   10.20    0.48 
  11  -7  -2   10.44    0.50 
  -7 -11  -2   10.01    0.46 
   7 -11   2   11.51    0.99 
  11  -7   2   10.57    0.96 
  -7 -11  -2   10.95    0.49 
   7 -11  -2   11.49    1.01 
  11  -7  -2   10.06    0.96 
 -11   7  -3    1.61    0.36 
  11  -7  -3    1.15    0.38 
  -7 -11  -3    1.36    0.20 
 -11   7   3    1.00    0.37 
   7 -11   3    1.17    0.19 
   7 -11  -3    1.40    0.22 
  11  -7  -3    1.75    0.25 
   7 -11   3    1.82    0.46 
   7 -11  -3    1.76    0.46 
  -7 -11  -3    1.49    0.21 
  11  -7   3    1.66    0.45 
 -11  -7  -3    1.62    0.22 
  -7  11   4    9.94    1.00 
 -11   7  -4    8.54    0.85 
   7 -11  -4    9.67    0.50 
  11  -7  -4    9.74    0.52 
   7 -11   4    8.94    0.91 
  11  -7   4    9.04    0.95 
  -7 -11  -4    9.52    0.47 
 -11  -7  -4    8.14    0.43 
   7 -11  -4    8.63    0.93 
  11  -7  -4    9.11    0.94 
  -7  11   5   16.26    1.26 
   7 -11  -5   16.38    0.65 
  11  -7  -5   15.70    0.66 
   7 -11   5   15.23    1.23 
  11  -7   5   14.34    1.20 
  -7 -11  -5   16.13    0.62 
 -11  -7  -5   16.45    0.62 
  -7  11  -5   14.90    0.57 
   7 -11  -5   13.69    1.18 
  11  -7  -5   13.98    1.19 
  11  -7  -6   18.94    1.43 
  -7  11   6   17.26    1.32 
  -7  11  -6   19.78    0.68 
   7 -11  -6   20.56    0.73 
  11  -7  -6   20.65    0.76 
   7 -11   6   20.99    1.49 
  11  -7   6   17.55    1.35 
  -7 -11  -6   21.29    0.71 
 -11  -7  -6   20.88    0.70 
   7 -11  -6   19.79    1.47 
  -7  11  -7   17.33    0.64 
   7 -11  -7   15.93    0.65 
   7 -11   7   15.47    1.33 
  11  -7  -7   17.32    0.70 
  -7 -11  -7   18.63    0.67 
 -11  -7  -7   16.30    0.64 
  -7  11  -8    8.49    0.47 
   7  11  -8    7.84    0.42 
  -7 -11  -8    9.08    0.49 
  11  -7  -8    7.58    0.48 
 -11  -7  -8    8.59    0.48 
  -7  11  -9    4.29    0.35 
   7  11  -9    4.29    0.33 
  -7 -11  -9    4.22    0.35 
 -11  -7  -9    4.88    0.37 
   7  11 -10    2.22    0.25 
  -7  11 -10    2.53    0.27 
  -7 -11 -10    2.37    0.28 
 -11  -7 -10    2.10    0.27 
 -11   7 -11    0.14    0.17 
   7  11 -11    0.62    0.17 
  -7  11 -11    0.34    0.15 
  -7 -11 -11    0.22    0.17 
 -11  -7 -11    0.52    0.18 
 -11   7 -12    0.49    0.16 
   7  11 -12    0.35    0.13 
  -7  11 -12    0.32    0.14 
  -7 -11 -12    0.27    0.14 
 -11  -7 -12    0.29    0.14 
 -11   7 -13    1.39    0.19 
  -7  11 -13    1.23    0.16 
 -11  -7 -13    1.67    0.20 
  -7 -11 -13    1.25    0.16 
 -11   7 -14    0.81    0.13 
  -7  11 -14    0.81    0.12 
 -11  -7 -14    0.85    0.13 
   8 -11   0    0.16    0.24 
 -11   8   0    0.14    0.28 
  11  -8   0    0.29    0.25 
  -8 -11   0    0.18    0.16 
  11  -8   0    0.22    0.20 
  -8 -11   0    0.13    0.14 
   8 -11   0    0.23    0.18 
 -11   8  -1    1.42    0.44 
 -11   8   1    1.24    0.44 
  11  -8   1    1.32    0.41 
  -8 -11  -1    1.23    0.20 
   8 -11   1    1.26    0.22 
  11  -8  -1    1.20    0.44 
   8 -11  -1    1.23    0.22 
  11  -8   1    1.10    0.20 
  11  -8  -1    1.20    0.24 
   8 -11  -1    1.27    0.44 
  -8 -11   1    0.96    0.18 
  -8 -11  -1    1.38    0.21 
   8 -11   1    1.43    0.42 
  11  -8   2    0.29    0.29 
  -8  11   2   -0.25    0.30 
 -11   8  -2   -0.05    0.27 
 -11   8   2   -0.22    0.36 
  -8 -11  -2    0.16    0.14 
   8 -11   2   -0.10    0.13 
   8 -11  -2    0.12    0.26 
   8 -11  -2    0.35    0.18 
  11  -8   2   -0.06    0.14 
  11  -8  -2   -0.06    0.18 
  11  -8  -2   -0.06    0.24 
   8 -11   2    0.18    0.31 
  -8 -11  -2    0.18    0.17 
  11  -8  -3    0.41    0.25 
  -8  11   3    0.18    0.32 
 -11   8  -3    0.14    0.28 
 -11   8   3    0.44    0.29 
   8 -11   3    0.09    0.15 
   8 -11  -3    0.63    0.19 
  11  -8  -3    0.27    0.17 
   8 -11   3    0.13    0.29 
   8 -11  -3    0.20    0.25 
  -8 -11  -3    0.36    0.16 
 -11  -8  -3    0.12    0.12 
  11  -8   3    0.23    0.26 
   8 -11  -4    0.02    0.30 
  -8  11   4    0.34    0.33 
 -11   8  -4   -0.10    0.30 
 -11   8   4   -0.31    0.34 
   8 -11  -4    0.27    0.19 
  11  -8  -4   -0.07    0.27 
  11  -8  -4   -0.09    0.19 
   8 -11   4   -0.31    0.29 
  11  -8   4    0.05    0.31 
  -8 -11  -4    0.02    0.15 
 -11  -8  -4    0.24    0.18 
  -8  11  -4    0.01    0.14 
  11  -8  -5    1.34    0.43 
  -8  11   5    1.95    0.52 
   8 -11  -5    2.52    0.29 
  -8  11  -5    2.24    0.25 
   8 -11   5    2.73    0.59 
  11  -8  -5    2.74    0.31 
  -8 -11  -5    2.58    0.27 
   8 -11  -5    2.64    0.57 
 -11  -8  -5    2.60    0.27 
  11  -8   5    2.23    0.60 
  11  -8  -6    1.05    0.43 
   8 -11  -6    1.23    0.43 
   8 -11   6    1.44    0.46 
   8 -11  -6    1.04    0.23 
  11  -8  -6    1.14    0.23 
  11  -8   6    0.42    0.32 
  -8  11  -6    1.10    0.18 
  -8 -11  -6    0.90    0.18 
 -11  -8  -6    1.10    0.20 
   8 -11  -7    1.13    0.23 
  11  -8  -7    1.01    0.24 
  -8  11  -7    0.95    0.19 
  -8 -11  -7    1.19    0.22 
 -11  -8  -7    1.10    0.22 
  11  -8  -8    3.98    0.37 
   8 -11  -8    2.94    0.30 
  -8 -11  -8    3.65    0.33 
 -11  -8  -8    3.57    0.32 
  -8  11  -8    3.64    0.32 
  -8  11  -9    0.39    0.15 
  -8 -11  -9    0.61    0.19 
 -11  -8  -9    0.23    0.16 
  -8  11 -10    0.33    0.16 
  -8 -11 -10    0.02    0.15 
 -11  -8 -10    0.47    0.18 
 -11   8 -11    1.39    0.23 
  -8  11 -11    0.97    0.18 
  -8 -11 -11    1.10    0.19 
 -11  -8 -11    1.25    0.21 
 -11   8 -12   -0.27    0.15 
  -8  11 -12   -0.15    0.13 
  -8 -11 -12   -0.13    0.13 
 -11  -8 -12    0.18    0.14 
 -11   8 -13   -0.03    0.11 
  -8  11 -13   -0.16    0.12 
  -8 -11 -13   -0.03    0.10 
 -11  -8 -13   -0.30    0.13 
 -11   8 -14    0.54    0.11 
  -8  11 -14    0.68    0.11 
 -11  -8 -14    0.56    0.10 
  -9  11   0   31.61    1.76 
 -11   9   0   32.91    1.72 
  11  -9   0   33.29    0.92 
   9 -11   0   31.54    1.70 
  -9 -11   0   29.01    0.80 
  11  -9   0   31.84    1.79 
   9 -11   0   33.97    0.92 
  -9  11  -1   28.17    1.66 
  -9  11   1   26.05    1.58 
 -11   9  -1   26.29    1.55 
 -11   9   1   25.62    1.52 
   9 -11  -1   28.48    0.83 
  11  -9  -1   28.20    0.84 
  -9 -11   1   23.09    0.71 
   9 -11   1   26.94    1.58 
  -9 -11  -1   27.11    0.78 
  11  -9   1   27.04    1.61 
   9 -11  -1   27.72    1.63 
  11  -9  -1   28.04    1.65 
   9 -11   1   27.86    0.83 
  11  -9   1   27.23    0.83 
  -9  11  -2   11.31    1.10 
  -9  11   2    9.72    1.02 
 -11   9  -2   11.39    1.05 
 -11   9   2    7.71    0.85 
   9 -11   2    9.46    0.50 
  11  -9  -2    9.58    0.51 
  11  -9   2    9.87    0.51 
   9 -11   2    9.37    1.01 
  11  -9   2    9.54    0.98 
  -9 -11  -2   10.40    0.50 
 -11  -9  -2    8.64    0.44 
   9 -11  -2    9.39    0.98 
  11  -9  -2   10.20    1.03 
   9 -11  -2    9.70    0.50 
  11  -9  -3    0.38    0.31 
  -9  11  -3    0.88    0.47 
  -9  11   3    0.09    0.34 
 -11   9  -3    0.45    0.37 
 -11   9   3    0.32    0.36 
   9 -11   3    0.14    0.15 
  11  -9   3    0.16    0.17 
   9 -11  -3    0.62    0.21 
  11  -9  -3    0.47    0.20 
   9 -11   3    1.11    0.47 
  -9 -11  -3    0.68    0.21 
 -11  -9  -3    0.46    0.19 
   9 -11  -3    0.75    0.40 
  11  -9   3    0.55    0.34 
  -9  11  -4    0.55    0.32 
  -9  11   4    0.22    0.34 
 -11   9  -4    0.94    0.37 
 -11   9   4   -0.34    0.42 
   9 -11  -4    0.36    0.33 
  11  -9  -4    0.00    0.34 
   9 -11  -4    0.47    0.22 
  11  -9  -4   -0.08    0.21 
   9 -11   4    0.27    0.41 
  11  -9   4    0.11    0.38 
  -9 -11  -4    0.30    0.17 
 -11  -9  -4    0.14    0.15 
  11  -9  -5    0.76    0.37 
  -9  11   5    0.94    0.40 
   9 -11  -5    1.58    0.26 
  11  -9  -5    1.03    0.24 
   9 -11   5    1.56    0.48 
  11  -9   5    1.19    0.41 
   9 -11  -5    1.59    0.50 
  -9 -11  -5    1.52    0.23 
 -11  -9  -5    1.82    0.24 
  -9  11   6    1.26    0.45 
   9 -11  -6    2.36    0.29 
  11  -9  -6    2.03    0.28 
 -11  -9  -6    2.72    0.29 
  11  -9   6    1.99    0.52 
  -9  11  -6    2.21    0.25 
  -9 -11  -6    2.03    0.25 
   9 -11  -7    1.81    0.26 
  11  -9  -7    1.87    0.29 
  -9  11  -7    1.57    0.22 
  -9 -11  -7    1.72    0.24 
 -11  -9  -7    1.82    0.25 
   9 -11  -8    1.05    0.22 
  11  -9  -8    1.05    0.22 
  -9  11  -8    0.94    0.19 
  -9 -11  -8    0.91    0.20 
 -11  -9  -8    1.08    0.21 
  -9  11  -9    0.19    0.15 
  -9 -11  -9   -0.02    0.15 
 -11  -9  -9    0.08    0.15 
  -9  11 -10    1.69    0.22 
  -9 -11 -10    1.16    0.20 
 -11  -9 -10    1.40    0.23 
  -9 -11 -11    0.02    0.14 
 -11  -9 -11    0.02    0.14 
 -11   9 -12    0.40    0.16 
  -9 -11 -12    0.22    0.12 
 -11  -9 -12    0.39    0.14 
 -11   9 -13    0.41    0.12 
  -9  11 -13    0.71    0.14 
  -9 -11 -13    0.41    0.11 
 -11  -9 -13    0.57    0.12 
 -10  11   0   -0.59    0.44 
 -11  10   0    0.09    0.38 
  10 -11   0    0.12    0.32 
  11 -10   0    0.28    0.33 
  10 -11   0    0.00    0.16 
  11 -10   0    0.03    0.18 
 -10 -11   0    0.15    0.14 
  10 -11   1    1.41    0.44 
 -10  11  -1    1.44    0.48 
 -10  11   1    1.54    0.47 
 -11  10  -1    2.10    0.54 
 -11  10   1    1.54    0.42 
  11 -10   1    1.67    0.49 
  10 -11  -1    1.86    0.48 
  10 -11   1    1.63    0.27 
  11 -10  -1    1.85    0.51 
  10 -11  -1    1.72    0.25 
  11 -10   1    1.94    0.27 
  11 -10  -1    1.79    0.27 
 -10 -11  -1    1.53    0.22 
 -11 -10  -1    1.24    0.20 
  11 -10   2    3.87    0.71 
 -10  11   2    2.75    0.61 
 -11  10  -2    3.22    0.63 
 -11  10   2    3.20    0.61 
  11 -10   2    3.78    0.34 
  10 -11  -2    3.89    0.35 
  11 -10  -2    3.27    0.33 
  10 -11   2    3.72    0.34 
 -10  11  -2    2.49    0.56 
 -10 -11  -2    3.65    0.33 
 -11 -10  -2    3.26    0.30 
  10 -11  -2    3.56    0.69 
  11 -10  -2    2.52    0.61 
  10 -11   2    3.19    0.61 
 -10 -11  -3    4.45    0.34 
  11 -10  -3    3.91    0.67 
 -10  11  -3    3.59    0.65 
 -10  11   3    4.06    0.69 
 -11  10  -3    3.39    0.64 
 -11  10   3    3.74    0.67 
  11 -10   3    3.77    0.33 
  11 -10  -3    3.83    0.35 
  10 -11  -3    4.76    0.37 
  10 -11   3    4.37    0.34 
 -11 -10  -3    4.86    0.35 
  10 -11   3    4.07    0.70 
  10 -11  -3    4.11    0.70 
  11 -10   3    4.86    0.74 
 -10  11  -4    2.37    0.60 
 -10  11   4    2.11    0.45 
 -11  10   4    3.49    0.62 
  11 -10  -4    2.82    0.31 
  10 -11  -4    3.37    0.65 
  11 -10  -4    3.10    0.62 
  10 -11  -4    3.33    0.33 
 -11 -10  -4    3.09    0.29 
 -10 -11  -4    3.35    0.30 
  10 -11   4    3.45    0.66 
  11 -10   4    3.53    0.67 
 -10  11   5    1.83    0.49 
  10 -11  -5    2.99    0.33 
  11 -10  -5    3.08    0.33 
 -10 -11  -5    2.57    0.28 
 -11 -10  -5    2.68    0.27 
  11 -10   5    2.68    0.60 
  10 -11  -6    0.26    0.18 
  11 -10  -6    0.45    0.21 
 -11 -10  -6   -0.02    0.19 
  10 -11  -7   -0.34    0.18 
 -10 -11  -7   -0.47    0.21 
 -11 -10  -7   -0.36    0.20 
  10 -11  -8    0.16    0.16 
  11 -10  -8   -0.18    0.17 
 -10 -11  -8    0.01    0.15 
 -11 -10  -8    0.12    0.15 
 -10 -11  -9    0.12    0.14 
 -11 -10  -9   -0.07    0.16 
 -10 -11 -10    0.05    0.14 
 -11 -10 -10   -0.13    0.15 
 -10 -11 -11    0.33    0.14 
 -11 -10 -11    0.17    0.13 
 -11  10 -12    0.04    0.12 
 -10  11 -12    0.00    0.12 
 -10 -11 -12   -0.10    0.12 
 -11 -10 -12    0.01    0.11 
 -11  10 -13    0.12    0.09 
 -10  11 -13    0.18    0.10 
 -10 -11 -13    0.10    0.08 
 -11 -10 -13    0.19    0.09 
 -11  11   0   28.76    1.75 
  11 -11   0   29.50    0.90 
  11 -11   0   28.72    1.76 
 -11  11  -1   16.36    1.33 
 -11  11   1   16.88    1.33 
  11 -11   1   18.11    0.70 
  11 -11  -1   16.98    0.68 
 -11 -11  -1   15.73    0.60 
  11 -11   1   14.90    1.28 
  11 -11  -1   18.10    1.41 
 -11  11  -2    7.57    0.95 
 -11  11   2    7.14    0.89 
  11 -11   2    8.48    0.49 
  11 -11  -2    9.36    0.52 
  11 -11   2    8.51    0.98 
 -11 -11  -2    8.53    0.46 
  11 -11  -2    8.16    0.97 
  11 -11  -3    2.56    0.59 
 -11  11  -3    2.69    0.61 
 -11  11   3    1.62    0.52 
  11 -11   3    2.89    0.30 
  11 -11  -3    3.21    0.34 
 -11 -11  -3    3.38    0.31 
  11 -11   3    2.52    0.54 
  11 -11  -4    1.18    0.26 
 -11 -11  -4    1.31    0.23 
  11 -11  -5    0.90    0.24 
 -11 -11  -5    0.80    0.18 
  11 -11  -6    0.50    0.20 
 -11 -11  -6    0.25    0.15 
  11 -11  -7    0.68    0.22 
 -11 -11  -7    0.81    0.18 
  11 -11  -8    0.15    0.14 
 -11 -11  -8    0.52    0.17 
 -11 -11  -9    0.05    0.14 
 -11 -11 -10    0.19    0.13 
 -11 -11 -11    0.38    0.14 
 -11  11 -12    0.78    0.14 
 -11 -11 -12    0.89    0.14 
   0 -12   0   62.78    1.96 
   0 -12   1  125.17    2.83 
   0 -12  -1  123.99    2.72 
  12   0  -2   59.01    1.94 
   0 -12   2   58.17    1.99 
   0 -12  -2   57.58    1.83 
   0 -12   3    2.01    0.44 
   0 -12   4    7.61    0.80 
 -12   0   4    6.75    0.73 
   0 -12   5   19.71    0.65 
   0  12  -5   21.63    0.65 
   0 -12   5   22.47    1.40 
   0 -12  -5   19.13    0.61 
 -12   0   5   21.75    1.38 
   0 -12   6   10.67    1.05 
   0  12  -6    9.83    0.47 
   0 -12  -6    9.04    0.44 
 -12   0  -6    8.68    0.44 
 -12   0   6   11.47    1.11 
 -12   0   7   13.15    1.25 
   0  12  -7   13.53    0.55 
   0 -12   7   13.74    1.22 
   0 -12  -7   12.44    0.51 
 -12   0  -7   13.03    0.55 
   0 -12   8    2.82    0.57 
 -12   0   8    3.07    0.67 
   0 -12  -8    4.10    0.31 
 -12   0  -8    4.17    0.34 
   0  12  -8    4.41    0.35 
   0  12  -9    4.71    0.36 
   0 -12  -9    4.21    0.31 
 -12   0  -9    4.61    0.37 
   0  12 -10    4.91    0.37 
 -12   0 -10    5.58    0.40 
 -12   0 -11    0.26    0.16 
   0  12 -11    0.37    0.15 
   0  12 -12    0.80    0.18 
 -12   0 -12    1.08    0.20 
   0  12 -13    0.81    0.18 
 -12   0 -13    0.72    0.16 
   0  12 -14    2.68    0.21 
 -12   0 -14    2.33    0.20 
  -1 -12   0    0.72    0.33 
   1 -12   0    0.23    0.25 
   1 -12  -1    1.97    0.42 
  -1 -12   1    1.34    0.39 
   1 -12   1    1.84    0.43 
  12  -1  -1    2.39    0.46 
   1 -12  -2    1.05    0.34 
  -1 -12   2    0.40    0.25 
   1 -12   2    0.49    0.26 
  12  -1  -2    0.91    0.30 
 -12  -1   3    0.18    0.17 
  -1 -12   3    0.28    0.26 
   1 -12   3    0.03    0.22 
   1 -12  -3    0.24    0.19 
  12  -1  -3   -0.12    0.32 
 -12  -1   4    1.75    0.40 
  -1 -12   4    2.41    0.45 
   1 -12   4    2.63    0.51 
  -1 -12  -4    2.28    0.24 
 -12   1   5    1.20    0.42 
  -1 -12   5    0.69    0.25 
 -12  -1   5    0.62    0.32 
   1 -12   5    0.77    0.38 
  -1 -12   5    0.56    0.16 
   1 -12  -5    0.59    0.16 
   1 -12  -5    0.95    0.18 
  -1 -12  -5    0.82    0.18 
   1  12  -5    0.91    0.18 
 -12  -1   6    6.09    0.81 
   1  12  -6    6.14    0.38 
  -1  12  -6    6.39    0.38 
   1 -12   6    6.45    0.83 
  -1 -12   6    5.87    0.79 
   1 -12  -6    5.07    0.33 
  -1 -12  -6    6.36    0.38 
 -12  -1  -6    5.07    0.34 
 -12   1  -6    5.23    0.35 
 -12   1   6    5.40    0.78 
 -12  -1  -7    1.56    0.22 
  -1 -12   7    1.33    0.46 
 -12   1  -7    1.69    0.23 
   1 -12   7    1.29    0.45 
 -12   1   7    0.70    0.35 
 -12  -1   7    1.44    0.53 
   1 -12  -7    1.64    0.22 
  -1 -12  -7    1.79    0.23 
   1  12  -7    2.10    0.24 
  -1  12  -7    1.77    0.24 
 -12  -1  -8    0.74    0.19 
  -1 -12   8    0.41    0.39 
 -12   1  -8    0.51    0.18 
   1 -12   8    0.30    0.32 
 -12  -1   8    0.63    0.43 
 -12   1   8    0.92    0.45 
   1  12  -8    0.63    0.17 
  -1 -12  -8    0.48    0.16 
  -1  12  -8    0.55    0.16 
  -1 -12  -9    2.44    0.26 
   1  12  -9    2.75    0.29 
 -12  -1  -9    2.71    0.30 
 -12   1  -9    2.29    0.29 
  -1  12  -9    2.25    0.27 
 -12  -1 -10    1.44    0.23 
 -12   1 -10    1.37    0.23 
   1  12 -10    1.52    0.24 
  -1  12 -10    1.08    0.21 
  -1 -12 -10    1.26    0.19 
 -12   1 -11    0.81    0.20 
   1  12 -11    1.03    0.21 
  -1  12 -11    0.95    0.20 
 -12  -1 -11    0.47    0.18 
  -1  12 -12   -0.09    0.14 
   1  12 -12   -0.06    0.14 
 -12  -1 -12   -0.25    0.18 
 -12   1 -12   -0.04    0.15 
   1  12 -13    0.09    0.12 
  -1  12 -13   -0.01    0.12 
 -12  -1 -13   -0.13    0.14 
 -12   1 -13    0.19    0.14 
  -1  12 -14    0.55    0.10 
   1  12 -14    0.70    0.13 
  -1  12 -14    0.80    0.14 
 -12  -1 -14    0.89    0.15 
 -12   1 -14    0.54    0.13 
   2 -12   0  108.23    2.74 
  12  -2   0  107.44    2.63 
  -2 -12   1   61.15    1.86 
   2 -12   1   63.65    2.10 
   2 -12  -1   63.09    2.06 
  12  -2   1   60.94    1.98 
  12  -2  -1   63.93    2.07 
  -2 -12   2   36.82    1.52 
   2 -12   2   39.34    1.69 
   2 -12  -2   38.05    1.64 
  12  -2  -2   38.53    1.68 
  -2 -12   3    9.01    0.80 
   2 -12   3    9.73    0.88 
   2 -12  -3    8.78    0.81 
  12  -2  -3    9.13    0.85 
  -2 -12   4    0.41    0.24 
   2 -12  -4    0.57    0.28 
  12  -2  -4    1.11    0.38 
  -2 -12   4    0.67    0.16 
   2 -12   4    0.43    0.30 
   2 -12  -4    0.73    0.17 
  -2 -12  -4    0.91    0.18 
  -2 -12   5    4.38    0.33 
 -12  -2   5    3.63    0.55 
   2 -12  -5    4.60    0.34 
  -2 -12   5    4.22    0.65 
   2  12  -5    4.52    0.32 
  -2 -12  -5    4.61    0.33 
 -12  -2  -5    4.00    0.29 
   2 -12  -5    3.73    0.55 
 -12  -2   6   12.50    1.10 
  -2 -12   6   11.96    0.52 
  -2  12  -6   14.50    0.56 
   2  12  -6   13.87    0.54 
  -2 -12   6   12.94    1.12 
   2 -12   6   14.42    1.22 
  -2 -12  -6   14.75    0.56 
 -12  -2  -6   12.06    0.52 
 -12   2  -6   11.71    0.51 
 -12   2   6   13.38    1.22 
  -2 -12   7    4.87    0.76 
   2 -12   7    6.50    0.88 
 -12  -2   7    5.08    0.74 
  -2  12  -7    6.36    0.40 
   2  12  -7    6.70    0.40 
  -2 -12  -7    6.89    0.41 
 -12  -2  -7    7.02    0.42 
 -12   2  -7    6.95    0.42 
 -12   2   7    5.92    0.88 
 -12  -2   8    7.78    1.03 
   2  12  -8    9.48    0.48 
  -2 -12  -8    9.75    0.48 
  -2  12  -8   10.01    0.49 
  -2 -12   8    7.25    0.91 
   2 -12   8    7.23    0.92 
 -12  -2  -8    9.76    0.50 
 -12   2  -8    9.75    0.50 
 -12   2   8    7.66    1.04 
  -2  12  -9    6.42    0.41 
   2  12  -9    6.46    0.41 
  -2 -12  -9    6.22    0.39 
 -12  -2  -9    6.58    0.43 
 -12   2  -9    6.77    0.44 
 -12   2 -10    0.38    0.17 
   2  12 -10    0.31    0.15 
  -2  12 -10    0.33    0.16 
  -2 -12 -10    0.41    0.15 
 -12  -2 -10    0.22    0.16 
 -12   2 -11   -0.01    0.15 
   2  12 -11    0.16    0.14 
  -2  12 -11    0.24    0.15 
  -2 -12 -11    0.14    0.11 
 -12  -2 -11   -0.24    0.19 
 -12   2 -12    0.31    0.15 
   2  12 -12    0.35    0.15 
  -2  12 -12    0.60    0.16 
 -12  -2 -12    0.16    0.15 
   2  12 -13    2.35    0.23 
  -2  12 -13    2.64    0.24 
 -12  -2 -13    2.51    0.24 
 -12   2 -13    2.77    0.25 
   2  12 -14    1.75    0.17 
 -12  -2 -14    1.44    0.17 
 -12   2 -14    1.65    0.17 
  -2  12 -14    1.33    0.14 
  12  -3   0    0.93    0.39 
   3 -12   0    0.56    0.34 
   3 -12  -1    0.61    0.35 
  12  -3  -1    0.67    0.34 
  12  -3   1    0.70    0.38 
   3 -12   1    0.71    0.37 
   3 -12  -2    1.89    0.46 
  12  -3   2    1.91    0.42 
   3 -12   2    1.77    0.40 
  12  -3  -2    1.90    0.45 
  -3 -12   3   10.45    0.84 
   3 -12   3   12.02    1.00 
  -3 -12  -3   11.98    0.49 
   3 -12  -3   12.24    1.00 
  12  -3  -3   11.94    0.99 
  12  -3  -4   19.22    1.30 
  -3 -12   4   18.79    0.65 
   3 -12  -4   19.11    0.65 
  -3 -12   4   19.02    1.19 
   3 -12   4   20.76    1.37 
  -3 -12  -4   20.04    0.65 
   3 -12  -4   20.58    1.26 
  -3 -12   5   14.24    0.57 
  -3 -12   5   14.17    1.09 
   3 -12   5   15.56    1.21 
   3  12  -5   14.58    0.54 
   3 -12  -5   14.49    0.58 
  -3 -12  -5   16.45    0.59 
 -12  -3  -5   12.55    0.50 
   3 -12  -5   14.87    1.12 
  -3 -12   6    2.50    0.53 
 -12   3   6    3.40    0.67 
  -3 -12   6    3.20    0.29 
   3 -12   6    4.08    0.68 
   3 -12  -6    2.80    0.28 
  -3  12  -6    3.36    0.30 
   3  12  -6    3.08    0.28 
  -3 -12  -6    3.48    0.31 
 -12  -3  -6    3.05    0.28 
 -12   3  -6    2.67    0.27 
   3 -12  -6    2.78    0.57 
 -12   3  -7    0.30    0.16 
   3 -12   7   -0.31    0.30 
   3  12  -7    0.50    0.17 
  -3 -12  -7    0.23    0.14 
  -3  12  -7    0.22    0.14 
 -12  -3  -7   -0.02    0.14 
  -3 -12   7   -0.16    0.27 
 -12   3  -8    0.23    0.17 
  12  -3  -8    0.32    0.22 
   3  12  -8    0.37    0.16 
  -3  12  -8    0.24    0.16 
  -3 -12  -8    0.12    0.14 
 -12  -3  -8    0.14    0.15 
 -12   3  -9    1.46    0.24 
  12  -3  -9    0.99    0.22 
   3  12  -9    1.20    0.21 
  -3  12  -9    1.33    0.23 
  -3 -12  -9    1.21    0.21 
 -12  -3  -9    1.19    0.21 
   3  12 -10    4.49    0.34 
  -3  12 -10    4.47    0.35 
  -3 -12 -10    4.16    0.32 
 -12  -3 -10    3.96    0.34 
 -12   3 -10    4.66    0.37 
   3  12 -11    4.84    0.35 
  -3 -12 -11    4.39    0.31 
 -12  -3 -11    4.37    0.35 
 -12   3 -11    4.95    0.37 
  -3  12 -11    5.12    0.37 
   3  12 -12    3.21    0.28 
  -3  12 -12    2.92    0.28 
  -3 -12 -12    2.77    0.23 
 -12  -3 -12    2.86    0.27 
 -12   3 -12    3.34    0.29 
   3  12 -13    1.04    0.18 
  -3  12 -13    0.95    0.18 
 -12  -3 -13    1.13    0.18 
 -12   3 -13    1.12    0.19 
  -3  12 -14    0.19    0.09 
   3  12 -14    0.14    0.09 
  -3  12 -14   -0.02    0.09 
 -12  -3 -14    0.11    0.10 
 -12   3 -14    0.09    0.09 
   4 -12   0   52.56    2.03 
  12  -4   0   56.92    2.10 
   4 -12  -1   34.74    1.64 
  12  -4   1   35.06    1.63 
   4 -12   1   35.91    1.67 
  12  -4  -1   35.08    1.63 
   4 -12   2   17.07    1.16 
  -4 -12  -2   16.32    0.58 
  12  -4   2   17.54    1.19 
   4 -12  -2   18.16    1.20 
  12  -4  -2   16.99    1.17 
  -4 -12   3    8.53    0.44 
   4 -12  -3    8.24    0.44 
   4 -12   3    9.69    0.91 
  12  -4   3    8.20    0.81 
  -4 -12  -3    8.55    0.43 
   4 -12  -3    8.07    0.85 
  12  -4  -3    7.79    0.83 
   4 -12  -4    2.78    0.53 
  -4 -12   4    2.73    0.27 
   4 -12   4    2.37    0.25 
   4 -12  -4    2.71    0.28 
   4  12  -4    2.52    0.23 
   4 -12   4    2.53    0.55 
  12  -4  -4    2.14    0.48 
  -4 -12  -4    2.96    0.27 
   4 -12   5    0.10    0.28 
  -4 -12   5    0.28    0.16 
   4 -12  -5   -0.01    0.16 
   4 -12  -5    0.32    0.23 
  -4 -12  -5    0.40    0.18 
   4  12  -5    0.22    0.12 
  12  -4  -5    0.07    0.30 
  -4  12  -5    0.31    0.16 
 -12  -4  -5    0.25    0.13 
  -4 -12   6    0.92    0.37 
   4 -12   6    1.48    0.48 
   4 -12  -6    1.33    0.22 
   4 -12  -6    1.21    0.43 
   4  12  -6    1.70    0.22 
  -4 -12  -6    1.37    0.22 
  -4  12  -6    1.56    0.22 
 -12  -4  -6    1.47    0.21 
 -12   4   7    1.57    0.53 
   4 -12   7    2.39    0.49 
  12  -4  -7    2.70    0.33 
  -4  12  -7    3.03    0.30 
   4  12  -7    3.00    0.29 
 -12  -4  -7    2.68    0.28 
  -4 -12  -7    2.85    0.28 
  -4 -12   7    2.55    0.57 
   4  12  -8    4.59    0.35 
  -4  12  -8    5.12    0.37 
  12  -4  -8    4.75    0.40 
  -4 -12  -8    4.92    0.36 
 -12  -4  -8    4.47    0.35 
 -12   4  -8    4.63    0.37 
 -12   4  -9    2.11    0.27 
   4  12  -9    2.07    0.26 
  12  -4  -9    1.59    0.25 
  -4 -12  -9    2.28    0.27 
  -4  12  -9    1.98    0.26 
 -12  -4  -9    2.16    0.26 
 -12   4 -10    0.30    0.18 
   4  12 -10    0.41    0.17 
  -4  12 -10    0.17    0.17 
  -4 -12 -10    0.22    0.17 
 -12  -4 -10    0.05    0.16 
 -12   4 -11    1.11    0.21 
   4  12 -11    1.11    0.20 
  -4  12 -11    1.46    0.23 
  -4 -12 -11    1.07    0.19 
 -12  -4 -11    0.70    0.18 
 -12   4 -12    1.82    0.24 
   4  12 -12    1.93    0.23 
  -4 -12 -12    1.47    0.19 
 -12  -4 -12    1.59    0.22 
  -4  12 -12    1.65    0.22 
   4  12 -13    2.07    0.21 
  -4  12 -13    2.57    0.23 
  -4 -12 -13    1.76    0.17 
 -12  -4 -13    2.60    0.23 
 -12   4 -13    2.20    0.23 
  -4  12 -14    0.56    0.11 
   4  12 -14    0.40    0.10 
  -4  12 -14    0.57    0.12 
 -12  -4 -14    0.66    0.12 
 -12   4 -14    0.58    0.12 
  -5 -12   0    0.39    0.16 
   5 -12   0    0.13    0.15 
  12  -5   0    0.62    0.35 
   5 -12   0    0.10    0.27 
   5 -12   1    5.95    0.38 
   5 -12  -1    6.07    0.38 
   5 -12   1    6.51    0.77 
  -5 -12   1    6.28    0.38 
  -5 -12   1    5.83    0.38 
  -5 -12  -1    6.57    0.39 
   5 -12  -1    7.33    0.81 
  12  -5   1    7.14    0.80 
  12  -5  -1    6.44    0.78 
  -5 -12  -1    6.14    0.38 
  -5 -12   2    8.63    0.44 
  -5 -12  -2    7.87    0.42 
   5 -12   2    8.30    0.44 
   5 -12  -2    8.06    0.43 
   5 -12   2    9.18    0.88 
  -5 -12  -2    8.76    0.44 
  12  -5   2    9.14    0.89 
   5 -12  -2    8.64    0.89 
  12  -5  -2    8.42    0.85 
  -5 -12  -3   24.88    0.74 
   5 -12  -3   27.04    0.78 
  -5 -12   3   26.69    0.78 
   5 -12   3   26.37    1.51 
   5 -12   3   23.91    0.73 
  12  -5   3   27.86    1.53 
  -5 -12  -3   27.53    0.76 
   5 -12  -3   27.05    1.55 
  12  -5  -3   27.26    1.54 
  -5 -12   4   42.21    0.98 
   5 -12  -4   40.61    0.98 
  12  -5  -4   39.17    1.00 
  -5 -12  -4   36.77    0.91 
   5  12  -4   33.28    0.79 
   5 -12   4   35.25    0.89 
  12  -5   4   38.80    1.85 
  -5 -12  -4   41.49    0.95 
 -12  -5  -4   32.94    0.82 
   5 -12   4   39.15    1.89 
   5 -12  -4   38.61    1.83 
  12  -5  -4   37.48    1.90 
  12  -5  -5   17.51    1.32 
  -5 -12   5   18.15    0.66 
  -5  12  -5   18.93    0.64 
  12  -5  -5   17.99    0.71 
   5 -12  -5   18.04    0.67 
   5  12  -5   15.35    0.56 
   5 -12   5   18.05    1.33 
  -5 -12  -5   18.50    0.65 
 -12  -5  -5   16.43    0.59 
   5 -12  -5   16.68    1.27 
  -5  12  -6    4.68    0.35 
   5  12  -6    4.43    0.32 
  12  -5  -6    4.48    0.39 
   5 -12   6    5.28    0.81 
   5 -12  -6    4.38    0.69 
  -5 -12  -6    4.38    0.34 
   5 -12  -6    4.28    0.34 
 -12  -5  -6    4.78    0.35 
 -12   5   7    1.90    0.66 
   5 -12   7    1.43    0.43 
   5 -12  -7    1.57    0.22 
   5 -12  -7    1.40    0.51 
  12  -5  -7    1.54    0.28 
   5  12  -7    1.79    0.24 
  -5  12  -7    1.68    0.22 
  -5 -12  -7    1.58    0.23 
 -12  -5  -7    1.58    0.23 
  12  -5  -8    0.68    0.24 
   5  12  -8    0.43    0.16 
  -5  12  -8    0.37    0.17 
  -5 -12  -8    0.51    0.18 
 -12  -5  -8    0.57    0.18 
   5  12  -9    6.73    0.41 
  -5  12  -9    7.23    0.45 
  12  -5  -9    6.09    0.42 
  -5 -12  -9    7.52    0.43 
 -12  -5  -9    7.05    0.44 
 -12   5  -9    7.39    0.47 
  -5  12 -10   13.86    0.58 
  -5 -12 -10   12.85    0.55 
 -12  -5 -10   13.59    0.58 
 -12   5 -10   12.94    0.59 
   5  12 -10   11.60    0.52 
   5  12 -11    5.77    0.36 
  -5 -12 -11    6.11    0.37 
 -12  -5 -11    6.93    0.41 
 -12   5 -11    6.40    0.42 
  -5  12 -11    6.81    0.41 
   5  12 -12    5.21    0.32 
  -5  12 -12    5.37    0.34 
  -5 -12 -12    4.73    0.30 
 -12  -5 -12    5.41    0.35 
 -12   5 -12    6.04    0.37 
 -12   5 -13    1.15    0.17 
   5  12 -13    1.36    0.17 
  -5  12 -13    1.37    0.17 
  -5 -12 -13    1.00    0.14 
 -12  -5 -13    1.29    0.18 
  -5  12 -14    0.31    0.09 
  -5  12 -14    0.19    0.08 
 -12  -5 -14    0.25    0.09 
 -12   5 -14    0.12    0.09 
  -6 -12   0   11.38    0.50 
   6 -12   0   10.90    0.50 
  12  -6   0   10.63    0.52 
  -6 -12   0   11.56    0.51 
   6 -12   0   11.60    1.00 
  12  -6   0   11.94    1.05 
  -6 -12   1    6.50    0.39 
  12  -6   1    5.24    0.38 
  12  -6  -1    5.99    0.41 
   6 -12   1    5.84    0.38 
   6 -12  -1    5.94    0.38 
  -6 -12  -1    5.90    0.37 
   6 -12   1    5.94    0.75 
  -6 -12   1    5.62    0.37 
  -6 -12  -1    6.68    0.39 
   6 -12  -1    5.78    0.74 
  12  -6   1    5.66    0.75 
  12  -6  -1    6.09    0.77 
  12  -6   2    4.13    0.63 
  -6 -12   2    4.59    0.34 
  -6 -12  -2    4.77    0.34 
  12  -6  -2    4.55    0.37 
  12  -6   2    3.97    0.33 
   6 -12   2    3.88    0.31 
   6 -12  -2    4.34    0.34 
   6 -12   2    4.61    0.66 
  -6 -12  -2    4.66    0.34 
   6 -12  -2    4.73    0.69 
  12  -6  -2    4.66    0.69 
  12  -6   3    1.29    0.45 
  -6 -12   3    1.52    0.24 
  -6 -12  -3    1.27    0.20 
   6 -12   3    1.09    0.21 
   6 -12  -3    1.15    0.23 
  12  -6  -3    0.55    0.28 
  12  -6  -3    1.38    0.26 
   6 -12   3    1.08    0.34 
   6 -12  -3    1.13    0.45 
  -6 -12  -3    1.32    0.22 
   6 -12  -4    0.75    0.35 
  -6 -12   4    1.01    0.21 
   6 -12   4    0.83    0.21 
   6 -12  -4    0.72    0.19 
   6 -12   4    1.29    0.46 
  12  -6  -4    0.82    0.25 
  -6 -12  -4    0.76    0.19 
 -12  -6  -4    0.62    0.17 
  12  -6   4    0.87    0.41 
  12  -6  -4    0.68    0.38 
  -6  12   5    0.24    0.31 
   6 -12   5    0.33    0.34 
   6 -12  -5    0.19    0.17 
  12  -6  -5    0.34    0.20 
   6 -12  -5    0.22    0.27 
  12  -6   5    0.55    0.34 
  -6 -12  -5    0.10    0.16 
   6  12  -5    0.31    0.14 
  -6  12  -5    0.49    0.16 
 -12  -6  -5    0.38    0.17 
  12  -6  -5   -0.20    0.30 
  -6  12   6   -0.32    0.36 
   6 -12  -6    0.22    0.29 
   6 -12   6    0.09    0.33 
   6 -12  -6   -0.19    0.18 
  12  -6  -6    0.12    0.20 
   6  12  -6    0.36    0.15 
  -6 -12  -6    0.19    0.14 
  -6  12  -6    0.22    0.16 
 -12  -6  -6   -0.05    0.14 
   6 -12  -7   -0.10    0.19 
  12  -6  -7    0.16    0.20 
   6 -12  -7    0.27    0.31 
   6  12  -7    0.13    0.14 
  -6  12  -7    0.16    0.15 
  -6 -12  -7   -0.06    0.17 
 -12  -6  -7    0.04    0.15 
  12  -6  -8   -0.17    0.18 
   6  12  -8    0.18    0.14 
  -6  12  -8    0.27    0.15 
  -6 -12  -8    0.18    0.17 
 -12  -6  -8    0.34    0.19 
  12  -6  -9   -0.01    0.16 
   6  12  -9    0.46    0.18 
  -6  12  -9    0.54    0.19 
  -6 -12  -9    0.25    0.16 
 -12  -6  -9    0.35    0.18 
 -12   6 -10    0.92    0.22 
   6  12 -10    0.78    0.19 
  -6  12 -10    0.96    0.22 
  -6 -12 -10    0.83    0.20 
 -12  -6 -10    0.78    0.20 
 -12   6 -11    0.75    0.19 
   6  12 -11    0.42    0.15 
  -6  12 -11    0.36    0.16 
  -6 -12 -11    0.57    0.17 
 -12  -6 -11    0.64    0.18 
 -12   6 -12    0.69    0.18 
   6  12 -12    0.54    0.15 
  -6  12 -12    0.63    0.15 
  -6 -12 -12    0.84    0.17 
 -12  -6 -12    0.68    0.17 
 -12   6 -13    0.39    0.13 
   6  12 -13    0.10    0.08 
  -6  12 -13    0.18    0.11 
  -6 -12 -13    0.25    0.11 
 -12  -6 -13    0.21    0.12 
  -6  12 -14    0.11    0.07 
 -12  -6 -14    0.07    0.07 
 -12   6 -14    0.06    0.08 
   7 -12   0    0.08    0.26 
 -12   7   0   -0.27    0.31 
  -7 -12   0    0.02    0.13 
  12  -7   0    0.27    0.33 
   7 -12   0   -0.08    0.15 
  12  -7   0    0.07    0.16 
  -7 -12   0    0.05    0.14 
 -12   7  -1    9.31    0.91 
 -12   7   1    9.68    0.93 
  12  -7   1    9.27    0.49 
  12  -7  -1    9.75    0.52 
   7 -12  -1   10.67    0.51 
  -7 -12  -1   10.39    0.49 
   7 -12   1    9.46    0.94 
  -7 -12   1    9.95    0.49 
  -7 -12  -1   11.49    0.52 
   7 -12  -1   11.00    1.02 
  12  -7   1   10.38    1.01 
  12  -7  -1   11.23    1.03 
  -7 -12   1   10.98    0.50 
   7 -12   1   10.29    0.50 
 -12   7  -2   14.41    1.13 
 -12   7   2   13.60    1.10 
  -7 -12   2   14.26    0.57 
  -7 -12  -2   14.60    0.58 
   7 -12   2   13.69    0.57 
   7 -12  -2   13.92    0.58 
  12  -7   2   12.33    0.56 
  12  -7  -2   13.78    0.61 
   7 -12   2   14.55    1.17 
  -7 -12  -2   15.03    0.60 
  12  -7   2   13.95    1.16 
   7 -12  -2   13.79    1.15 
  12  -7  -2   14.14    1.16 
  -7 -12  -3   11.71    0.52 
   7 -12  -3   12.12    0.55 
  12  -7  -3   12.42    0.59 
   7 -12   3   11.65    1.07 
  12  -7   3   11.60    1.06 
   7 -12   3   11.40    0.53 
  -7 -12  -3   13.53    0.56 
   7 -12  -3   11.30    1.07 
  12  -7  -3   11.01    1.06 
  -7  12   4   14.83    1.25 
   7 -12   4   12.56    0.55 
   7 -12  -4   13.93    0.60 
  12  -7  -4   13.45    0.62 
   7 -12   4   13.89    1.17 
  12  -7   4   12.01    1.11 
  -7 -12  -4   14.27    0.59 
 -12  -7  -4   12.14    0.53 
   7 -12  -4   12.93    1.16 
  12  -7  -4   12.12    1.13 
  -7  12   5   28.54    1.74 
  -7  12  -5   33.58    0.87 
  12  -7  -5   32.94    0.96 
   7 -12   5   31.41    1.80 
  12  -7   5   29.22    1.73 
  -7 -12  -5   34.03    0.90 
 -12  -7  -5   30.97    0.85 
   7 -12  -5   32.66    0.92 
   7 -12  -5   31.68    1.84 
  12  -7  -5   29.69    1.78 
  12  -7  -6   16.31    1.36 
  -7  12   6   15.19    1.29 
   7 -12  -6   18.85    0.71 
  -7  12  -6   17.73    0.66 
  12  -7  -6   19.10    0.74 
   7 -12   6   17.11    1.37 
  -7 -12  -6   18.54    0.68 
 -12  -7  -6   18.87    0.67 
   7 -12  -6   15.86    1.34 
  -7  12  -7    3.30    0.31 
  12  -7  -7    3.27    0.34 
   7 -12  -7    3.32    0.33 
  -7 -12  -7    3.64    0.33 
 -12  -7  -7    3.63    0.32 
  12  -7  -8    6.75    0.44 
  -7 -12  -8    7.02    0.44 
 -12  -7  -8    7.00    0.44 
   7  12  -8    6.42    0.39 
  -7  12  -8    7.07    0.43 
  12  -7  -9    7.66    0.45 
  -7  12  -9    8.60    0.46 
  -7 -12  -9    8.60    0.46 
 -12  -7  -9    8.76    0.47 
   7  12  -9    7.09    0.41 
   7  12 -10    9.76    0.45 
  -7  12 -10   10.82    0.50 
  -7 -12 -10   10.37    0.49 
 -12  -7 -10   10.44    0.50 
 -12   7 -10   10.82    0.54 
  -7  12 -11   14.09    0.53 
   7  12 -11   13.15    0.50 
  -7 -12 -11   13.47    0.52 
 -12  -7 -11   14.34    0.56 
 -12   7 -11   14.52    0.59 
  -7  12 -12    3.01    0.25 
  -7 -12 -12    2.49    0.23 
 -12  -7 -12    3.01    0.26 
 -12   7 -12    2.95    0.27 
  -7  12 -13    0.98    0.14 
 -12   7 -13    1.38    0.18 
  -7 -12 -13    1.33    0.15 
 -12  -7 -13    1.22    0.16 
 -12   8   0    8.51    0.91 
   8 -12   0    9.12    0.49 
  12  -8   0    9.20    0.51 
  -8 -12   0    8.92    0.46 
  -8 -12   0    8.63    0.46 
   8 -12   0    9.22    0.96 
  12  -8   0    9.66    1.00 
 -12   8  -1    6.15    0.78 
 -12   8   1    6.01    0.73 
  -8 -12  -1    7.03    0.41 
   8 -12   1    7.28    0.44 
   8 -12  -1    6.49    0.42 
  12  -8  -1    7.04    0.45 
  -8 -12   1    5.93    0.39 
   8 -12   1    5.93    0.80 
  -8 -12  -1    7.33    0.43 
  12  -8   1    6.33    0.86 
   8 -12  -1    7.07    0.88 
  12  -8  -1    6.64    0.85 
  12  -8   1    6.51    0.44 
  12  -8   2    4.39    0.72 
  -8  12   2    3.78    0.70 
 -12   8  -2    3.11    0.59 
 -12   8   2    3.25    0.62 
  -8 -12  -2    4.47    0.35 
   8 -12   2    3.53    0.33 
   8 -12  -2    4.06    0.35 
  12  -8   2    3.56    0.34 
  12  -8  -2    3.35    0.35 
   8 -12  -2    3.55    0.66 
  -8 -12  -2    4.26    0.35 
   8 -12   2    3.70    0.68 
  12  -8  -2    3.68    0.68 
  12  -8   3    3.00    0.63 
  -8  12   3    2.49    0.60 
 -12   8  -3    2.34    0.45 
   8 -12   3    2.45    0.28 
   8 -12  -3    3.12    0.32 
  12  -8  -3    2.74    0.33 
  12  -8  -3    2.50    0.59 
  -8 -12  -3    3.25    0.32 
 -12  -8  -3    2.64    0.27 
   8 -12   3    3.06    0.62 
   8 -12  -3    3.59    0.65 
  -8  12   4    4.71    0.77 
   8 -12  -4    3.53    0.67 
   8 -12   4    4.16    0.34 
  12  -8  -4    5.09    0.40 
  -8  12  -4    4.43    0.34 
   8 -12  -4    4.74    0.38 
  -8 -12  -4    5.20    0.38 
 -12  -8  -4    4.83    0.35 
   8 -12   4    3.79    0.69 
  12  -8  -4    4.30    0.72 
  12  -8   4    4.35    0.73 
  -8  12   5    3.36    0.62 
   8 -12  -5    3.92    0.36 
  12  -8  -5    3.85    0.37 
  12  -8  -5    2.57    0.55 
  -8  12  -5    3.84    0.33 
   8 -12   5    2.53    0.58 
  -8 -12  -5    3.90    0.33 
 -12  -8  -5    4.39    0.34 
   8 -12  -5    3.64    0.68 
  12  -8   5    2.83    0.61 
   8 -12  -6    0.35    0.18 
  12  -8  -6    0.81    0.22 
  -8  12  -6    0.50    0.18 
  -8 -12  -6    0.19    0.16 
 -12  -8  -6    0.83    0.21 
   8 -12  -7    0.11    0.15 
  12  -8  -7    0.03    0.21 
  -8  12  -7    0.22    0.15 
  -8 -12  -7   -0.34    0.20 
 -12  -8  -7    0.01    0.15 
   8 -12  -8    0.66    0.19 
  12  -8  -8    0.93    0.24 
  -8  12  -8    0.72    0.19 
  -8 -12  -8    0.54    0.18 
 -12  -8  -8    0.48    0.17 
  12  -8  -9    0.62    0.19 
  -8  12  -9    0.67    0.20 
  -8 -12  -9    0.22    0.17 
 -12  -8  -9    0.31    0.17 
  -8  12 -10    5.17    0.35 
  -8 -12 -10    5.33    0.36 
 -12  -8 -10    5.31    0.37 
 -12   8 -11    1.49    0.22 
  -8  12 -11    1.02    0.17 
  -8 -12 -11    0.91    0.18 
 -12  -8 -11    1.47    0.21 
 -12   8 -12    0.25    0.13 
  -8  12 -12    0.02    0.10 
  -8 -12 -12    0.14    0.12 
 -12  -8 -12   -0.20    0.13 
 -12   8 -13    0.15    0.10 
  -8  12 -13    0.11    0.10 
  -8 -12 -13    0.05    0.08 
 -12  -8 -13    0.32    0.10 
  -9  12   0    0.37    0.35 
 -12   9   0   -0.26    0.29 
  12  -9   0   -0.06    0.29 
   9 -12   0   -0.02    0.15 
  12  -9   0   -0.14    0.20 
   9 -12   0    0.08    0.31 
  -9 -12   0   -0.17    0.17 
  -9  12  -1    9.01    1.01 
  -9  12   1    7.90    0.93 
 -12   9  -1    8.12    0.92 
 -12   9   1    7.10    0.88 
   9 -12   1    8.47    0.48 
  12  -9   1    8.09    0.48 
  12  -9  -1    8.35    0.49 
   9 -12  -1    7.77    0.46 
  -9 -12   1    7.79    0.44 
  -9 -12  -1    8.46    0.46 
   9 -12   1    8.43    0.94 
  12  -9   1    8.10    0.95 
   9 -12  -1    7.27    0.90 
  12  -9  -1    8.00    0.96 
  -9  12  -2   20.70    1.52 
  -9  12   2   18.73    1.44 
 -12   9  -2   18.13    1.35 
 -12   9   2   17.70    1.33 
   9 -12   2   19.88    0.72 
   9 -12  -2   19.63    0.71 
  12  -9   2   18.97    0.70 
  12  -9  -2   19.11    0.72 
   9 -12   2   17.21    1.35 
  -9 -12  -2   20.38    0.70 
  12  -9   2   17.24    1.38 
   9 -12  -2   18.44    1.41 
  12  -9  -2   18.02    1.39 
  -9  12  -3   31.21    1.87 
  -9  12   3   29.79    1.79 
 -12   9  -3   24.85    1.58 
 -12   9   3   26.84    1.65 
   9 -12   3   28.68    0.85 
  12  -9  -3   29.90    0.89 
  12  -9   3   25.86    0.81 
   9 -12   3   28.06    1.71 
  12  -9   3   28.28    1.73 
  -9 -12  -3   31.40    0.87 
 -12  -9  -3   27.35    0.78 
   9 -12  -3   28.54    1.74 
  12  -9  -3   28.31    1.77 
   9 -12  -3   30.30    0.88 
  -9  12  -4   18.29    1.44 
  -9  12   4   18.46    1.46 
   9 -12  -4   21.48    0.75 
  12  -9  -4   21.84    0.77 
  -9  12  -4   21.19    0.70 
   9 -12   4   19.76    1.48 
  12  -9   4   19.82    1.47 
  -9 -12  -4   22.78    0.74 
 -12  -9  -4   22.04    0.71 
   9 -12  -4   19.94    1.49 
  12  -9  -4   19.40    1.46 
  -9 -12  -5    4.38    0.35 
   9 -12  -5    4.45    0.37 
  -9  12  -5    5.02    0.37 
  12  -9  -5    4.19    0.38 
 -12  -9  -5    4.49    0.35 
   9 -12  -6    0.70    0.20 
  12  -9  -6    0.73    0.19 
  -9  12  -6    0.91    0.19 
  -9 -12  -6    0.80    0.19 
 -12  -9  -6    0.65    0.19 
   9 -12  -7    0.08    0.16 
  12  -9  -7    0.26    0.19 
  -9  12  -7   -0.15    0.15 
  -9 -12  -7    0.03    0.15 
 -12  -9  -7   -0.05    0.15 
   9 -12  -8    0.14    0.14 
  12  -9  -8    0.29    0.17 
  -9  12  -8   -0.07    0.15 
  -9 -12  -8   -0.14    0.15 
 -12  -9  -8   -0.33    0.17 
  -9  12  -9    4.39    0.32 
  12  -9  -9    4.00    0.31 
  -9 -12  -9    4.45    0.34 
 -12  -9  -9    4.68    0.35 
  -9  12 -10    6.85    0.38 
  -9 -12 -10    7.11    0.40 
 -12  -9 -10    6.58    0.38 
  -9 -12 -11    2.33    0.23 
 -12  -9 -11    2.39    0.24 
 -12   9 -11    2.36    0.25 
  -9 -12 -12    3.22    0.23 
 -12  -9 -12    3.79    0.25 
 -12   9 -12    3.89    0.27 
  -9  12 -13    1.18    0.14 
  -9 -12 -13    1.20    0.13 
 -12   9 -13    1.24    0.14 
 -12  -9 -13    1.16    0.13 
 -10  12   0   13.58    1.22 
 -12  10   0   13.08    1.20 
  10 -12   0   14.39    0.63 
  12 -10   0   14.93    0.64 
 -10 -12   0   13.49    0.58 
  10 -12   0   12.79    1.21 
  12 -10   0   14.78    1.29 
 -10  12  -1    7.01    0.89 
 -10  12   1    6.48    0.87 
 -12  10  -1    6.81    0.87 
 -12  10   1    6.27    0.85 
  10 -12   1    7.49    0.46 
  12 -10  -1    7.63    0.48 
  12 -10   1    7.61    0.47 
  10 -12  -1    7.08    0.45 
 -10 -12  -1    7.30    0.43 
  10 -12   1    7.28    0.92 
  12 -10   1    7.01    0.91 
  10 -12  -1    6.91    0.91 
  12 -10  -1    6.15    0.87 
  10 -12   2    2.58    0.61 
 -10  12  -2    3.46    0.69 
 -10  12   2    1.48    0.46 
 -12  10  -2    2.31    0.59 
 -12  10   2    2.06    0.55 
  12 -10   2    2.43    0.60 
  10 -12  -2    2.91    0.32 
  12 -10   2    2.56    0.31 
  10 -12   2    2.25    0.28 
  12 -10  -2    2.52    0.32 
 -10 -12  -2    3.04    0.31 
 -12 -10  -2    2.34    0.26 
  10 -12  -2    2.85    0.65 
  12 -10  -2    2.73    0.63 
  10 -12  -3    1.48    0.52 
  12 -10   3    2.42    0.56 
 -10  12  -3    1.36    0.47 
 -10  12   3    0.23    0.41 
 -12  10  -3    0.71    0.35 
 -12  10   3    0.86    0.40 
  12 -10  -3    1.01    0.47 
  10 -12   3    1.33    0.24 
  12 -10   3    1.13    0.23 
  10 -12  -3    1.55    0.28 
  12 -10  -3    1.06    0.26 
 -10 -12  -3    1.36    0.26 
 -12 -10  -3    1.23    0.24 
  10 -12   3    1.82    0.56 
  10 -12  -4    0.64    0.22 
  12 -10  -4    0.18    0.20 
 -10 -12  -4    0.55    0.21 
 -12 -10  -4    0.43    0.19 
  10 -12  -5    0.75    0.22 
  12 -10  -5    0.54    0.23 
 -10 -12  -5    0.41    0.18 
 -12 -10  -5    0.24    0.15 
  10 -12  -6    5.18    0.40 
  12 -10  -6    6.10    0.43 
 -10 -12  -6    5.06    0.36 
 -12 -10  -6    5.32    0.37 
  10 -12  -7    8.39    0.47 
  12 -10  -7    8.79    0.50 
 -10 -12  -7    9.05    0.47 
 -12 -10  -7    8.46    0.45 
  10 -12  -8    4.90    0.35 
  12 -10  -8    4.87    0.36 
 -10 -12  -8    5.84    0.38 
 -12 -10  -8    5.83    0.38 
  12 -10  -9    2.14    0.23 
 -10 -12  -9    2.55    0.26 
 -12 -10  -9    2.62    0.26 
 -10 -12 -10    0.43    0.15 
 -12 -10 -10    0.35    0.15 
 -12  10 -11    0.07    0.14 
 -10 -12 -11    0.22    0.13 
 -12 -10 -11    0.15    0.12 
 -12  10 -12    0.15    0.11 
 -10  12 -12   -0.02    0.10 
 -10 -12 -12    0.13    0.10 
 -12 -10 -12   -0.07    0.10 
 -11  12   0    0.30    0.37 
 -12  11   0   -0.25    0.26 
  11 -12   0   -0.47    0.31 
  11 -12   0    0.16    0.16 
  12 -11   0   -0.31    0.40 
  12 -11   0   -0.15    0.18 
 -11 -12   0    0.15    0.15 
 -11  12  -1    1.24    0.45 
 -12  11  -1    0.74    0.41 
  11 -12   1    1.24    0.24 
  11 -12  -1    1.34    0.26 
  12 -11  -1    1.48    0.26 
 -11 -12  -1    1.02    0.19 
  12 -11   1    1.34    0.24 
  11 -12   2    8.71    0.49 
  12 -11   2    8.93    0.50 
  12 -11  -2    9.28    0.51 
  11 -12  -2    8.69    0.50 
 -11 -12  -2    9.12    0.47 
 -12 -11  -2    8.40    0.44 
  12 -11  -3    8.66    0.50 
  11 -12   3    7.70    0.45 
  12 -11   3    7.58    0.45 
 -11 -12  -3    8.77    0.47 
 -12 -11  -3    7.57    0.44 
  11 -12  -3    8.19    0.49 
  11 -12  -4    4.21    0.37 
  12 -11  -4    3.99    0.37 
 -11 -12  -4    4.21    0.34 
 -12 -11  -4    3.61    0.31 
  11 -12  -5    1.36    0.26 
  12 -11  -5    1.52    0.27 
 -11 -12  -5    1.44    0.23 
 -12 -11  -5    1.37    0.21 
  11 -12  -6    0.21    0.18 
  12 -11  -6    0.43    0.21 
 -11 -12  -6    0.32    0.17 
 -12 -11  -6    0.30    0.15 
  11 -12  -7    0.43    0.17 
  12 -11  -7    0.31    0.19 
 -11 -12  -7    0.27    0.15 
 -12 -11  -7    0.05    0.14 
  11 -12  -8    1.29    0.21 
  12 -11  -8    1.59    0.22 
 -11 -12  -8    1.27    0.20 
 -12 -11  -8    1.19    0.20 
 -11 -12  -9    1.95    0.23 
 -12 -11  -9    1.68    0.22 
 -11 -12 -10    2.05    0.21 
 -12 -11 -10    2.10    0.22 
 -11 -12 -11    2.39    0.21 
 -12 -11 -11    2.31    0.20 
 -12  11 -11    2.23    0.21 
 -11  12 -11    2.27    0.22 
 -12  11 -12    0.84    0.13 
 -11  12 -12    1.05    0.15 
 -11 -12 -12    0.70    0.11 
 -12 -11 -12    0.79    0.12 
  12 -12   0   12.44    0.60 
  12 -12  -1   14.08    0.63 
  12 -12   1   13.60    0.62 
 -12 -12  -1   13.50    0.56 
  12 -12   2    9.56    0.51 
  12 -12  -2    9.07    0.52 
 -12 -12  -2    9.60    0.49 
  12 -12   3    0.55    0.18 
  12 -12  -3    0.70    0.23 
 -12 -12  -3    0.79    0.20 
  12 -12  -4    2.06    0.29 
 -12 -12  -4    2.14    0.25 
  12 -12  -5    2.87    0.32 
 -12 -12  -5    2.61    0.27 
  12 -12  -6    6.16    0.42 
 -12 -12  -6    5.68    0.37 
  12 -12  -7    6.22    0.40 
 -12 -12  -7    6.24    0.37 
  12 -12  -8    6.41    0.37 
 -12 -12  -8    7.57    0.40 
 -12 -12  -9    6.60    0.35 
 -12 -12 -10    2.22    0.21 
 -12  12 -11    0.15    0.10 
 -12 -12 -11    0.14    0.10 
   0 -13   0    0.19    0.13 
   0 -13   0    0.01    0.20 
   0 -13   1    3.56    0.29 
   0 -13  -1    3.60    0.29 
   0 -13  -1    3.46    0.29 
   0 -13   1    3.45    0.53 
   0 -13  -2    9.55    0.46 
   0 -13   2    9.72    0.47 
   0 -13   2   10.51    0.91 
   0 -13  -2    9.13    0.44 
   0 -13   3    8.73    0.45 
   0 -13  -3    8.87    0.45 
   0 -13   3    8.46    0.86 
   0 -13  -3    8.17    0.42 
   0 -13   4    5.39    0.37 
   0 -13   4    6.34    0.74 
   0 -13  -4    5.45    0.37 
   0 -13  -4    5.13    0.34 
 -13   0   4    4.39    0.64 
   0 -13   5   -0.24    0.32 
   0 -13   5    0.04    0.14 
   0 -13  -5    0.04    0.13 
   0 -13  -5    0.11    0.12 
   0  13  -5   -0.05    0.14 
 -13   0  -6   -0.04    0.14 
 -13   0   6    0.19    0.44 
   0 -13   6    0.47    0.34 
   0 -13  -6    0.12    0.14 
   0  13  -6   -0.07    0.14 
 -13   0  -7    0.10    0.13 
   0 -13   7    0.02    0.21 
 -13   0   7    0.47    0.26 
   0 -13  -7    0.11    0.13 
   0  13  -7    0.05    0.15 
   0  13  -8    2.82    0.29 
   0 -13  -8    2.90    0.27 
 -13   0  -8    2.86    0.29 
   0  13  -9    6.56    0.41 
   0 -13  -9    6.31    0.37 
 -13   0  -9    6.60    0.42 
   0  13 -10    6.38    0.40 
 -13   0 -10    6.05    0.40 
   0  13 -11    1.38    0.22 
 -13   0 -11    1.11    0.20 
   0  13 -12   -0.14    0.14 
 -13   0 -12   -0.10    0.14 
   0  13 -13   -0.02    0.11 
 -13   0 -13    0.12    0.11 
   0  13 -14    0.12    0.09 
 -13   0 -14    0.00    0.09 
   1 -13   0    7.59    0.40 
  -1 -13   0    8.25    0.42 
   1 -13   0    8.55    0.80 
   1 -13  -1    3.18    0.49 
  -1 -13  -1    2.51    0.24 
   1 -13   1    2.26    0.24 
  -1 -13  -1    2.49    0.25 
  -1 -13   1    2.14    0.42 
   1 -13   1    2.56    0.47 
   1 -13  -1    2.66    0.26 
  -1 -13   1    2.34    0.24 
  -1 -13   2    3.65    0.30 
  -1 -13  -2    3.32    0.29 
   1 -13   2    3.62    0.30 
   1 -13  -2    3.54    0.29 
   1 -13  -2    3.43    0.52 
  -1 -13   2    3.69    0.54 
   1 -13   2    3.70    0.57 
   1 -13  -2    3.61    0.29 
  -1 -13  -2    3.57    0.30 
  -1 -13   3    1.18    0.33 
  -1 -13   3    1.38    0.20 
   1 -13   3    1.06    0.19 
  -1 -13  -3    1.10    0.18 
   1 -13   3    1.35    0.40 
   1 -13  -3    1.23    0.20 
   1 -13  -3    0.93    0.16 
  -1 -13  -3    1.30    0.20 
 -13   1   4    0.32    0.29 
   1 -13   4    0.38    0.28 
  -1 -13   4    0.13    0.13 
   1 -13   4   -0.06    0.13 
  -1 -13  -4    0.20    0.14 
   1 -13  -4    0.08    0.12 
   1 -13  -4    0.25    0.13 
  -1 -13  -4    0.44    0.16 
 -13   1   5   -0.04    0.27 
   1 -13   5    0.02    0.30 
  -1 -13   5    0.28    0.15 
  -1 -13   5    0.79    0.40 
   1 -13   5    0.40    0.15 
  -1 -13  -5    0.34    0.15 
   1 -13  -5    0.20    0.14 
   1 -13  -5    0.07    0.13 
  -1 -13  -5    0.27    0.15 
   1  13  -5    0.38    0.14 
  -1  13  -5    0.32    0.13 
 -13   1   6    3.75    0.67 
  -1 -13   6    3.75    0.66 
  -1 -13   6    4.25    0.32 
   1  13  -6    4.42    0.33 
  -1  13  -6    4.37    0.33 
   1 -13  -6    3.75    0.30 
  -1 -13  -6    4.30    0.33 
 -13  -1  -6    3.76    0.30 
 -13   1  -6    3.85    0.30 
   1 -13   6    4.55    0.73 
 -13  -1  -7    1.07    0.20 
 -13   1  -7    0.93    0.19 
  -1 -13   7    0.24    0.33 
 -13   1   7    1.80    0.55 
   1 -13   7    1.71    0.56 
   1 -13  -7    0.91    0.17 
  -1 -13  -7    1.11    0.19 
   1  13  -7    1.11    0.21 
  -1  13  -7    1.07    0.20 
 -13   1  -8    0.61    0.18 
   1  13  -8    0.81    0.20 
  -1  13  -8    0.65    0.18 
  -1 -13  -8    0.66    0.18 
 -13  -1  -8    0.56    0.18 
 -13   1  -9    0.29    0.16 
  13  -1  -9    0.04    0.16 
   1  13  -9    0.11    0.15 
  -1  13  -9    0.10    0.17 
  -1 -13  -9    0.31    0.15 
 -13  -1  -9    0.29    0.17 
 -13   1 -10    0.05    0.15 
   1  13 -10    0.20    0.14 
  -1  13 -10    0.36    0.18 
  -1 -13 -10    0.38    0.15 
 -13  -1 -10   -0.16    0.17 
   1  13 -11   -0.13    0.15 
  -1  13 -11    0.11    0.15 
 -13  -1 -11   -0.21    0.16 
 -13   1 -11   -0.16    0.16 
   1  13 -12    0.14    0.14 
  -1  13 -12    0.30    0.14 
 -13  -1 -12    0.32    0.14 
 -13   1 -12    0.42    0.15 
   1  13 -13    0.20    0.12 
  -1  13 -13    0.42    0.14 
 -13  -1 -13    0.27    0.12 
 -13   1 -13    0.25    0.12 
   1  13 -14    0.22    0.09 
  -1  13 -14    0.24    0.09 
 -13  -1 -14    0.19    0.09 
 -13   1 -14    0.23    0.09 
  -2 -13   0    0.02    0.13 
   2 -13   0    0.05    0.12 
  -2 -13   0    0.08    0.12 
   2 -13   0    0.12    0.22 
   2 -13  -1    1.52    0.41 
  -2 -13   1    1.52    0.21 
  -2 -13  -1    1.20    0.19 
   2 -13   1    1.29    0.21 
   2 -13  -1    1.08    0.19 
   2 -13   1    1.56    0.45 
  -2 -13  -1    1.14    0.19 
  13  -2  -1    1.17    0.36 
   2 -13   2    2.20    0.25 
  -2 -13   2    1.92    0.23 
   2 -13  -2    2.00    0.44 
  -2 -13  -2    1.99    0.22 
  13  -2  -2    1.86    0.43 
   2 -13   2    1.58    0.38 
  -2 -13  -2    2.15    0.25 
   2 -13  -2    2.35    0.26 
  -2 -13   3    3.96    0.31 
  -2 -13  -3    3.66    0.29 
   2 -13   3    3.89    0.31 
   2 -13  -3    4.04    0.32 
  -2 -13   3    3.56    0.56 
   2 -13   3    3.58    0.59 
  13  -2  -3    4.14    0.61 
   2 -13  -3    3.31    0.27 
  -2 -13  -3    4.17    0.32 
   2 -13  -3    3.35    0.55 
  -2 -13   4    2.79    0.28 
  -2 -13  -4    2.61    0.25 
   2 -13   4    2.28    0.25 
   2 -13  -4    2.73    0.28 
   2 -13   4    2.59    0.57 
   2 -13  -4    2.17    0.22 
  -2 -13  -4    3.10    0.28 
 -13   2   5    1.23    0.41 
  -2 -13   5    0.92    0.43 
  -2 -13   5    1.26    0.22 
   2 -13   5    0.90    0.18 
  -2 -13  -5    1.04    0.19 
   2 -13   5    1.23    0.44 
   2 -13  -5    0.91    0.19 
   2 -13  -5    0.93    0.18 
  -2 -13  -5    1.24    0.21 
   2  13  -5    1.15    0.19 
  -2  13  -5    1.11    0.19 
 -13   2  -6    0.42    0.13 
 -13   2   6    0.12    0.36 
  -2 -13   6    0.47    0.28 
  -2 -13   6    0.43    0.15 
   2 -13  -6    0.33    0.15 
   2 -13   6    0.54    0.35 
  -2 -13  -6    0.77    0.19 
   2  13  -6    0.50    0.16 
  -2  13  -6    0.29    0.14 
 -13  -2  -6    0.34    0.13 
 -13   2  -7    0.95    0.20 
  -2 -13   7    0.21    0.30 
 -13   2   7    0.58    0.40 
   2 -13   7    0.68    0.38 
   2  13  -7    0.77    0.18 
  -2 -13  -7    0.94    0.19 
  -2  13  -7    0.87    0.19 
 -13  -2  -7    0.76    0.18 
 -13   2  -8    0.58    0.18 
   2  13  -8    0.66    0.18 
  -2  13  -8    0.75    0.19 
  -2 -13  -8    0.89    0.18 
 -13  -2  -8    0.75    0.18 
 -13   2  -9   -0.01    0.14 
  13  -2  -9    0.18    0.17 
   2  13  -9    0.02    0.15 
  -2  13  -9    0.01    0.15 
  -2 -13  -9   -0.07    0.13 
 -13  -2  -9    0.15    0.14 
 -13   2 -10    0.21    0.16 
   2  13 -10    0.21    0.16 
  -2  13 -10    0.22    0.15 
  -2 -13 -10    0.32    0.14 
 -13  -2 -10    0.27    0.16 
 -13   2 -11    0.49    0.16 
   2  13 -11    0.31    0.15 
  -2  13 -11    0.48    0.16 
  -2 -13 -11    0.52    0.14 
 -13  -2 -11    0.30    0.14 
   2  13 -12    0.38    0.14 
  -2  13 -12    0.33    0.13 
 -13  -2 -12    0.57    0.15 
 -13   2 -12    0.27    0.14 
   2  13 -13    0.25    0.12 
  -2  13 -13    0.05    0.10 
 -13  -2 -13    0.01    0.11 
 -13   2 -13   -0.01    0.11 
   2  13 -14    0.00    0.08 
  -2  13 -14   -0.01    0.09 
 -13  -2 -14    0.01    0.08 
 -13   2 -14    0.15    0.09 
  -3 -13   0   14.10    0.55 
   3 -13   0   14.39    0.56 
   3 -13   0   14.82    1.09 
  -3 -13   0   14.77    0.57 
  13  -3   0   14.59    1.06 
   3 -13  -1    4.03    0.31 
   3 -13   1    3.75    0.30 
  -3 -13  -1    3.96    0.31 
  13  -3  -1    3.52    0.55 
   3 -13   1    4.36    0.65 
  -3 -13  -1    4.21    0.32 
   3 -13  -1    4.09    0.61 
  -3 -13   1    4.01    0.31 
   3 -13  -2    2.03    0.24 
   3 -13   2    2.11    0.25 
  -3 -13   2    1.88    0.21 
  -3 -13  -2    1.71    0.21 
   3 -13  -2    1.88    0.41 
   3 -13   2    1.14    0.35 
  -3 -13  -2    1.72    0.21 
  13  -3  -2    1.74    0.47 
  -3 -13   3    0.53    0.17 
  -3 -13  -3    0.27    0.13 
   3 -13   3    0.39    0.15 
   3 -13  -3    0.37    0.15 
   3 -13   3    0.52    0.32 
  13  -3  -3   -0.06    0.31 
   3 -13  -3    0.41    0.29 
  -3 -13  -3    0.67    0.18 
  13  -3  -4    0.53    0.26 
   3 -13  -4    0.84    0.35 
  -3 -13   4    1.00    0.20 
  -3 -13  -4    1.02    0.20 
   3 -13   4    0.68    0.15 
   3 -13   4    0.87    0.41 
   3 -13  -4    0.92    0.20 
  -3 -13  -4    0.98    0.19 
  -3 -13   5    0.07    0.14 
   3 -13   5    0.08    0.37 
   3 -13   5   -0.05    0.13 
   3 -13  -5    0.18    0.15 
  -3 -13  -5    0.02    0.14 
   3  13  -5    0.12    0.13 
  -3  13  -5    0.01    0.14 
 -13   3   6    0.26    0.30 
  -3 -13   6    0.17    0.15 
   3 -13  -6    0.11    0.14 
  -3 -13  -6    0.03    0.14 
   3  13  -6   -0.05    0.15 
  -3  13  -6    0.30    0.15 
 -13  -3  -6    0.04    0.13 
 -13   3  -7    0.53    0.17 
 -13   3   7    0.54    0.32 
   3  13  -7    0.62    0.16 
  -3 -13  -7    0.69    0.17 
  -3  13  -7    0.52    0.17 
 -13  -3  -7    0.47    0.16 
 -13   3  -8    0.36    0.15 
  13  -3  -8    0.64    0.24 
   3  13  -8    0.67    0.19 
  -3  13  -8    0.44    0.16 
  -3 -13  -8    0.30    0.16 
 -13  -3  -8    0.37    0.16 
 -13   3  -9    0.55    0.18 
  13  -3  -9    0.56    0.21 
   3  13  -9    0.44    0.16 
  -3  13  -9    0.56    0.17 
  -3 -13  -9    0.43    0.15 
 -13  -3  -9    0.55    0.19 
 -13   3 -10    0.47    0.18 
   3  13 -10    0.08    0.15 
  -3  13 -10    0.33    0.15 
  -3 -13 -10    0.23    0.14 
 -13  -3 -10    0.26    0.15 
 -13   3 -11   -0.04    0.14 
   3  13 -11    0.14    0.14 
  -3  13 -11   -0.04    0.13 
  -3 -13 -11    0.18    0.13 
 -13  -3 -11   -0.29    0.17 
 -13   3 -12   -0.14    0.15 
   3  13 -12    0.19    0.14 
  -3  13 -12    0.12    0.13 
  -3 -13 -12   -0.07    0.10 
 -13  -3 -12    0.00    0.12 
   3  13 -13    0.30    0.12 
  -3  13 -13    0.30    0.13 
 -13  -3 -13    0.19    0.11 
 -13   3 -13    0.29    0.13 
  -3  13 -14   -0.02    0.08 
 -13  -3 -14   -0.06    0.08 
 -13   3 -14   -0.01    0.08 
  -4 -13   0    0.31    0.17 
   4 -13   0    0.47    0.18 
  -4 -13   0    0.10    0.17 
  13  -4   0    0.56    0.31 
   4 -13   0    0.50    0.30 
   4 -13  -1    1.57    0.44 
  13  -4  -1    1.43    0.41 
  -4 -13   1    1.42    0.20 
  -4 -13  -1    1.55    0.23 
   4 -13   1    1.41    0.23 
   4 -13  -1    1.48    0.21 
  13  -4   1    0.98    0.37 
  -4 -13  -1    1.59    0.23 
   4 -13   1    1.64    0.42 
  -4 -13   2    0.18    0.14 
  -4 -13  -2    0.03    0.13 
   4 -13  -2    0.40    0.31 
   4 -13   2    0.19    0.15 
   4 -13  -2    0.04    0.14 
  13  -4   2    0.15    0.15 
  13  -4  -2    0.84    0.41 
   4 -13   2    0.03    0.30 
  -4 -13  -2    0.10    0.14 
  13  -4  -3    1.26    0.40 
  -4 -13   3    2.04    0.25 
  -4 -13  -3    2.05    0.24 
   4 -13  -3    1.83    0.23 
   4 -13   3    1.90    0.43 
  -4 -13  -3    2.15    0.25 
   4 -13   3    1.87    0.24 
   4 -13  -3    2.39    0.51 
   4 -13  -4    1.72    0.46 
  13  -4  -4    2.11    0.55 
  -4 -13  -4    1.71    0.22 
   4 -13   4    2.07    0.25 
   4 -13   4    2.19    0.52 
   4 -13  -4    2.00    0.25 
  -4 -13  -4    2.20    0.25 
  -4 -13   4    2.16    0.26 
   4  13  -4    1.70    0.21 
   4 -13  -5    2.21    0.26 
   4  13  -5    2.31    0.25 
  -4  13  -5    2.18    0.24 
  -4 -13   5    2.44    0.28 
   4 -13   5    2.49    0.56 
  -4 -13  -5    2.30    0.26 
   4 -13  -5    1.60    0.47 
 -13  -4  -5    1.93    0.22 
 -13   4   6    0.77    0.42 
   4 -13   6    0.73    0.42 
   4 -13  -6   -0.15    0.16 
  13  -4  -6    0.12    0.19 
  -4 -13  -6    0.00    0.16 
   4  13  -6   -0.01    0.13 
  -4  13  -6    0.20    0.14 
 -13  -4  -6    0.21    0.13 
 -13   4  -7    0.11    0.13 
  13  -4  -7    0.21    0.19 
   4  13  -7    0.03    0.14 
  -4 -13  -7   -0.16    0.16 
  -4  13  -7   -0.10    0.15 
 -13  -4  -7   -0.13    0.17 
 -13   4  -8   -0.08    0.16 
  13  -4  -8    0.05    0.18 
   4  13  -8    0.13    0.15 
  -4  13  -8   -0.16    0.16 
  -4 -13  -8    0.06    0.14 
 -13  -4  -8   -0.04    0.16 
 -13   4  -9   -0.10    0.15 
  13  -4  -9   -0.16    0.18 
   4  13  -9    0.15    0.15 
  -4  13  -9    0.03    0.15 
  -4 -13  -9   -0.02    0.15 
 -13  -4  -9    0.05    0.15 
 -13   4 -10   -0.17    0.16 
   4  13 -10   -0.08    0.15 
  -4  13 -10    0.10    0.15 
  -4 -13 -10   -0.03    0.13 
 -13  -4 -10   -0.01    0.15 
 -13   4 -11   -0.05    0.14 
   4  13 -11    0.02    0.13 
  -4  13 -11    0.14    0.14 
  -4 -13 -11    0.18    0.13 
 -13  -4 -11    0.19    0.14 
 -13   4 -12   -0.01    0.12 
   4  13 -12    0.12    0.11 
  -4  13 -12   -0.16    0.13 
  -4 -13 -12   -0.02    0.10 
 -13  -4 -12    0.16    0.14 
   4  13 -13    0.22    0.11 
  -4  13 -13    0.11    0.10 
 -13  -4 -13    0.07    0.10 
 -13   4 -13   -0.07    0.11 
 -13  -4 -14    0.06    0.07 
 -13   4 -14   -0.06    0.08 
   5 -13   0    0.73    0.26 
  -5 -13   0    1.15    0.21 
  13  -5   0    0.97    0.22 
  -5 -13   0    0.94    0.20 
  13  -5   0    0.80    0.34 
   5 -13   0    0.79    0.17 
  13  -5  -1    3.17    0.58 
  -5 -13   1    2.93    0.27 
  -5 -13  -1    3.25    0.30 
   5 -13  -1    3.00    0.55 
   5 -13  -1    2.55    0.26 
  13  -5   1    2.59    0.28 
  13  -5   1    2.68    0.53 
   5 -13   1    2.77    0.28 
  13  -5  -1    2.46    0.28 
  -5 -13  -1    2.97    0.28 
   5 -13   1    2.89    0.55 
  -5 -13   2    0.03    0.16 
  -5 -13  -2    0.02    0.13 
  13  -5   2    0.78    0.33 
  13  -5  -2    0.02    0.25 
   5 -13  -2   -0.26    0.31 
   5 -13   2    0.24    0.18 
   5 -13  -2    0.16    0.15 
  13  -5   2    0.31    0.17 
  13  -5  -2   -0.21    0.20 
   5 -13   2    0.52    0.31 
  -5 -13  -2    0.17    0.14 
  -5 -13  -3    2.30    0.25 
  -5 -13   3    2.22    0.25 
   5 -13   3    2.38    0.27 
   5 -13  -3    2.20    0.25 
  13  -5  -3    1.92    0.27 
   5 -13   3    1.77    0.46 
   5 -13  -3    2.28    0.50 
  -5 -13  -3    2.22    0.25 
  13  -5  -3    2.02    0.48 
   5 -13  -4    3.67    0.60 
  -5 -13   4    4.70    0.36 
  -5 -13  -4    4.48    0.34 
  13  -5  -4    4.38    0.38 
   5 -13  -4    3.95    0.33 
   5  13  -4    4.17    0.31 
   5 -13   4    4.00    0.32 
   5 -13   4    3.77    0.66 
  -5 -13  -4    4.58    0.34 
  13  -5  -4    3.90    0.68 
  -5 -13   5    4.00    0.33 
  13  -5  -5    2.16    0.52 
   5 -13  -5    3.34    0.32 
   5  13  -5    3.65    0.29 
  13  -5  -5    3.82    0.37 
  -5  13  -5    4.22    0.33 
   5 -13   5    3.58    0.64 
  -5 -13  -5    3.62    0.31 
 -13  -5  -5    3.24    0.28 
   5 -13  -5    2.09    0.52 
  13  -5  -6    4.50    0.40 
   5  13  -6    4.40    0.32 
  -5  13  -6    4.51    0.34 
   5 -13   6    4.25    0.70 
   5 -13  -6    4.77    0.37 
  -5 -13  -6    4.59    0.35 
 -13  -5  -6    3.87    0.31 
   5 -13  -6    3.70    0.64 
   5 -13  -7    3.81    0.33 
  -5  13  -7    3.88    0.32 
  13  -5  -7    3.54    0.37 
   5  13  -7    3.86    0.31 
  -5 -13  -7    4.03    0.33 
 -13  -5  -7    3.42    0.30 
 -13   5  -7    3.43    0.30 
 -13   5  -8    0.51    0.17 
  13  -5  -8    0.97    0.23 
   5  13  -8    0.63    0.18 
  -5  13  -8    0.93    0.20 
  -5 -13  -8    0.55    0.18 
 -13  -5  -8    0.80    0.19 
 -13   5  -9    0.06    0.15 
  13  -5  -9    0.17    0.16 
   5  13  -9   -0.15    0.15 
  -5  13  -9    0.18    0.17 
  -5 -13  -9    0.13    0.15 
 -13  -5  -9    0.23    0.16 
 -13   5 -10    0.60    0.19 
   5  13 -10    0.57    0.17 
  -5  13 -10    0.42    0.17 
  -5 -13 -10    0.31    0.15 
 -13  -5 -10    0.61    0.19 
 -13   5 -11   -0.12    0.14 
   5  13 -11   -0.03    0.13 
  -5  13 -11   -0.01    0.13 
  -5 -13 -11   -0.04    0.14 
 -13  -5 -11   -0.02    0.13 
 -13   5 -12    0.14    0.13 
   5  13 -12    0.23    0.12 
  -5  13 -12    0.08    0.12 
  -5 -13 -12   -0.01    0.10 
 -13  -5 -12    0.31    0.14 
   5  13 -13    0.10    0.09 
  -5  13 -13   -0.10    0.10 
  -5 -13 -13    0.00    0.07 
 -13  -5 -13   -0.07    0.11 
 -13   5 -13   -0.06    0.10 
   6 -13   0    0.18    0.29 
  -6 -13   0   -0.09    0.14 
   6 -13   0   -0.01    0.16 
  13  -6   0   -0.17    0.19 
  13  -6   0   -0.39    0.36 
  -6 -13   0   -0.09    0.15 
   6 -13   1    1.27    0.23 
  -6 -13   1    1.27    0.21 
  -6 -13  -1    1.55    0.23 
   6 -13  -1    1.73    0.48 
   6 -13  -1    1.41    0.23 
  13  -6   1    1.24    0.45 
  13  -6   1    1.40    0.27 
  13  -6  -1    1.43    0.26 
  -6 -13  -1    1.59    0.25 
   6 -13   1    1.60    0.47 
  13  -6  -1    1.27    0.48 
  13  -6   2    2.11    0.53 
  13  -6  -2    1.66    0.50 
  -6 -13   2    1.96    0.23 
  -6 -13  -2    1.90    0.23 
   6 -13   2    2.04    0.26 
   6 -13  -2    2.12    0.49 
   6 -13  -2    1.87    0.25 
  13  -6   2    1.38    0.23 
  13  -6  -2    2.07    0.28 
  -6 -13  -2    2.07    0.26 
   6 -13   2    2.05    0.52 
  13  -6   3    0.05    0.31 
  -6 -13   3    0.03    0.15 
  -6 -13  -3   -0.18    0.15 
   6 -13   3    0.12    0.15 
   6 -13  -3   -0.13    0.19 
  13  -6  -3   -0.03    0.18 
   6 -13   3   -0.06    0.30 
  13  -6  -3    0.34    0.27 
  -6 -13  -3   -0.09    0.17 
   6 -13  -4    0.03    0.29 
  13  -6  -4    0.21    0.27 
  -6 -13   4    0.43    0.17 
  -6 -13  -4    0.35    0.16 
   6 -13   4    0.23    0.15 
   6 -13  -4    0.42    0.18 
  13  -6  -4    0.42    0.20 
   6 -13   4    0.27    0.33 
  -6 -13  -4    0.23    0.16 
  -6  13   5    1.82    0.51 
   6 -13  -5    1.91    0.26 
  13  -6  -5    1.76    0.45 
   6 -13   5    1.80    0.53 
  13  -6  -5    1.75    0.28 
   6 -13  -5    1.68    0.48 
  -6 -13  -5    1.84    0.24 
   6  13  -5    1.68    0.21 
 -13  -6  -5    1.71    0.22 
  -6  13  -5    1.87    0.24 
  -6  13  -6    4.38    0.35 
  13  -6  -6    3.84    0.37 
   6 -13  -6    3.44    0.32 
   6  13  -6    3.60    0.30 
  -6 -13  -6    4.05    0.34 
 -13  -6  -6    3.24    0.31 
   6 -13  -7    0.79    0.19 
  13  -6  -7    0.67    0.22 
   6  13  -7    0.42    0.16 
  -6  13  -7    0.70    0.20 
  -6 -13  -7    0.69    0.20 
 -13  -6  -7    0.61    0.19 
 -13   6  -8    2.17    0.27 
  -6  13  -8    2.51    0.27 
  13  -6  -8    2.11    0.29 
  -6 -13  -8    2.44    0.27 
 -13  -6  -8    2.57    0.28 
   6  13  -8    2.08    0.24 
 -13   6  -9    0.35    0.17 
  13  -6  -9   -0.17    0.19 
   6  13  -9    0.31    0.15 
  -6  13  -9    0.25    0.14 
  -6 -13  -9    0.26    0.16 
 -13  -6  -9    0.16    0.15 
 -13   6 -10    0.35    0.18 
   6  13 -10    0.45    0.18 
  -6  13 -10    0.33    0.15 
  -6 -13 -10    0.34    0.16 
 -13  -6 -10    0.46    0.16 
 -13   6 -11    0.09    0.15 
   6  13 -11    0.36    0.15 
  -6  13 -11    0.73    0.17 
  -6 -13 -11    0.27    0.14 
 -13  -6 -11    0.46    0.16 
 -13   6 -12    0.10    0.12 
   6  13 -12    0.01    0.10 
  -6  13 -12   -0.04    0.12 
  -6 -13 -12    0.08    0.11 
 -13  -6 -12    0.20    0.12 
  -6  13 -13    0.16    0.09 
  -6 -13 -13    0.19    0.08 
 -13  -6 -13   -0.05    0.10 
 -13   6 -13    0.23    0.11 
   7 -13   0    3.43    0.62 
  -7 -13   0    3.62    0.30 
   7 -13   0    3.50    0.32 
  13  -7   0    4.26    0.37 
  -7 -13   0    3.89    0.33 
  13  -7   0    3.69    0.64 
  -7 -13   1    2.74    0.28 
  -7 -13  -1    3.21    0.29 
   7 -13   1    2.64    0.28 
  13  -7   1    2.86    0.60 
   7 -13  -1    3.28    0.60 
   7 -13  -1    2.49    0.28 
  13  -7   1    2.90    0.32 
  -7 -13  -1    2.96    0.30 
  13  -7  -1    3.27    0.35 
  13  -7  -1    3.21    0.63 
   7 -13   1    2.48    0.56 
  13  -7  -2    1.12    0.39 
  13  -7   2    1.07    0.43 
  -7 -13   2    1.94    0.23 
  -7 -13  -2    1.85    0.24 
   7 -13   2    1.86    0.25 
   7 -13  -2    1.81    0.25 
   7 -13  -2    2.14    0.53 
  13  -7   2    1.46    0.23 
  13  -7  -2    2.06    0.29 
  -7 -13  -2    1.88    0.25 
   7 -13   2    1.59    0.46 
  13  -7   3    3.95    0.68 
  -7 -13  -3    5.08    0.37 
   7 -13   3    4.95    0.37 
   7 -13  -3    5.08    0.37 
  13  -7  -3    4.97    0.40 
   7 -13   3    5.23    0.77 
  13  -7  -3    5.09    0.77 
  -7 -13  -3    5.18    0.38 
   7 -13  -3    5.20    0.77 
  -7  13   4   10.00    1.09 
  -7 -13  -4    9.10    0.47 
   7 -13   4    8.68    0.47 
  13  -7  -4    9.21    0.53 
   7 -13  -4    8.72    0.48 
   7 -13   4    8.97    0.98 
  13  -7   4    7.14    0.89 
  -7 -13  -4    9.77    0.50 
 -13  -7  -4    7.99    0.43 
   7 -13  -4    7.92    0.97 
  13  -7  -4    8.54    1.00 
  -7  13   5   12.85    1.22 
  -7  13  -5   16.10    0.63 
  13  -7  -5   15.42    0.69 
   7 -13  -5   16.32    0.65 
   7 -13   5   13.65    1.25 
  -7 -13  -5   15.86    0.63 
 -13  -7  -5   15.17    0.60 
   7 -13  -5   12.32    1.21 
  13  -7  -5   12.43    1.21 
   7 -13  -6   17.14    0.68 
  13  -7  -6   18.28    0.74 
  -7  13  -6   17.86    0.66 
  -7 -13  -6   18.41    0.67 
 -13  -7  -6   18.09    0.65 
  -7  13  -7    3.81    0.32 
   7 -13  -7    3.36    0.33 
  13  -7  -7    3.48    0.35 
  -7 -13  -7    3.69    0.32 
 -13  -7  -7    3.42    0.31 
  13  -7  -8   -0.10    0.19 
  -7  13  -8   -0.15    0.18 
  -7 -13  -8    0.02    0.16 
 -13  -7  -8    0.02    0.14 
 -13   7  -9    1.00    0.20 
  13  -7  -9    1.21    0.21 
   7  13  -9    1.05    0.19 
  -7  13  -9    0.99    0.20 
  -7 -13  -9    0.98    0.19 
 -13  -7  -9    1.51    0.23 
 -13   7 -10    0.97    0.19 
  -7  13 -10    1.06    0.20 
  -7 -13 -10    0.96    0.19 
 -13  -7 -10    1.31    0.22 
 -13   7 -11    0.02    0.14 
  -7  13 -11    0.08    0.13 
  -7 -13 -11    0.10    0.13 
 -13  -7 -11    0.23    0.15 
 -13   7 -12    0.51    0.14 
  -7  13 -12    0.50    0.13 
  -7 -13 -12    0.28    0.12 
  -7  13 -13    0.37    0.10 
  -7 -13 -13    0.30    0.09 
 -13  -7 -13    0.41    0.10 
 -13   7 -13    0.25    0.10 
  -8 -13   0    0.03    0.14 
   8 -13   0   -0.02    0.15 
  13  -8   0    0.10    0.18 
  13  -8   0   -0.38    0.44 
   8 -13   0   -0.12    0.27 
  -8 -13   0   -0.36    0.20 
   8 -13   1    0.10    0.30 
  -8 -13  -1    0.56    0.18 
   8 -13  -1    1.19    0.42 
  13  -8   1    0.69    0.46 
   8 -13   1    0.55    0.17 
   8 -13  -1    0.60    0.19 
  13  -8   1    0.61    0.20 
  13  -8  -1    0.87    0.24 
  -8 -13  -1    0.45    0.15 
  13  -8  -1    0.45    0.32 
  13  -8  -2   -0.42    0.38 
  -8  13   2    0.06    0.38 
  13  -8   2    0.67    0.29 
   8 -13   2   -0.12    0.18 
   8 -13  -2   -0.03    0.18 
  13  -8   2    0.08    0.18 
  13  -8  -2    0.28    0.19 
   8 -13  -2    0.74    0.39 
  -8 -13  -2    0.15    0.16 
   8 -13   2    0.29    0.26 
  -8  13   3    5.91    0.85 
   8 -13   3    5.68    0.39 
   8 -13  -3    5.49    0.39 
  13  -8  -3    5.28    0.79 
   8 -13   3    6.48    0.87 
  -8 -13  -3    6.32    0.41 
  13  -8   3    5.57    0.84 
   8 -13  -3    5.62    0.83 
  13  -8  -3    5.61    0.42 
  13  -8  -4    2.87    0.58 
  13  -8   4    3.02    0.60 
  -8  13   4    2.96    0.66 
   8 -13  -4    3.39    0.32 
  13  -8  -4    3.43    0.35 
  -8  13  -4    4.22    0.34 
   8 -13  -4    2.51    0.56 
   8 -13   4    3.41    0.32 
  -8 -13  -4    4.18    0.34 
 -13  -8  -4    3.72    0.30 
   8 -13   4    3.47    0.66 
   8 -13  -5    0.15    0.17 
  13  -8  -5    0.03    0.19 
  -8 -13  -5    0.13    0.15 
 -13  -8  -5    0.31    0.14 
  -8  13  -5    0.10    0.14 
   8 -13  -6    2.55    0.30 
  13  -8  -6    2.27    0.31 
  -8 -13  -6    2.91    0.29 
 -13  -8  -6    2.48    0.27 
  -8  13  -6    2.25    0.26 
   8 -13  -7    1.71    0.24 
  13  -8  -7    1.68    0.27 
  -8  13  -7    1.78    0.24 
  -8 -13  -7    1.60    0.23 
 -13  -8  -7    1.96    0.24 
   8 -13  -8    0.46    0.16 
  13  -8  -8    0.84    0.21 
  -8  13  -8    0.49    0.16 
  -8 -13  -8    0.62    0.19 
 -13  -8  -8    0.46    0.16 
 -13   8  -9    1.07    0.21 
  13  -8  -9    1.05    0.21 
  -8  13  -9    1.08    0.19 
  -8 -13  -9    1.25    0.21 
 -13  -8  -9    1.04    0.20 
 -13   8 -10    1.47    0.22 
  -8  13 -10    1.68    0.21 
  -8 -13 -10    1.32    0.20 
 -13  -8 -10    1.69    0.22 
 -13   8 -11    0.04    0.12 
  -8  13 -11   -0.03    0.11 
  -8 -13 -11   -0.10    0.12 
 -13  -8 -11   -0.09    0.13 
 -13   8 -12    0.41    0.13 
  -8  13 -12    0.25    0.09 
  -8 -13 -12    0.43    0.12 
 -13  -8 -12    0.33    0.12 
  -8  13 -13   -0.11    0.09 
 -13  -8 -13   -0.12    0.08 
  -9  13   0    1.94    0.55 
 -13   9   0    2.14    0.54 
   9 -13   0    1.61    0.44 
   9 -13   0    1.33    0.24 
  13  -9   0    1.61    0.25 
  13  -9   0    1.16    0.45 
  -9 -13   0    1.72    0.24 
   9 -13   1    2.34    0.60 
  -9  13  -1    3.18    0.73 
  -9  13   1    1.70    0.53 
 -13   9  -1    1.46    0.48 
 -13   9   1    1.54    0.41 
  13  -9   1    1.51    0.47 
   9 -13  -1    1.45    0.44 
   9 -13   1    1.76    0.25 
   9 -13  -1    2.03    0.27 
  13  -9   1    1.69    0.26 
  13  -9  -1    1.61    0.27 
  -9 -13  -1    1.86    0.25 
  13  -9  -1    1.72    0.52 
   9 -13   2    1.39    0.50 
  13  -9  -2    0.93    0.41 
  -9  13  -2    1.50    0.51 
  -9  13   2    1.01    0.43 
 -13   9  -2    0.37    0.27 
  13  -9   2    0.83    0.31 
   9 -13   2    0.81    0.21 
   9 -13  -2    1.23    0.22 
  13  -9   2    1.33    0.24 
  13  -9  -2    1.17    0.26 
   9 -13  -2    1.35    0.55 
  -9 -13  -2    1.44    0.25 
  -9  13  -3    1.83    0.60 
  -9  13   3    1.26    0.43 
   9 -13   3    2.04    0.27 
   9 -13  -3    1.63    0.27 
  13  -9   3    1.63    0.25 
  13  -9  -3    1.65    0.28 
  -9 -13  -3    1.83    0.25 
 -13  -9  -3    1.41    0.22 
  13  -9   3    2.00    0.57 
   9 -13  -3    1.84    0.55 
   9 -13   4    0.25    0.17 
   9 -13  -4    0.44    0.20 
  13  -9  -4    0.49    0.23 
  -9 -13  -4    0.47    0.19 
 -13  -9  -4    0.40    0.17 
  -9  13  -4    0.50    0.20 
   9 -13  -5    0.45    0.21 
  13  -9  -5    0.28    0.19 
  -9 -13  -5    0.51    0.19 
 -13  -9  -5    0.25    0.15 
  -9  13  -5    0.70    0.18 
   9 -13  -6    0.20    0.17 
  13  -9  -6    0.23    0.20 
  -9  13  -6    0.19    0.15 
  -9 -13  -6    0.41    0.17 
 -13  -9  -6    0.13    0.13 
   9 -13  -7    0.83    0.20 
  13  -9  -7    1.18    0.24 
  -9  13  -7    1.07    0.20 
  -9 -13  -7    0.89    0.19 
 -13  -9  -7    0.98    0.19 
   9 -13  -8    0.86    0.18 
  13  -9  -8    1.08    0.23 
  -9  13  -8    0.85    0.18 
  -9 -13  -8    0.70    0.17 
 -13  -9  -8    0.93    0.18 
 -13   9  -9    0.62    0.17 
  13  -9  -9    0.33    0.14 
  -9  13  -9    0.85    0.17 
  -9 -13  -9    0.79    0.17 
 -13  -9  -9    0.77    0.17 
 -13   9 -10    0.78    0.18 
  -9  13 -10    1.05    0.17 
  -9 -13 -10    1.12    0.18 
 -13  -9 -10    1.21    0.18 
 -13   9 -11    0.09    0.11 
  -9 -13 -11    0.21    0.13 
 -13  -9 -11    0.05    0.11 
 -13   9 -12    0.22    0.12 
  -9 -13 -12    0.27    0.10 
 -13  -9 -12    0.11    0.09 
  10 -13   0   -0.14    0.18 
 -10 -13   0   -0.27    0.19 
  10 -13   1    0.55    0.20 
  10 -13  -1    0.78    0.21 
  13 -10   1    0.75    0.23 
  13 -10  -1    1.07    0.24 
 -10 -13  -1    0.56    0.18 
  10 -13   2    1.28    0.24 
  10 -13  -2    1.45    0.25 
  13 -10   2    1.17    0.23 
  13 -10  -2    1.21    0.26 
 -10 -13  -2    1.46    0.23 
  10 -13   3    0.10    0.15 
  10 -13  -3    0.06    0.18 
  13 -10   3    0.10    0.16 
  13 -10  -3   -0.17    0.22 
 -10 -13  -3    0.09    0.17 
 -13 -10  -3    0.02    0.15 
  10 -13  -4    1.96    0.28 
  13 -10  -4    1.97    0.29 
 -10 -13  -4    2.09    0.27 
 -13 -10  -4    1.72    0.23 
  10 -13  -5   -0.24    0.19 
  13 -10  -5    0.36    0.20 
 -10 -13  -5   -0.02    0.15 
 -13 -10  -5   -0.04    0.14 
  10 -13  -6    1.85    0.26 
  13 -10  -6    2.34    0.30 
 -10 -13  -6    2.31    0.26 
 -13 -10  -6    2.28    0.25 
  10 -13  -7    0.38    0.16 
  13 -10  -7    0.67    0.20 
 -10 -13  -7    0.48    0.17 
 -13 -10  -7    0.38    0.15 
  10 -13  -8    0.23    0.14 
  13 -10  -8    0.34    0.17 
 -10 -13  -8    0.42    0.16 
 -13 -10  -8    0.15    0.14 
  13 -10  -9    0.14    0.11 
 -10 -13  -9    0.15    0.13 
 -13 -10  -9    0.22    0.13 
 -13  10 -10    0.36    0.15 
 -10 -13 -10   -0.02    0.12 
 -13 -10 -10    0.03    0.12 
 -13  10 -11    0.36    0.12 
 -13 -10 -11    0.13    0.11 
 -10  13 -12   -0.05    0.09 
 -10 -13 -12    0.18    0.08 
 -13 -10 -12    0.15    0.08 
  11 -13   0    1.91    0.28 
  13 -11   0    1.82    0.28 
  11 -13   1    1.14    0.24 
  11 -13  -1    1.10    0.24 
  13 -11   1    1.15    0.24 
  13 -11  -1    1.28    0.26 
 -11 -13  -1    1.07    0.21 
  11 -13   2    1.24    0.23 
  11 -13  -2    1.49    0.25 
  13 -11   2    1.59    0.26 
  13 -11  -2    1.60    0.27 
 -11 -13  -2    1.76    0.25 
 -13 -11  -2    1.35    0.21 
  11 -13   3    0.73    0.19 
  13 -11   3    0.40    0.17 
  11 -13  -3    0.69    0.22 
  13 -11  -3    1.16    0.25 
 -11 -13  -3    1.02    0.22 
 -13 -11  -3    0.87    0.19 
  11 -13  -4    0.14    0.18 
  13 -11  -4    0.54    0.22 
 -11 -13  -4    0.32    0.18 
 -13 -11  -4    0.01    0.14 
  11 -13  -5    0.63    0.20 
  13 -11  -5    0.92    0.23 
 -11 -13  -5    0.38    0.16 
 -13 -11  -5    0.68    0.19 
  11 -13  -6    0.06    0.16 
  13 -11  -6    0.46    0.19 
 -11 -13  -6    0.23    0.14 
 -13 -11  -6    0.15    0.13 
  11 -13  -7   -0.14    0.17 
  13 -11  -7    0.07    0.16 
 -11 -13  -7    0.04    0.14 
 -13 -11  -7   -0.08    0.15 
  11 -13  -8    0.29    0.14 
  13 -11  -8    0.24    0.14 
 -11 -13  -8    0.27    0.14 
 -13 -11  -8    0.16    0.13 
 -13  11  -9    0.10    0.12 
  13 -11  -9    0.21    0.11 
 -11 -13  -9    0.42    0.15 
 -13 -11  -9    0.19    0.13 
 -13  11 -10    0.19    0.12 
 -11 -13 -10    0.28    0.12 
 -13 -11 -10    0.20    0.11 
 -13  11 -11   -0.18    0.10 
 -11  13 -11    0.03    0.10 
 -13 -11 -11   -0.05    0.09 
  12 -13   0    0.28    0.19 
  13 -12   0    0.02    0.18 
  12 -13   1    0.09    0.17 
  12 -13  -1    0.42    0.21 
  13 -12   1    0.49    0.21 
  13 -12  -1    0.32    0.20 
 -12 -13  -1    0.41    0.17 
  12 -13   2    0.69    0.19 
  13 -12   2    1.07    0.23 
  12 -13  -2    1.20    0.25 
  13 -12  -2    1.44    0.26 
 -12 -13  -2    1.59    0.23 
 -13 -12  -2    1.02    0.19 
  12 -13   3    0.74    0.19 
  13 -12   3    0.21    0.14 
  12 -13  -3    0.63    0.21 
  13 -12  -3    0.67    0.21 
 -12 -13  -3    0.73    0.18 
 -13 -12  -3    0.54    0.16 
  12 -13  -4    0.92    0.23 
  13 -12  -4    0.94    0.23 
 -12 -13  -4    1.07    0.21 
 -13 -12  -4    1.17    0.20 
  12 -13  -5   -0.20    0.19 
  13 -12  -5    0.12    0.17 
 -12 -13  -5    0.11    0.14 
 -13 -12  -5    0.11    0.14 
  12 -13  -6   -0.14    0.16 
  13 -12  -6    0.04    0.15 
 -12 -13  -6    0.14    0.15 
 -13 -12  -6    0.21    0.14 
  12 -13  -7    0.17    0.15 
  13 -12  -7   -0.10    0.15 
 -12 -13  -7    0.27    0.14 
 -13 -12  -7    0.41    0.15 
  12 -13  -8    0.80    0.16 
  13 -12  -8    0.78    0.17 
 -12 -13  -8    0.71    0.16 
 -13 -12  -8    0.73    0.16 
 -13  12  -9    0.29    0.12 
 -12 -13  -9    0.37    0.12 
 -13 -12  -9    0.31    0.12 
 -13  12 -10   -0.22    0.11 
 -12  13 -10    0.09    0.10 
 -12 -13 -10    0.15    0.11 
 -13 -12 -10    0.00    0.10 
 -12 -13 -11    0.02    0.08 
 -13 -12 -11    0.13    0.09 
  13 -13   0    1.43    0.24 
  13 -13   1   -0.15    0.20 
  13 -13  -1    0.08    0.17 
  13 -13   2    0.22    0.16 
  13 -13  -2    0.28    0.20 
 -13 -13  -2    0.33    0.13 
  13 -13   3    0.64    0.18 
  13 -13  -3    0.77    0.22 
 -13 -13  -3    0.67    0.17 
  13 -13  -4    0.13    0.17 
 -13 -13  -4    0.31    0.15 
  13 -13  -5    0.90    0.19 
 -13 -13  -5    0.93    0.17 
  13 -13  -6    0.21    0.16 
 -13 -13  -6    0.48    0.15 
  13 -13  -7    0.65    0.16 
 -13 -13  -7    0.91    0.17 
  13 -13  -8    0.46    0.13 
 -13 -13  -8    0.47    0.13 
 -13 -13  -9    1.30    0.16 
 -13 -13 -10    0.55    0.11 
   0 -14   0  256.60    2.53 
   0 -14   1   56.50    1.14 
   0 -14  -1   57.51    1.14 
   0 -14  -2   10.52    0.49 
   0 -14   2    9.33    0.87 
   0 -14   2   10.44    0.50 
   0 -14  -2   10.31    0.50 
   0 -14   3   -0.05    0.14 
   0 -14  -3    0.00    0.14 
   0 -14   3    0.16    0.28 
   0 -14  -3   -0.15    0.15 
   0 -14  -4    3.42    0.31 
   0 -14   4    3.69    0.32 
   0 -14   4    2.99    0.58 
   0 -14  -4    3.27    0.30 
   0 -14   5    8.47    0.46 
   0  14  -5    8.53    0.44 
   0 -14   5    7.75    0.95 
   0 -14  -5    9.10    0.48 
   0 -14  -5    8.44    0.45 
   0  14  -6   29.82    0.82 
   0 -14  -6   30.83    0.82 
   0  14  -7   18.52    0.66 
   0 -14  -7   17.73    0.62 
 -14   0  -7   17.17    0.62 
   0  14  -8   15.38    0.60 
   0 -14  -8   13.60    0.54 
 -14   0  -8   14.12    0.58 
   0  14  -9    3.97    0.33 
 -14   0  -9    3.56    0.31 
   0  14 -10    1.63    0.23 
 -14   0 -10    1.60    0.23 
   0  14 -11    0.19    0.13 
 -14   0 -11   -0.08    0.14 
   0  14 -12    0.01    0.11 
 -14   0 -12    0.01    0.11 
   0  14 -13    3.61    0.23 
 -14   0 -13    3.43    0.23 
   1 -14   0    1.16    0.53 
  -1 -14   0    1.38    0.27 
   1 -14   0    1.38    0.28 
  -1 -14   1    1.47    0.26 
  -1 -14  -1    1.27    0.26 
   1 -14   1    1.28    0.25 
   1 -14  -1    0.84    0.22 
   1 -14   1    0.67    0.43 
  -1 -14   2    0.68    0.21 
  -1 -14  -2    0.58    0.20 
   1 -14   2    0.29    0.16 
   1 -14  -2    0.29    0.17 
   1 -14   2   -0.10    0.26 
  -1 -14  -2    0.62    0.20 
  -1 -14   3    0.32    0.16 
   1 -14   3   -0.05    0.17 
  -1 -14  -3    0.01    0.14 
   1 -14  -3    0.23    0.15 
   1 -14   3    0.06    0.27 
   1 -14  -3    0.21    0.13 
  -1 -14  -3    0.34    0.16 
  -1 -14   4    0.29    0.15 
  -1 -14   4    0.40    0.24 
   1 -14   4    0.34    0.16 
  -1 -14  -4    0.49    0.17 
   1 -14  -4    0.57    0.18 
   1 -14   4   -0.15    0.31 
   1 -14  -4    0.24    0.14 
  -1 -14  -4    0.33    0.15 
  -1 -14   5    1.72    0.43 
  -1 -14   5    1.61    0.23 
   1 -14   5    1.22    0.46 
   1 -14   5    1.40    0.23 
  -1 -14  -5    1.44    0.22 
   1 -14  -5    1.44    0.23 
   1 -14  -5    1.18    0.21 
  -1 -14  -5    1.66    0.24 
   1  14  -5    1.34    0.22 
  -1  14  -5    1.66    0.23 
  -1 -14   6    3.26    0.31 
   1 -14  -6    3.35    0.31 
   1  14  -6    4.12    0.33 
  -1  14  -6    4.01    0.33 
   1 -14   6    3.77    0.65 
   1 -14  -6    3.55    0.30 
  -1 -14  -6    4.39    0.34 
 -14   1  -7    0.08    0.13 
   1 -14  -7    0.46    0.17 
  -1 -14  -7    0.71    0.21 
   1  14  -7    0.85    0.21 
  -1  14  -7    0.67    0.21 
 -14  -1  -7    0.36    0.18 
 -14   1  -8    0.25    0.14 
   1  14  -8    0.52    0.18 
  -1  14  -8    0.33    0.18 
  -1 -14  -8    0.59    0.18 
 -14  -1  -8    0.46    0.16 
 -14   1  -9    0.75    0.18 
  14  -1  -9    1.10    0.23 
   1  14  -9    1.05    0.21 
  -1  14  -9    1.44    0.23 
  -1 -14  -9    0.83    0.17 
 -14  -1  -9    1.09    0.20 
   1  14 -10    0.99    0.20 
  -1  14 -10    1.08    0.20 
  -1 -14 -10    0.84    0.16 
 -14  -1 -10    0.77    0.18 
 -14   1 -10    0.94    0.19 
   1  14 -11    0.83    0.17 
  -1  14 -11    0.55    0.16 
 -14  -1 -11    0.69    0.16 
 -14   1 -11    0.60    0.16 
   1  14 -12    0.25    0.13 
  -1  14 -12    0.32    0.14 
 -14  -1 -12    0.06    0.11 
 -14   1 -12    0.05    0.11 
   1  14 -13    0.11    0.10 
  -1  14 -13    0.33    0.11 
 -14  -1 -13    0.03    0.10 
 -14   1 -13   -0.03    0.10 
  -2 -14   0   17.83    0.64 
   2 -14   0   16.69    0.62 
   2 -14   0   16.86    1.21 
  -2 -14   1   61.77    1.20 
  -2 -14  -1   61.70    1.19 
   2 -14   1   62.76    1.21 
   2 -14  -1   61.13    1.19 
   2 -14   1   64.60    2.37 
  -2 -14  -1   63.85    1.21 
   2 -14  -1   61.06    2.28 
  -2 -14   2   32.53    0.87 
  -2 -14  -2   32.62    0.87 
   2 -14  -2   31.70    0.86 
   2 -14   2   31.78    1.70 
  -2 -14  -2   32.49    0.86 
   2 -14  -2   28.78    1.58 
   2 -14   2   31.72    0.87 
  -2 -14  -3    7.33    0.43 
   2 -14   3    7.00    0.42 
   2 -14  -3    7.21    0.43 
   2 -14   3    6.96    0.84 
  -2 -14   3    7.61    0.45 
  -2 -14  -3    7.56    0.43 
  -2 -14   4    1.11    0.21 
  -2 -14  -4    0.89    0.19 
   2 -14   4    1.19    0.22 
   2 -14  -4    1.09    0.22 
   2 -14   4    0.88    0.37 
   2 -14  -4    0.92    0.18 
  -2 -14  -4    1.10    0.21 
   2 -14   5   10.54    0.51 
   2  14  -5   10.16    0.48 
   2 -14  -5   10.92    0.53 
  -2  14  -5   10.43    0.49 
  -2 -14  -5   10.01    0.49 
  -2 -14   5   11.14    0.53 
   2 -14   5    8.75    1.01 
   2 -14  -5    8.93    0.44 
  -2 -14  -5   10.28    0.50 
 -14   2   5    7.45    0.92 
  -2 -14   6   12.15    0.55 
   2  14  -6   12.23    0.53 
  -2  14  -6   12.57    0.54 
   2 -14   6   10.49    1.10 
   2 -14  -6   12.44    0.56 
  -2 -14  -6   12.71    0.54 
 -14  -2  -6   10.60    0.48 
 -14   2   6    9.13    1.06 
  -2  14  -7   25.19    0.78 
   2  14  -7   25.54    0.77 
  -2 -14  -7   24.15    0.75 
 -14  -2  -7   23.27    0.72 
 -14   2  -7   23.20    0.72 
   2  14  -8   11.12    0.52 
  14  -2  -8   11.30    0.56 
  -2  14  -8   11.49    0.53 
  -2 -14  -8   11.38    0.52 
 -14  -2  -8   11.11    0.51 
 -14   2  -8   10.65    0.51 
   2  14  -9    4.46    0.34 
  14  -2  -9    3.95    0.35 
  -2  14  -9    5.10    0.36 
  -2 -14  -9    4.29    0.32 
 -14  -2  -9    4.33    0.34 
 -14   2  -9    3.99    0.32 
 -14   2 -10    0.09    0.13 
   2  14 -10    0.22    0.15 
  -2  14 -10    0.24    0.15 
  -2 -14 -10    0.32    0.13 
 -14  -2 -10    0.18    0.14 
   2  14 -11    0.41    0.15 
  -2 -14 -11    0.35    0.11 
 -14  -2 -11    0.29    0.13 
 -14   2 -11    0.29    0.13 
   2  14 -12    2.38    0.22 
  -2  14 -12    2.47    0.23 
 -14  -2 -12    2.64    0.24 
 -14   2 -12    2.49    0.23 
   2  14 -13    0.69    0.13 
  -2  14 -13    0.63    0.13 
 -14  -2 -13    0.51    0.12 
 -14   2 -13    0.85    0.14 
   3 -14   0    0.34    0.26 
  -3 -14   0    0.62    0.21 
   3 -14   0    0.25    0.18 
   3 -14  -1    4.65    0.36 
  -3 -14   1    4.95    0.37 
  -3 -14  -1    5.47    0.39 
   3 -14   1    4.98    0.37 
   3 -14   1    5.99    0.79 
  -3 -14  -1    5.25    0.40 
   3 -14  -1    5.75    0.76 
  -3 -14   2    8.83    0.47 
  -3 -14  -2    8.51    0.46 
   3 -14   2    8.61    0.48 
   3 -14   2    8.81    0.95 
  -3 -14  -2    8.09    0.46 
   3 -14  -2    7.60    0.45 
   3 -14  -2    7.77    0.87 
  14  -3  -3   10.51    1.02 
  -3 -14  -3   11.75    0.53 
   3 -14   3   11.96    0.55 
   3 -14   3   10.86    1.05 
   3 -14  -3   11.28    0.54 
  -3 -14   3   11.82    0.54 
  -3 -14  -3   11.51    0.52 
   3 -14  -3    9.58    0.95 
  -3 -14   4    5.73    0.39 
  -3 -14  -4    4.98    0.36 
   3 -14   4    5.35    0.38 
   3 -14   4    4.99    0.77 
  -3 -14  -4    5.01    0.36 
   3 -14  -4    5.40    0.39 
  -3 -14   5   13.79    0.59 
   3 -14   5   12.28    0.54 
   3 -14  -5   13.81    0.59 
   3  14  -5   11.93    0.52 
  -3  14  -5   13.94    0.56 
   3 -14   5   12.65    1.19 
  -3 -14  -5   14.71    0.59 
  -3 -14  -5   12.91    0.56 
  -3 -14   6    5.67    0.38 
   3 -14  -6    5.23    0.39 
   3  14  -6    5.34    0.37 
  -3  14  -6    5.78    0.39 
  -3 -14  -6    5.18    0.37 
 -14  -3  -6    4.48    0.32 
 -14   3  -7    0.37    0.16 
  14  -3  -7    1.07    0.27 
   3  14  -7    0.95    0.20 
  -3 -14  -7    1.14    0.22 
  -3  14  -7    0.60    0.20 
 -14  -3  -7    0.26    0.14 
 -14   3  -8    0.84    0.19 
  14  -3  -8    1.37    0.26 
   3  14  -8    1.24    0.21 
  -3  14  -8    1.28    0.23 
  -3 -14  -8    1.21    0.21 
 -14  -3  -8    1.10    0.20 
  -3  14  -9    3.30    0.31 
   3  14  -9    3.30    0.30 
  14  -3  -9    2.74    0.30 
  -3 -14  -9    3.27    0.29 
 -14  -3  -9    3.01    0.29 
 -14   3  -9    2.64    0.28 
   3  14 -10    4.13    0.32 
  -3  14 -10    4.44    0.33 
  -3 -14 -10    4.07    0.30 
 -14  -3 -10    4.04    0.31 
 -14   3 -10    4.09    0.32 
   3  14 -11    2.97    0.27 
  -3 -14 -11    2.49    0.22 
 -14  -3 -11    2.90    0.26 
  -3  14 -11    3.09    0.27 
 -14   3 -11    3.03    0.27 
   3  14 -12    2.09    0.20 
  -3  14 -12    2.15    0.21 
 -14  -3 -12    1.95    0.21 
 -14   3 -12    1.90    0.20 
   3  14 -13    0.92    0.13 
  -3  14 -13    0.97    0.14 
 -14  -3 -13    0.72    0.13 
 -14   3 -13    0.68    0.13 
   4 -14   0   35.17    0.92 
  -4 -14   0   35.93    0.91 
  -4 -14   0   37.78    0.95 
   4 -14   0   36.24    1.84 
   4 -14   1   15.88    0.62 
  -4 -14   1   15.87    0.61 
   4 -14  -1   15.60    0.61 
  14  -4   1   14.58    0.62 
  -4 -14  -1   16.35    0.62 
   4 -14   1   14.61    1.21 
  -4 -14  -1   16.03    0.63 
   4 -14  -1   15.25    1.23 
  14  -4  -1   13.28    1.13 
  -4 -14   2   18.56    0.67 
  -4 -14  -2   18.20    0.66 
   4 -14   2   18.16    0.67 
   4 -14  -2   17.04    0.65 
  14  -4   2   14.93    0.62 
   4 -14   2   16.40    1.30 
  -4 -14  -2   16.73    0.63 
   4 -14  -2   16.93    1.30 
  14  -4  -2   16.61    1.28 
  -4 -14   3    6.22    0.40 
  -4 -14  -3    6.35    0.40 
   4 -14  -3    5.99    0.41 
   4 -14   3    6.42    0.42 
   4 -14   3    5.73    0.79 
  -4 -14  -3    6.09    0.39 
   4 -14  -3    5.56    0.77 
  14  -4  -3    4.46    0.71 
  14  -4  -4    0.11    0.33 
   4 -14  -4    0.07    0.26 
  -4 -14   4    0.27    0.17 
  -4 -14  -4    0.42    0.16 
   4 -14   4    0.22    0.15 
   4 -14  -4    0.22    0.18 
   4 -14   4    0.47    0.31 
  -4 -14  -4    0.56    0.20 
   4  14  -4    0.46    0.18 
  -4 -14   5    5.23    0.38 
   4 -14  -5    5.66    0.40 
  -4  14  -5    5.46    0.37 
   4 -14   5    4.53    0.35 
   4 -14   5    4.41    0.76 
  -4 -14  -5    5.71    0.38 
   4  14  -5    4.91    0.34 
   4 -14  -6   10.18    0.52 
   4  14  -6   10.30    0.49 
  -4  14  -6   10.65    0.51 
  14  -4  -6   10.39    0.57 
  -4 -14  -6    9.92    0.51 
 -14  -4  -6    8.69    0.44 
   4 -14  -7    3.16    0.30 
   4  14  -7    3.72    0.31 
  -4  14  -7    4.01    0.33 
  14  -4  -7    4.49    0.40 
  -4 -14  -7    4.09    0.34 
 -14  -4  -7    3.55    0.30 
 -14   4  -7    3.17    0.28 
  -4  14  -8    3.43    0.31 
  14  -4  -8    3.59    0.35 
  -4 -14  -8    3.49    0.30 
 -14  -4  -8    3.01    0.29 
 -14   4  -8    3.39    0.31 
   4  14  -8    3.34    0.30 
 -14   4  -9    0.69    0.18 
  14  -4  -9    0.68    0.19 
   4  14  -9    0.91    0.20 
  -4  14  -9    1.51    0.23 
  -4 -14  -9    0.92    0.19 
 -14  -4  -9    0.97    0.20 
 -14   4 -10    0.40    0.16 
   4  14 -10    0.49    0.16 
  -4  14 -10    0.53    0.18 
  -4 -14 -10    0.54    0.16 
 -14  -4 -10    0.44    0.15 
 -14   4 -11    0.14    0.14 
   4  14 -11    0.42    0.14 
  -4  14 -11    0.39    0.16 
  -4 -14 -11    0.44    0.14 
 -14  -4 -11    0.30    0.15 
   4  14 -12    1.01    0.17 
  -4  14 -12    1.20    0.17 
  -4 -14 -12    0.75    0.13 
 -14  -4 -12    0.92    0.16 
 -14   4 -12    0.89    0.16 
   4  14 -13    1.76    0.15 
  -4  14 -13    1.87    0.17 
 -14  -4 -13    1.97    0.17 
 -14   4 -13    2.11    0.18 
  14  -5   0   -0.15    0.32 
   5 -14   0    0.02    0.31 
  -5 -14   0    0.19    0.16 
   5 -14   0    0.20    0.17 
  14  -5   0    0.17    0.20 
  -5 -14   0    0.21    0.17 
   5 -14  -1    0.76    0.45 
  -5 -14   1    0.66    0.18 
  -5 -14  -1    0.47    0.16 
  14  -5  -1    0.40    0.29 
   5 -14   1    0.62    0.22 
   5 -14  -1    0.34    0.17 
  14  -5   1    0.49    0.20 
  14  -5  -1    0.63    0.23 
  -5 -14  -1    0.31    0.18 
   5 -14   1   -0.06    0.26 
  -5 -14  -2   27.36    0.81 
   5 -14   2   27.61    0.83 
  14  -5   2   24.20    0.79 
  14  -5  -2   26.32    0.85 
  -5 -14   2   26.38    0.80 
   5 -14   2   25.81    1.65 
  -5 -14  -2   27.16    0.82 
   5 -14  -2   24.84    1.60 
   5 -14  -2   28.16    0.83 
  14  -5  -2   22.15    1.54 
  -5 -14   3   29.37    0.85 
  -5 -14  -3   30.19    0.85 
   5 -14   3   29.06    0.86 
   5 -14  -3   29.26    0.85 
  14  -5  -3   27.59    0.89 
   5 -14   3   29.54    1.76 
  -5 -14  -3   28.82    0.82 
   5 -14  -3   26.81    1.66 
  14  -5  -4   21.97    1.59 
  -5 -14   4   27.04    0.82 
  -5 -14  -4   26.59    0.79 
   5 -14   4   25.79    0.80 
   5 -14  -4   26.29    0.82 
   5  14  -4   23.55    0.72 
  14  -5  -4   26.81    0.87 
   5 -14   4   24.47    1.62 
  -5 -14  -4   26.20    0.80 
   5 -14  -4   20.79    1.49 
   5  14  -5   13.81    0.55 
  -5  14  -5   14.92    0.60 
   5 -14  -5   15.60    0.64 
  14  -5  -5   14.38    0.66 
  -5 -14  -5   15.17    0.61 
   5 -14  -6    8.86    0.49 
   5  14  -6    8.68    0.45 
  -5  14  -6   10.04    0.50 
  14  -5  -6    8.87    0.53 
  -5 -14  -6    8.92    0.47 
 -14  -5  -6    7.68    0.42 
   5 -14  -7    1.05    0.20 
  14  -5  -7    0.70    0.23 
   5  14  -7    0.87    0.18 
  -5 -14  -7    1.15    0.21 
  -5  14  -7    1.06    0.21 
 -14  -5  -7    0.65    0.16 
 -14   5  -8    1.68    0.23 
   5  14  -8    2.06    0.25 
  14  -5  -8    1.74    0.26 
  -5 -14  -8    2.28    0.26 
  -5  14  -8    2.02    0.25 
 -14  -5  -8    1.69    0.23 
   5  14  -9    4.60    0.34 
  14  -5  -9    4.78    0.35 
  -5  14  -9    5.68    0.38 
  -5 -14  -9    5.24    0.35 
 -14  -5  -9    5.97    0.38 
 -14   5  -9    4.64    0.34 
   5  14 -10    8.41    0.41 
  -5  14 -10    9.47    0.45 
  -5 -14 -10    8.29    0.41 
 -14  -5 -10    9.16    0.45 
 -14   5 -10    8.79    0.44 
   5  14 -11    7.00    0.35 
  -5  14 -11    7.27    0.37 
  -5 -14 -11    6.45    0.33 
 -14  -5 -11    7.00    0.38 
 -14   5 -11    6.84    0.37 
   5  14 -12    1.39    0.17 
  -5  14 -12    1.48    0.17 
  -5 -14 -12    1.29    0.15 
 -14  -5 -12    1.49    0.18 
 -14   5 -12    1.19    0.17 
  -5  14 -13    0.69    0.11 
 -14  -5 -13    0.71    0.12 
 -14   5 -13    0.83    0.12 
   6 -14   0    0.36    0.40 
  -6 -14   0    0.01    0.15 
   6 -14   0    0.16    0.16 
  14  -6   0    0.15    0.17 
  -6 -14   0   -0.23    0.19 
  14  -6   0   -0.39    0.33 
   6 -14   1    4.45    0.36 
  -6 -14   1    4.60    0.35 
  -6 -14  -1    4.52    0.34 
  14  -6  -1    4.62    0.70 
   6 -14  -1    4.15    0.34 
  14  -6   1    4.58    0.38 
  14  -6  -1    4.63    0.39 
   6 -14  -1    4.52    0.73 
  -6 -14  -1    4.45    0.35 
  14  -6   1    3.45    0.64 
   6 -14   1    4.55    0.73 
  -6 -14  -2    5.28    0.38 
   6 -14   2    4.91    0.39 
   6 -14  -2    4.13    0.34 
  14  -6   2    4.38    0.37 
  14  -6  -2    5.40    0.43 
   6 -14  -2    3.61    0.67 
  -6 -14   2    5.10    0.37 
   6 -14   2    5.31    0.81 
  14  -6  -2    3.77    0.68 
  -6 -14  -2    5.05    0.38 
  -6 -14  -3    4.66    0.37 
   6 -14   3    4.09    0.37 
   6 -14  -3    3.82    0.35 
  14  -6  -3    4.38    0.40 
  -6 -14   3    4.58    0.38 
  -6 -14  -3    4.72    0.37 
   6 -14   3    3.65    0.70 
   6 -14  -3    4.72    0.79 
   6 -14  -4    1.04    0.46 
  -6 -14  -4    0.48    0.19 
   6 -14   4    0.62    0.22 
   6 -14  -4    0.43    0.19 
  14  -6  -4    0.31    0.22 
   6 -14   4    0.91    0.46 
  -6 -14  -4    0.75    0.22 
   6  14  -4    0.51    0.17 
  14  -6  -4    0.75    0.34 
   6 -14  -5    1.72    0.27 
  14  -6  -5    1.28    0.28 
  -6 -14  -5    1.25    0.24 
   6  14  -5    1.25    0.21 
 -14  -6  -5    0.92    0.20 
  -6  14  -5    1.31    0.24 
   6 -14  -6    1.41    0.24 
  14  -6  -6    1.48    0.30 
   6  14  -6    1.03    0.20 
  -6 -14  -6    1.11    0.22 
  -6  14  -6    1.14    0.22 
 -14  -6  -6    1.15    0.20 
   6  14  -7    3.11    0.29 
   6 -14  -7    2.73    0.29 
  -6  14  -7    3.09    0.31 
  14  -6  -7    2.93    0.33 
  -6 -14  -7    2.67    0.28 
 -14  -6  -7    2.29    0.25 
 -14   6  -8    0.21    0.14 
  14  -6  -8   -0.01    0.18 
   6  14  -8    0.04    0.13 
  -6  14  -8   -0.17    0.16 
  -6 -14  -8    0.08    0.16 
 -14  -6  -8   -0.14    0.15 
 -14   6  -9    0.21    0.16 
  14  -6  -9    0.13    0.15 
   6  14  -9    0.45    0.15 
  -6  14  -9    0.54    0.18 
  -6 -14  -9    0.23    0.15 
 -14  -6  -9    0.35    0.17 
 -14   6 -10    1.03    0.20 
   6  14 -10    1.01    0.19 
  -6  14 -10    1.00    0.21 
  -6 -14 -10    1.39    0.21 
 -14  -6 -10    1.10    0.20 
 -14   6 -11    0.33    0.13 
   6  14 -11    0.40    0.13 
  -6  14 -11    0.47    0.14 
  -6 -14 -11    0.41    0.15 
 -14  -6 -11    0.44    0.15 
  -6  14 -12    0.56    0.13 
  -6 -14 -12    0.62    0.12 
 -14  -6 -12    0.31    0.12 
 -14   6 -12    0.65    0.14 
 -14  -6 -13    0.22    0.08 
   7 -14   0    0.13    0.27 
  -7 -14   0   -0.17    0.16 
   7 -14   0   -0.27    0.20 
  14  -7   0   -0.34    0.22 
  -7 -14   0   -0.12    0.18 
  14  -7   0   -0.58    0.44 
   7 -14   1    2.86    0.56 
  14  -7  -1    1.57    0.50 
  -7 -14   1    2.65    0.28 
  -7 -14  -1    3.23    0.30 
  14  -7   1    3.02    0.32 
  14  -7  -1    3.01    0.34 
   7 -14  -1    2.62    0.60 
   7 -14  -1    2.33    0.27 
  -7 -14  -1    2.88    0.30 
  14  -7   1    1.59    0.46 
   7 -14   1    2.66    0.30 
  -7 -14   2    5.55    0.38 
  -7 -14  -2    5.87    0.39 
   7 -14   2    5.66    0.41 
  14  -7   2    5.45    0.40 
  14  -7  -2    5.70    0.44 
  14  -7  -2    3.69    0.65 
  14  -7   2    4.33    0.77 
   7 -14   2    5.53    0.82 
   7 -14  -2    4.78    0.79 
  -7 -14  -2    5.83    0.41 
   7 -14  -2    5.07    0.38 
  -7 -14  -3   44.75    1.04 
   7 -14  -3   43.37    1.06 
  14  -7  -3   42.04    1.10 
   7 -14   3   43.61    2.20 
   7 -14   3   44.90    1.08 
  -7 -14  -3   45.65    1.06 
   7 -14  -3   40.41    2.14 
  -7 -14  -4   52.02    1.11 
   7 -14   4   49.94    1.12 
   7 -14  -4   51.74    1.16 
  14  -7  -4   53.64    1.23 
  -7  14  -4   53.01    1.12 
  -7 -14  -4   53.23    1.14 
   7 -14  -5   27.76    0.85 
  -7  14  -5   28.00    0.83 
  14  -7  -5   26.33    0.89 
  -7 -14  -5   28.69    0.83 
 -14  -7  -5   25.23    0.75 
  14  -7  -6    4.96    0.41 
  -7  14  -6    5.21    0.38 
  -7 -14  -6    5.45    0.38 
 -14  -7  -6    4.64    0.33 
   7 -14  -6    5.06    0.38 
   7 -14  -7    0.06    0.15 
  14  -7  -7   -0.09    0.20 
  -7  14  -7   -0.10    0.16 
  -7 -14  -7    0.00    0.15 
 -14  -7  -7   -0.06    0.14 
 -14   7  -8    0.46    0.16 
  14  -7  -8    0.17    0.17 
  -7  14  -8    0.46    0.17 
  -7 -14  -8    0.48    0.16 
 -14  -7  -8    0.39    0.15 
  -7  14  -9   10.04    0.47 
  14  -7  -9    8.99    0.44 
  -7 -14  -9    8.85    0.44 
 -14  -7  -9    9.17    0.45 
 -14   7  -9    8.89    0.44 
  -7  14 -10   12.18    0.48 
  -7 -14 -10   11.47    0.46 
 -14  -7 -10   11.80    0.48 
 -14   7 -10   10.65    0.47 
  -7  14 -11    4.92    0.30 
  -7 -14 -11    4.74    0.28 
 -14  -7 -11    4.77    0.29 
 -14   7 -11    4.51    0.30 
  -7  14 -12    4.66    0.25 
  -7 -14 -12    5.02    0.25 
 -14  -7 -12    5.01    0.26 
 -14   7 -12    4.61    0.26 
   8 -14   0    0.65    0.32 
   8 -14   0    0.99    0.21 
  14  -8   0    0.89    0.22 
  -8 -14   0    0.70    0.19 
  14  -8   0    0.87    0.41 
  14  -8  -1    1.14    0.29 
   8 -14   1    1.68    0.57 
   8 -14  -1    1.12    0.48 
   8 -14   1    1.34    0.24 
   8 -14  -1    1.10    0.21 
  14  -8   1    1.56    0.26 
  14  -8  -1    1.16    0.25 
  14  -8   1    1.19    0.49 
  -8 -14  -1    1.44    0.24 
  14  -8  -2    0.15    0.26 
   8 -14   2    0.94    0.23 
  14  -8   2    0.35    0.36 
   8 -14  -2    0.92    0.22 
  14  -8   2    0.52    0.23 
  14  -8  -2    0.84    0.24 
   8 -14  -2    1.11    0.44 
  -8 -14  -2    1.18    0.24 
   8 -14   3    0.85    0.24 
   8 -14  -3    0.55    0.21 
  14  -8  -3    0.91    0.27 
  -8 -14  -3    0.73    0.23 
   8 -14  -4    3.54    0.34 
   8 -14   4    3.39    0.33 
  -8  14  -4    3.97    0.36 
  14  -8  -4    3.88    0.39 
  -8 -14  -4    4.11    0.37 
  -8  14  -5    2.93    0.31 
  14  -8  -5    3.34    0.36 
   8 -14  -5    2.29    0.30 
  -8 -14  -5    3.11    0.32 
 -14  -8  -5    2.30    0.26 
   8 -14  -6    1.00    0.21 
  14  -8  -6    1.16    0.25 
  -8 -14  -6    1.16    0.22 
  -8  14  -6    1.58    0.24 
 -14  -8  -6    1.08    0.20 
   8 -14  -7    0.28    0.17 
  14  -8  -7   -0.32    0.22 
  -8  14  -7   -0.09    0.15 
  -8 -14  -7    0.24    0.17 
 -14  -8  -7   -0.07    0.15 
 -14   8  -8    0.34    0.16 
   8 -14  -8    0.05    0.13 
  14  -8  -8    0.64    0.20 
  -8  14  -8    0.40    0.17 
  -8 -14  -8    0.25    0.15 
 -14  -8  -8    0.35    0.15 
 -14   8  -9    1.52    0.22 
  14  -8  -9    1.64    0.22 
  -8  14  -9    1.63    0.22 
  -8 -14  -9    1.64    0.22 
 -14  -8  -9    1.44    0.21 
 -14   8 -10    0.48    0.15 
  -8  14 -10    0.50    0.15 
  -8 -14 -10    0.46    0.15 
 -14  -8 -10    0.38    0.14 
 -14   8 -11    0.95    0.16 
  -8  14 -11    0.70    0.14 
  -8 -14 -11    1.16    0.16 
 -14  -8 -11    0.63    0.15 
  -8 -14 -12    1.18    0.13 
 -14  -8 -12    0.98    0.13 
 -14   8 -12    0.75    0.11 
   9 -14   0   -0.16    0.19 
  14  -9   0   -0.08    0.20 
  14  -9   1    2.43    0.31 
   9 -14   1    1.45    0.25 
   9 -14  -1    1.75    0.27 
  14  -9  -1    1.76    0.28 
  -9 -14  -1    1.82    0.26 
   9 -14  -2   27.57    0.85 
  14  -9   2   28.13    0.86 
  14  -9  -2   28.73    0.90 
   9 -14   2   29.71    0.88 
  -9 -14  -2   29.27    0.85 
   9 -14   3   28.58    0.85 
   9 -14  -3   28.13    0.85 
  14  -9  -3   26.74    0.87 
  -9 -14  -3   28.20    0.85 
   9 -14  -4   19.50    0.72 
  -9  14  -4   20.89    0.72 
  14  -9  -4   19.94    0.75 
   9 -14   4   18.51    0.67 
  -9 -14  -4   19.37    0.71 
 -14  -9  -4   17.89    0.61 
   9 -14  -5   10.65    0.53 
  -9  14  -5   11.91    0.54 
  14  -9  -5   10.13    0.55 
  -9 -14  -5   11.01    0.52 
 -14  -9  -5    9.52    0.45 
   9 -14  -6    0.96    0.20 
  14  -9  -6    1.56    0.27 
  -9  14  -6    1.67    0.24 
  -9 -14  -6    1.45    0.23 
 -14  -9  -6    1.28    0.21 
   9 -14  -7    0.58    0.18 
  14  -9  -7    0.74    0.22 
  -9  14  -7    0.50    0.17 
  -9 -14  -7    0.76    0.19 
 -14  -9  -7    0.58    0.16 
   9 -14  -8    4.10    0.30 
  14  -9  -8    4.63    0.35 
  -9  14  -8    5.12    0.34 
  -9 -14  -8    4.74    0.33 
 -14  -9  -8    4.52    0.31 
 -14   9  -8    4.77    0.33 
 -14   9  -9    1.66    0.21 
  14  -9  -9    1.26    0.18 
  -9 -14  -9    1.84    0.22 
  -9  14  -9    2.00    0.22 
 -14  -9  -9    1.89    0.21 
  -9  14 -10    3.21    0.23 
  -9 -14 -10    3.63    0.26 
 -14  -9 -10    3.37    0.25 
 -14   9 -10    3.23    0.25 
  -9 -14 -11    6.70    0.31 
 -14  -9 -11    6.41    0.30 
 -14   9 -11    6.01    0.29 
  -9 -14 -12    2.09    0.15 
 -14  -9 -12    1.98    0.15 
  -9  14 -12    1.91    0.16 
  10 -14   0   11.31    0.56 
  14 -10   0   10.90    0.56 
  10 -14  -1    2.67    0.31 
  14 -10   1    3.14    0.33 
  14 -10  -1    3.46    0.37 
 -10 -14  -1    3.23    0.32 
  10 -14   1    2.85    0.31 
  10 -14   2    4.33    0.37 
  10 -14  -2    4.20    0.37 
  14 -10   2    4.60    0.37 
  14 -10  -2    4.43    0.40 
 -10 -14  -2    3.88    0.35 
  10 -14   3    1.91    0.27 
  10 -14  -3    1.88    0.28 
  14 -10   3    1.71    0.25 
  14 -10  -3    2.28    0.31 
 -10 -14  -3    2.17    0.29 
  10 -14   4    0.23    0.16 
  10 -14  -4    0.07    0.18 
  14 -10  -4    0.64    0.25 
 -10 -14  -4    0.58    0.22 
 -14 -10  -4    0.43    0.16 
  10 -14  -5    2.67    0.30 
  14 -10  -5    3.50    0.35 
 -10 -14  -5    2.90    0.29 
 -14 -10  -5    2.65    0.26 
  10 -14  -6    4.25    0.34 
  14 -10  -6    4.63    0.38 
 -10 -14  -6    4.75    0.35 
 -14 -10  -6    3.99    0.29 
  10 -14  -7    1.67    0.23 
  14 -10  -7    1.50    0.24 
 -10 -14  -7    1.46    0.23 
 -14 -10  -7    1.56    0.21 
  10 -14  -8    1.61    0.20 
  14 -10  -8    1.35    0.20 
 -10 -14  -8    1.65    0.21 
 -14 -10  -8    1.14    0.18 
 -14  10  -9    0.68    0.15 
  14 -10  -9    0.61    0.14 
 -10 -14  -9    1.06    0.17 
 -14 -10  -9    0.85    0.16 
 -14  10 -10    2.28    0.27 
 -10 -14 -10    2.79    0.22 
 -14 -10 -10    2.25    0.20 
 -10 -14 -11    0.73    0.13 
 -14 -10 -11    0.51    0.11 
  11 -14   0   -0.15    0.18 
  14 -11   0    0.23    0.19 
  11 -14  -1    5.62    0.41 
  14 -11   1    6.27    0.43 
  14 -11  -1    6.78    0.45 
  11 -14   1    6.15    0.42 
 -11 -14  -1    6.66    0.42 
  11 -14  -2    5.01    0.39 
  14 -11   2    4.74    0.38 
  14 -11  -2    5.30    0.40 
  11 -14   2    5.47    0.39 
 -11 -14  -2    5.30    0.38 
  11 -14   3   11.49    0.54 
  14 -11   3   10.60    0.51 
  11 -14  -3   12.55    0.57 
  14 -11  -3   12.35    0.58 
 -11 -14  -3   12.09    0.54 
  11 -14  -4    8.37    0.47 
  14 -11  -4    8.76    0.51 
 -11 -14  -4    8.70    0.46 
 -14 -11  -4    7.98    0.40 
  11 -14  -5    5.66    0.39 
  14 -11  -5    5.96    0.42 
 -11 -14  -5    5.68    0.37 
 -14 -11  -5    4.80    0.32 
  11 -14  -6   -0.17    0.16 
  14 -11  -6    0.28    0.18 
 -11 -14  -6    0.05    0.14 
 -14 -11  -6    0.13    0.13 
  11 -14  -7    0.48    0.17 
  14 -11  -7    0.50    0.18 
 -11 -14  -7    0.28    0.14 
 -14 -11  -7    0.39    0.14 
  11 -14  -8    0.54    0.14 
  14 -11  -8    0.35    0.14 
 -11 -14  -8    0.77    0.17 
 -14 -11  -8    0.60    0.14 
 -11 -14  -9    2.33    0.21 
 -14 -11  -9    2.02    0.19 
 -11 -14 -10    3.09    0.22 
 -14 -11 -10    2.70    0.20 
 -11 -14 -11    1.33    0.14 
 -14 -11 -11    1.24    0.12 
  12 -14   0    2.91    0.31 
  14 -12   0    3.44    0.34 
  12 -14   1   10.25    0.52 
  12 -14  -1   10.60    0.54 
  14 -12   1   10.22    0.52 
  14 -12  -1   10.49    0.55 
  12 -14   2    6.42    0.42 
  14 -12   2    5.73    0.39 
  12 -14  -2    6.48    0.43 
  14 -12  -2    6.44    0.44 
 -12 -14  -2    5.82    0.38 
  12 -14  -3    2.40    0.29 
  14 -12  -3    2.37    0.31 
  12 -14   3    2.33    0.27 
  14 -12   3    1.88    0.23 
 -12 -14  -3    2.55    0.27 
 -14 -12  -3    1.86    0.21 
  12 -14  -4    0.60    0.20 
  14 -12  -4    0.67    0.21 
 -12 -14  -4    0.74    0.17 
 -14 -12  -4    0.39    0.15 
  12 -14  -5    6.12    0.39 
  14 -12  -5    5.73    0.39 
 -12 -14  -5    5.79    0.36 
 -14 -12  -5    5.72    0.33 
  12 -14  -6    4.93    0.34 
  14 -12  -6    4.95    0.35 
 -12 -14  -6    5.33    0.33 
 -14 -12  -6    4.91    0.30 
  14 -12  -7    8.18    0.41 
  12 -14  -7    7.92    0.40 
 -12 -14  -7    8.13    0.39 
 -14 -12  -7    7.91    0.37 
  12 -14  -8    4.37    0.27 
  14 -12  -8    4.38    0.28 
 -12 -14  -8    5.70    0.31 
 -14 -12  -8    5.22    0.29 
 -12 -14  -9    4.42    0.26 
 -14 -12  -9    3.85    0.24 
 -12 -14 -10    1.75    0.16 
 -14 -12 -10    1.65    0.15 
  13 -14   0    0.19    0.18 
  14 -13   0    0.42    0.19 
  13 -14   1    0.69    0.19 
  14 -13   1    0.72    0.19 
  13 -14  -1    0.80    0.23 
  14 -13  -1    1.03    0.23 
  13 -14   2    2.22    0.25 
  14 -13   2    1.72    0.23 
  13 -14  -2    2.08    0.27 
  14 -13  -2    2.21    0.29 
  13 -14   3    1.55    0.22 
  14 -13   3    1.66    0.22 
  13 -14  -3    1.61    0.23 
  14 -13  -3    1.74    0.25 
 -13 -14  -3    1.61    0.21 
 -14 -13  -3    1.44    0.19 
  13 -14  -4    1.48    0.23 
  14 -13  -4    1.64    0.24 
 -13 -14  -4    1.57    0.21 
 -14 -13  -4    1.29    0.17 
  13 -14  -5    0.24    0.16 
  14 -13  -5    0.33    0.17 
 -13 -14  -5    0.36    0.15 
 -14 -13  -5    0.32    0.14 
  13 -14  -6   -0.10    0.15 
  14 -13  -6    0.07    0.14 
 -13 -14  -6    0.15    0.12 
 -14 -13  -6   -0.02    0.10 
  13 -14  -7    0.34    0.13 
  14 -13  -7    0.06    0.12 
 -13 -14  -7    0.05    0.12 
 -14 -13  -7    0.09    0.10 
  13 -14  -8    0.64    0.12 
  14 -13  -8    1.05    0.14 
 -13 -14  -8    0.74    0.13 
 -14 -13  -8    1.02    0.14 
 -13 -14  -9    1.35    0.15 
 -14 -13  -9    1.34    0.14 
  14 -14   0   28.35    0.80 
  14 -14   1    5.94    0.38 
  14 -14  -1    6.27    0.39 
  14 -14   2    3.26    0.28 
  14 -14  -2    3.48    0.31 
  14 -14  -3    0.71    0.18 
  14 -14  -4    0.36    0.16 
 -14 -14  -4    0.52    0.13 
  14 -14  -5    3.52    0.29 
 -14 -14  -5    2.83    0.22 
  14 -14  -6    8.90    0.40 
 -14 -14  -6    8.41    0.35 
  14 -14  -7    6.12    0.31 
 -14 -14  -7    5.69    0.28 
  14 -14  -8    4.92    0.23 
 -14 -14  -8    6.87    0.28 
   0 -15   0   -0.06    0.16 
   0 -15   1    6.37    0.41 
   0 -15  -1    6.13    0.40 
   0 -15   2    6.19    0.40 
   0 -15  -2    5.95    0.40 
   0 -15   3    0.24    0.15 
   0 -15  -3    0.27    0.14 
   0 -15  -3    0.19    0.14 
   0 -15   4    0.13    0.14 
   0 -15  -4   -0.33    0.18 
   0 -15  -4   -0.04    0.16 
   0 -15   5    0.10    0.15 
   0 -15  -5   -0.07    0.16 
   0 -15  -5    0.08    0.14 
   0  15  -5   -0.05    0.15 
   0 -15   6    0.04    0.13 
   0 -15  -6    0.32    0.15 
   0 -15  -6   -0.03    0.15 
   0  15  -6    0.05    0.14 
   0 -15  -7    1.26    0.20 
   0  15  -7    1.52    0.23 
   0  15  -8    2.83    0.27 
   0 -15  -8    2.87    0.27 
 -15   0  -8    2.82    0.26 
   0  15  -9    5.97    0.38 
  15   0  -9    4.89    0.36 
 -15   0  -9    5.58    0.35 
   0  15 -10    0.88    0.18 
 -15   0 -10    1.14    0.18 
   0  15 -11    0.19    0.13 
 -15   0 -11    0.14    0.11 
   0  15 -12    0.87    0.15 
 -15   0 -12    0.89    0.15 
   0  15 -13    0.58    0.10 
  -1 -15   0   30.13    0.84 
   1 -15   0   27.93    0.81 
  -1 -15   1    1.19    0.21 
  -1 -15  -1    0.95    0.21 
   1 -15   1    1.03    0.21 
   1 -15  -1    0.87    0.19 
  -1 -15   2    1.34    0.21 
  -1 -15  -2    1.15    0.21 
   1 -15   2    1.41    0.22 
   1 -15  -2    1.21    0.22 
  -1 -15  -2    1.58    0.24 
   1 -15   2    1.91    0.49 
  -1 -15   3   -0.01    0.14 
   1 -15   3    0.09    0.14 
  -1 -15  -3    0.04    0.14 
   1 -15  -3    0.04    0.14 
   1 -15   3   -0.22    0.34 
  -1 -15  -3    0.04    0.15 
  -1 -15   4    0.28    0.16 
   1 -15   4    0.09    0.15 
  -1 -15  -4   -0.13    0.17 
   1 -15  -4    0.08    0.15 
   1 -15   4   -0.19    0.27 
   1 -15  -4   -0.04    0.17 
  -1 -15  -4   -0.15    0.16 
  -1 -15   5    0.08    0.14 
   1 -15   5    0.10    0.14 
  -1 -15  -5    0.03    0.14 
   1 -15  -5   -0.06    0.16 
   1 -15  -5    0.03    0.15 
  -1 -15  -5    0.06    0.14 
   1  15  -5   -0.03    0.15 
  -1  15  -5   -0.06    0.15 
  -1 -15   6    0.27    0.15 
   1 -15   6   -0.02    0.13 
   1 -15  -6   -0.05    0.14 
   1 -15  -6    0.02    0.13 
  -1 -15  -6    0.27    0.16 
   1  15  -6    0.14    0.14 
  -1  15  -6    0.26    0.15 
   1  15  -7    7.56    0.42 
  -1  15  -7    7.33    0.44 
   1 -15  -7    6.58    0.38 
  -1 -15  -7    7.18    0.42 
 -15  -1  -7    6.41    0.38 
   1  15  -8    1.56    0.23 
  -1 -15  -8    1.21    0.20 
  -1  15  -8    1.94    0.24 
 -15  -1  -8    1.69    0.22 
 -15   1  -8    1.59    0.22 
  15  -1  -9    1.01    0.22 
   1  15  -9    0.77    0.19 
  -1  15  -9    0.73    0.18 
  -1 -15  -9    0.86    0.16 
 -15  -1  -9    0.67    0.16 
 -15   1  -9    0.42    0.15 
   1  15 -10   -0.04    0.13 
  -1  15 -10   -0.05    0.14 
 -15  -1 -10   -0.16    0.14 
 -15   1 -10   -0.03    0.12 
   1  15 -11    0.03    0.12 
  -1  15 -11    0.22    0.13 
 -15  -1 -11    0.07    0.11 
 -15   1 -11    0.33    0.13 
   1  15 -12    0.40    0.13 
  -1  15 -12    0.16    0.11 
 -15  -1 -12    0.15    0.11 
 -15   1 -12    0.28    0.11 
   1  15 -13    0.19    0.08 
  -1  15 -13    0.22    0.08 
 -15  -1 -13    0.17    0.07 
   2 -15   0    0.45    0.32 
  -2 -15   0    0.31    0.18 
   2 -15   0    0.27    0.17 
  -2 -15   1    2.62    0.28 
  -2 -15  -1    3.06    0.30 
   2 -15  -1    2.56    0.28 
   2 -15   1    2.45    0.26 
   2 -15   1    3.42    0.61 
  -2 -15   2    3.07    0.29 
  -2 -15  -2    3.13    0.29 
   2 -15   2    2.93    0.30 
  -2 -15  -2    3.74    0.32 
   2 -15  -2    3.14    0.30 
   2 -15   2    2.51    0.53 
  -2 -15   3    0.62    0.18 
  -2 -15  -3    0.39    0.14 
   2 -15   3    0.69    0.18 
   2 -15  -3    0.82    0.18 
   2 -15   3    1.05    0.40 
  -2 -15  -3    0.80    0.19 
  -2 -15   4    1.18    0.22 
  -2 -15  -4    1.15    0.21 
   2 -15   4    1.29    0.22 
   2 -15  -4    1.12    0.20 
   2 -15   4    1.18    0.39 
  -2 -15  -4    1.01    0.20 
  -2 -15   5    0.09    0.15 
   2 -15   5    0.06    0.15 
  -2 -15  -5   -0.06    0.14 
   2 -15  -5    0.24    0.16 
  -2 -15  -5    0.00    0.15 
   2  15  -5   -0.05    0.14 
  -2  15  -5   -0.05    0.14 
  -2 -15   6    0.53    0.17 
   2 -15  -6    0.42    0.17 
  -2 -15  -6    0.58    0.19 
   2  15  -6    0.37    0.15 
  -2  15  -6    0.34    0.15 
  -2 -15  -7    1.25    0.22 
   2  15  -7    0.92    0.19 
  -2  15  -7    0.86    0.19 
 -15  -2  -7    0.85    0.16 
  15  -2  -8    1.35    0.26 
   2  15  -8    0.99    0.20 
  -2  15  -8    1.00    0.20 
  -2 -15  -8    0.86    0.18 
 -15  -2  -8    0.77    0.17 
 -15   2  -8    1.09    0.19 
  15  -2  -9    0.31    0.18 
   2  15  -9    0.04    0.13 
  -2  15  -9    0.05    0.14 
  -2 -15  -9   -0.14    0.14 
 -15  -2  -9   -0.31    0.16 
 -15   2  -9    0.08    0.13 
   2  15 -10    0.19    0.13 
  -2  15 -10    0.21    0.14 
  -2 -15 -10    0.13    0.12 
 -15  -2 -10    0.19    0.13 
 -15   2 -10    0.08    0.12 
   2  15 -11    0.31    0.13 
  -2  15 -11    0.44    0.15 
 -15  -2 -11    0.20    0.11 
 -15   2 -11    0.23    0.12 
   2  15 -12   -0.01    0.11 
  -2  15 -12    0.05    0.10 
 -15  -2 -12    0.13    0.10 
 -15   2 -12    0.23    0.11 
   2  15 -13    0.34    0.09 
  -2  15 -13    0.11    0.07 
   3 -15   0    1.69    0.44 
  -3 -15   0    1.21    0.21 
   3 -15   0    1.54    0.23 
  -3 -15   1    5.35    0.37 
  -3 -15  -1    5.61    0.38 
   3 -15   1    5.34    0.39 
   3 -15  -1    5.56    0.38 
   3 -15  -1    4.52    0.67 
  -3 -15  -1    5.12    0.38 
   3 -15   1    4.92    0.73 
  -3 -15   2    1.26    0.22 
  -3 -15  -2    0.82    0.20 
   3 -15   2    1.38    0.23 
   3 -15  -2    1.08    0.21 
  15  -3   2    0.76    0.20 
  -3 -15  -2    1.47    0.25 
   3 -15   2    1.70    0.43 
  -3 -15   3    4.06    0.34 
  -3 -15  -3    4.33    0.35 
   3 -15   3    3.94    0.34 
   3 -15  -3    3.94    0.33 
  -3 -15  -3    4.17    0.35 
   3 -15   3    3.75    0.67 
  -3 -15   4    1.02    0.20 
  -3 -15  -4    0.84    0.18 
   3 -15   4    1.04    0.21 
   3 -15  -4    0.86    0.20 
   3 -15   4    0.73    0.36 
  -3 -15  -4    0.88    0.20 
   3  15  -4    0.69    0.16 
  -3 -15   5    0.12    0.16 
  -3 -15  -5    0.19    0.15 
   3 -15   5    0.43    0.18 
   3 -15  -5    0.09    0.15 
  -3 -15  -5    0.16    0.15 
   3  15  -5   -0.04    0.14 
  -3  15  -5    0.09    0.16 
   3 -15  -6    1.44    0.22 
  15  -3  -6    1.58    0.28 
  -3 -15  -6    1.45    0.22 
   3  15  -6    1.17    0.21 
  -3  15  -6    1.40    0.23 
  15  -3  -7    0.38    0.22 
  -3 -15  -7    0.08    0.14 
   3  15  -7    0.15    0.14 
  -3  15  -7   -0.06    0.14 
 -15  -3  -7    0.03    0.13 
 -15   3  -8    0.76    0.18 
  15  -3  -8    1.00    0.23 
   3  15  -8    0.95    0.19 
  -3  15  -8    1.16    0.21 
  -3 -15  -8    1.00    0.19 
 -15  -3  -8    0.87    0.18 
   3  15  -9    3.31    0.30 
  -3  15  -9    3.51    0.30 
  15  -3  -9    3.00    0.30 
  -3 -15  -9    3.51    0.28 
 -15  -3  -9    3.26    0.28 
 -15   3  -9    3.18    0.27 
   3  15 -10    2.90    0.26 
  -3  15 -10    3.45    0.28 
  -3 -15 -10    2.93    0.25 
 -15  -3 -10    3.02    0.26 
 -15   3 -10    2.43    0.24 
   3  15 -11    0.34    0.13 
  -3  15 -11    0.28    0.12 
  -3 -15 -11    0.11    0.10 
 -15  -3 -11    0.44    0.13 
 -15   3 -11    0.38    0.13 
   3  15 -12   -0.08    0.10 
  -3  15 -12    0.15    0.10 
 -15  -3 -12    0.06    0.10 
 -15   3 -12    0.29    0.12 
  -3  15 -13    0.64    0.10 
   4 -15   0    0.33    0.36 
  -4 -15   0    0.18    0.17 
   4 -15   0    0.22    0.16 
  15  -4   0    0.27    0.20 
  -4 -15   1    0.95    0.21 
   4 -15  -1    0.26    0.32 
  -4 -15  -1    0.82    0.19 
   4 -15   1    0.76    0.20 
   4 -15  -1    0.62    0.18 
  15  -4   1    1.05    0.25 
  -4 -15  -1    0.41    0.17 
   4 -15   1    1.22    0.42 
  -4 -15  -2    3.08    0.30 
   4 -15   2    3.71    0.34 
  15  -4   2    2.89    0.31 
   4 -15  -2    3.15    0.30 
  -4 -15   2    3.36    0.32 
   4 -15  -2    1.92    0.48 
  -4 -15  -2    3.24    0.31 
   4 -15   2    2.97    0.60 
  -4 -15   3    2.52    0.28 
  -4 -15  -3    2.88    0.29 
   4 -15  -3    2.58    0.29 
   4 -15   3    2.17    0.27 
   4 -15   3    2.99    0.68 
  -4 -15  -3    1.96    0.26 
  -4 -15   4    2.80    0.30 
  -4 -15  -4    2.54    0.27 
   4 -15  -4    2.57    0.29 
   4  15  -4    2.60    0.27 
   4 -15   4    2.22    0.26 
  15  -4  -4    2.06    0.29 
  -4 -15  -4    2.46    0.28 
  -4 -15   5    0.52    0.18 
  -4 -15  -5    0.83    0.20 
   4 -15   5    0.25    0.14 
   4 -15  -5    0.46    0.18 
  15  -4  -5    0.15    0.20 
  -4 -15  -5    0.67    0.19 
   4  15  -5    0.21    0.15 
  -4  15  -5    0.08    0.15 
   4 -15  -6    0.42    0.15 
  15  -4  -6    0.76    0.24 
  -4 -15  -6    0.58    0.18 
   4  15  -6    0.44    0.16 
  -4  15  -6    0.25    0.16 
   4 -15  -7    0.24    0.15 
  15  -4  -7    0.53    0.23 
   4  15  -7    0.39    0.16 
  -4 -15  -7    0.37    0.16 
  -4  15  -7    0.34    0.15 
 -15  -4  -7    0.32    0.14 
 -15   4  -8   -0.10    0.13 
  15  -4  -8    0.30    0.19 
   4  15  -8   -0.16    0.15 
  -4  15  -8   -0.08    0.15 
  -4 -15  -8    0.06    0.14 
 -15  -4  -8    0.06    0.12 
 -15   4  -9    0.01    0.12 
  15  -4  -9    0.04    0.14 
   4  15  -9    0.35    0.16 
  -4  15  -9    0.14    0.14 
  -4 -15  -9    0.20    0.14 
 -15  -4  -9    0.03    0.14 
   4  15 -10    0.10    0.13 
  -4  15 -10   -0.01    0.13 
  -4 -15 -10   -0.05    0.13 
 -15  -4 -10   -0.04    0.12 
 -15   4 -10   -0.02    0.12 
   4  15 -11   -0.03    0.11 
  -4  15 -11    0.15    0.12 
  -4 -15 -11    0.30    0.12 
 -15  -4 -11    0.04    0.10 
 -15   4 -11   -0.11    0.11 
   4  15 -12    0.46    0.11 
  -4  15 -12    0.63    0.12 
 -15  -4 -12    0.55    0.12 
 -15   4 -12    0.37    0.11 
  -5 -15   0   12.20    0.55 
   5 -15   0   12.59    0.57 
  15  -5   0   12.60    0.60 
  -5 -15   1    0.57    0.18 
  -5 -15  -1    0.37    0.17 
   5 -15  -1    0.66    0.38 
   5 -15   1    0.61    0.20 
   5 -15  -1    0.64    0.20 
  15  -5   1    0.55    0.21 
  15  -5  -1    0.69    0.24 
  -5 -15  -1    0.20    0.16 
  -5 -15   2    7.34    0.44 
  -5 -15  -2    7.39    0.44 
   5 -15  -2    7.30    0.45 
   5 -15   2    7.22    0.45 
  15  -5   2    6.17    0.43 
  15  -5  -2    7.01    0.48 
   5 -15   2    6.77    0.88 
  -5 -15  -2    7.55    0.46 
   5 -15  -2    5.40    0.83 
  -5 -15   3   12.44    0.57 
  -5 -15  -3   12.47    0.56 
   5 -15   3   12.42    0.57 
   5 -15  -3   12.83    0.59 
   5  15  -3   12.38    0.52 
  15  -5  -3   12.79    0.62 
   5 -15   3   11.22    1.15 
  -5 -15  -3   12.22    0.56 
  -5 -15   4    6.36    0.41 
  -5 -15  -4    5.67    0.39 
   5 -15   4    5.40    0.38 
   5 -15  -4    6.47    0.43 
   5  15  -4    5.27    0.35 
  15  -5  -4    6.08    0.45 
  -5 -15  -4    6.09    0.40 
   5 -15   5    3.64    0.31 
   5 -15  -5    4.04    0.36 
   5  15  -5    3.61    0.30 
  -5  15  -5    3.83    0.32 
  15  -5  -5    3.94    0.39 
  -5 -15  -5    4.00    0.33 
   5 -15  -6    1.36    0.22 
  15  -5  -6    1.72    0.30 
  -5 -15  -6    1.48    0.23 
   5  15  -6    1.68    0.22 
  -5  15  -6    1.41    0.23 
 -15  -5  -6    1.36    0.20 
   5 -15  -7    0.27    0.15 
  15  -5  -7    0.53    0.21 
   5  15  -7    0.40    0.15 
  -5 -15  -7    0.50    0.18 
  -5  15  -7    0.21    0.15 
 -15  -5  -7    0.26    0.15 
  15  -5  -8    0.59    0.19 
   5  15  -8    0.69    0.18 
  -5  15  -8    0.75    0.18 
  -5 -15  -8    0.58    0.18 
 -15  -5  -8    0.86    0.18 
   5  15  -9    1.84    0.23 
  -5  15  -9    2.39    0.25 
  15  -5  -9    2.02    0.24 
  -5 -15  -9    2.05    0.23 
 -15  -5  -9    2.22    0.23 
 -15   5  -9    2.14    0.23 
 -15   5 -10    0.17    0.12 
   5  15 -10    0.29    0.15 
  -5  15 -10   -0.22    0.15 
  -5 -15 -10    0.20    0.13 
 -15  -5 -10    0.30    0.14 
   5  15 -11    0.24    0.12 
  -5  15 -11    0.07    0.11 
  -5 -15 -11    0.07    0.11 
 -15  -5 -11    0.27    0.12 
 -15   5 -11   -0.08    0.11 
  -5  15 -12    0.40    0.12 
  -5 -15 -12    0.11    0.07 
 -15  -5 -12    0.20    0.09 
 -15   5 -12    0.16    0.09 
   6 -15   0   -0.12    0.35 
  -6 -15   0   -0.05    0.15 
   6 -15   0   -0.02    0.16 
  15  -6   0    0.25    0.21 
   6 -15   1    0.80    0.37 
  -6 -15   1    1.06    0.20 
  -6 -15  -1    1.26    0.22 
   6 -15  -1    0.90    0.36 
   6 -15   1    1.38    0.25 
   6 -15  -1    1.25    0.24 
  15  -6   1    1.03    0.24 
  15  -6  -1    1.74    0.30 
  -6 -15  -1    1.24    0.24 
  -6 -15   2    1.13    0.21 
  -6 -15  -2    1.32    0.22 
   6 -15   2    1.24    0.23 
   6 -15  -2    0.76    0.21 
  15  -6   2    1.24    0.24 
  15  -6  -2    1.14    0.25 
   6 -15  -2    1.07    0.43 
  -6 -15  -2    0.85    0.19 
  -6 -15   3    1.73    0.25 
  -6 -15  -3    1.46    0.23 
   6 -15   3    1.32    0.24 
   6 -15  -3    1.91    0.28 
  15  -6  -3    1.47    0.28 
  -6 -15  -3    1.23    0.23 
   6  15  -3    1.18    0.20 
  -6 -15  -4    2.82    0.29 
   6 -15  -4    2.84    0.32 
   6  15  -4    2.06    0.25 
  15  -6  -4    2.86    0.36 
   6 -15   4    2.35    0.27 
  -6 -15  -4    2.25    0.27 
   6 -15  -5    1.10    0.23 
  15  -6  -5    0.96    0.27 
  -6 -15  -5    0.89    0.22 
   6  15  -5    0.77    0.19 
  -6  15  -5    1.15    0.22 
   6 -15  -6    0.24    0.16 
  15  -6  -6    0.14    0.20 
   6  15  -6    0.14    0.13 
  -6 -15  -6    0.29    0.19 
  -6  15  -6   -0.01    0.15 
 -15  -6  -6    0.17    0.14 
   6 -15  -7    0.19    0.15 
  15  -6  -7    0.11    0.18 
   6  15  -7   -0.11    0.14 
  -6 -15  -7    0.11    0.15 
  -6  15  -7   -0.14    0.16 
 -15  -6  -7   -0.04    0.13 
   6  15  -8    0.43    0.16 
  -6  15  -8    0.35    0.14 
  -6 -15  -8    0.38    0.16 
 -15  -6  -8    0.08    0.12 
 -15   6  -9    0.21    0.12 
  15  -6  -9    0.20    0.14 
   6  15  -9    0.01    0.12 
  -6  15  -9    0.13    0.13 
  -6 -15  -9    0.02    0.14 
 -15  -6  -9    0.16    0.12 
 -15   6 -10   -0.10    0.13 
   6  15 -10    0.20    0.12 
  -6  15 -10    0.07    0.12 
  -6 -15 -10    0.15    0.12 
 -15  -6 -10    0.16    0.13 
  -6  15 -11    0.09    0.11 
  -6 -15 -11    0.02    0.10 
 -15  -6 -11   -0.13    0.11 
 -15   6 -11   -0.12    0.11 
  -6  15 -12    0.29    0.09 
  -6 -15 -12    0.07    0.07 
 -15  -6 -12    0.24    0.09 
  -7 -15   0   -0.07    0.14 
   7 -15   0    0.30    0.18 
  15  -7   0    0.10    0.20 
  -7 -15   1    1.60    0.23 
  -7 -15  -1    1.73    0.24 
   7 -15   1    2.03    0.28 
   7 -15  -1    1.71    0.25 
  15  -7   1    1.51    0.25 
  15  -7  -1    1.63    0.28 
  -7 -15  -1    1.25    0.23 
  -7 -15  -2    0.11    0.14 
   7 -15   2    0.27    0.18 
   7 -15  -2    0.42    0.18 
  15  -7   2    0.40    0.20 
  15  -7  -2    0.14    0.21 
  -7 -15  -2    0.45    0.17 
  -7 -15  -3    2.50    0.28 
   7 -15  -3    2.72    0.30 
   7 -15   3    1.80    0.25 
  15  -7  -3    2.10    0.30 
  -7 -15  -3    1.93    0.26 
   7 -15   4   25.66    0.80 
   7 -15  -4   26.71    0.83 
  -7  15  -4   26.17    0.81 
  15  -7  -4   26.37    0.88 
  -7 -15  -4   26.15    0.81 
   7 -15  -5   16.84    0.67 
  -7  15  -5   17.22    0.65 
  15  -7  -5   17.95    0.72 
  -7 -15  -5   17.11    0.65 
   7 -15  -6    0.89    0.20 
  15  -7  -6    0.60    0.21 
  -7 -15  -6    1.23    0.22 
  -7  15  -6    1.02    0.21 
 -15  -7  -6    0.74    0.17 
   7 -15  -7    0.02    0.13 
  -7  15  -7   -0.06    0.15 
  -7 -15  -7    0.08    0.15 
 -15  -7  -7   -0.05    0.14 
  -7  15  -8    1.03    0.19 
  -7 -15  -8    0.76    0.18 
 -15  -7  -8    1.15    0.17 
  15  -7  -9    0.35    0.15 
  -7  15  -9    0.06    0.13 
  -7 -15  -9    0.27    0.15 
 -15  -7  -9    0.22    0.12 
 -15   7 -10    1.22    0.16 
  -7  15 -10    1.62    0.19 
  -7 -15 -10    1.53    0.19 
 -15  -7 -10    1.47    0.18 
  -7  15 -11    0.12    0.10 
  -7 -15 -11    0.06    0.10 
 -15  -7 -11    0.17    0.10 
 -15   7 -11   -0.15    0.10 
 -15  -7 -12    0.14    0.07 
   8 -15   0    0.15    0.16 
  15  -8   0   -0.22    0.20 
   8 -15   1    0.09    0.16 
   8 -15  -1    0.28    0.20 
  15  -8   1    0.09    0.18 
  15  -8  -1    0.01    0.20 
  -8 -15  -1   -0.18    0.22 
   8 -15   2    7.65    0.48 
   8 -15  -2    7.80    0.47 
  15  -8   2    8.80    0.49 
  15  -8  -2    7.63    0.50 
  -8 -15  -2    7.65    0.46 
   8 -15   3    4.66    0.36 
   8 -15  -3    4.83    0.38 
  15  -8  -3    5.37    0.43 
  -8 -15  -3    5.01    0.38 
   8 -15   4    5.26    0.38 
   8 -15  -4    4.37    0.37 
  -8  15  -4    5.68    0.38 
  15  -8  -4    5.26    0.42 
  -8 -15  -4    5.84    0.41 
   8 -15  -5    0.37    0.18 
  15  -8  -5    0.29    0.22 
  -8 -15  -5    0.69    0.20 
  -8  15  -5    0.78    0.19 
   8 -15  -6    0.56    0.18 
  15  -8  -6    0.40    0.20 
  -8 -15  -6    0.41    0.17 
  -8  15  -6    0.07    0.14 
 -15  -8  -6    0.10    0.12 
   8 -15  -7    0.45    0.17 
  15  -8  -7   -0.01    0.18 
  -8  15  -7    0.29    0.15 
  -8 -15  -7    0.47    0.16 
 -15  -8  -7    0.20    0.13 
   8 -15  -8    0.89    0.17 
  15  -8  -8    1.12    0.22 
  -8  15  -8    0.68    0.17 
  -8 -15  -8    0.86    0.18 
 -15  -8  -8    0.76    0.15 
  15  -8  -9    0.02    0.11 
  -8  15  -9   -0.03    0.12 
  -8 -15  -9    0.13    0.12 
 -15  -8  -9    0.03    0.12 
  -8  15 -10    0.62    0.14 
  -8 -15 -10    0.52    0.14 
 -15  -8 -10    0.54    0.13 
  -8 -15 -11    1.04    0.14 
 -15  -8 -11    0.77    0.12 
   9 -15   0    3.15    0.33 
  15  -9   0    1.96    0.29 
   9 -15   1    0.61    0.20 
   9 -15  -1    0.44    0.20 
  15  -9   1    1.09    0.24 
  15  -9  -1    0.28    0.21 
  -9 -15  -1    0.39    0.17 
   9 -15   2    0.95    0.23 
   9 -15  -2    0.41    0.18 
  15  -9   2    0.72    0.20 
  15  -9  -2    0.30    0.22 
  -9 -15  -2    0.75    0.20 
   9 -15   3    0.80    0.19 
   9 -15  -3    0.65    0.19 
  15  -9  -3    0.83    0.23 
  -9 -15  -3    1.16    0.21 
  -9  15  -3    1.10    0.21 
   9 -15   4   -0.03    0.15 
   9 -15  -4   -0.11    0.19 
  15  -9  -4    0.09    0.23 
  -9 -15  -4    0.15    0.16 
  -9  15  -4    0.00    0.14 
   9 -15  -5    0.83    0.21 
  -9 -15  -5    0.90    0.20 
 -15  -9  -5    0.56    0.15 
  -9  15  -5    0.63    0.18 
   9 -15  -6    1.22    0.21 
  15  -9  -6    1.80    0.27 
  -9 -15  -6    1.52    0.23 
  -9  15  -6    1.21    0.20 
 -15  -9  -6    0.77    0.15 
   9 -15  -7    0.01    0.13 
  15  -9  -7    0.21    0.16 
  -9  15  -7   -0.16    0.14 
  -9 -15  -7    0.18    0.15 
 -15  -9  -7    0.06    0.11 
   9 -15  -8    0.20    0.12 
  15  -9  -8    0.32    0.15 
  -9  15  -8    0.18    0.13 
  -9 -15  -8    0.10    0.13 
 -15  -9  -8    0.01    0.11 
  15  -9  -9    0.38    0.12 
  -9  15  -9    0.44    0.13 
  -9 -15  -9    0.60    0.15 
 -15  -9  -9    0.55    0.13 
  -9 -15 -10    0.33    0.12 
 -15  -9 -10    0.13    0.10 
  -9 -15 -11    0.11    0.09 
 -15  -9 -11    0.02    0.07 
  10 -15   0   -0.11    0.18 
  15 -10   0    0.23    0.19 
  10 -15   1    3.70    0.34 
  10 -15  -1    4.05    0.35 
  15 -10   1    4.14    0.36 
  15 -10  -1    4.81    0.40 
  10 -15   2    0.35    0.17 
  10 -15  -2   -0.22    0.19 
  15 -10   2    0.20    0.17 
  15 -10  -2    0.11    0.22 
 -10 -15  -2    0.02    0.16 
  10 -15   3   -0.29    0.17 
  10 -15  -3   -0.30    0.20 
  15 -10  -3    0.33    0.21 
 -10 -15  -3   -0.06    0.16 
 -10  15  -3    0.15    0.14 
  10 -15   4    0.03    0.16 
  10 -15  -4    0.01    0.20 
  15 -10  -4    0.63    0.23 
 -10 -15  -4    0.18    0.16 
 -10  15  -4    0.13    0.14 
  10 -15  -5    3.03    0.30 
  15 -10  -5    3.18    0.32 
 -10  15  -5    3.24    0.28 
 -10 -15  -5    3.27    0.29 
 -15 -10  -5    2.45    0.23 
  10 -15  -6    2.65    0.28 
  15 -10  -6    3.03    0.31 
 -10 -15  -6    3.00    0.27 
 -15 -10  -6    2.18    0.22 
  10 -15  -7    0.72    0.16 
  15 -10  -7    0.97    0.21 
 -10 -15  -7    0.81    0.18 
 -15 -10  -7    0.70    0.15 
  10 -15  -8    0.20    0.11 
  15 -10  -8    0.07    0.13 
 -10 -15  -8    0.28    0.14 
 -15 -10  -8    0.18    0.10 
  15 -10  -9    1.33    0.16 
 -10 -15  -9    1.90    0.19 
 -15 -10  -9    1.69    0.17 
 -10 -15 -10    0.54    0.12 
 -15 -10 -10    0.53    0.11 
 -10 -15 -11    0.08    0.07 
  11 -15   0    0.09    0.17 
  15 -11   0    0.14    0.17 
  11 -15   1    1.68    0.27 
  11 -15  -1    1.12    0.21 
  15 -11   1    1.49    0.25 
  15 -11  -1    1.35    0.24 
  11 -15   2    0.61    0.19 
  11 -15  -2    0.05    0.18 
  15 -11   2   -0.01    0.14 
  15 -11  -2    0.43    0.20 
 -11 -15  -2   -0.02    0.15 
  11 -15   3    0.12    0.14 
  11 -15  -3    0.00    0.19 
  15 -11  -3    0.44    0.21 
 -11 -15  -3    0.23    0.15 
  11 -15  -4   -0.21    0.20 
 -11 -15  -4   -0.06    0.14 
  11 -15  -5   -0.01    0.15 
 -11 -15  -5   -0.07    0.14 
 -15 -11  -5    0.19    0.11 
  11 -15  -6    0.07    0.13 
  15 -11  -6    0.02    0.15 
 -11 -15  -6    0.08    0.13 
 -15 -11  -6   -0.11    0.11 
  11 -15  -7    1.66    0.21 
  15 -11  -7    1.39    0.20 
 -11 -15  -7    1.81    0.21 
 -15 -11  -7    1.65    0.18 
  11 -15  -8    0.18    0.10 
  15 -11  -8    0.16    0.12 
 -11 -15  -8    0.54    0.14 
 -15 -11  -8    0.35    0.11 
 -11 -15  -9    0.02    0.10 
 -15 -11  -9   -0.02    0.08 
 -11 -15 -10    0.20    0.09 
 -15 -11 -10    0.28    0.08 
  12 -15   0    0.27    0.18 
  15 -12   0    0.07    0.16 
  12 -15   1    0.85    0.21 
  12 -15  -1    0.26    0.17 
  15 -12   1    0.32    0.17 
  15 -12  -1    0.67    0.21 
  12 -15   2    0.22    0.15 
  12 -15  -2   -0.11    0.17 
  15 -12   2   -0.03    0.16 
  15 -12  -2    0.04    0.17 
  12 -15   3    0.14    0.14 
  12 -15  -3   -0.12    0.18 
  15 -12  -3   -0.02    0.17 
 -12 -15  -3    0.00    0.13 
  12 -15  -4    1.48    0.22 
  15 -12  -4    2.19    0.27 
 -12 -15  -4    1.65    0.20 
  12 -15  -5    0.39    0.16 
  15 -12  -5    0.44    0.18 
 -12 -15  -5    0.46    0.16 
 -15 -12  -5    0.47    0.13 
  12 -15  -6    2.01    0.23 
  15 -12  -6    1.60    0.22 
 -12 -15  -6    2.11    0.22 
 -15 -12  -6    1.70    0.18 
  12 -15  -7    1.54    0.18 
  15 -12  -7    1.63    0.20 
 -12 -15  -7    1.69    0.19 
 -15 -12  -7    1.69    0.17 
  12 -15  -8    0.07    0.09 
  15 -12  -8    0.00    0.10 
 -12 -15  -8    0.16    0.11 
 -15 -12  -8    0.21    0.09 
 -12 -15  -9    0.04    0.09 
 -15 -12  -9    0.08    0.07 
  13 -15   0    3.02    0.30 
  15 -13   0    2.25    0.26 
  13 -15  -1   -0.07    0.16 
  15 -13   1    0.09    0.14 
  15 -13  -1    0.30    0.16 
  13 -15   2    0.13    0.13 
  15 -13   2    0.23    0.14 
  13 -15  -2   -0.14    0.18 
  15 -13  -2    0.19    0.16 
  13 -15   3   -0.01    0.13 
  13 -15  -3   -0.33    0.18 
  15 -13  -3    0.06    0.16 
  13 -15  -4   -0.31    0.17 
  15 -13  -4   -0.26    0.16 
 -13 -15  -4   -0.16    0.12 
  13 -15  -5    0.12    0.13 
  15 -13  -5    0.17    0.14 
 -13 -15  -5    0.17    0.12 
 -15 -13  -5    0.05    0.09 
  13 -15  -6    2.36    0.22 
  15 -13  -6    2.20    0.23 
 -13 -15  -6    2.43    0.21 
 -15 -13  -6    1.80    0.17 
  13 -15  -7    1.43    0.17 
  15 -13  -7    0.97    0.15 
 -15 -13  -7    1.43    0.15 
 -13 -15  -7    1.46    0.16 
  15 -13  -8    1.31    0.13 
 -15 -13  -8    1.61    0.14 
 -13 -15  -9    0.27    0.08 
  14 -15   0    0.77    0.20 
  15 -14   0    0.38    0.17 
  14 -15   1    1.17    0.21 
  15 -14   1    1.46    0.21 
  14 -15  -1    1.29    0.21 
  15 -14  -1    0.91    0.19 
  14 -15   2    1.03    0.18 
  15 -14   2    0.97    0.18 
  14 -15  -2    0.65    0.17 
  15 -14  -2    0.79    0.18 
  14 -15  -3   -0.23    0.16 
  15 -14  -3   -0.21    0.16 
  14 -15  -4    0.15    0.13 
  15 -14  -4   -0.19    0.15 
  14 -15  -5    0.24    0.14 
  15 -14  -5   -0.18    0.15 
  14 -15  -6    0.11    0.10 
  15 -14  -6    0.23    0.12 
 -14 -15  -6    0.20    0.10 
 -15 -14  -6    0.00    0.09 
  14 -15  -7    0.24    0.10 
  15 -14  -7    0.13    0.09 
 -14 -15  -7    0.23    0.09 
 -15 -14  -7    0.21    0.08 
  15 -15   0    2.93    0.25 
  15 -15   1    1.19    0.18 
  15 -15  -1    1.40    0.21 
  15 -15   2    0.52    0.13 
  15 -15  -2    0.77    0.17 
  15 -15  -3    0.23    0.13 
  15 -15  -4    0.36    0.14 
  15 -15  -5    0.76    0.14 
  15 -15  -6    1.56    0.16 
   0 -16   0    0.02    0.15 
   0 -16  -1   22.63    0.75 
   0 -16   1   23.31    0.76 
   0 -16   2    9.84    0.51 
   0 -16  -2    9.81    0.50 
   0 -16   3    0.06    0.15 
   0 -16  -3    0.01    0.15 
   0 -16   4    0.75    0.20 
   0 -16  -4    0.78    0.19 
   0 -16   5    0.81    0.19 
   0 -16  -5    0.91    0.18 
   0 -16  -5    0.77    0.18 
   0  16  -5    1.06    0.19 
   0 -16   6    4.05    0.32 
   0 -16  -6    4.28    0.33 
   0  16  -6    4.25    0.33 
   0 -16  -6    4.82    0.35 
   0  16  -7   31.63    0.85 
   0 -16  -7   29.86    0.79 
   0  16  -8   20.46    0.67 
   0 -16  -8   18.45    0.59 
  16   0  -9    8.71    0.44 
 -16   0  -9    8.79    0.40 
   0  16 -10    1.61    0.20 
 -16   0 -10    1.34    0.17 
   0  16 -11    0.55    0.14 
 -16   0 -11    0.35    0.11 
   0  16 -12    2.68    0.19 
 -16   0 -12    1.89    0.15 
  -1 -16   0   -0.10    0.16 
   1 -16   0   -0.06    0.16 
  -1 -16   1    1.11    0.22 
  -1 -16  -1    1.05    0.22 
   1 -16   1    1.32    0.24 
   1 -16  -1    1.15    0.23 
  -1 -16   2    0.52    0.20 
  -1 -16  -2    0.98    0.21 
   1 -16   2    0.72    0.21 
   1 -16  -2    0.56    0.17 
  -1 -16   3    0.09    0.16 
   1 -16   3    0.09    0.15 
  -1 -16  -3    0.26    0.16 
   1 -16  -3    0.04    0.16 
  -1 -16   4    0.26    0.15 
   1 -16   4    0.39    0.17 
  -1 -16  -4    0.35    0.17 
   1 -16  -4    0.26    0.15 
  -1 -16  -4    0.27    0.15 
  -1 -16   5    0.45    0.18 
   1 -16   5    0.53    0.18 
  -1 -16  -5    0.51    0.17 
   1 -16  -5    0.48    0.17 
  -1 -16  -5    0.56    0.18 
   1  16  -5    0.49    0.16 
  -1  16  -5    0.63    0.18 
  -1 -16   6    0.81    0.19 
   1 -16   6    0.44    0.17 
   1 -16  -6    0.96    0.21 
  -1 -16  -6    0.59    0.20 
   1  16  -6    1.01    0.21 
  -1  16  -6    0.67    0.18 
  -1 -16  -7    0.80    0.21 
   1  16  -7    1.16    0.24 
  -1  16  -7    1.29    0.23 
  16  -1  -8    0.33    0.20 
  -1 -16  -8    0.68    0.17 
   1  16  -8    0.65    0.21 
  16  -1  -9    0.14    0.18 
  16   1  -9   -0.01    0.17 
   1  16  -9    0.65    0.18 
  -1  16  -9    0.67    0.19 
  -1 -16  -9    0.28    0.13 
 -16  -1  -9   -0.14    0.12 
 -16   1  -9    0.18    0.12 
   1  16 -10    0.94    0.18 
  -1  16 -10    1.06    0.17 
 -16  -1 -10    0.51    0.14 
 -16   1 -10    0.78    0.14 
   1  16 -11    1.79    0.19 
  -1  16 -11    1.71    0.19 
 -16  -1 -11    1.50    0.16 
 -16   1 -11    1.28    0.16 
   1  16 -12    0.11    0.09 
  -1  16 -12    0.21    0.09 
 -16  -1 -12    0.11    0.07 
  -2 -16   0   10.25    0.51 
   2 -16   0   10.33    0.52 
  -2 -16   1    0.26    0.15 
  -2 -16  -1    0.24    0.16 
   2 -16   1    0.03    0.16 
   2 -16  -1    0.04    0.16 
  -2 -16  -2    2.66    0.28 
   2 -16   2    2.50    0.28 
  -2 -16   2    2.44    0.27 
   2 -16  -2    2.27    0.27 
  16  -2   2    2.31    0.28 
  -2 -16   3    2.41    0.29 
  -2 -16  -3    2.53    0.28 
   2 -16   3    2.77    0.30 
   2 -16  -3    2.26    0.27 
  -2 -16  -3    2.68    0.29 
  -2 -16   4    0.08    0.16 
  -2 -16  -4    0.19    0.16 
   2 -16   4    0.19    0.15 
   2 -16  -4   -0.08    0.16 
  -2 -16  -4   -0.10    0.17 
   2  16  -4    0.01    0.15 
  -2 -16   5    3.44    0.32 
   2 -16   5    3.69    0.32 
  -2 -16  -5    3.62    0.31 
   2 -16  -5    3.77    0.34 
   2  16  -5    3.32    0.30 
  -2  16  -5    3.37    0.30 
  -2 -16  -5    3.37    0.31 
  -2 -16   6   16.68    0.62 
   2 -16  -6   17.01    0.63 
   2  16  -6   16.93    0.62 
  -2  16  -6   16.80    0.62 
  -2 -16  -6   16.83    0.63 
   2  16  -7    8.02    0.44 
  -2  16  -7    9.17    0.46 
  16  -2  -7    8.74    0.52 
  -2 -16  -7    8.32    0.44 
   2  16  -8   12.76    0.52 
  -2  16  -8   13.18    0.52 
  16  -2  -8   11.83    0.56 
  -2 -16  -8   11.38    0.49 
 -16  -2  -8   11.01    0.46 
   2  16  -9   10.05    0.46 
  -2  16  -9   10.03    0.46 
  16  -2  -9    8.20    0.42 
  -2 -16  -9    9.09    0.41 
 -16  -2  -9    8.97    0.40 
 -16   2  -9    8.03    0.38 
   2  16 -10    2.28    0.22 
  -2 -16 -10    1.73    0.18 
 -16  -2 -10    2.13    0.21 
 -16   2 -10    2.05    0.20 
   2  16 -11    0.08    0.11 
  -2  16 -11    0.05    0.10 
 -16  -2 -11   -0.13    0.11 
 -16   2 -11    0.06    0.10 
   2  16 -12    0.56    0.11 
  -2  16 -12    0.51    0.11 
 -16  -2 -12    0.47    0.09 
  -3 -16   0   -0.02    0.15 
   3 -16   0   -0.25    0.17 
  -3 -16   1    1.09    0.22 
  -3 -16  -1    0.89    0.21 
   3 -16   1    1.08    0.22 
   3 -16  -1    0.84    0.21 
  16  -3   1    1.07    0.25 
  -3 -16   2    0.34    0.18 
  -3 -16  -2    0.39    0.17 
   3 -16   2    0.46    0.18 
   3 -16  -2    0.35    0.17 
  16  -3   2    0.22    0.18 
  -3 -16  -2    0.31    0.17 
  -3 -16   3    1.82    0.25 
  -3 -16  -3    1.60    0.23 
   3 -16   3    2.07    0.27 
   3 -16  -3    1.98    0.27 
  -3 -16  -3    1.82    0.26 
  -3 -16   4    8.40    0.49 
  -3 -16  -4    9.31    0.49 
   3 -16   4    8.91    0.49 
   3 -16  -4    8.79    0.49 
   3  16  -4    8.60    0.45 
  -3 -16  -4    9.02    0.48 
  -3 -16   5    4.15    0.34 
  -3 -16  -5    3.83    0.32 
   3 -16   5    3.70    0.32 
   3  16  -5    4.12    0.33 
  -3  16  -5    4.12    0.33 
   3 -16  -5    3.95    0.34 
  -3 -16  -5    3.99    0.34 
   3 -16  -6    3.40    0.31 
   3  16  -6    3.32    0.30 
  -3  16  -6    4.28    0.33 
  16  -3  -6    3.95    0.39 
  -3 -16  -6    3.55    0.32 
   3  16  -7    1.81    0.26 
  16  -3  -7    2.04    0.30 
  -3 -16  -7    1.74    0.25 
  -3  16  -7    1.89    0.24 
  16  -3  -8    0.33    0.19 
   3  16  -8    0.08    0.16 
  -3  16  -8    0.17    0.16 
  -3 -16  -8    0.51    0.17 
 -16  -3  -8    0.12    0.13 
   3  16  -9    2.92    0.26 
  -3  16  -9    2.78    0.27 
  16  -3  -9    2.29    0.26 
  -3 -16  -9    2.55    0.24 
 -16  -3  -9    2.27    0.22 
   3  16 -10    4.27    0.28 
  -3  16 -10    4.19    0.29 
  -3 -16 -10    3.90    0.26 
 -16  -3 -10    3.57    0.25 
 -16   3 -10    3.83    0.26 
   3  16 -11    2.27    0.20 
  -3  16 -11    2.53    0.21 
 -16  -3 -11    2.33    0.19 
 -16   3 -11    2.04    0.18 
   3  16 -12    0.38    0.10 
  -3  16 -12    0.42    0.10 
  -4 -16   0    0.23    0.16 
   4 -16   0    0.17    0.15 
  16  -4   0    0.15    0.19 
  -4 -16   1    2.70    0.28 
  -4 -16  -1    2.60    0.28 
   4 -16   1    2.36    0.29 
   4 -16  -1    2.74    0.30 
  16  -4   1    3.02    0.34 
  16  -4  -1    2.53    0.32 
  -4 -16   2    0.26    0.17 
  -4 -16  -2    0.13    0.15 
   4 -16   2    0.17    0.16 
   4 -16  -2    0.13    0.16 
  16  -4   2    0.48    0.19 
  16  -4  -2    0.62    0.24 
  -4 -16  -2    0.24    0.17 
  -4 -16   3    0.17    0.15 
  -4 -16  -3    0.35    0.16 
   4 -16   3    0.11    0.16 
   4 -16  -3    0.44    0.18 
  16  -4  -3    0.11    0.21 
  -4 -16  -3    0.21    0.17 
  -4 -16   4    0.66    0.20 
  -4 -16  -4    0.48    0.17 
   4 -16   4    0.47    0.18 
   4 -16  -4    0.50    0.20 
  16  -4  -4    0.34    0.24 
  -4 -16  -4    0.62    0.22 
   4  16  -4    0.73    0.19 
  -4 -16  -5    0.93    0.20 
   4 -16   5    0.87    0.21 
   4 -16  -5    1.04    0.22 
  16  -4  -5    1.27    0.29 
  -4 -16  -5    1.50    0.26 
   4  16  -5    1.17    0.22 
  -4  16  -5    0.82    0.21 
   4 -16  -6    3.87    0.33 
   4  16  -6    3.51    0.31 
  -4  16  -6    3.72    0.33 
  16  -4  -6    4.35    0.40 
  -4 -16  -6    3.74    0.32 
   4 -16  -7   11.99    0.51 
   4  16  -7   12.07    0.51 
  -4  16  -7   13.23    0.55 
  16  -4  -7   13.06    0.60 
  -4 -16  -7   12.96    0.54 
   4  16  -8    7.79    0.40 
  -4  16  -8    8.34    0.43 
  16  -4  -8    7.06    0.42 
  -4 -16  -8    7.29    0.40 
 -16  -4  -8    6.73    0.35 
   4  16  -9    2.31    0.25 
  -4  16  -9    2.86    0.27 
  -4 -16  -9    2.19    0.22 
 -16  -4  -9    2.41    0.23 
   4  16 -10    0.44    0.15 
  -4  16 -10    0.34    0.13 
  -4 -16 -10    0.21    0.11 
 -16  -4 -10    0.27    0.12 
   4  16 -11    0.16    0.10 
  -4  16 -11    0.28    0.12 
  -4 -16 -11    0.16    0.09 
 -16  -4 -11    0.18    0.10 
 -16   4 -11    0.08    0.09 
  -4  16 -12    0.29    0.09 
  -5 -16   0   -0.01    0.15 
   5 -16   0   -0.10    0.16 
  16  -5   0    0.10    0.20 
  -5 -16   1    6.82    0.42 
  -5 -16  -1    6.39    0.41 
   5 -16   1    6.60    0.44 
   5 -16  -1    6.62    0.43 
  16  -5   1    6.65    0.45 
  16  -5  -1    6.49    0.45 
  -5 -16   2    0.90    0.20 
  -5 -16  -2    0.68    0.18 
   5 -16   2    0.98    0.22 
   5 -16  -2    0.99    0.21 
  16  -5   2    0.98    0.23 
  16  -5  -2    1.38    0.27 
  -5 -16  -2    0.79    0.19 
  -5 -16   3    4.59    0.36 
  -5 -16  -3    5.10    0.37 
   5 -16   3    4.56    0.36 
   5  16  -3    4.38    0.33 
  16  -5  -3    4.60    0.40 
   5 -16  -3    4.20    0.35 
  -5 -16  -3    4.27    0.35 
  -5 -16   4   10.58    0.52 
  -5 -16  -4   10.28    0.50 
   5 -16   4    9.78    0.51 
   5 -16  -4   10.11    0.52 
   5  16  -4   10.42    0.48 
  -5  16  -4   10.57    0.50 
  16  -5  -4   10.83    0.58 
  -5 -16  -4   10.30    0.52 
  -5 -16  -5   17.10    0.61 
   5 -16   5   17.29    0.63 
   5  16  -5   17.26    0.62 
   5 -16  -5   18.03    0.68 
  -5  16  -5   19.10    0.67 
  16  -5  -5   18.74    0.75 
  -5 -16  -5   18.21    0.67 
   5 -16  -6   11.00    0.53 
   5  16  -6   10.48    0.49 
  -5  16  -6   11.53    0.52 
  16  -5  -6   11.04    0.58 
  -5 -16  -6   11.38    0.52 
  -5  16  -7    2.42    0.26 
   5 -16  -7    1.85    0.22 
  16  -5  -7    2.50    0.31 
  -5 -16  -7    2.44    0.27 
   5  16  -7    1.77    0.24 
  16  -5  -8   -0.03    0.16 
   5  16  -8    0.50    0.16 
  -5  16  -8    0.37    0.15 
  -5 -16  -8    0.18    0.14 
 -16  -5  -8   -0.12    0.14 
   5  16  -9    5.05    0.32 
  -5  16  -9    5.28    0.33 
  16  -5  -9    4.19    0.29 
  -5 -16  -9    5.05    0.31 
 -16  -5  -9    4.89    0.29 
   5  16 -10    4.58    0.28 
  -5  16 -10    4.90    0.30 
  -5 -16 -10    4.52    0.27 
 -16  -5 -10    4.37    0.26 
   5  16 -11    1.71    0.16 
  -5  16 -11    1.86    0.18 
  -5 -16 -11    1.60    0.15 
 -16  -5 -11    1.47    0.15 
  -6 -16   0    6.45    0.41 
   6 -16   0    7.06    0.45 
  16  -6   0    6.77    0.46 
  -6 -16   1   -0.01    0.16 
  -6 -16  -1   -0.03    0.15 
   6 -16   1    0.23    0.18 
   6 -16  -1    0.04    0.17 
  16  -6   1    0.07    0.19 
  16  -6  -1    0.14    0.19 
  -6 -16   2    1.18    0.23 
  -6 -16  -2    0.90    0.20 
   6 -16   2    0.78    0.22 
   6 -16  -2    1.00    0.24 
  16  -6   2    0.45    0.20 
  16  -6  -2    1.06    0.27 
  -6 -16  -2    0.47    0.18 
  -6 -16  -3    1.20    0.22 
   6 -16   3    0.84    0.23 
   6 -16  -3    1.08    0.23 
  16  -6  -3    1.20    0.28 
  -6 -16  -3    0.86    0.21 
   6  16  -3    1.00    0.19 
  -6 -16  -4    0.42    0.16 
   6 -16   4    0.60    0.19 
   6 -16  -4    0.63    0.22 
  16  -6  -4    0.69    0.25 
  -6 -16  -4    0.99    0.24 
   6  16  -4    0.35    0.17 
  -6  16  -4    0.68    0.22 
   6 -16  -5    0.88    0.23 
  16  -6  -5    0.65    0.28 
  -6 -16  -5    1.23    0.25 
   6  16  -5    1.08    0.22 
  -6  16  -5    1.24    0.24 
   6 -16  -6    2.12    0.26 
   6  16  -6    2.33    0.25 
  -6  16  -6    2.36    0.27 
  16  -6  -6    1.98    0.31 
  -6 -16  -6    2.42    0.28 
   6 -16  -7    1.03    0.19 
  16  -6  -7    0.94    0.22 
   6  16  -7    1.13    0.20 
  -6 -16  -7    0.79    0.19 
  -6  16  -7    1.06    0.21 
 -16  -6  -7    0.70    0.15 
  16  -6  -8    0.36    0.16 
   6  16  -8    0.62    0.15 
  -6 -16  -8    0.35    0.13 
 -16  -6  -8    0.29    0.12 
  16  -6  -9    0.15    0.12 
   6  16  -9    0.07    0.13 
  -6  16  -9    0.16    0.12 
  -6 -16  -9    0.16    0.13 
 -16  -6  -9    0.31    0.12 
  -6  16 -10    0.62    0.14 
  -6 -16 -10    0.40    0.12 
 -16  -6 -10    0.28    0.11 
  -6  16 -11    0.20    0.10 
  -6 -16 -11    0.26    0.09 
 -16  -6 -11    0.18    0.09 
  -7 -16   0   -0.01    0.15 
   7 -16   0   -0.09    0.16 
  16  -7   0   -0.04    0.19 
  -7 -16  -1    0.60    0.19 
   7 -16   1    0.68    0.21 
   7 -16  -1    0.75    0.21 
  16  -7   1    0.63    0.20 
  16  -7  -1    0.79    0.24 
  -7 -16  -2    5.67    0.38 
   7 -16   2    5.96    0.42 
   7 -16  -2    5.90    0.41 
  16  -7   2    5.80    0.40 
  16  -7  -2    5.66    0.44 
  -7 -16  -2    5.51    0.40 
   7 -16   3    8.16    0.47 
   7 -16  -3    8.17    0.48 
  16  -7  -3    8.40    0.52 
  -7 -16  -3    8.47    0.48 
   7 -16   4   18.70    0.68 
   7 -16  -4   19.13    0.70 
  -7  16  -4   20.20    0.70 
  16  -7  -4   19.56    0.76 
  -7 -16  -4   20.90    0.71 
   7 -16  -5   20.98    0.72 
  -7  16  -5   21.19    0.70 
  16  -7  -5   20.23    0.75 
  -7 -16  -5   19.65    0.68 
  -7  16  -6   10.83    0.50 
  16  -7  -6   10.85    0.55 
   7 -16  -6   10.47    0.51 
  -7 -16  -6   10.64    0.49 
   7 -16  -7    1.61    0.21 
  16  -7  -7    1.11    0.21 
  -7  16  -7    1.63    0.22 
  -7 -16  -7    1.86    0.23 
 -16  -7  -7    1.72    0.19 
  -7  16  -8    2.40    0.24 
  16  -7  -8    2.52    0.26 
  -7 -16  -8    2.44    0.23 
 -16  -7  -8    2.33    0.21 
  -7  16  -9    3.38    0.25 
  -7 -16  -9    3.20    0.25 
 -16  -7  -9    3.00    0.22 
  -7  16 -10    5.00    0.28 
  -7 -16 -10    4.85    0.27 
 -16  -7 -10    4.25    0.24 
  -7 -16 -11    5.88    0.25 
   8 -16   0    6.85    0.45 
  16  -8   0    6.11    0.44 
   8 -16   1    0.52    0.20 
   8 -16  -1    0.49    0.21 
  16  -8   1   -0.08    0.19 
  16  -8  -1    0.07    0.20 
   8 -16   2    0.00    0.16 
   8 -16  -2    0.18    0.17 
  16  -8   2    0.22    0.18 
  16  -8  -2    0.07    0.19 
  -8 -16  -2    0.06    0.17 
   8 -16   3    0.26    0.18 
   8 -16  -3    0.39    0.20 
  16  -8  -3    0.18    0.20 
  -8 -16  -3   -0.08    0.16 
  -8  16  -3    0.08    0.14 
   8 -16   4    3.38    0.31 
   8 -16  -4    3.44    0.33 
  -8  16  -4    3.39    0.31 
  16  -8  -4    3.48    0.36 
  -8 -16  -4    3.47    0.32 
   8 -16  -5    2.34    0.29 
  -8  16  -5    2.43    0.29 
  16  -8  -5    2.35    0.32 
  -8 -16  -5    2.81    0.30 
   8 -16  -6    0.70    0.19 
  16  -8  -6    0.74    0.23 
  -8 -16  -6    0.55    0.19 
  -8  16  -6    0.79    0.19 
   8 -16  -7    0.28    0.14 
  16  -8  -7    0.39    0.18 
  -8  16  -7    0.08    0.12 
  -8 -16  -7    0.30    0.15 
 -16  -8  -7    0.06    0.10 
  16  -8  -8    0.22    0.14 
  -8  16  -8    0.09    0.11 
  -8 -16  -8    0.02    0.12 
 -16  -8  -8    0.15    0.10 
  16  -8  -9    0.19    0.11 
  -8  16  -9    0.32    0.12 
  -8 -16  -9    0.58    0.15 
 -16  -8  -9    0.19    0.10 
  -8  16 -10    0.11    0.09 
  -8 -16 -10    0.29    0.11 
 -16  -8 -10    0.37    0.10 
  -8 -16 -11    0.04    0.08 
   9 -16   0    0.31    0.19 
  16  -9   0    0.55    0.21 
   9 -16  -1    9.38    0.51 
  16  -9   1    8.34    0.47 
  16  -9  -1    8.72    0.52 
   9 -16   1    9.42    0.51 
   9 -16   2    3.83    0.34 
   9 -16  -2    3.76    0.34 
  16  -9   2    3.59    0.33 
  16  -9  -2    3.99    0.36 
  -9 -16  -2    3.59    0.33 
   9 -16   3    4.77    0.35 
   9 -16  -3    4.73    0.37 
  16  -9  -3    4.58    0.38 
  -9  16  -3    5.28    0.36 
  -9 -16  -3    4.86    0.36 
   9 -16   4    4.56    0.33 
   9 -16  -4    5.21    0.38 
  -9  16  -4    5.67    0.37 
  16  -9  -4    4.54    0.38 
  -9 -16  -4    4.84    0.36 
   9 -16  -5    8.09    0.45 
  -9  16  -5    8.85    0.44 
  16  -9  -5    9.02    0.50 
  -9 -16  -5    8.20    0.44 
   9 -16  -6    7.23    0.40 
  -9  16  -6    7.47    0.39 
  16  -9  -6    8.01    0.45 
  -9 -16  -6    7.36    0.40 
   9 -16  -7    0.49    0.15 
  16  -9  -7    0.62    0.18 
  -9  16  -7    0.83    0.17 
  -9 -16  -7    0.76    0.17 
 -16  -9  -7    0.41    0.12 
  16  -9  -8    0.37    0.13 
  -9  16  -8    0.57    0.14 
  -9 -16  -8    0.38    0.14 
 -16  -9  -8    0.32    0.10 
  -9 -16  -9    3.64    0.24 
 -16  -9  -9    3.11    0.20 
  -9 -16 -10    1.80    0.16 
 -16  -9 -10    1.34    0.12 
  10 -16   0    0.34    0.19 
  16 -10   0    0.27    0.19 
  10 -16   1    2.93    0.30 
  10 -16  -1    2.71    0.31 
  16 -10   1    2.50    0.28 
  16 -10  -1    2.75    0.31 
  10 -16   2    3.34    0.32 
  10 -16  -2    3.53    0.33 
  16 -10   2    3.18    0.29 
  16 -10  -2    3.62    0.34 
 -10  16  -2    3.40    0.30 
  10 -16   3    2.55    0.27 
  10 -16  -3    2.75    0.30 
 -10  16  -3    2.86    0.27 
  16 -10  -3    3.46    0.34 
 -10 -16  -3    2.80    0.29 
  16 -10  -4    2.03    0.30 
  10 -16   4    1.60    0.22 
  10 -16  -4    1.50    0.24 
 -10 -16  -4    1.58    0.23 
 -10  16  -4    1.45    0.21 
  10 -16  -5    0.53    0.18 
  16 -10  -5    0.69    0.21 
 -10 -16  -5    0.45    0.16 
 -10  16  -5    0.47    0.15 
  10 -16  -6    0.86    0.18 
  16 -10  -6    1.08    0.21 
 -10 -16  -6    0.99    0.18 
  10 -16  -7    4.90    0.30 
  16 -10  -7    5.05    0.33 
 -10 -16  -7    5.19    0.32 
 -16 -10  -7    4.45    0.25 
  16 -10  -8    2.25    0.20 
 -10 -16  -8    2.65    0.22 
 -10 -16  -9    0.76    0.13 
 -16 -10  -9    0.60    0.10 
 -10 -16 -10    0.11    0.08 
  11 -16   0    0.26    0.17 
  16 -11   0   -0.02    0.16 
  11 -16   1    0.05    0.15 
  11 -16  -1    0.31    0.18 
  16 -11   1    0.24    0.17 
  16 -11  -1    0.22    0.19 
  11 -16   2    4.08    0.33 
  11 -16  -2    4.44    0.35 
  16 -11   2    3.93    0.30 
  16 -11  -2    4.00    0.35 
  11 -16   3    3.89    0.30 
  11 -16  -3    4.30    0.34 
  16 -11  -3    4.30    0.36 
 -11 -16  -3    4.52    0.32 
  11 -16  -4    3.45    0.30 
  16 -11  -4    3.78    0.33 
 -11 -16  -4    3.21    0.27 
  11 -16  -5    0.48    0.15 
  16 -11  -5    0.44    0.18 
 -11 -16  -5    0.35    0.14 
  11 -16  -6    0.75    0.17 
  16 -11  -6    0.49    0.16 
 -11 -16  -6    0.77    0.16 
  11 -16  -7    0.53    0.13 
  16 -11  -7    0.43    0.14 
 -11 -16  -7    0.81    0.15 
 -16 -11  -7    0.45    0.10 
  16 -11  -8    0.09    0.10 
 -16 -11  -8    0.04    0.08 
 -11 -16  -9    0.51    0.11 
  12 -16   0   11.72    0.52 
  16 -12   0   10.87    0.50 
  12 -16   1    2.86    0.27 
  12 -16  -1    2.91    0.29 
  16 -12   1    2.82    0.27 
  16 -12  -1    2.87    0.29 
  12 -16  -2    2.02    0.25 
  12 -16   2    1.77    0.22 
  16 -12   2    1.74    0.22 
  16 -12  -2    2.00    0.26 
  12 -16   3    0.96    0.17 
  12 -16  -3    1.43    0.22 
  16 -12  -3    1.53    0.24 
  12 -16  -4    0.85    0.19 
  16 -12  -4    0.77    0.19 
 -12 -16  -4    0.81    0.16 
  12 -16  -5    0.41    0.15 
  16 -12  -5    0.51    0.17 
 -12 -16  -5    0.26    0.12 
  12 -16  -6    4.16    0.28 
  16 -12  -6    3.57    0.27 
 -12 -16  -6    3.91    0.26 
  12 -16  -7    3.93    0.24 
  16 -12  -7    4.06    0.25 
 -12 -16  -7    4.13    0.25 
  16 -12  -8    3.79    0.20 
 -12 -16  -8    4.96    0.25 
 -12 -16  -9    1.83    0.14 
  13 -16   0    0.58    0.17 
  16 -13   0    0.25    0.14 
  13 -16   1    0.32    0.16 
  13 -16  -1    0.50    0.17 
  16 -13   1    0.47    0.16 
  16 -13  -1    0.22    0.15 
  13 -16   2    0.47    0.14 
  13 -16  -2    0.88    0.18 
  16 -13   2    0.71    0.15 
  16 -13  -2    0.40    0.16 
  13 -16   3    1.22    0.17 
  13 -16  -3    1.52    0.21 
  16 -13  -3    1.44    0.21 
  13 -16  -4    1.10    0.18 
  16 -13  -4    0.95    0.18 
  13 -16  -5    0.18    0.12 
  16 -13  -5    0.11    0.12 
  13 -16  -6    0.01    0.10 
  16 -13  -6   -0.11    0.11 
  13 -16  -7    0.15    0.09 
  16 -13  -7    0.26    0.10 
  14 -16   0    0.88    0.17 
  16 -14   0    0.73    0.15 
  14 -16   1    7.62    0.37 
  14 -16  -1    7.59    0.38 
  16 -14   1    7.43    0.36 
  16 -14  -1    7.33    0.37 
  14 -16   2    3.04    0.23 
  16 -14   2    3.07    0.23 
  16 -14  -2    3.53    0.27 
  14 -16  -3    0.66    0.16 
  16 -14  -3    0.58    0.15 
  14 -16  -4   -0.11    0.12 
  16 -14  -4   -0.28    0.14 
  14 -16  -5    1.19    0.16 
  16 -14  -5    0.90    0.15 
  14 -16  -6    2.25    0.18 
  16 -14  -6    2.19    0.18 
  15 -16   0    0.24    0.12 
  16 -15   0    0.23    0.12 
  15 -16   1    0.43    0.12 
  16 -15   1    0.45    0.12 
  15 -16  -1    0.68    0.15 
  16 -15  -1    0.61    0.15 
  15 -16   2    0.41    0.10 
  15 -16  -2    0.68    0.15 
  15 -16  -3    0.26    0.12 
  16 -15  -3    0.35    0.13 
  15 -16  -4    0.19    0.10 
  16 -15  -4    0.22    0.11 
  15 -16  -5    0.03    0.09 
  16 -15  -5    0.12    0.09 
  16 -16   0    6.53    0.28 
  16 -16   1    0.60    0.10 
  16 -16  -1    0.75    0.12 
  16 -16  -2    0.79    0.12 
  16 -16  -3    1.01    0.13 
  16 -16  -4    0.06    0.08 
   0 -17   0   -0.05    0.16 
   0 -17   1   17.18    0.66 
   0 -17  -1   17.47    0.67 
   0 -17   2   22.22    0.76 
   0 -17  -2   23.06    0.77 
   0 -17   3    5.86    0.41 
   0 -17  -3    5.53    0.39 
   0 -17   4   -0.05    0.17 
   0 -17  -4   -0.26    0.19 
   0  17  -4   -0.07    0.16 
   0 -17   5    1.26    0.21 
   0 -17  -5    1.63    0.23 
   0  17  -5    1.07    0.20 
   0 -17   6    2.78    0.27 
   0 -17  -6    2.22    0.25 
   0  17  -6    2.72    0.27 
   0  17  -7    0.57    0.17 
  17   0  -8   -0.11    0.16 
   0  17  -8   -0.01    0.13 
  17   0  -9    0.09    0.14 
   0  17  -9    0.22    0.13 
   0  17 -10    0.36    0.13 
   0  17 -11   -0.01    0.09 
  -1 -17   0    9.21    0.49 
   1 -17   0    9.08    0.50 
  -1 -17   1    0.18    0.17 
  -1 -17  -1    0.36    0.19 
   1 -17   1    0.36    0.18 
   1 -17  -1   -0.04    0.16 
  -1 -17   2    0.79    0.21 
  -1 -17  -2    0.87    0.22 
   1 -17   2    1.07    0.25 
   1 -17  -2    1.26    0.25 
  -1 -17   3    0.29    0.18 
   1 -17   3    0.33    0.19 
  -1 -17  -3    0.22    0.16 
   1 -17  -3   -0.04    0.17 
  -1 -17   4    0.31    0.16 
   1 -17   4    0.22    0.16 
  -1 -17  -4    0.32    0.17 
   1 -17  -4    0.26    0.16 
   1  17  -4    0.21    0.13 
  -1  17  -4    0.12    0.14 
  -1 -17   5    0.13    0.14 
   1 -17   5    0.09    0.14 
  -1 -17  -5   -0.09    0.14 
   1 -17  -5    0.03    0.15 
   1  17  -5    0.08    0.14 
  -1  17  -5   -0.21    0.16 
  -1 -17   6    3.76    0.30 
   1 -17   6    3.32    0.28 
   1 -17  -6    3.60    0.30 
   1  17  -6    3.63    0.31 
  -1  17  -6    3.06    0.29 
  17  -1  -7    0.68    0.21 
   1  17  -7    0.62    0.17 
  -1  17  -7    0.69    0.17 
  17  -1  -8    1.08    0.22 
   1  17  -8    1.20    0.19 
  -1  17  -8    0.85    0.17 
  17  -1  -9    0.53    0.16 
  17   1  -9    0.51    0.16 
   1  17  -9    0.78    0.16 
  -1  17  -9    0.60    0.15 
   1  17 -10    0.26    0.12 
  -1  17 -10    0.21    0.12 
   1  17 -11   -0.06    0.09 
  -1  17 -11   -0.09    0.09 
  -2 -17   0   -0.15    0.17 
   2 -17   0    0.09    0.15 
  17  -2   1    2.39    0.31 
  -2 -17   1    1.89    0.25 
  -2 -17  -1    1.86    0.24 
   2 -17   1    1.96    0.27 
   2 -17  -1    1.82    0.25 
  -2 -17   2   10.56    0.53 
  -2 -17  -2   10.06    0.51 
   2 -17   2   10.97    0.54 
   2 -17  -2   11.23    0.55 
  17  -2   2    9.78    0.52 
  -2 -17   3   10.23    0.51 
  -2 -17  -3   10.16    0.51 
   2 -17   3   10.41    0.53 
   2 -17  -3   10.13    0.52 
  -2 -17   4    4.18    0.34 
  -2 -17  -4    4.25    0.34 
   2 -17   4    4.52    0.36 
   2 -17  -4    3.74    0.33 
   2  17  -4    4.18    0.33 
  -2  17  -4    3.86    0.31 
  -2 -17   5    1.57    0.23 
   2 -17   5    1.47    0.22 
  -2 -17  -5    1.64    0.23 
   2 -17  -5    1.20    0.21 
  -2 -17  -5    1.48    0.23 
   2  17  -5    1.46    0.22 
  -2  17  -5    1.35    0.21 
   2 -17  -6    0.99    0.19 
  17  -2  -6    1.01    0.25 
  -2 -17  -6    0.83    0.19 
   2  17  -6    0.93    0.19 
  -2  17  -6    0.73    0.18 
  17  -2  -7    0.11    0.18 
  -2 -17  -7    0.18    0.14 
   2  17  -7    0.00    0.14 
  -2  17  -7    0.34    0.15 
  17  -2  -8    0.00    0.16 
   2  17  -8    0.02    0.13 
  -2 -17  -8   -0.03    0.13 
  -2  17  -8    0.05    0.12 
  17  -2  -9    0.13    0.13 
  17   2  -9    0.03    0.13 
   2  17  -9    0.08    0.12 
  -2  17  -9    0.08    0.12 
   2  17 -10    0.07    0.10 
  -2  17 -10    0.28    0.11 
   2  17 -11    0.95    0.13 
  -2  17 -11    0.86    0.13 
  -3 -17   0    1.82    0.25 
   3 -17   0    1.89    0.26 
  17  -3   0    2.02    0.29 
  -3 -17   1    3.18    0.31 
  -3 -17  -1    3.15    0.30 
   3 -17   1    3.33    0.32 
   3 -17  -1    3.06    0.31 
  17  -3   1    3.53    0.35 
  17  -3  -1    3.10    0.36 
  -3 -17   2    0.49    0.19 
  -3 -17  -2    0.40    0.18 
   3 -17   2    0.31    0.18 
   3 -17  -2    0.22    0.17 
  17  -3   2    0.11    0.18 
  17  -3  -2    0.09    0.20 
  -3 -17   3    1.39    0.25 
  -3 -17  -3    1.02    0.22 
   3 -17   3    1.46    0.26 
   3 -17  -3    0.94    0.23 
  17  -3  -3    1.83    0.30 
  -3 -17   4    0.29    0.16 
  -3 -17  -4    0.20    0.16 
   3 -17   4    0.28    0.17 
   3 -17  -4    0.07    0.16 
  17  -3  -4    0.35    0.23 
  -3 -17  -4    0.11    0.17 
   3  17  -4    0.36    0.16 
  -3  17  -4    0.33    0.16 
  -3 -17   5    0.32    0.16 
  -3 -17  -5    0.10    0.13 
   3 -17   5    0.14    0.16 
   3 -17  -5    0.06    0.15 
  17  -3  -5    0.06    0.21 
  -3 -17  -5    0.32    0.17 
   3  17  -5    0.08    0.15 
  -3  17  -5    0.00    0.14 
   3 -17  -6    0.15    0.14 
  17  -3  -6    0.06    0.20 
  -3 -17  -6    0.08    0.14 
   3  17  -6    0.25    0.14 
  -3  17  -6    0.42    0.16 
   3  17  -7    5.46    0.36 
  -3  17  -7    6.03    0.36 
  17  -3  -7    5.50    0.40 
  -3 -17  -7    5.33    0.34 
   3  17  -8    4.05    0.30 
  -3  17  -8    4.24    0.30 
  17  -3  -8    3.94    0.32 
  -3 -17  -8    4.04    0.30 
  17  -3  -9    0.92    0.17 
  17   3  -9    1.19    0.19 
   3  17  -9    1.14    0.18 
  -3  17  -9    1.27    0.19 
  -3 -17  -9    1.23    0.18 
   3  17 -10    0.73    0.14 
  -3  17 -10    0.77    0.14 
   3  17 -11    0.04    0.09 
  -3  17 -11    0.11    0.09 
  -4 -17   0    0.16    0.16 
   4 -17   0    0.13    0.16 
  17  -4   0    0.48    0.23 
  -4 -17   1    0.51    0.18 
  -4 -17  -1   -0.01    0.15 
   4 -17   1    0.27    0.17 
   4 -17  -1    0.20    0.17 
  17  -4   1    0.41    0.20 
  17  -4  -1    0.38    0.22 
  -4 -17   2    3.38    0.31 
  -4 -17  -2    3.19    0.30 
   4 -17   2    3.03    0.31 
   4 -17  -2    3.28    0.31 
  17  -4  -2    3.57    0.38 
  17  -4   2    2.51    0.29 
  -4 -17   3    4.59    0.36 
  -4 -17  -3    4.64    0.35 
   4 -17   3    4.57    0.38 
   4 -17  -3    4.63    0.37 
   4  17  -3    4.20    0.32 
  17  -4  -3    4.87    0.42 
  -4 -17   4    2.50    0.28 
   4 -17   4    2.49    0.28 
  -4  17  -4    2.29    0.26 
  -4 -17  -4    2.12    0.24 
   4 -17  -4    1.83    0.25 
  17  -4  -4    2.15    0.32 
  -4 -17  -4    2.19    0.28 
   4  17  -4    2.04    0.24 
  -4 -17  -5    0.12    0.12 
   4 -17   5    0.41    0.14 
   4 -17  -5    0.02    0.16 
  17  -4  -5    0.35    0.22 
  -4 -17  -5    0.38    0.18 
   4  17  -5    0.16    0.13 
  -4  17  -5    0.13    0.14 
   4 -17  -6    0.08    0.14 
  17  -4  -6   -0.10    0.21 
  -4 -17  -6    0.16    0.15 
   4  17  -6    0.15    0.14 
  -4  17  -6   -0.08    0.15 
   4 -17  -7    0.06    0.13 
  17  -4  -7    0.12    0.17 
   4  17  -7   -0.19    0.15 
  -4 -17  -7    0.08    0.14 
  -4  17  -7    0.12    0.14 
  17  -4  -8    0.06    0.15 
   4  17  -8   -0.15    0.13 
  -4  17  -8    0.08    0.13 
  -4 -17  -8   -0.15    0.14 
  17  -4  -9   -0.20    0.13 
   4  17  -9    0.09    0.12 
  -4  17  -9    0.04    0.11 
  -4 -17  -9    0.00    0.11 
   4  17 -10    0.40    0.12 
  -4  17 -10    0.41    0.12 
  -4  17 -11    0.87    0.12 
  -5 -17   0   19.48    0.69 
   5 -17   0   18.54    0.71 
  17  -5   0   19.44    0.73 
  -5 -17   1    6.24    0.40 
  -5 -17  -1    6.54    0.41 
   5 -17   1    6.69    0.44 
   5 -17  -1    6.60    0.43 
  17  -5   1    5.57    0.41 
  17  -5  -1    6.25    0.45 
  -5 -17   2    0.83    0.21 
  -5 -17  -2    1.05    0.20 
   5 -17   2    0.83    0.20 
   5 -17  -2    0.79    0.20 
  17  -5   2    1.29    0.24 
  17  -5  -2    0.90    0.26 
  -5 -17   3    0.51    0.19 
  -5 -17  -3    0.25    0.15 
   5 -17   3    0.20    0.15 
   5 -17  -3    0.05    0.16 
  17  -5  -3    0.53    0.24 
  -5 -17  -3    0.21    0.18 
   5  17  -3    0.11    0.14 
  -5 -17  -4    0.18    0.15 
   5 -17   4    0.23    0.17 
   5 -17  -4    0.02    0.16 
  17  -5  -4    0.26    0.24 
  -5 -17  -4    0.15    0.17 
   5  17  -4    0.16    0.14 
  -5  17  -4   -0.09    0.15 
  -5 -17  -5    0.35    0.14 
   5 -17   5    0.25    0.14 
   5 -17  -5    0.39    0.17 
  17  -5  -5    0.55    0.23 
  -5 -17  -5    0.47    0.17 
   5  17  -5    0.08    0.13 
  -5  17  -5    0.47    0.17 
   5 -17  -6    0.76    0.18 
  17  -5  -6    1.00    0.24 
  -5 -17  -6    0.72    0.18 
   5  17  -6    0.74    0.17 
  -5  17  -6    0.86    0.19 
   5 -17  -7    0.77    0.16 
  17  -5  -7    1.31    0.24 
   5  17  -7    0.89    0.17 
  -5 -17  -7    1.10    0.19 
  -5  17  -7    1.11    0.19 
   5  17  -8    2.25    0.22 
  -5  17  -8    2.28    0.23 
  17  -5  -8    1.82    0.22 
  -5 -17  -8    1.85    0.21 
  17  -5  -9    1.22    0.17 
   5  17  -9    0.95    0.15 
  -5  17  -9    1.28    0.18 
  -5 -17  -9    1.14    0.17 
   5  17 -10    0.96    0.13 
  -5  17 -10    1.07    0.15 
  -5 -17 -10    0.73    0.13 
  -5  17 -11    0.26    0.08 
  -6 -17   0    0.12    0.15 
   6 -17   0    0.26    0.20 
  17  -6   0    0.06    0.18 
  -6 -17   1    0.74    0.20 
  -6 -17  -1    0.78    0.20 
   6 -17   1    0.63    0.20 
   6 -17  -1    0.70    0.22 
  17  -6   1    0.50    0.21 
  17  -6  -1    0.90    0.25 
  -6 -17   2    0.05    0.15 
  -6 -17  -2    0.04    0.14 
   6 -17   2    0.14    0.17 
   6 -17  -2   -0.02    0.15 
  17  -6   2    0.00    0.17 
  17  -6  -2    0.36    0.22 
  -6 -17  -3    0.78    0.18 
   6 -17   3    0.33    0.15 
   6 -17  -3    0.44    0.17 
  17  -6  -3    0.87    0.25 
  -6 -17  -3    0.51    0.19 
   6  17  -3    0.37    0.15 
   6 -17   4    0.89    0.20 
   6 -17  -4    0.28    0.16 
  17  -6  -4    0.59    0.23 
  -6 -17  -4    0.57    0.18 
   6  17  -4    0.66    0.15 
  -6  17  -4    0.55    0.17 
   6 -17  -5    0.09    0.15 
  17  -6  -5    0.30    0.21 
  -6 -17  -5   -0.01    0.15 
   6  17  -5    0.24    0.15 
  -6  17  -5    0.16    0.14 
   6 -17  -6    0.09    0.13 
  17  -6  -6   -0.03    0.18 
   6  17  -6    0.08    0.13 
  -6 -17  -6    0.07    0.14 
  -6  17  -6    0.10    0.14 
   6 -17  -7    0.23    0.11 
  17  -6  -7    0.31    0.17 
   6  17  -7    0.49    0.15 
  -6 -17  -7    0.51    0.16 
  -6  17  -7    0.62    0.17 
  17  -6  -8   -0.07    0.15 
  -6  17  -8    0.15    0.12 
  -6 -17  -8   -0.02    0.12 
  17  -6  -9    0.26    0.12 
  -6  17  -9    0.15    0.11 
  -6 -17  -9    0.13    0.12 
  -6  17 -10    0.04    0.09 
  -6 -17 -10    0.08    0.09 
   7 -17   0    0.71    0.20 
  17  -7   0    0.56    0.21 
   7 -17   1    3.35    0.32 
   7 -17  -1    3.42    0.33 
  17  -7   1    3.39    0.33 
  17  -7  -1    3.28    0.34 
   7 -17   2    4.99    0.38 
   7 -17  -2    5.71    0.39 
  17  -7   2    5.94    0.40 
  17  -7  -2    5.57    0.42 
   7 -17   3    5.74    0.39 
   7 -17  -3    6.24    0.41 
  17  -7  -3    5.38    0.42 
  -7  17  -3    5.67    0.36 
  -7 -17  -3    6.40    0.41 
   7 -17   4    0.43    0.16 
   7 -17  -4    0.29    0.18 
  17  -7  -4    0.18    0.20 
  -7 -17  -4    0.48    0.19 
  -7  17  -4    0.09    0.15 
   7 -17  -5    0.18    0.15 
  17  -7  -5    0.23    0.20 
  -7 -17  -5    0.11    0.14 
  -7  17  -5    0.28    0.15 
   7 -17  -6    0.34    0.15 
  17  -7  -6   -0.26    0.19 
  -7 -17  -6    0.19    0.14 
  -7  17  -6   -0.20    0.15 
   7 -17  -7    0.43    0.14 
  17  -7  -7    0.42    0.17 
  -7  17  -7    0.45    0.15 
  -7 -17  -7    0.47    0.15 
  17  -7  -8    1.29    0.19 
  -7  17  -8    1.34    0.18 
  -7 -17  -8    1.18    0.18 
  -7  17  -9    3.14    0.22 
  -7 -17  -9    2.74    0.22 
  -7  17 -10    0.18    0.08 
  -7 -17 -10    0.32    0.10 
   8 -17   0    0.18    0.18 
  17  -8   0    0.00    0.18 
   8 -17   1    5.70    0.40 
   8 -17  -1    6.05    0.42 
  17  -8   1    5.04    0.38 
  17  -8  -1    5.25    0.39 
   8 -17   2    3.43    0.32 
   8 -17  -2    3.64    0.33 
  17  -8   2    3.37    0.31 
  17  -8  -2    3.35    0.34 
   8 -17   3    4.40    0.34 
   8 -17  -3    4.59    0.35 
  17  -8  -3    4.78    0.38 
  -8  17  -3    4.48    0.34 
   8 -17   4    0.92    0.18 
   8 -17  -4    0.98    0.20 
  17  -8  -4    1.23    0.25 
  -8 -17  -4    1.40    0.22 
  -8  17  -4    1.30    0.20 
   8 -17  -5    0.09    0.14 
  17  -8  -5   -0.07    0.18 
  -8 -17  -5    0.04    0.15 
  -8  17  -5    0.14    0.14 
   8 -17  -6    0.50    0.16 
  17  -8  -6    0.57    0.20 
  -8 -17  -6    0.39    0.17 
  -8  17  -6    0.45    0.14 
   8 -17  -7    0.44    0.13 
  17  -8  -7    0.56    0.17 
  -8  17  -7    0.68    0.16 
  -8 -17  -7    0.78    0.17 
  17  -8  -8   -0.06    0.11 
  -8  17  -8    0.00    0.11 
  -8 -17  -8    0.08    0.11 
  17  -8  -9    0.17    0.08 
  -8  17  -9    0.52    0.11 
  -8 -17  -9    0.50    0.12 
   9 -17   0   14.37    0.60 
  17  -9   0   13.96    0.59 
   9 -17   1    4.36    0.35 
   9 -17  -1    4.85    0.37 
  17  -9   1    4.18    0.33 
  17  -9  -1    4.88    0.38 
   9 -17   2    0.41    0.16 
   9 -17  -2    0.52    0.19 
  17  -9   2    0.50    0.16 
  17  -9  -2    0.70    0.23 
  -9  17  -2    0.26    0.13 
   9 -17   3    0.94    0.19 
   9 -17  -3    0.99    0.19 
  17  -9  -3    1.56    0.26 
  -9  17  -3    1.15    0.19 
   9 -17   4    1.33    0.19 
   9 -17  -4    1.77    0.24 
  -9 -17  -4    1.62    0.23 
  -9  17  -4    1.23    0.19 
   9 -17  -5    2.28    0.25 
  -9  17  -5    2.82    0.26 
  17  -9  -5    2.86    0.30 
  -9 -17  -5    2.29    0.25 
   9 -17  -6    2.66    0.25 
  -9  17  -6    2.91    0.26 
  17  -9  -6    3.16    0.29 
  -9 -17  -6    2.58    0.25 
   9 -17  -7    0.83    0.14 
  17  -9  -7    1.26    0.19 
  -9  17  -7    1.28    0.17 
  -9 -17  -7    1.05    0.17 
  17  -9  -8   -0.11    0.11 
  -9  17  -8   -0.08    0.10 
  -9 -17  -8    0.10    0.11 
  -9 -17  -9   -0.07    0.09 
  10 -17   0    0.09    0.17 
  17 -10   0    0.26    0.17 
  10 -17   1    0.41    0.18 
  10 -17  -1    0.21    0.18 
  17 -10   1    0.27    0.18 
  17 -10  -1    0.71    0.21 
  10 -17   2    2.86    0.28 
  10 -17  -2    3.16    0.30 
  17 -10   2    2.73    0.26 
  17 -10  -2    3.69    0.33 
 -10  17  -2    3.41    0.28 
  10 -17   3    2.58    0.25 
  10 -17  -3    2.53    0.27 
 -10  17  -3    2.54    0.23 
  17 -10  -3    3.27    0.31 
  10 -17  -4    2.08    0.24 
 -10  17  -4    2.03    0.22 
  17 -10  -4    2.50    0.29 
  10 -17  -5    1.62    0.21 
  17 -10  -5    1.68    0.24 
 -10 -17  -5    1.47    0.20 
 -10  17  -5    1.17    0.17 
  10 -17  -6    0.62    0.15 
  17 -10  -6    0.71    0.18 
 -10 -17  -6    0.73    0.16 
  10 -17  -7   -0.03    0.09 
  17 -10  -7    0.18    0.13 
 -10 -17  -7    0.29    0.13 
  17 -10  -8    0.17    0.09 
 -10 -17  -8   -0.01    0.10 
  11 -17   0   -0.05    0.15 
  17 -11   0   -0.03    0.16 
  11 -17   1    0.48    0.17 
  11 -17  -1    0.54    0.18 
  17 -11   1    0.48    0.16 
  17 -11  -1    0.46    0.17 
  11 -17   2   -0.08    0.16 
  11 -17  -2    0.19    0.16 
  17 -11   2   -0.16    0.13 
  17 -11  -2    0.15    0.17 
  11 -17   3    0.43    0.14 
  11 -17  -3    0.67    0.18 
  17 -11  -3    0.70    0.19 
  11 -17  -4    1.98    0.23 
  17 -11  -4    1.89    0.23 
  11 -17  -5    1.02    0.17 
  17 -11  -5    1.27    0.20 
  11 -17  -6    0.51    0.13 
  17 -11  -6    0.45    0.15 
 -11 -17  -6    0.50    0.13 
  11 -17  -7    0.44    0.11 
  17 -11  -7    0.69    0.13 
 -11 -17  -7    0.64    0.13 
  12 -17   0    0.44    0.17 
  17 -12   0    0.06    0.14 
  12 -17   1    1.14    0.19 
  12 -17  -1    1.26    0.21 
  17 -12   1    1.06    0.18 
  17 -12  -1    1.09    0.19 
  12 -17   2    1.52    0.19 
  12 -17  -2    1.72    0.22 
  17 -12   2    1.25    0.17 
  17 -12  -2    1.54    0.22 
  12 -17   3    2.35    0.21 
  12 -17  -3    2.97    0.26 
  17 -12  -3    3.03    0.27 
  12 -17  -4    2.71    0.24 
  17 -12  -4    2.96    0.25 
  12 -17  -5    1.60    0.19 
  17 -12  -5    1.35    0.19 
  12 -17  -6    0.21    0.11 
  17 -12  -6   -0.06    0.11 
  12 -17  -7    0.09    0.07 
  17 -12  -7   -0.05    0.09 
  13 -17   0    1.55    0.20 
  17 -13   0    1.38    0.19 
  13 -17   1    0.11    0.12 
  13 -17  -1    0.09    0.14 
  17 -13   1    0.21    0.13 
  17 -13  -1    0.05    0.14 
  13 -17   2    0.02    0.11 
  13 -17  -2    0.17    0.13 
  17 -13  -2   -0.04    0.13 
  13 -17  -3    0.50    0.15 
  17 -13  -3    0.11    0.12 
  13 -17  -4    0.16    0.11 
  17 -13  -4   -0.23    0.13 
  13 -17  -5   -0.01    0.09 
  17 -13  -5   -0.21    0.12 
  13 -17  -6    0.07    0.08 
  17 -13  -6    0.11    0.09 
  14 -17   0    0.16    0.12 
  17 -14   0    0.35    0.12 
  14 -17  -1    1.79    0.19 
  17 -14  -1    1.63    0.18 
  14 -17   1    1.33    0.17 
  17 -14   1    1.17    0.15 
  14 -17   2    1.39    0.15 
  14 -17  -2    2.04    0.19 
  17 -14  -2    1.85    0.19 
  14 -17  -3    1.13    0.16 
  17 -14  -3    0.77    0.14 
  14 -17  -4    0.41    0.11 
  17 -14  -4    0.42    0.11 
  14 -17  -5    0.34    0.10 
  17 -14  -5    0.58    0.11 
  15 -17   0    1.70    0.16 
  17 -15   0    1.40    0.14 
  15 -17   1    0.02    0.07 
  15 -17  -1    0.00    0.09 
  17 -15  -1    0.13    0.09 
  15 -17  -2    0.12    0.09 
  17 -15  -2    0.08    0.09 
  15 -17  -3    0.43    0.10 
  17 -15  -3    0.47    0.10 
  15 -17  -4    0.05    0.07 
  17 -15  -4   -0.03    0.07 
   0 -18   0   24.90    0.78 
   0 -18   1    3.63    0.33 
   0 -18  -1    3.83    0.34 
   0 -18   2    0.01    0.15 
   0 -18  -2    0.06    0.15 
  18   0   2    0.20    0.16 
   0 -18   3   -0.37    0.19 
   0 -18  -3    0.33    0.17 
   0 -18   4    0.07    0.15 
   0 -18  -4    0.13    0.14 
   0  18  -4   -0.05    0.16 
   0 -18   5    1.59    0.22 
   0 -18  -5    1.32    0.20 
   0  18  -5    1.51    0.21 
   0 -18   6    8.63    0.41 
   0 -18  -6    8.75    0.42 
   0  18  -6    9.57    0.45 
   0  18  -7    7.03    0.38 
  18   0  -7    7.44    0.44 
   0  18  -8    6.13    0.34 
  18   0  -8    5.41    0.35 
   0  18  -9    1.86    0.20 
  18   0  -9    1.35    0.17 
   0  18 -10   -0.13    0.10 
   0  18 -11   -0.05    0.07 
  -1 -18   0    0.06    0.16 
   1 -18   0    0.14    0.17 
  -1 -18   1    0.33    0.18 
  -1 -18  -1    0.24    0.17 
   1 -18   1    0.43    0.19 
   1 -18  -1    0.38    0.18 
  18  -1   1    0.58    0.21 
  -1 -18   2   -0.05    0.15 
  -1 -18  -2    0.02    0.16 
   1 -18   2    0.02    0.15 
   1 -18  -2    0.15    0.17 
  18  -1   2    0.06    0.17 
  -1 -18   3    0.45    0.19 
   1 -18   3    0.27    0.17 
  -1 -18  -3    0.06    0.15 
   1 -18  -3    0.15    0.16 
  -1 -18   4    0.69    0.18 
   1 -18   4    0.59    0.19 
  -1 -18  -4    0.67    0.19 
   1 -18  -4    0.66    0.18 
   1  18  -4    0.50    0.17 
  -1  18  -4    0.25    0.15 
  -1 -18   5    0.57    0.16 
   1 -18   5    0.44    0.16 
  -1 -18  -5    0.47    0.16 
   1 -18  -5    0.50    0.17 
   1  18  -5    0.29    0.15 
  -1  18  -5    0.45    0.15 
   1 -18   6    0.12    0.12 
   1 -18  -6    0.31    0.15 
  18  -1  -6    0.60    0.22 
   1  18  -6    0.30    0.16 
  -1  18  -6    0.12    0.14 
  18  -1  -7    0.56    0.21 
   1  18  -7    0.46    0.17 
  -1  18  -7    0.31    0.15 
  18  -1  -8    0.16    0.16 
  18   1  -8    0.42    0.17 
   1  18  -8    0.31    0.15 
  -1  18  -8    0.36    0.14 
  18  -1  -9    0.06    0.12 
  18   1  -9    0.01    0.11 
   1  18  -9    0.19    0.12 
  -1  18  -9    0.15    0.11 
   1  18 -10   -0.02    0.09 
  -1  18 -10    0.11    0.09 
  -1  18 -11    0.27    0.09 
  -2 -18   0    0.62    0.17 
   2 -18   0    0.32    0.17 
  18  -2   0    0.37    0.20 
  -2 -18   1    2.84    0.29 
  -2 -18  -1    2.66    0.29 
   2 -18   1    3.11    0.31 
   2 -18  -1    2.38    0.28 
  18  -2   1    2.63    0.31 
  18  -2  -1    2.70    0.32 
  -2 -18   2    2.10    0.26 
  -2 -18  -2    2.23    0.27 
   2 -18   2    1.67    0.25 
   2 -18  -2    1.74    0.25 
  18  -2   2    1.86    0.26 
  -2 -18   3    0.44    0.18 
  -2 -18  -3    0.68    0.19 
   2 -18   3    0.68    0.19 
   2 -18  -3    0.86    0.19 
   2  18  -3    0.68    0.19 
  -2 -18   4    0.06    0.14 
  -2 -18  -4    0.23    0.14 
   2 -18   4   -0.08    0.14 
   2 -18  -4   -0.05    0.16 
  18  -2  -4   -0.01    0.20 
   2  18  -4   -0.24    0.16 
  -2  18  -4   -0.01    0.14 
  -2 -18   5    4.14    0.32 
   2 -18   5    3.50    0.29 
  -2 -18  -5    3.54    0.28 
   2 -18  -5    3.81    0.31 
   2  18  -5    4.00    0.31 
  -2  18  -5    3.60    0.30 
  18  -2  -5    4.45    0.38 
   2 -18  -6    3.54    0.29 
   2  18  -6    3.66    0.29 
  -2  18  -6    3.92    0.30 
  18  -2  -6    4.04    0.36 
   2  18  -7    5.35    0.33 
  -2  18  -7    5.70    0.34 
  18  -2  -7    5.48    0.38 
   2  18  -8    4.01    0.28 
  -2  18  -8    4.33    0.29 
  18  -2  -8    3.56    0.29 
  18   2  -8    3.28    0.27 
  18  -2  -9    0.50    0.13 
  18   2  -9    0.70    0.15 
   2  18  -9    0.74    0.14 
  -2  18  -9    0.77    0.14 
   2  18 -10    0.25    0.10 
  -2  18 -10    0.10    0.09 
  -2  18 -11    0.07    0.07 
  -3 -18   0    0.11    0.16 
   3 -18   0   -0.14    0.17 
  18  -3   0    0.31    0.21 
  -3 -18   1    0.50    0.18 
  -3 -18  -1    0.62    0.18 
   3 -18   1    0.56    0.17 
   3 -18  -1    0.66    0.20 
  18  -3   1    0.90    0.25 
  18  -3  -1    0.85    0.25 
  -3 -18   2    0.72    0.19 
  -3 -18  -2    0.70    0.18 
   3 -18   2    0.77    0.21 
   3 -18  -2    0.67    0.18 
  18  -3   2    0.79    0.20 
  18  -3  -2    1.19    0.27 
  -3 -18   3    0.60    0.18 
  -3 -18  -3    0.68    0.18 
   3 -18   3    0.58    0.19 
   3 -18  -3    0.44    0.17 
  18  -3  -3    1.19    0.28 
   3  18  -3    0.54    0.17 
  -3 -18   4    1.64    0.24 
  -3 -18  -4    1.17    0.20 
   3 -18   4    1.49    0.22 
   3 -18  -4    1.35    0.22 
  18  -3  -4    1.58    0.29 
   3  18  -4    1.42    0.21 
  -3  18  -4    1.46    0.22 
  -3 -18  -5    0.67    0.15 
   3 -18   5    0.83    0.17 
   3 -18  -5    1.08    0.20 
  18  -3  -5    0.79    0.23 
   3  18  -5    0.70    0.17 
  -3  18  -5    0.77    0.18 
   3 -18  -6    0.88    0.18 
  18  -3  -6    0.87    0.23 
   3  18  -6    0.90    0.18 
  -3  18  -6    0.56    0.15 
  18  -3  -7    0.08    0.17 
   3  18  -7   -0.06    0.12 
  -3  18  -7    0.38    0.14 
  18  -3  -8    0.59    0.17 
   3  18  -8    0.48    0.14 
  -3  18  -8    0.48    0.14 
  18   3  -9    0.72    0.15 
   3  18  -9    0.97    0.14 
  -3  18  -9    1.23    0.16 
   3  18 -10    0.45    0.10 
  -3  18 -10    0.44    0.11 
  -4 -18   0    1.74    0.24 
   4 -18   0    1.71    0.24 
  18  -4   0    1.81    0.27 
  -4 -18   1    0.52    0.17 
  -4 -18  -1    0.54    0.17 
   4 -18   1    0.37    0.16 
   4 -18  -1    0.62    0.20 
  18  -4   1    0.48    0.19 
  18  -4  -1    0.79    0.24 
  -4 -18   2    0.68    0.19 
  -4 -18  -2    0.54    0.18 
   4 -18   2    0.63    0.19 
   4 -18  -2    0.38    0.17 
  18  -4   2    0.37    0.18 
  18  -4  -2    0.58    0.24 
  -4 -18   3    0.22    0.16 
  -4 -18  -3    0.34    0.17 
   4 -18   3    0.28    0.18 
   4 -18  -3   -0.19    0.17 
  18  -4  -3    0.26    0.23 
   4  18  -3   -0.04    0.14 
  -4 -18  -4    0.94    0.19 
   4 -18   4    1.28    0.22 
   4 -18  -4    1.44    0.23 
  18  -4  -4    1.46    0.29 
   4  18  -4    1.75    0.22 
  -4  18  -4    1.09    0.21 
  -4 -18  -5    2.18    0.22 
   4 -18   5    2.44    0.25 
   4 -18  -5    2.84    0.28 
   4  18  -5    2.55    0.26 
  -4  18  -5    2.74    0.26 
  18  -4  -5    2.81    0.33 
   4  18  -6    2.05    0.23 
  -4  18  -6    2.53    0.25 
   4 -18  -6    1.69    0.21 
  18  -4  -6    2.37    0.29 
  18  -4  -7    0.87    0.20 
   4  18  -7    0.78    0.16 
  -4  18  -7    0.85    0.16 
  18  -4  -8    1.06    0.19 
   4  18  -8    1.23    0.17 
  -4  18  -8    1.35    0.18 
  18  -4  -9    0.78    0.14 
  18   4  -9    0.87    0.15 
   4  18  -9    0.65    0.12 
  -4  18  -9    1.00    0.15 
  -4  18 -10    0.07    0.09 
  -5 -18   0    0.00    0.15 
   5 -18   0   -0.10    0.18 
  18  -5   0   -0.07    0.18 
  -5 -18   1    0.24    0.15 
  -5 -18  -1    0.11    0.14 
   5 -18   1    0.31    0.18 
   5 -18  -1    0.21    0.16 
  18  -5   1    0.47    0.19 
  18  -5  -1    0.05    0.19 
  -5 -18   2    4.16    0.33 
  -5 -18  -2    4.33    0.33 
   5 -18   2    3.90    0.34 
   5 -18  -2    4.10    0.34 
  18  -5   2    3.59    0.32 
   5  18  -2    3.86    0.31 
  18  -5  -2    4.02    0.36 
  -5 -18  -3    4.43    0.33 
   5 -18   3    4.62    0.35 
   5 -18  -3    4.50    0.35 
   5  18  -3    4.17    0.31 
  18  -5  -3    4.30    0.39 
  -5 -18  -4    2.42    0.25 
   5 -18   4    2.65    0.28 
   5  18  -4    2.43    0.24 
  -5  18  -4    2.31    0.25 
  18  -5  -4    2.82    0.33 
   5 -18  -4    2.17    0.26 
   5 -18   5    3.23    0.27 
   5 -18  -5    3.48    0.30 
   5  18  -5    3.65    0.29 
  -5  18  -5    3.84    0.30 
  18  -5  -5    3.50    0.35 
  -5  18  -6    2.03    0.23 
   5 -18  -6    1.58    0.21 
  18  -5  -6    2.07    0.26 
  -5 -18  -6    1.28    0.20 
   5  18  -6    1.23    0.19 
   5 -18  -7    0.27    0.11 
  18  -5  -7   -0.08    0.16 
   5  18  -7    0.22    0.13 
  -5 -18  -7    0.21    0.13 
  -5  18  -7    0.20    0.13 
  18  -5  -8    0.94    0.17 
   5  18  -8    1.11    0.15 
  -5  18  -8    1.25    0.17 
  18  -5  -9    0.54    0.12 
  18   5  -9    0.45    0.12 
   5  18  -9    0.25    0.09 
  -5  18  -9    0.51    0.12 
  -5  18 -10    0.53    0.10 
  -6 -18   0    0.14    0.14 
   6 -18   0   -0.28    0.18 
  18  -6   0    0.25    0.18 
  -6 -18  -1    0.20    0.15 
   6 -18   1   -0.24    0.17 
   6 -18  -1    0.02    0.16 
  18  -6   1    0.03    0.17 
  18  -6  -1   -0.18    0.20 
  -6 -18  -2    0.42    0.16 
   6 -18   2    0.09    0.15 
   6 -18  -2    0.39    0.18 
  18  -6   2    0.18    0.15 
  18  -6  -2    0.31    0.21 
   6 -18   3    0.81    0.22 
   6 -18  -3    0.69    0.21 
  18  -6  -3    0.45    0.22 
  -6  18  -3    1.03    0.20 
   6 -18   4    0.89    0.20 
   6 -18  -4    0.92    0.21 
  18  -6  -4    1.51    0.27 
  -6  18  -4    1.04    0.21 
  -6  18  -5    2.32    0.25 
   6 -18  -5    1.62    0.22 
  18  -6  -5    2.29    0.29 
   6 -18  -6    0.69    0.15 
  18  -6  -6    1.02    0.21 
  -6 -18  -6    1.13    0.19 
  -6  18  -6    1.15    0.19 
   6 -18  -7    0.12    0.10 
  18  -6  -7    0.14    0.14 
  -6 -18  -7    0.26    0.13 
  -6  18  -7    0.24    0.12 
  18  -6  -8    0.55    0.15 
  -6  18  -8    0.32    0.12 
  18  -6  -9    0.46    0.10 
  18   6  -9    0.50    0.12 
  -6  18  -9    0.56    0.12 
   7 -18   0   -0.05    0.16 
  18  -7   0   -0.13    0.17 
   7 -18   1    0.82    0.19 
   7 -18  -1    0.80    0.19 
  18  -7   1    0.53    0.18 
  18  -7  -1    0.66    0.20 
  18  -7   2    2.33    0.25 
   7 -18   2    1.86    0.24 
   7 -18  -2    2.12    0.26 
  18  -7  -2    2.33    0.29 
   7 -18   3   11.61    0.52 
   7 -18  -3   11.87    0.53 
  18  -7  -3   10.91    0.54 
  -7  18  -3   12.16    0.50 
   7 -18   4   13.93    0.54 
   7 -18  -4   15.68    0.58 
  -7  18  -4   16.10    0.57 
  18  -7  -4   15.70    0.62 
  -7  18  -5    2.38    0.24 
   7 -18  -5    1.94    0.23 
  18  -7  -5    1.99    0.25 
   7 -18  -6   -0.18    0.14 
  18  -7  -6   -0.27    0.17 
  -7 -18  -6   -0.25    0.14 
  -7  18  -6   -0.04    0.11 
   7 -18  -7    0.19    0.10 
  -7  18  -7    0.25    0.12 
  -7 -18  -7    0.06    0.12 
  18  -7  -8    0.06    0.11 
  -7  18  -8   -0.02    0.10 
  -7  18  -9    1.77    0.15 
   8 -18   0    1.02    0.21 
  18  -8   0    0.91    0.22 
   8 -18   1    0.48    0.16 
   8 -18  -1    0.44    0.17 
  18  -8   1    0.61    0.18 
  18  -8  -1    0.28    0.18 
   8 -18   2    0.23    0.15 
   8 -18  -2    0.04    0.15 
  18  -8   2    0.29    0.15 
  18  -8  -2   -0.16    0.20 
  -8  18  -2   -0.11    0.14 
   8 -18   3    0.79    0.18 
   8 -18  -3    1.36    0.22 
  18  -8  -3    0.83    0.22 
  -8  18  -3    0.76    0.17 
   8 -18   4    0.59    0.16 
   8 -18  -4    1.06    0.20 
  18  -8  -4    0.46    0.20 
  -8  18  -4    1.04    0.18 
   8 -18  -5    0.81    0.17 
  18  -8  -5    1.16    0.22 
  -8  18  -5    0.91    0.17 
   8 -18  -6    0.84    0.15 
  18  -8  -6    1.24    0.20 
  -8  18  -6    1.18    0.17 
  18  -8  -7    0.59    0.15 
  -8  18  -7    0.38    0.12 
  18  -8  -8    0.00    0.10 
  -8  18  -8    0.03    0.08 
   9 -18   0   -0.25    0.16 
  18  -9   0    0.02    0.15 
   9 -18   1    0.18    0.15 
   9 -18  -1    0.17    0.15 
  18  -9   1    0.30    0.15 
  18  -9  -1    0.17    0.16 
   9 -18   2    3.52    0.30 
   9 -18  -2    3.55    0.30 
  18  -9  -2    4.18    0.34 
  -9  18  -2    3.44    0.27 
   9 -18   3    3.38    0.27 
   9 -18  -3    3.34    0.29 
  -9  18  -3    3.23    0.26 
  18  -9  -3    3.82    0.32 
   9 -18   4    2.01    0.20 
   9 -18  -4    2.04    0.23 
  -9  18  -4    1.96    0.20 
  18  -9  -4    2.08    0.26 
   9 -18  -5    2.78    0.24 
  -9  18  -5    3.23    0.24 
   9 -18  -6    0.47    0.13 
  18  -9  -6    0.85    0.18 
  -9  18  -6    0.55    0.13 
   9 -18  -7    0.05    0.08 
  18  -9  -7    0.02    0.10 
  -9  18  -7    0.05    0.09 
  18  -9  -8    0.83    0.11 
  10 -18   0   -0.18    0.15 
  18 -10   0   -0.15    0.15 
  10 -18   1    0.10    0.13 
  10 -18  -1    0.45    0.15 
  18 -10   1    0.05    0.13 
  18 -10  -1    0.17    0.16 
 -10  18  -1    0.04    0.11 
  10 -18   2    0.81    0.16 
  10 -18  -2    0.81    0.18 
  18 -10  -2    1.06    0.20 
 -10  18  -2    0.93    0.16 
  10 -18   3    0.48    0.14 
  10 -18  -3    0.68    0.17 
  18 -10  -3    0.68    0.19 
 -10  18  -3    0.67    0.13 
  10 -18  -4    0.09    0.13 
 -10  18  -4    0.15    0.10 
  10 -18  -5    0.13    0.11 
  18 -10  -5    0.10    0.14 
  10 -18  -6    0.00    0.10 
  18 -10  -6    0.11    0.12 
  10 -18  -7   -0.07    0.07 
  18 -10  -7   -0.01    0.09 
  11 -18   0    0.16    0.13 
  18 -11   0   -0.15    0.14 
  11 -18   1    1.39    0.19 
  11 -18  -1    1.59    0.22 
  18 -11   1    1.35    0.18 
  18 -11  -1    1.74    0.21 
  11 -18   2    0.42    0.13 
  11 -18  -2    0.97    0.18 
  18 -11  -2    0.80    0.18 
  11 -18   3    1.30    0.17 
  11 -18  -3    1.03    0.17 
  11 -18  -4    2.30    0.22 
  18 -11  -4    2.28    0.23 
  11 -18  -5    0.79    0.14 
  18 -11  -5    0.81    0.16 
  11 -18  -6    0.00    0.09 
  18 -11  -6   -0.10    0.11 
  18 -11  -7   -0.08    0.08 
  12 -18   0    1.11    0.17 
  18 -12   0    0.89    0.16 
  12 -18  -1    1.91    0.21 
  12 -18   1    1.67    0.19 
  18 -12   1    1.41    0.16 
  18 -12  -1    1.85    0.20 
  12 -18   2    1.11    0.16 
  12 -18  -2    1.19    0.17 
  18 -12  -2    1.21    0.18 
  12 -18  -3    0.75    0.14 
  18 -12  -3    0.52    0.15 
  12 -18  -4    0.00    0.10 
  18 -12  -4    0.03    0.12 
  12 -18  -5    0.03    0.09 
  18 -12  -5   -0.12    0.11 
  12 -18  -6   -0.03    0.07 
  18 -12  -6    0.31    0.09 
  13 -18   0    0.43    0.13 
  18 -13   0    0.51    0.13 
  13 -18   1    0.46    0.12 
  13 -18  -1    0.66    0.14 
  18 -13   1    0.40    0.10 
  18 -13  -1    0.35    0.12 
  13 -18   2    0.32    0.09 
  13 -18  -2    0.47    0.13 
  18 -13  -2    0.30    0.12 
  13 -18  -3    0.60    0.12 
  18 -13  -3    0.56    0.12 
  13 -18  -4    0.53    0.11 
  18 -13  -4    0.47    0.11 
  13 -18  -5    0.60    0.10 
  18 -13  -5    0.75    0.11 
  14 -18   0    4.66    0.24 
  18 -14   0    3.95    0.21 
  14 -18  -1    1.39    0.15 
  18 -14  -1    1.40    0.15 
  14 -18   1    1.17    0.12 
  14 -18  -2    0.63    0.12 
  18 -14  -2    0.97    0.13 
  14 -18  -3    0.21    0.09 
  18 -14  -3    0.20    0.08 
  14 -18  -4   -0.07    0.06 
  18 -14  -4    0.26    0.09 
   0 -19   0    0.01    0.16 
   0 -19   1    4.05    0.33 
   0 -19  -1    4.21    0.34 
  19   0   1    4.61    0.37 
   0 -19   2   20.66    0.70 
   0 -19  -2   20.27    0.69 
   0 -19   3   10.59    0.50 
   0 -19  -3   11.16    0.51 
   0  19  -3   10.88    0.49 
   0 -19   4    7.48    0.41 
   0 -19  -4    6.82    0.39 
   0  19  -4    7.72    0.41 
   0  19  -5    1.91    0.23 
   0 -19   5    1.41    0.19 
   0 -19  -5    1.55    0.20 
   0  19  -6    2.10    0.23 
  19   0  -6    2.44    0.29 
   0 -19  -6    1.58    0.17 
  19   0  -7    0.84    0.19 
   0  19  -7    0.82    0.16 
  19   0  -8   -0.09    0.13 
   0  19  -8    0.01    0.11 
  19   0  -9    0.07    0.09 
   0  19  -9    0.13    0.09 
   0  19 -10    0.30    0.08 
  -1 -19   0    1.95    0.26 
   1 -19   0    1.46    0.22 
  19  -1   0    1.74    0.28 
  -1 -19   1    0.58    0.18 
  -1 -19  -1    0.27    0.15 
   1 -19   1    0.44    0.18 
   1 -19  -1    0.54    0.18 
  19  -1   1    0.73    0.21 
  19  -1  -1    0.83    0.23 
  -1 -19   2    1.41    0.24 
  -1 -19  -2    0.90    0.21 
   1 -19   2    0.79    0.21 
   1 -19  -2    1.12    0.23 
  -1 -19   3    0.84    0.20 
   1 -19   3    1.03    0.22 
  -1 -19  -3    1.00    0.22 
   1 -19  -3    0.96    0.21 
   1  19  -3    1.41    0.23 
  -1  19  -3    1.23    0.24 
  -1 -19   4    0.20    0.16 
   1 -19   4    0.65    0.18 
  -1 -19  -4    0.62    0.17 
   1 -19  -4    0.30    0.16 
  19  -1  -4    0.65    0.25 
   1  19  -4    0.88    0.20 
  -1  19  -4    0.83    0.21 
  -1 -19   5    1.28    0.20 
   1 -19   5    1.20    0.19 
  -1 -19  -5    0.98    0.17 
   1 -19  -5    1.47    0.20 
  19  -1  -5    1.72    0.27 
   1  19  -5    1.49    0.21 
  -1  19  -5    1.40    0.21 
   1 -19  -6    0.29    0.12 
  19  -1  -6    0.86    0.22 
   1  19  -6    0.90    0.18 
  -1  19  -6    0.57    0.15 
  -1  19  -7    2.07    0.21 
  19  -1  -7    2.23    0.25 
  19   1  -7    2.02    0.24 
   1  19  -7    1.77    0.20 
  19  -1  -8    0.65    0.15 
  19   1  -8    0.68    0.16 
   1  19  -8    1.06    0.16 
  -1  19  -8    1.06    0.16 
  19   1  -9    0.23    0.10 
   1  19  -9    0.33    0.11 
  -1  19  -9    0.30    0.10 
  -1  19 -10    0.22    0.08 
  -2 -19   0   -0.09    0.15 
   2 -19   0   -0.05    0.15 
  19  -2   0    0.05    0.18 
  -2 -19   1    3.37    0.30 
  -2 -19  -1    3.32    0.30 
   2 -19   1    3.05    0.30 
   2 -19  -1    3.49    0.32 
  19  -2   1    3.20    0.33 
  19  -2  -1    3.37    0.34 
  -2 -19   2    4.01    0.33 
  -2 -19  -2    3.80    0.31 
   2 -19   2    3.99    0.33 
   2 -19  -2    3.90    0.32 
  19  -2  -2    4.40    0.39 
  -2 -19   3   10.43    0.49 
  -2 -19  -3   10.99    0.49 
   2 -19   3   10.42    0.50 
   2 -19  -3   10.45    0.50 
   2  19  -3   10.58    0.48 
  -2  19  -3   10.76    0.49 
  19  -2  -3   11.47    0.57 
  -2 -19   4   11.21    0.50 
  -2 -19  -4   10.78    0.47 
   2 -19   4   11.17    0.50 
   2 -19  -4   11.47    0.51 
   2  19  -4   12.04    0.51 
  -2  19  -4   11.16    0.49 
  19  -2  -4   11.58    0.56 
   2 -19   5    6.74    0.37 
   2 -19  -5    6.81    0.37 
   2  19  -5    7.47    0.39 
  -2  19  -5    7.17    0.38 
  19  -2  -5    7.10    0.44 
   2 -19  -6    0.46    0.14 
  19  -2  -6    0.52    0.20 
   2  19  -6    0.41    0.15 
  -2  19  -6    0.48    0.16 
  19  -2  -7    0.22    0.16 
  19   2  -7    0.12    0.15 
   2  19  -7    0.10    0.12 
  -2  19  -7    0.15    0.12 
  19  -2  -8    0.19    0.13 
  19   2  -8    0.03    0.12 
   2  19  -8    0.18    0.12 
  -2  19  -8    0.13    0.11 
  19  -2  -9    0.15    0.08 
  19   2  -9    0.12    0.09 
   2  19  -9    0.55    0.12 
  -2  19  -9    0.56    0.12 
  -2  19 -10    1.04    0.11 
  -3 -19   0    4.17    0.32 
   3 -19   0    4.17    0.33 
  19  -3   0    3.77    0.36 
  -3 -19   1    2.71    0.28 
  -3 -19  -1    2.61    0.27 
   3 -19  -1    2.98    0.30 
  19  -3  -1    2.86    0.32 
   3 -19   1    2.43    0.27 
  19  -3   1    2.28    0.28 
  -3 -19   2    1.06    0.20 
  -3 -19  -2    0.94    0.19 
   3 -19   2    0.73    0.19 
   3 -19  -2    1.13    0.23 
  19  -3  -2    1.14    0.27 
   3  19  -2    1.02    0.20 
  -3 -19   3    0.30    0.17 
  -3 -19  -3    0.00    0.14 
   3 -19   3    0.14    0.16 
   3 -19  -3    0.36    0.18 
  19  -3  -3    0.68    0.24 
   3  19  -3    0.44    0.19 
  -3  19  -3    0.45    0.18 
   3 -19   4    1.96    0.24 
   3 -19  -4    1.98    0.25 
   3  19  -4    1.90    0.24 
  -3  19  -4    1.96    0.24 
  -3 -19  -4    1.43    0.21 
  19  -3  -4    2.01    0.29 
   3  19  -5    1.90    0.22 
  -3  19  -5    2.14    0.23 
  -3 -19  -5    1.54    0.19 
   3 -19   5    1.60    0.21 
   3 -19  -5    1.72    0.21 
  19  -3  -5    1.72    0.27 
   3 -19  -6    2.06    0.21 
   3  19  -6    2.57    0.23 
  -3  19  -6    2.55    0.24 
  19  -3  -6    2.23    0.27 
   3  19  -7    2.91    0.23 
  -3  19  -7    2.85    0.23 
  19  -3  -7    2.53    0.25 
   3  19  -8    2.64    0.21 
  -3  19  -8    2.63    0.21 
  19  -3  -8    2.37    0.21 
  19   3  -8    2.40    0.22 
   3  19  -9    2.01    0.17 
  -3  19  -9    2.00    0.17 
  19  -3  -9    1.40    0.13 
  19   3  -9    1.31    0.14 
  -4 -19   0    0.13    0.16 
   4 -19   0    0.41    0.18 
  19  -4   0    0.41    0.21 
  -4 -19   1    1.58    0.23 
  -4 -19  -1    1.45    0.22 
   4 -19   1    1.28    0.23 
   4 -19  -1    1.82    0.25 
  19  -4   1    1.52    0.24 
  19  -4  -1    1.23    0.25 
  -4 -19   2    2.25    0.26 
   4  19  -2    2.51    0.25 
  -4 -19  -2    1.94    0.23 
   4 -19   2    1.86    0.24 
   4 -19  -2    1.88    0.24 
  19  -4  -2    2.07    0.28 
  -4 -19  -3    3.02    0.26 
   4 -19   3    3.36    0.30 
   4 -19  -3    3.23    0.30 
   4  19  -3    3.21    0.27 
  -4  19  -3    3.28    0.28 
  19  -4  -3    3.41    0.34 
  -4 -19  -4    4.90    0.31 
   4 -19   4    5.22    0.34 
   4 -19  -4    6.08    0.37 
   4  19  -4    5.76    0.35 
  -4  19  -4    6.00    0.36 
  19  -4  -4    5.91    0.41 
   4 -19   5    1.83    0.21 
   4 -19  -5    2.65    0.24 
   4  19  -5    2.39    0.24 
  -4  19  -5    2.88    0.26 
  19  -4  -5    2.14    0.28 
   4 -19  -6    0.54    0.14 
  19  -4  -6    0.79    0.20 
   4  19  -6    0.62    0.16 
  -4  19  -6    0.57    0.15 
  19  -4  -7    0.24    0.15 
   4  19  -7    0.30    0.13 
  -4  19  -7   -0.01    0.11 
  19  -4  -8    0.00    0.12 
  19   4  -8    0.37    0.14 
   4  19  -8    0.41    0.11 
  -4  19  -8    0.25    0.11 
  -4  19  -9    0.58    0.11 
  -5 -19   0   10.94    0.49 
   5 -19   0   11.47    0.52 
  19  -5   0   10.53    0.52 
  -5 -19   1    7.01    0.39 
  -5 -19  -1    6.89    0.39 
   5 -19   1    7.14    0.42 
   5 -19  -1    6.67    0.40 
  19  -5   1    6.55    0.40 
  19  -5  -1    6.57    0.43 
   5  19  -1    6.36    0.37 
  -5 -19  -2    2.83    0.26 
   5 -19   2    2.83    0.29 
   5 -19  -2    3.08    0.29 
   5  19  -2    3.19    0.27 
  19  -5  -2    2.82    0.32 
  -5 -19  -3    0.67    0.17 
   5 -19   3    0.75    0.17 
   5 -19  -3    0.91    0.19 
  19  -5  -3    1.10    0.26 
   5  19  -3    1.10    0.18 
  -5  19  -3    0.88    0.18 
   5 -19   4   -0.02    0.13 
   5 -19  -4    0.09    0.14 
  19  -5  -4    0.02    0.18 
   5  19  -4    0.20    0.14 
  -5  19  -4    0.20    0.14 
   5 -19  -5    1.51    0.20 
  19  -5  -5    1.67    0.26 
   5  19  -5    1.25    0.18 
  -5  19  -5    1.52    0.20 
   5 -19  -6    2.85    0.23 
   5  19  -6    3.15    0.24 
  -5  19  -6    3.58    0.26 
  19  -5  -6    3.12    0.28 
   5  19  -7    3.92    0.24 
  19  -5  -7    3.84    0.28 
  -5  19  -8    2.99    0.21 
  19  -5  -8    2.71    0.21 
  19   5  -8    3.00    0.23 
  -5  19  -9    1.11    0.12 
   6 -19   0    0.09    0.16 
  19  -6   0    0.18    0.17 
   6 -19   1    0.65    0.20 
   6 -19  -1    0.74    0.19 
  19  -6   1    0.53    0.19 
  19  -6  -1    0.65    0.21 
   6 -19   2    1.00    0.21 
   6 -19  -2    1.01    0.20 
  19  -6  -2    1.13    0.23 
   6 -19   3    0.12    0.13 
   6 -19  -3   -0.08    0.14 
  19  -6  -3    0.03    0.18 
  -6  19  -3    0.27    0.14 
   6 -19   4    0.13    0.12 
   6 -19  -4   -0.24    0.16 
  19  -6  -4   -0.13    0.18 
  -6  19  -4   -0.01    0.12 
   6 -19  -5    1.21    0.18 
  19  -6  -5    1.08    0.21 
  -6  19  -5    1.24    0.18 
   6 -19  -6    0.82    0.16 
  19  -6  -6    0.30    0.16 
  -6  19  -6    0.66    0.15 
  19  -6  -7    0.69    0.16 
  -6  19  -7    0.18    0.11 
  19  -6  -8    1.00    0.15 
  -6  19  -8    1.21    0.14 
   7 -19   0    3.70    0.31 
  19  -7   0    3.55    0.31 
   7 -19   1    5.53    0.37 
   7 -19  -1    6.07    0.37 
  19  -7   1    5.42    0.35 
  19  -7  -1    5.72    0.39 
   7 -19   2    5.38    0.36 
   7 -19  -2    5.33    0.35 
  19  -7  -2    4.92    0.36 
  -7  19  -2    5.15    0.32 
   7 -19   3    1.37    0.20 
   7 -19  -3    1.10    0.20 
  19  -7  -3    1.32    0.23 
  -7  19  -3    1.57    0.20 
   7 -19   4    0.25    0.13 
   7 -19  -4    0.08    0.13 
  19  -7  -4    0.20    0.16 
  -7  19  -4    0.06    0.11 
   7 -19  -5    0.79    0.16 
  19  -7  -5    0.93    0.19 
  -7  19  -5    1.16    0.17 
  -7  19  -6    4.38    0.26 
  19  -7  -6    4.71    0.30 
  -7  19  -7    3.59    0.23 
  19  -7  -7    3.46    0.24 
  -7  19  -8    1.30    0.13 
  19  -7  -8    1.26    0.13 
   8 -19   0    0.34    0.17 
  19  -8   0    0.49    0.18 
   8 -19   1    2.37    0.25 
   8 -19  -1    2.85    0.27 
  19  -8   1    2.29    0.24 
  19  -8  -1    2.67    0.27 
   8 -19   2    5.78    0.35 
   8 -19  -2    5.32    0.34 
  19  -8  -2    5.38    0.36 
  -8  19  -2    5.69    0.32 
   8 -19   3    0.79    0.15 
   8 -19  -3    0.98    0.18 
  19  -8  -3    1.09    0.20 
  -8  19  -3    0.84    0.15 
   8 -19   4    0.13    0.11 
   8 -19  -4   -0.16    0.12 
  19  -8  -4    0.15    0.16 
  -8  19  -4   -0.01    0.11 
   8 -19  -5    0.51    0.13 
  19  -8  -5    0.93    0.18 
  -8  19  -5    0.54    0.12 
   8 -19  -6    0.12    0.10 
  -8  19  -6    0.40    0.12 
  19  -8  -7    0.76    0.13 
  -8  19  -7    0.41    0.10 
   9 -19   0   11.56    0.47 
  19  -9   0   10.87    0.46 
   9 -19   1    4.59    0.31 
   9 -19  -1    5.05    0.33 
  19  -9   1    4.15    0.29 
  19  -9  -1    5.09    0.33 
  -9  19  -1    4.58    0.28 
   9 -19   2    0.65    0.16 
   9 -19  -2    0.60    0.16 
  19  -9  -2    0.84    0.18 
  -9  19  -2    0.46    0.13 
   9 -19   3    0.08    0.11 
   9 -19  -3   -0.03    0.13 
  19  -9  -3   -0.01    0.14 
  -9  19  -3   -0.14    0.11 
  -9  19  -4    1.38    0.16 
   9 -19  -4    1.46    0.18 
  19  -9  -4    1.69    0.22 
   9 -19  -5    2.65    0.21 
  -9  19  -5    2.84    0.20 
  19  -9  -5    3.18    0.25 
   9 -19  -6    3.45    0.21 
  19  -9  -6    3.76    0.24 
  19  -9  -7    3.55    0.20 
  10 -19   0    0.13    0.12 
  19 -10   0    0.28    0.13 
 -10  19   0    0.21    0.10 
  10 -19   1    0.71    0.16 
  10 -19  -1    0.59    0.15 
  19 -10   1    0.87    0.16 
  19 -10  -1    1.00    0.18 
 -10  19  -1    0.86    0.13 
  10 -19   2    0.84    0.15 
  10 -19  -2    0.92    0.16 
  19 -10  -2    0.74    0.16 
 -10  19  -2    0.40    0.10 
  10 -19   3    1.76    0.17 
  10 -19  -3    2.26    0.21 
  19 -10  -3    2.14    0.22 
  10 -19  -4    3.32    0.23 
  19 -10  -4    3.66    0.26 
  10 -19  -5    1.38    0.16 
  19 -10  -5    1.38    0.17 
  10 -19  -6    0.42    0.09 
  19 -10  -6    0.59    0.12 
  11 -19   0    0.37    0.12 
  19 -11   0    0.23    0.11 
  11 -19   1    0.30    0.11 
  11 -19  -1    0.33    0.11 
  19 -11   1    0.03    0.10 
  19 -11  -1    0.47    0.13 
  11 -19   2    0.25    0.11 
  11 -19  -2    0.16    0.11 
  19 -11  -2    0.41    0.14 
  11 -19  -3    0.20    0.12 
  19 -11  -3    0.19    0.11 
  11 -19  -4    1.32    0.15 
  19 -11  -4    1.38    0.17 
  11 -19  -5    1.82    0.16 
  19 -11  -5    2.17    0.18 
  19 -11  -6    0.83    0.10 
  12 -19   0   -0.03    0.10 
  19 -12   0    0.04    0.09 
  12 -19   1    0.49    0.11 
  12 -19  -1    0.76    0.14 
  19 -12  -1    0.50    0.11 
  12 -19   2    1.68    0.15 
  19 -12  -2    1.93    0.18 
  12 -19  -3    3.50    0.22 
  19 -12  -3    3.57    0.22 
  12 -19  -4    2.66    0.18 
  19 -12  -4    2.56    0.18 
  19 -12  -5    1.66    0.14 
  13 -19   0    0.04    0.07 
  13 -19  -1    0.12    0.08 
  19 -13  -1    0.13    0.08 
  13 -19  -2    0.15    0.09 
  19 -13  -2    0.28    0.09 
  13 -19  -3    0.10    0.07 
  19 -13  -3    0.28    0.09 
   0 -20   0    0.02    0.14 
  20   0   0   -0.12    0.18 
   0 -20   1    4.41    0.32 
   0 -20  -1    4.31    0.32 
  20   0   1    4.10    0.33 
  20   0  -1    4.01    0.35 
   0 -20   2    5.90    0.37 
   0 -20  -2    5.73    0.36 
   0  20  -2    5.60    0.35 
  20   0  -2    5.99    0.42 
   0 -20   3    0.82    0.18 
   0 -20  -3    1.17    0.19 
  20   0  -3    1.19    0.25 
   0  20  -3    1.16    0.19 
   0 -20   4    0.08    0.12 
   0 -20  -4   -0.12    0.12 
  20   0  -4   -0.07    0.18 
   0  20  -4    0.06    0.13 
   0 -20  -5    0.05    0.10 
  20   0  -5    0.17    0.17 
   0  20  -5    0.07    0.12 
  20   0  -6    0.42    0.17 
   0  20  -6    0.07    0.12 
   0  20  -7    1.83    0.18 
  20   0  -7    1.97    0.21 
  20   0  -8    0.63    0.13 
   0  20  -8    0.80    0.13 
  -1 -20   0   -0.23    0.15 
   1 -20   0    0.14    0.14 
  20  -1   0    0.19    0.17 
  20   1   0    0.32    0.20 
  -1 -20   1    0.48    0.17 
  -1 -20  -1    0.50    0.15 
   1 -20   1    0.48    0.17 
   1 -20  -1    0.66    0.18 
  20  -1   1    0.51    0.17 
  20  -1  -1    0.36    0.20 
  20   1   1    0.49    0.19 
  -1 -20   2    1.08    0.19 
  -1 -20  -2    0.86    0.19 
   1 -20   2    1.07    0.21 
   1 -20  -2    1.46    0.22 
  20  -1  -2    1.43    0.26 
   1  20  -2    1.20    0.20 
  -1 -20   3    0.09    0.13 
   1 -20   3    0.27    0.15 
  -1 -20  -3    0.08    0.13 
   1 -20  -3    0.05    0.15 
  20  -1  -3    0.13    0.19 
   1  20  -3    0.30    0.15 
  -1  20  -3    0.13    0.13 
  -1 -20   4    0.94    0.18 
   1 -20   4    1.14    0.19 
  -1 -20  -4    0.72    0.15 
   1 -20  -4    0.89    0.17 
  20  -1  -4    0.92    0.22 
   1  20  -4    0.84    0.17 
  -1  20  -4    0.88    0.17 
   1 -20   5    0.73    0.15 
  -1 -20  -5    0.51    0.13 
   1 -20  -5    0.43    0.12 
  20  -1  -5    0.57    0.20 
  20   1  -5    0.59    0.19 
   1  20  -5    0.81    0.16 
  -1  20  -5    0.51    0.14 
  20  -1  -6    0.22    0.16 
  20   1  -6    0.23    0.15 
   1  20  -6    0.06    0.11 
  -1  20  -6    0.11    0.11 
  20  -1  -7    0.08    0.13 
  20   1  -7    0.13    0.13 
   1  20  -7   -0.17    0.11 
  -1  20  -7    0.18    0.11 
  20  -1  -8   -0.01    0.10 
  20   1  -8    0.00    0.10 
   1  20  -8    0.22    0.10 
  -1  20  -8    0.00    0.08 
  -1  20  -9    0.05    0.07 
  -2 -20   0    3.96    0.30 
   2 -20   0    3.98    0.32 
  20  -2   0    3.77    0.33 
  -2 -20   1    1.20    0.19 
  -2 -20  -1    0.91    0.18 
   2 -20   1    1.25    0.21 
   2 -20  -1    0.88    0.18 
  20  -2   1    1.15    0.22 
  20  -2  -1    1.15    0.25 
  20   2   1    0.99    0.21 
  -2 -20   2    0.43    0.15 
  -2 -20  -2    0.45    0.15 
   2 -20   2    0.57    0.17 
   2 -20  -2    0.52    0.17 
  20  -2  -2    0.44    0.20 
   2  20  -2    0.21    0.13 
  -2 -20   3    0.34    0.15 
  -2 -20  -3    0.22    0.12 
   2 -20   3    0.18    0.15 
   2 -20  -3    0.37    0.14 
  20  -2  -3    0.39    0.20 
   2  20  -3    0.09    0.12 
  -2  20  -3    0.36    0.14 
  -2 -20  -4   -0.06    0.11 
   2 -20   4    0.12    0.13 
   2 -20  -4   -0.02    0.12 
  20  -2  -4    0.38    0.19 
   2  20  -4    0.05    0.12 
  -2  20  -4    0.05    0.12 
   2 -20   5    0.29    0.13 
  -2 -20  -5    0.03    0.09 
   2 -20  -5    0.27    0.11 
  20  -2  -5    0.48    0.18 
   2  20  -5    0.12    0.12 
  -2  20  -5   -0.11    0.13 
   2 -20  -6    0.19    0.09 
  20  -2  -6    0.16    0.14 
  20   2  -6    0.34    0.16 
   2  20  -6    0.15    0.11 
  -2  20  -6    0.06    0.11 
  20  -2  -7    0.01    0.12 
  20   2  -7    0.26    0.14 
   2  20  -7    0.11    0.09 
  -2  20  -7   -0.10    0.10 
  20  -2  -8    0.06    0.09 
  20   2  -8    0.14    0.10 
   2  20  -8    0.10    0.08 
  -2  20  -8    0.24    0.09 
  -3 -20   0    0.10    0.14 
   3 -20   0    0.05    0.14 
  20  -3   0    0.08    0.16 
  -3 -20   1    0.01    0.13 
  -3 -20  -1   -0.16    0.14 
   3 -20   1   -0.01    0.15 
   3 -20  -1    0.27    0.14 
  20  -3   1    0.00    0.16 
  20  -3  -1   -0.31    0.19 
   3  20  -1   -0.23    0.14 
  -3 -20   2    0.19    0.15 
  -3 -20  -2   -0.22    0.14 
   3 -20   2   -0.13    0.15 
   3 -20  -2    0.03    0.13 
  20  -3  -2    0.03    0.17 
   3  20  -2   -0.06    0.18 
  -3 -20  -3    0.19    0.13 
   3 -20   3    0.34    0.14 
   3 -20  -3    0.40    0.16 
  20  -3  -3    0.22    0.18 
   3  20  -3    0.13    0.12 
  -3  20  -3    0.34    0.13 
  -3 -20  -4    0.19    0.11 
   3 -20   4    0.30    0.14 
   3 -20  -4    0.36    0.14 
  20  -3  -4    0.36    0.18 
   3  20  -4    0.28    0.14 
  -3  20  -4    0.55    0.15 
   3 -20   5    0.08    0.11 
   3 -20  -5    0.28    0.12 
  20  -3  -5    0.13    0.16 
   3  20  -5    0.06    0.12 
  -3  20  -5    0.00    0.12 
   3 -20  -6    0.35    0.11 
  20  -3  -6    0.34    0.15 
   3  20  -6    0.19    0.10 
  -3  20  -6    0.38    0.12 
  20  -3  -7    0.18    0.12 
  20   3  -7    0.29    0.14 
   3  20  -7    0.64    0.12 
  -3  20  -7    0.40    0.11 
  20  -3  -8    0.05    0.08 
  20   3  -8    0.06    0.10 
   3  20  -8   -0.12    0.08 
  -3  20  -8    0.04    0.08 
  -4 -20   0    2.21    0.23 
   4 -20   0    2.50    0.25 
  20  -4   0    2.35    0.26 
  -4 -20   1    1.10    0.18 
  -4 -20  -1    1.06    0.18 
   4 -20   1    1.03    0.19 
   4 -20  -1    1.06    0.19 
  20  -4   1    0.73    0.19 
  20  -4  -1    1.46    0.25 
   4  20  -1    0.93    0.17 
  -4 -20  -2   -0.10    0.13 
   4 -20   2   -0.08    0.14 
   4 -20  -2    0.12    0.14 
  20  -4  -2   -0.12    0.17 
   4  20  -2    0.08    0.11 
  -4  20  -2   -0.01    0.13 
  -4 -20  -3    0.13    0.12 
   4 -20   3    0.11    0.14 
   4 -20  -3    0.07    0.13 
  20  -4  -3    0.05    0.17 
   4  20  -3    0.12    0.12 
  -4  20  -3    0.14    0.12 
   4 -20   4    0.36    0.14 
   4 -20  -4   -0.04    0.12 
  20  -4  -4    0.08    0.16 
   4  20  -4    0.35    0.14 
  -4  20  -4    0.50    0.14 
   4 -20  -5   -0.11    0.12 
  20  -4  -5   -0.01    0.15 
   4  20  -5   -0.11    0.11 
  -4  20  -5    0.00    0.11 
   4 -20  -6    0.14    0.09 
  20  -4  -6    0.18    0.13 
   4  20  -6    0.05    0.10 
  -4  20  -6   -0.05    0.10 
  20  -4  -7    0.26    0.11 
  20   4  -7    0.42    0.14 
   4  20  -7    0.31    0.09 
  -4  20  -7    0.46    0.12 
  20  -4  -8    0.19    0.08 
  20   4  -8    0.24    0.10 
  -4  20  -8    0.24    0.09 
   5 -20   0   -0.17    0.14 
  20  -5   0   -0.24    0.15 
   5  20   0   -0.11    0.12 
   5 -20   1    0.42    0.16 
   5 -20  -1    0.33    0.15 
  20  -5   1    0.07    0.14 
  20  -5  -1    0.32    0.17 
   5  20  -1    0.36    0.13 
   5 -20   2    0.75    0.17 
   5 -20  -2    0.72    0.17 
  20  -5  -2    0.90    0.21 
   5  20  -2    0.46    0.14 
  -5  20  -2    0.43    0.14 
   5 -20   3    0.50    0.15 
   5 -20  -3    0.72    0.17 
  20  -5  -3    0.75    0.19 
   5  20  -3    0.87    0.15 
  -5  20  -3    0.63    0.14 
   5 -20   4    0.59    0.13 
   5 -20  -4    0.31    0.12 
  20  -5  -4    0.73    0.19 
   5  20  -4    0.59    0.13 
  -5  20  -4    0.59    0.14 
   5 -20  -5   -0.23    0.12 
  20  -5  -5    0.16    0.14 
  -5  20  -5   -0.03    0.11 
   5 -20  -6   -0.05    0.09 
  20  -5  -6    0.04    0.12 
  -5  20  -6    0.00    0.09 
  20  -5  -7    0.20    0.10 
  20   5  -7    0.10    0.11 
  -5  20  -7   -0.01    0.08 
  -5  20  -8    0.09    0.07 
   6 -20   0    0.22    0.15 
  20  -6   0    0.28    0.14 
   6 -20   1    0.90    0.18 
   6 -20  -1    0.89    0.18 
  20  -6   1    0.79    0.17 
  20  -6  -1    0.61    0.17 
   6 -20   2    0.95    0.19 
   6 -20  -2    1.30    0.20 
  20  -6  -2    0.95    0.20 
  -6  20  -2    1.14    0.17 
   6 -20   3    0.14    0.12 
   6 -20  -3   -0.14    0.14 
  20  -6  -3   -0.07    0.17 
  -6  20  -3    0.10    0.11 
   6 -20   4    0.11    0.11 
   6 -20  -4    0.00    0.13 
  -6  20  -4    0.26    0.12 
   6 -20  -5    0.18    0.11 
  20  -6  -5    0.24    0.14 
  -6  20  -5    0.15    0.10 
   6 -20  -6   -0.03    0.09 
  20  -6  -6    0.18    0.12 
  -6  20  -6   -0.10    0.10 
  20  -6  -7    0.06    0.09 
  -6  20  -7   -0.15    0.08 
   7 -20   0   -0.09    0.14 
  20  -7   0   -0.03    0.13 
   7 -20   1    1.44    0.18 
   7 -20  -1    1.55    0.20 
  20  -7   1    1.61    0.19 
  20  -7  -1    1.32    0.21 
  -7  20  -1    1.28    0.17 
   7 -20   2    4.63    0.30 
   7 -20  -2    4.36    0.29 
  20  -7  -2    4.89    0.32 
  -7  20  -2    4.49    0.27 
   7 -20   3    2.00    0.20 
   7 -20  -3    2.18    0.21 
  -7  20  -3    2.22    0.20 
  20  -7  -3    2.43    0.24 
   7 -20   4    0.53    0.12 
   7 -20  -4    0.57    0.13 
  20  -7  -4    0.92    0.18 
  -7  20  -4    0.70    0.13 
   7 -20  -5    0.44    0.11 
  20  -7  -5    0.63    0.15 
  -7  20  -5    0.40    0.10 
   7 -20  -6    0.00    0.07 
  -7  20  -6    0.03    0.08 
  20  -7  -7    0.41    0.10 
   8 -20   0    6.20    0.34 
  20  -8   0    5.74    0.32 
   8 -20   1    2.42    0.23 
   8 -20  -1    2.42    0.23 
  20  -8   1    1.98    0.19 
  20  -8  -1    2.38    0.23 
  -8  20  -1    2.38    0.20 
   8 -20   2    0.29    0.11 
   8 -20  -2    0.38    0.13 
  20  -8  -2    0.33    0.15 
  -8  20  -2    0.21    0.09 
   8 -20   3    0.14    0.10 
   8 -20  -3   -0.07    0.11 
  20  -8  -3    0.34    0.14 
  -8  20  -3    0.20    0.10 
   8 -20  -4    0.10    0.10 
  -8  20  -4    0.32    0.10 
   8 -20  -5    0.11    0.09 
  20  -8  -5    0.34    0.13 
  -8  20  -5    0.22    0.09 
  20  -8  -6    0.02    0.09 
   9 -20   0   -0.09    0.11 
  20  -9   0   -0.30    0.13 
  -9  20   0    0.07    0.09 
   9 -20   1   -0.04    0.11 
   9 -20  -1   -0.07    0.12 
  20  -9  -1   -0.27    0.14 
  -9  20  -1    0.04    0.08 
   9 -20   2   -0.04    0.11 
   9 -20  -2   -0.12    0.12 
  20  -9  -2    0.07    0.12 
  -9  20  -2   -0.03    0.09 
   9 -20   3    0.87    0.12 
   9 -20  -3    1.04    0.15 
  20  -9  -3    1.27    0.17 
  -9  20  -3    1.11    0.13 
   9 -20  -4    0.83    0.13 
  20  -9  -4    0.83    0.15 
  -9  20  -4    0.44    0.09 
   9 -20  -5    0.10    0.08 
  20  -9  -5    0.09    0.09 
  20  -9  -6   -0.10    0.07 
  10 -20   0    0.11    0.10 
  20 -10   0    0.02    0.09 
  10 -20   1    0.14    0.09 
  10 -20  -1    0.21    0.11 
  20 -10  -1    0.17    0.11 
  10 -20   2    0.19    0.09 
  10 -20  -2    0.04    0.10 
  20 -10  -2    0.08    0.10 
  10 -20  -3    0.21    0.10 
  20 -10  -3   -0.16    0.11 
  10 -20  -4   -0.11    0.09 
  20 -10  -4   -0.15    0.09 
  20 -10  -5   -0.14    0.08 
  11 -20   0    0.02    0.08 
  11 -20   1    0.14    0.09 
  11 -20  -1    0.08    0.08 
  20 -11  -1   -0.01    0.08 
  11 -20  -2    0.33    0.10 
  20 -11  -2    0.36    0.10 
  11 -20  -3    0.40    0.09 
  20 -11  -3    0.38    0.10 
  20 -11  -4    0.13    0.08 
  12 -20  -1    0.14    0.07 
  12 -20  -2   -0.05    0.08 
   0 -21   0   -0.01    0.13 
  21   0   0    0.01    0.15 
   0 -21   1    6.85    0.36 
   0 -21  -1    6.80    0.36 
  21   0   1    6.04    0.35 
  21   0  -1    7.21    0.41 
   0 -21   2    5.03    0.31 
   0 -21  -2    5.44    0.32 
   0  21  -2    5.66    0.33 
  21   0  -2    5.58    0.37 
   0 -21   3    7.41    0.37 
   0 -21  -3    7.48    0.36 
   0  21  -3    8.64    0.39 
  21   0  -3    8.13    0.43 
   0  21  -4    8.37    0.37 
  21   0  -4    8.08    0.41 
   0  21  -5    3.55    0.24 
  21   0  -5    3.37    0.27 
  21   0  -6    0.61    0.15 
   0  21  -6    0.57    0.12 
  21   0  -7    0.06    0.10 
   0  21  -7    0.04    0.08 
  -1 -21   0    2.19    0.22 
   1 -21   0    2.19    0.23 
  21  -1   0    2.25    0.25 
  21   1   0    2.03    0.25 
  -1 -21   1    0.21    0.14 
  -1 -21  -1    0.11    0.13 
   1 -21   1    0.26    0.14 
   1 -21  -1    0.15    0.13 
  21  -1   1    0.06    0.14 
  21  -1  -1    0.12    0.16 
  21   1   1    0.25    0.15 
  21   1  -1    0.01    0.16 
   1  21  -1    0.13    0.12 
  -1 -21   2    0.72    0.17 
  -1 -21  -2    0.75    0.17 
   1 -21   2    0.60    0.17 
   1 -21  -2    0.38    0.16 
  21  -1  -2    0.68    0.20 
  21   1  -2    0.33    0.19 
   1  21  -2    0.86    0.18 
  -1  21  -2    0.87    0.20 
   1  21  -3    1.58    0.21 
  -1  21  -3    1.67    0.21 
  -1 -21   3    0.78    0.17 
   1 -21   3    0.80    0.17 
  -1 -21  -3    0.97    0.17 
   1 -21  -3    0.80    0.17 
  21  -1  -3    0.98    0.22 
  21   1  -3    1.35    0.25 
   1 -21   4    0.64    0.15 
  -1 -21  -4    0.49    0.14 
   1 -21  -4    0.40    0.13 
  21  -1  -4    0.71    0.20 
  21   1  -4    0.85    0.21 
   1  21  -4    1.01    0.18 
  -1  21  -4    1.20    0.19 
  -1  21  -5    1.27    0.17 
  -1 -21  -5    0.84    0.12 
   1 -21  -5    0.81    0.13 
  21  -1  -5    0.68    0.16 
  21   1  -5    0.98    0.19 
   1  21  -5    0.86    0.16 
   1  21  -6    1.64    0.17 
  -1  21  -6    1.47    0.16 
  21  -1  -6    1.32    0.17 
  21   1  -6    1.57    0.18 
  21  -1  -7   -0.12    0.11 
  21   1  -7    0.24    0.11 
   1  21  -7    0.15    0.08 
  -1  21  -7    0.05    0.08 
  -2 -21   0    0.10    0.12 
   2 -21   0   -0.11    0.12 
  21  -2   0    0.19    0.16 
  21   2   0    0.13    0.15 
  -2 -21   1    0.43    0.14 
  -2 -21  -1    0.26    0.13 
   2 -21   1    0.59    0.16 
   2 -21  -1    0.44    0.14 
  21  -2   1    0.24    0.13 
  21  -2  -1    0.37    0.16 
  21   2  -1    0.50    0.18 
   2  21  -1    0.54    0.15 
  -2 -21   2    6.82    0.35 
  -2 -21  -2    6.12    0.33 
   2 -21   2    7.03    0.36 
   2 -21  -2    6.69    0.35 
   2  21  -2    7.16    0.36 
  -2  21  -2    7.60    0.37 
  21  -2  -2    7.15    0.40 
  21   2  -2    7.27    0.41 
  -2 -21  -3    9.00    0.38 
   2 -21   3    9.92    0.42 
   2 -21  -3    9.60    0.40 
   2  21  -3   10.71    0.43 
  -2  21  -3   11.44    0.43 
  21  -2  -3   10.93    0.48 
  21   2  -3   10.46    0.48 
  -2 -21  -4    6.55    0.30 
   2 -21   4    7.25    0.33 
   2 -21  -4    6.39    0.31 
   2  21  -4    7.61    0.35 
  -2  21  -4    7.80    0.35 
  21  -2  -4    7.51    0.39 
  21   2  -4    7.33    0.39 
   2 -21  -5    2.20    0.18 
   2  21  -5    3.20    0.22 
  -2  21  -5    3.28    0.23 
  21  -2  -5    2.58    0.24 
  21   2  -5    2.81    0.26 
  21  -2  -6    0.45    0.13 
  21   2  -6    0.58    0.15 
   2  21  -6    0.96    0.14 
  -2  21  -6    0.68    0.12 
  21  -2  -7   -0.11    0.10 
  21   2  -7    0.14    0.10 
  -2  21  -7    0.20    0.08 
  -3 -21   0    1.20    0.18 
   3 -21   0    0.87    0.17 
  21  -3   0    0.81    0.18 
  21   3   0    0.89    0.19 
   3  21   0    0.89    0.15 
  -3 -21   1    2.63    0.23 
  -3 -21  -1    2.36    0.22 
   3 -21   1    2.37    0.23 
   3 -21  -1    2.76    0.24 
   3  21  -1    2.43    0.23 
  21  -3  -1    2.79    0.27 
   3 -21  -2    1.74    0.20 
  -3  21  -2    1.71    0.22 
  -3 -21  -2    1.16    0.17 
   3 -21   2    1.28    0.19 
  21  -3  -2    1.66    0.23 
   3  21  -2    1.59    0.19 
   3 -21   3    1.10    0.17 
   3 -21  -3    0.90    0.17 
  21  -3  -3    0.71    0.20 
   3  21  -3    1.06    0.18 
  -3  21  -3    1.38    0.19 
   3 -21   4    0.86    0.15 
   3 -21  -4    0.80    0.15 
  21  -3  -4    0.58    0.17 
   3  21  -4    1.17    0.17 
  -3  21  -4    1.07    0.17 
   3  21  -5    1.89    0.18 
  -3  21  -5    1.67    0.17 
   3 -21  -5    1.15    0.14 
  21  -3  -5    1.02    0.17 
  21   3  -5    1.57    0.20 
   3  21  -6    2.00    0.16 
  -3  21  -6    1.97    0.17 
  21  -3  -6    2.13    0.20 
  21   3  -6    2.33    0.21 
  -3  21  -7    2.16    0.16 
  21  -3  -7    2.03    0.16 
  21   3  -7    2.03    0.17 
   4 -21   0    0.33    0.15 
  21  -4   0    0.03    0.14 
   4  21   0    0.38    0.14 
   4 -21   1    1.78    0.21 
   4 -21  -1    1.97    0.22 
  -4  21  -1    2.16    0.21 
  21  -4  -1    1.86    0.22 
   4  21  -1    1.58    0.19 
   4  21   1    1.41    0.18 
   4 -21   2    2.24    0.22 
   4 -21  -2    2.43    0.23 
   4  21  -2    2.32    0.21 
  -4  21  -2    2.45    0.22 
  21  -4  -2    2.06    0.23 
   4 -21   3    2.55    0.22 
   4 -21  -3    2.79    0.23 
   4  21  -3    2.66    0.21 
  -4  21  -3    3.10    0.23 
  21  -4  -3    2.65    0.25 
   4 -21   4    3.13    0.22 
   4 -21  -4    3.16    0.23 
   4  21  -4    3.01    0.21 
  -4  21  -4    3.55    0.24 
  21  -4  -4    2.92    0.25 
   4 -21  -5    0.54    0.11 
  21  -4  -5    0.73    0.15 
  21   4  -5    0.67    0.16 
   4  21  -5    0.78    0.13 
  -4  21  -5    0.78    0.13 
  21  -4  -6    0.26    0.12 
  21   4  -6    0.32    0.13 
  -4  21  -6    0.57    0.12 
  -4  21  -7    0.22    0.08 
   5 -21   0   10.94    0.43 
  21  -5   0   10.84    0.43 
   5 -21   1    8.19    0.38 
   5 -21  -1    8.33    0.38 
  21  -5  -1    8.21    0.38 
  -5  21  -1    8.92    0.37 
   5 -21   2    4.21    0.28 
   5 -21  -2    4.79    0.29 
  -5  21  -2    4.76    0.29 
  21  -5  -2    4.48    0.30 
   5 -21   3    0.23    0.11 
   5 -21  -3    0.44    0.13 
  21  -5  -3    0.26    0.14 
  -5  21  -3    0.35    0.12 
   5 -21   4    0.21    0.09 
   5 -21  -4    0.15    0.10 
  21  -5  -4    0.06    0.13 
  -5  21  -4    0.16    0.10 
   5 -21  -5    1.90    0.16 
  -5  21  -5    2.49    0.18 
  21  -5  -5    2.46    0.21 
  -5  21  -6    2.21    0.16 
  21  -5  -6    2.24    0.18 
  21   5  -6    2.61    0.21 
   6 -21   0    0.77    0.17 
  21  -6   0    0.94    0.18 
   6 -21  -1    1.40    0.19 
  21  -6  -1    1.52    0.20 
  -6  21  -1    1.39    0.17 
   6 -21   1    1.43    0.19 
   6 -21   2    1.11    0.16 
   6 -21  -2    0.95    0.16 
  21  -6  -2    0.97    0.19 
  -6  21  -2    0.98    0.15 
   6 -21   3    0.25    0.11 
   6 -21  -3    0.40    0.12 
  21  -6  -3    0.63    0.15 
  -6  21  -3    0.44    0.11 
   6 -21  -4    0.15    0.09 
  -6  21  -4    0.22    0.10 
   6 -21  -5    0.18    0.08 
  -6  21  -5    0.17    0.09 
  21  -6  -6    0.30    0.09 
  21   6  -6    0.30    0.11 
   7 -21   0    7.09    0.33 
  21  -7   0    6.07    0.30 
  -7  21   0    6.68    0.30 
   7 -21   1    6.56    0.32 
   7 -21  -1    6.85    0.32 
  21  -7  -1    7.06    0.33 
  -7  21  -1    6.82    0.30 
   7 -21   2    3.62    0.23 
   7 -21  -2    3.90    0.25 
  -7  21  -2    3.58    0.22 
  21  -7  -2    4.07    0.26 
   7 -21   3    1.64    0.15 
   7 -21  -3    1.75    0.17 
  -7  21  -3    1.75    0.16 
  21  -7  -3    1.92    0.19 
   7 -21  -4    0.15    0.09 
  21  -7  -4    0.28    0.11 
  -7  21  -4    0.02    0.08 
  21  -7  -5    0.83    0.13 
  -7  21  -5    0.64    0.09 
   8 -21   0    0.58    0.13 
  21  -8   0    0.17    0.10 
  -8  21   0    0.49    0.12 
   8 -21   1    0.40    0.12 
   8 -21  -1    0.54    0.13 
  21  -8  -1    0.46    0.13 
  -8  21  -1    0.51    0.11 
  -8  21   1    0.26    0.11 
   8 -21   2    0.58    0.11 
   8 -21  -2    0.92    0.14 
  21  -8  -2    0.82    0.14 
  -8  21  -2    0.59    0.11 
  21  -8  -3    1.47    0.16 
   8 -21  -3    1.23    0.14 
  -8  21  -3    0.97    0.11 
   8 -21  -4    0.32    0.09 
  21  -8  -4    0.33    0.10 
  21  -8  -5    0.19    0.08 
   9 -21   0    9.70    0.34 
   9 -21   1    6.44    0.27 
   9 -21  -1    6.70    0.28 
   9 -21   2    1.19    0.12 
   9 -21  -2    1.53    0.15 
  21  -9  -2    1.52    0.15 
   9 -21  -3    0.35    0.09 
  21  -9  -3    0.28    0.10 
  21  -9  -4    0.17    0.08 
  10 -21   0    0.35    0.10 
  10 -21  -1    0.42    0.10 
  10 -21  -2    0.75    0.10 
   0 -22   0    0.54    0.13 
  22   0   0    0.71    0.15 
   0  22   0    0.48    0.12 
   0 -22   1    0.13    0.10 
   0 -22  -1    0.07    0.10 
  22   0  -1    0.02    0.12 
   0  22  -1   -0.05    0.11 
   0 -22   2    1.13    0.15 
   0 -22  -2    1.25    0.15 
  22   0  -2    1.20    0.18 
   0  22  -2    1.45    0.17 
   0 -22  -3    0.32    0.10 
  22   0  -3    0.32    0.14 
   0  22  -3    0.61    0.13 
   0 -22  -4    0.36    0.09 
  22   0  -4    0.31    0.13 
   0  22  -4    0.50    0.12 
  22   0  -5    0.41    0.13 
   0  22  -5    0.58    0.11 
  22   0  -6    1.45    0.14 
  -1 -22   0   -0.13    0.11 
   1 -22   0   -0.10    0.11 
  22  -1   0    0.04    0.11 
  22   1   0    0.04    0.12 
   1  22   0   -0.12    0.12 
  -1  22   0   -0.22    0.12 
  -1 -22   1    0.16    0.11 
  -1 -22  -1    0.49    0.12 
   1 -22   1    0.07    0.11 
   1 -22  -1    0.19    0.10 
  22  -1  -1    0.13    0.13 
  22   1  -1    0.08    0.13 
   1  22  -1    0.12    0.11 
  -1  22  -1    0.26    0.12 
  -1 -22  -2    0.07    0.09 
   1 -22   2    0.03    0.10 
   1 -22  -2    0.18    0.10 
  22  -1  -2    0.22    0.15 
  22   1  -2    0.12    0.13 
   1  22  -2    0.32    0.12 
  -1  22  -2    0.15    0.11 
   1 -22   3    0.20    0.10 
  -1 -22  -3    0.19    0.09 
   1 -22  -3    0.09    0.09 
  22  -1  -3    0.21    0.14 
  22   1  -3    0.03    0.13 
   1  22  -3    0.16    0.10 
  -1  22  -3    0.09    0.10 
   1 -22  -4    0.04    0.07 
  22  -1  -4    0.15    0.12 
  22   1  -4    0.12    0.12 
   1  22  -4    0.08    0.09 
  -1  22  -4    0.01    0.09 
  22  -1  -5    0.26    0.11 
  22   1  -5    0.41    0.12 
   1  22  -5    0.42    0.10 
  -1  22  -5    0.20    0.09 
  -2 -22   0    0.04    0.09 
   2 -22   0   -0.09    0.11 
  22  -2   0   -0.03    0.11 
  22   2   0    0.03    0.11 
   2  22   0   -0.04    0.10 
  -2  22   0   -0.01    0.11 
  -2 -22  -1    0.25    0.10 
   2 -22   1    0.24    0.11 
   2 -22  -1    0.32    0.11 
  22  -2  -1    0.29    0.13 
  22   2  -1    0.11    0.14 
   2  22  -1    0.32    0.11 
  -2  22  -1    0.29    0.12 
   2  22   1    0.41    0.12 
   2 -22   2   -0.10    0.12 
   2 -22  -2    0.11    0.09 
  22  -2  -2    0.01    0.13 
  22   2  -2    0.10    0.14 
   2  22  -2    0.14    0.10 
  -2  22  -2    0.14    0.10 
   2 -22   3   -0.07    0.10 
   2 -22  -3   -0.15    0.09 
  22  -2  -3    0.00    0.12 
  22   2  -3    0.10    0.13 
   2  22  -3    0.23    0.11 
  -2  22  -3    0.00    0.09 
   2 -22  -4   -0.01    0.08 
  22  -2  -4    0.16    0.11 
  22   2  -4    0.00    0.12 
   2  22  -4    0.21    0.08 
  -2  22  -4    0.36    0.10 
  22  -2  -5    0.01    0.10 
  22   2  -5    0.01    0.10 
  -2  22  -5   -0.03    0.09 
   3 -22   0   -0.10    0.11 
  22  -3   0   -0.19    0.11 
  22   3   0   -0.13    0.11 
   3  22   0   -0.15    0.10 
  -3  22   0   -0.21    0.11 
   3 -22   1    0.48    0.12 
   3 -22  -1    0.51    0.12 
  22  -3  -1    0.40    0.14 
  22   3  -1    0.48    0.15 
   3  22  -1    0.55    0.11 
  -3  22  -1    0.56    0.13 
   3  22   1    0.45    0.11 
   3 -22   2   -0.11    0.11 
   3 -22  -2   -0.03    0.11 
  22  -3  -2   -0.01    0.12 
  22   3  -2    0.16    0.14 
   3  22  -2    0.08    0.09 
  -3  22  -2    0.03    0.10 
   3  22   2   -0.12    0.09 
   3 -22   3   -0.02    0.09 
   3 -22  -3   -0.10    0.09 
  22  -3  -3   -0.14    0.12 
  22   3  -3    0.10    0.13 
   3  22  -3    0.07    0.08 
  -3  22  -3    0.02    0.09 
   3 -22  -4   -0.11    0.08 
  22  -3  -4   -0.21    0.11 
  22   3  -4    0.06    0.12 
  -3  22  -4    0.05    0.08 
  22  -3  -5    0.00    0.09 
  22   3  -5    0.18    0.12 
  -3  22  -5   -0.04    0.08 
   4 -22   0    0.64    0.12 
  22  -4   0    0.92    0.14 
  22   4   0    0.83    0.14 
  -4  22   0    1.18    0.15 
   4 -22   1    0.22    0.11 
   4 -22  -1    0.13    0.09 
  22  -4  -1    0.42    0.12 
  22   4  -1    0.29    0.13 
  -4  22  -1    0.11    0.09 
   4 -22   2   -0.16    0.10 
   4 -22  -2   -0.03    0.09 
  22  -4  -2   -0.21    0.12 
  22   4  -2    0.00    0.12 
  -4  22  -2   -0.09    0.10 
   4 -22   3    0.82    0.12 
   4 -22  -3    0.69    0.11 
  22  -4  -3    0.80    0.14 
  22   4  -3    0.84    0.16 
  -4  22  -3    0.89    0.13 
   4 -22  -4   -0.02    0.07 
  22  -4  -4   -0.11    0.10 
  22   4  -4    0.01    0.11 
  -4  22  -4   -0.07    0.08 
  22  -4  -5    0.26    0.10 
  22   4  -5    0.18    0.10 
  -4  22  -5   -0.08    0.07 
   5 -22   0    0.06    0.09 
  -5  22   0    0.04    0.08 
   5 -22   1   -0.21    0.10 
   5 -22  -1    0.07    0.09 
  22  -5  -1   -0.01    0.09 
  -5  22  -1    0.08    0.09 
   5 -22   2   -0.09    0.09 
   5 -22  -2   -0.01    0.09 
  22  -5  -2    0.10    0.10 
  22   5  -2    0.12    0.12 
  -5  22  -2    0.14    0.08 
   5 -22   3    0.00    0.07 
   5 -22  -3   -0.11    0.08 
  22  -5  -3    0.14    0.11 
  22   5  -3    0.02    0.11 
  -5  22  -3    0.18    0.09 
   5 -22  -4   -0.10    0.06 
  22  -5  -4    0.05    0.09 
  22   5  -4    0.14    0.11 
  -5  22  -4   -0.17    0.08 
   6 -22   0   -0.02    0.08 
  -6  22   0    0.10    0.09 
   6 -22   1    0.30    0.10 
   6 -22  -1    0.29    0.10 
  22  -6  -1    0.28    0.10 
  22   6  -1    0.26    0.11 
  -6  22  -1    0.30    0.10 
  -6  22   1    0.33    0.09 
   6 -22   2    0.29    0.09 
   6 -22  -2    0.49    0.11 
  22  -6  -2    0.47    0.11 
  22   6  -2    0.53    0.13 
  -6  22  -2    0.43    0.10 
   6 -22  -3    0.60    0.10 
  22  -6  -3    0.80    0.13 
  22   6  -3    0.67    0.14 
  -6  22  -3    0.47    0.09 
  22  -6  -4    0.27    0.10 
  22   6  -4    0.20    0.10 
   7 -22   0   -0.02    0.08 
  -7  22   0   -0.09    0.07 
   7 -22   1    1.27    0.13 
   7 -22  -1    1.37    0.14 
  -7  22  -1    1.29    0.12 
  -7  22   1    1.22    0.12 
   7 -22  -2    1.64    0.14 
  -7  22   2    1.36    0.12 
   8 -22   0    5.32    0.22 
   8 -22  -1    3.67    0.19 
   0  23   0   -0.15    0.09 
   0  23  -1    0.08    0.08 
   0  23   1    0.11    0.08 
   0  23  -2    4.47    0.22 
   0  23   2    4.30    0.21 
   1 -23   0    0.02    0.08 
   1  23   0   -0.01    0.08 
  -1  23   0    0.04    0.08 
   1 -23   1    0.78    0.11 
   1 -23  -1    0.59    0.10 
   1  23  -1    0.63    0.11 
  -1  23  -1    0.57    0.11 
   1  23   1    0.77    0.12 
  -1  23   1    0.70    0.11 
   1 -23  -2    0.28    0.09 
   1  23  -2    0.35    0.10 
  -1  23  -2    0.29    0.10 
  -1  23   2    0.26    0.10 
  -1  23  -3    0.36    0.10 
   2 -23   0    0.09    0.08 
  -2  23   0    0.04    0.08 
   2 -23   1    1.16    0.13 
  -2  23  -1    1.48    0.14 
  -2  23   1    1.34    0.14 
   2 -23  -1    1.11    0.12 
   2 -23  -2    1.31    0.12 
  -2  23  -2    1.63    0.14 
  -2  23   2    1.58    0.14 
  -2  23  -3    2.37    0.16 
   3 -23   0    2.37    0.17 
  -3  23   0    2.73    0.18 
   3 -23   1    1.16    0.12 
  -3  23   1    1.20    0.13 
   3 -23  -1    1.07    0.12 
  -3  23  -1    1.10    0.12 
   3 -23  -2    0.30    0.08 
  -3  23  -2    0.40    0.09 
  -3  23   2    0.53    0.10 
   4 -23   0    0.35    0.09 
  -4  23   0    0.54    0.11 
   4 -23   1    0.23    0.08 
   4 -23  -1    0.27    0.08 
  -4  23  -1    0.46    0.10 
  -4  23   1    0.44    0.09 
  -4  23   2    0.63    0.09 
   0   0   0    0.00    0.00 
;
_shelx_hkl_checksum              5455
_shelx_fab_file
; 
    0    0    2     12.71      0.00 
    0    0    3     18.20      0.00 
    0    0    4     12.12      0.00 
    0    0    5    -14.59      0.00 
    0    0    6      6.84      0.00 
    0    0    7      2.12      0.00 
    0    0    8      0.52      0.00 
    0    0    9     -3.18      0.00 
    0    0   10     -2.11      0.00 
    0    0   11      1.82      0.00 
    0    0   12      0.41      0.00 
    0    0   13      0.36      0.00 
    0    0   14      0.27      0.00 
    0    0   15      0.62      0.00 
    0    0   16     -0.48      0.00 
    0    1    1    -87.34      0.00 
    0    1    2     43.00      0.00 
    0    1    3     19.89      0.00 
    0    1    4    -12.98      0.00 
    0    1    5     -2.62      0.00 
    0    1    6      8.85      0.00 
    0    1    7     -9.99      0.00 
    0    1    8     -2.46      0.00 
    0    1    9      1.93      0.00 
    0    1   10      4.86      0.00 
    0    1   11     -0.99      0.00 
    0    1   12     -0.40      0.00 
    0    1   13      0.57      0.00 
    0    1   14     -1.05      0.00 
    0    1   15     -1.12      0.00 
    0    1   16      0.53      0.00 
    0    1   17      0.78      0.00 
    1    1    1     71.32      0.00 
    1    1    2     31.78      0.00 
    1    1    3    -27.36      0.00 
    1    1    4     -1.11      0.00 
    1    1    5      7.92      0.00 
    1    1    6     -2.86      0.00 
    1    1    7     -3.89      0.00 
    1    1    8     -1.08      0.00 
    1    1    9      5.01      0.00 
    1    1   10     -0.67      0.00 
    1    1   11      0.10      0.00 
    1    1   12     -1.52      0.00 
    1    1   13     -0.03      0.00 
    1    1   14      0.32      0.00 
    1    1   15     -0.51      0.00 
    1    1   16      0.53      0.00 
    1    1   17      1.07      0.00 
    0    2    0     28.41      0.00 
    0    2    1    -52.48      0.00 
    0    2    2     63.82      0.00 
    0    2    3    -31.96      0.00 
    0    2    4      6.39      0.00 
    0    2    5      2.46      0.00 
    0    2    6      0.34      0.00 
    0    2    7     -4.52      0.00 
    0    2    8     -2.05      0.00 
    0    2    9      6.31      0.00 
    0    2   10     -2.79      0.00 
    0    2   11      2.02      0.00 
    0    2   12     -3.07      0.00 
    0    2   13      0.63      0.00 
    0    2   14      0.72      0.00 
    0    2   15     -0.36      0.00 
    0    2   16      0.66      0.00 
    0    2   17     -0.25      0.00 
    1    2    1     -6.45      0.00 
    1    2    2     13.90      0.00 
    1    2    3    -14.28      0.00 
    1    2    4      3.53      0.00 
    1    2    5      2.66      0.00 
    1    2    6     -5.57      0.00 
    1    2    7      5.69      0.00 
    1    2    8      2.65      0.00 
    1    2    9     -2.52      0.00 
    1    2   10     -2.66      0.00 
    1    2   11      0.41      0.00 
    1    2   12      1.02      0.00 
    1    2   13     -1.10      0.00 
    1    2   14      2.18      0.00 
    1    2   15     -0.72      0.00 
    1    2   16     -0.52      0.00 
    1    2   17     -0.22      0.00 
    2    2    0     97.15      0.00 
    2    2    1    -71.53      0.00 
    2    2    2     31.67      0.00 
    2    2    3    -12.94      0.00 
    2    2    4      6.77      0.00 
    2    2    5     -0.59      0.00 
    2    2    6     -7.56      0.00 
    2    2    7      6.33      0.00 
    2    2    8      0.09      0.00 
    2    2    9     -0.10      0.00 
    2    2   10     -1.36      0.00 
    2    2   11      0.14      0.00 
    2    2   12      1.55      0.00 
    2    2   13     -1.34      0.00 
    2    2   14      0.35      0.00 
    2    2   15      0.47      0.00 
    2    2   16     -0.91      0.00 
    2    2   17      0.06      0.00 
    0    3    1    -62.74      0.00 
    0    3    2     50.04      0.00 
    0    3    3    -13.48      0.00 
    0    3    4     -0.69      0.00 
    0    3    5      0.63      0.00 
    0    3    6     -0.51      0.00 
    0    3    7      1.77      0.00 
    0    3    8      1.85      0.00 
    0    3    9     -2.41      0.00 
    0    3   10     -0.95      0.00 
    0    3   11      0.03      0.00 
    0    3   12      1.24      0.00 
    0    3   13     -1.19      0.00 
    0    3   14      2.46      0.00 
    0    3   15     -1.50      0.00 
    0    3   16     -0.61      0.00 
    0    3   17     -0.20      0.00 
    1    3    0    -21.02      0.00 
    1    3    1     11.16      0.00 
    1    3    2      5.03      0.00 
    1    3    3     -6.89      0.00 
    1    3    4      1.16      0.00 
    1    3    5      3.15      0.00 
    1    3    6     -8.39      0.00 
    1    3    7      5.20      0.00 
    1    3    8      1.15      0.00 
    1    3    9     -0.91      0.00 
    1    3   10      0.11      0.00 
    1    3   11     -1.34      0.00 
    1    3   12      2.70      0.00 
    1    3   13     -1.62      0.00 
    1    3   14     -0.13      0.00 
    1    3   15      0.49      0.00 
    1    3   16     -0.97      0.00 
    1    3   17      0.65      0.00 
    2    3    1      1.48      0.00 
    2    3    2     12.96      0.00 
    2    3    3    -10.81      0.00 
    2    3    4     -0.80      0.00 
    2    3    5      4.30      0.00 
    2    3    6     -5.70      0.00 
    2    3    7      4.20      0.00 
    2    3    8     -2.14      0.00 
    2    3    9      0.68      0.00 
    2    3   10      2.02      0.00 
    2    3   11     -2.61      0.00 
    2    3   12      1.30      0.00 
    2    3   13     -1.15      0.00 
    2    3   14      0.66      0.00 
    2    3   15     -0.06      0.00 
    2    3   16      0.65      0.00 
    2    3   17     -0.10      0.00 
    3    3    0    -24.38      0.00 
    3    3    1     15.00      0.00 
    3    3    2      2.53      0.00 
    3    3    3     -7.99      0.00 
    3    3    4     -2.60      0.00 
    3    3    5      5.56      0.00 
    3    3    6      3.00      0.00 
    3    3    7     -0.94      0.00 
    3    3    8     -3.36      0.00 
    3    3    9     -0.01      0.00 
    3    3   10      1.41      0.00 
    3    3   11     -1.11      0.00 
    3    3   12      0.61      0.00 
    3    3   13     -0.04      0.00 
    3    3   14      0.81      0.00 
    3    3   15     -1.09      0.00 
    3    3   16      0.54      0.00 
    0    4    0     -2.98      0.00 
    0    4    1    -12.67      0.00 
    0    4    2     27.73      0.00 
    0    4    3    -14.44      0.00 
    0    4    4     -0.98      0.00 
    0    4    5      6.73      0.00 
    0    4    6     -8.64      0.00 
    0    4    7      2.45      0.00 
    0    4    8     -0.36      0.00 
    0    4    9      3.41      0.00 
    0    4   10     -1.37      0.00 
    0    4   11     -0.30      0.00 
    0    4   12      1.02      0.00 
    0    4   13     -1.47      0.00 
    0    4   14     -0.01      0.00 
    0    4   15      1.35      0.00 
    0    4   16     -1.74      0.00 
    0    4   17      0.71      0.00 
    1    4    1     30.77      0.00 
    1    4    2    -10.68      0.00 
    1    4    3     -6.60      0.00 
    1    4    4      0.88      0.00 
    1    4    5      5.63      0.00 
    1    4    6     -8.27      0.00 
    1    4    7      4.40      0.00 
    1    4    8     -0.67      0.00 
    1    4    9      1.07      0.00 
    1    4   10      0.60      0.00 
    1    4   11     -1.87      0.00 
    1    4   12      0.17      0.00 
    1    4   13     -0.13      0.00 
    1    4   14      0.48      0.00 
    1    4   15     -0.04      0.00 
    1    4   16      0.60      0.00 
    1    4   17      0.13      0.00 
    2    4    0     22.92      0.00 
    2    4    1    -16.72      0.00 
    2    4    2      9.03      0.00 
    2    4    3     -6.33      0.00 
    2    4    4     -0.67      0.00 
    2    4    5      2.35      0.00 
    2    4    6      4.28      0.00 
    2    4    7     -1.08      0.00 
    2    4    8     -3.41      0.00 
    2    4    9      0.55      0.00 
    2    4   10      0.57      0.00 
    2    4   11     -0.31      0.00 
    2    4   12     -0.22      0.00 
    2    4   13      0.24      0.00 
    2    4   14      1.03      0.00 
    2    4   15     -0.94      0.00 
    2    4   16      0.02      0.00 
    3    4    1     -0.63      0.00 
    3    4    2     -8.70      0.00 
    3    4    3      4.07      0.00 
    3    4    4      4.27      0.00 
    3    4    5      0.64      0.00 
    3    4    6     -5.90      0.00 
    3    4    7      4.46      0.00 
    3    4    8     -1.17      0.00 
    3    4    9     -0.64      0.00 
    3    4   10      0.30      0.00 
    3    4   11      0.47      0.00 
    3    4   12      0.78      0.00 
    3    4   13     -1.10      0.00 
    3    4   14      0.71      0.00 
    3    4   15     -1.18      0.00 
    3    4   16     -0.46      0.00 
    4    4    0     16.78      0.00 
    4    4    1    -10.00      0.00 
    4    4    2     -0.91      0.00 
    4    4    3      3.63      0.00 
    4    4    4      2.19      0.00 
    4    4    5     -3.72      0.00 
    4    4    6     -2.41      0.00 
    4    4    7      2.22      0.00 
    4    4    8      1.49      0.00 
    4    4    9     -1.37      0.00 
    4    4   10      1.61      0.00 
    4    4   11     -1.72      0.00 
    4    4   12      0.70      0.00 
    4    4   13     -0.41      0.00 
    4    4   14      0.20      0.00 
    4    4   15      0.63      0.00 
    4    4   16     -0.63      0.00 
    0    5    1      2.16      0.00 
    0    5    2     16.36      0.00 
    0    5    3    -18.58      0.00 
    0    5    4      4.28      0.00 
    0    5    5      4.82      0.00 
    0    5    6     -6.44      0.00 
    0    5    7      0.25      0.00 
    0    5    8      2.77      0.00 
    0    5    9      1.14      0.00 
    0    5   10     -0.27      0.00 
    0    5   11     -2.14      0.00 
    0    5   12     -1.26      0.00 
    0    5   13      1.80      0.00 
    0    5   14      1.15      0.00 
    0    5   15     -0.63      0.00 
    0    5   16     -0.56      0.00 
    1    5    0     -2.07      0.00 
    1    5    1      2.82      0.00 
    1    5    2      0.55      0.00 
    1    5    3     -6.82      0.00 
    1    5    4      4.07      0.00 
    1    5    5     -0.25      0.00 
    1    5    6      1.70      0.00 
    1    5    7      0.65      0.00 
    1    5    8     -0.32      0.00 
    1    5    9     -2.13      0.00 
    1    5   10      0.23      0.00 
    1    5   11     -0.38      0.00 
    1    5   12      0.75      0.00 
    1    5   13      0.65      0.00 
    1    5   14      0.23      0.00 
    1    5   15     -1.64      0.00 
    1    5   16      0.86      0.00 
    2    5    1    -13.71      0.00 
    2    5    2      5.12      0.00 
    2    5    3     -1.20      0.00 
    2    5    4      5.40      0.00 
    2    5    5     -3.42      0.00 
    2    5    6     -0.47      0.00 
    2    5    7      1.15      0.00 
    2    5    8      0.43      0.00 
    2    5    9     -1.57      0.00 
    2    5   10      0.69      0.00 
    2    5   11      0.26      0.00 
    2    5   12      1.18      0.00 
    2    5   13     -1.21      0.00 
    2    5   14     -0.14      0.00 
    2    5   15     -0.06      0.00 
    2    5   16     -1.06      0.00 
    3    5    0     10.37      0.00 
    3    5    1     -7.63      0.00 
    3    5    2      3.79      0.00 
    3    5    3     -2.08      0.00 
    3    5    4      2.86      0.00 
    3    5    5     -1.06      0.00 
    3    5    6     -4.87      0.00 
    3    5    7      3.38      0.00 
    3    5    8      1.94      0.00 
    3    5    9     -2.01      0.00 
    3    5   10      0.92      0.00 
    3    5   11     -0.57      0.00 
    3    5   12     -0.13      0.00 
    3    5   13      0.46      0.00 
    3    5   14     -0.42      0.00 
    3    5   15      0.36      0.00 
    3    5   16      0.51      0.00 
    4    5    1     -0.79      0.00 
    4    5    2      3.86      0.00 
    4    5    3     -3.37      0.00 
    4    5    4      0.36      0.00 
    4    5    5      0.07      0.00 
    4    5    6      2.46      0.00 
    4    5    7     -2.30      0.00 
    4    5    8     -0.43      0.00 
    4    5    9      1.29      0.00 
    4    5   10     -0.60      0.00 
    4    5   11     -1.16      0.00 
    4    5   12      0.59      0.00 
    4    5   13      0.49      0.00 
    4    5   14      0.71      0.00 
    4    5   15     -0.09      0.00 
    4    5   16     -0.70      0.00 
    5    5    0      9.17      0.00 
    5    5    1    -12.73      0.00 
    5    5    2     12.01      0.00 
    5    5    3     -2.96      0.00 
    5    5    4     -2.62      0.00 
    5    5    5      2.52      0.00 
    5    5    6     -1.41      0.00 
    5    5    7      1.71      0.00 
    5    5    8     -1.08      0.00 
    5    5    9     -0.07      0.00 
    5    5   10     -0.02      0.00 
    5    5   11      0.22      0.00 
    5    5   12     -0.06      0.00 
    5    5   13      0.31      0.00 
    5    5   14     -0.54      0.00 
    5    5   15     -0.83      0.00 
    5    5   16      0.38      0.00 
    0    6    0    -12.07      0.00 
    0    6    1      2.89      0.00 
    0    6    2     11.70      0.00 
    0    6    3    -14.63      0.00 
    0    6    4      5.54      0.00 
    0    6    5      1.25      0.00 
    0    6    6      0.38      0.00 
    0    6    7     -1.51      0.00 
    0    6    8      2.03      0.00 
    0    6    9     -1.24      0.00 
    0    6   10     -1.47      0.00 
    0    6   11      0.33      0.00 
    0    6   12      0.90      0.00 
    0    6   13      0.57      0.00 
    0    6   14     -0.18      0.00 
    0    6   15     -1.53      0.00 
    0    6   16      0.39      0.00 
    1    6    1      2.02      0.00 
    1    6    2     -8.58      0.00 
    1    6    3      6.09      0.00 
    1    6    4      0.66      0.00 
    1    6    5     -1.42      0.00 
    1    6    6     -2.32      0.00 
    1    6    7      4.56      0.00 
    1    6    8     -1.49      0.00 
    1    6    9     -2.02      0.00 
    1    6   10      1.25      0.00 
    1    6   11      0.25      0.00 
    1    6   12      2.30      0.00 
    1    6   13     -3.01      0.00 
    1    6   14     -0.18      0.00 
    1    6   15      0.54      0.00 
    1    6   16      0.05      0.00 
    2    6    0     15.23      0.00 
    2    6    1     -7.94      0.00 
    2    6    2     -0.97      0.00 
    2    6    3      1.84      0.00 
    2    6    4      1.27      0.00 
    2    6    5     -3.17      0.00 
    2    6    6      0.53      0.00 
    2    6    7      0.03      0.00 
    2    6    8      1.68      0.00 
    2    6    9     -1.42      0.00 
    2    6   10      0.93      0.00 
    2    6   11      0.16      0.00 
    2    6   12     -1.39      0.00 
    2    6   13      0.70      0.00 
    2    6   14      0.26      0.00 
    2    6   15      0.40      0.00 
    2    6   16     -0.03      0.00 
    3    6    1      0.92      0.00 
    3    6    2      0.00      0.00 
    3    6    3     -0.65      0.00 
    3    6    4     -0.99      0.00 
    3    6    5      3.18      0.00 
    3    6    6     -1.96      0.00 
    3    6    7      1.56      0.00 
    3    6    8     -2.57      0.00 
    3    6    9      1.31      0.00 
    3    6   10     -0.26      0.00 
    3    6   11     -0.98      0.00 
    3    6   12      0.67      0.00 
    3    6   13      0.07      0.00 
    3    6   14      1.70      0.00 
    3    6   15     -1.54      0.00 
    3    6   16      0.52      0.00 
    4    6    0     -9.11      0.00 
    4    6    1      2.89      0.00 
    4    6    2      0.74      0.00 
    4    6    3      3.66      0.00 
    4    6    4     -2.92      0.00 
    4    6    5     -1.58      0.00 
    4    6    6      3.41      0.00 
    4    6    7     -0.95      0.00 
    4    6    8     -1.57      0.00 
    4    6    9      0.74      0.00 
    4    6   10      0.88      0.00 
    4    6   11     -1.24      0.00 
    4    6   12      1.31      0.00 
    4    6   13     -1.02      0.00 
    4    6   14      0.33      0.00 
    4    6   15     -0.77      0.00 
    4    6   16     -0.58      0.00 
    5    6    1     -1.63      0.00 
    5    6    2     -0.46      0.00 
    5    6    3      3.91      0.00 
    5    6    4     -4.64      0.00 
    5    6    5      2.33      0.00 
    5    6    6     -2.20      0.00 
    5    6    7      1.78      0.00 
    5    6    8      1.06      0.00 
    5    6    9     -1.84      0.00 
    5    6   10      1.58      0.00 
    5    6   11     -1.06      0.00 
    5    6   12      0.81      0.00 
    5    6   13     -0.37      0.00 
    5    6   14     -0.90      0.00 
    5    6   15      0.29      0.00 
    5    6   16      0.51      0.00 
    6    6    0    -13.12      0.00 
    6    6    1     11.51      0.00 
    6    6    2     -6.77      0.00 
    6    6    3      1.71      0.00 
    6    6    4      0.53      0.00 
    6    6    5     -0.04      0.00 
    6    6    6     -0.23      0.00 
    6    6    7     -0.72      0.00 
    6    6    8      0.60      0.00 
    6    6    9     -0.58      0.00 
    6    6   10      0.30      0.00 
    6    6   11     -0.89      0.00 
    6    6   12      2.32      0.00 
    6    6   13     -1.12      0.00 
    6    6   14      0.27      0.00 
    6    6   15      0.26      0.00 
    0    7    1     -3.49      0.00 
    0    7    2      4.67      0.00 
    0    7    3     -6.47      0.00 
    0    7    4      5.57      0.00 
    0    7    5     -1.78      0.00 
    0    7    6     -1.16      0.00 
    0    7    7     -0.24      0.00 
    0    7    8      3.35      0.00 
    0    7    9     -3.12      0.00 
    0    7   10      1.89      0.00 
    0    7   11     -0.55      0.00 
    0    7   12      0.79      0.00 
    0    7   13     -1.62      0.00 
    0    7   14     -0.10      0.00 
    0    7   15      0.74      0.00 
    0    7   16     -0.19      0.00 
    1    7    0      9.59      0.00 
    1    7    1     -1.02      0.00 
    1    7    2     -6.78      0.00 
    1    7    3      2.21      0.00 
    1    7    4      3.69      0.00 
    1    7    5     -4.17      0.00 
    1    7    6     -0.53      0.00 
    1    7    7      2.18      0.00 
    1    7    8      0.37      0.00 
    1    7    9     -1.40      0.00 
    1    7   10      1.04      0.00 
    1    7   11     -0.20      0.00 
    1    7   12     -1.12      0.00 
    1    7   13      1.06      0.00 
    1    7   14      0.40      0.00 
    1    7   15     -0.14      0.00 
    1    7   16      0.14      0.00 
    2    7    1     -5.75      0.00 
    2    7    2      7.53      0.00 
    2    7    3     -7.40      0.00 
    2    7    4      5.58      0.00 
    2    7    5     -2.11      0.00 
    2    7    6      2.91      0.00 
    2    7    7     -3.76      0.00 
    2    7    8      1.29      0.00 
    2    7    9     -0.16      0.00 
    2    7   10     -0.35      0.00 
    2    7   11     -0.26      0.00 
    2    7   12     -0.35      0.00 
    2    7   13      1.41      0.00 
    2    7   14      1.26      0.00 
    2    7   15     -2.32      0.00 
    2    7   16      0.82      0.00 
    3    7    0    -12.47      0.00 
    3    7    1      2.92      0.00 
    3    7    2      4.39      0.00 
    3    7    3      0.12      0.00 
    3    7    4     -0.82      0.00 
    3    7    5     -0.65      0.00 
    3    7    6      0.31      0.00 
    3    7    7      1.32      0.00 
    3    7    8     -2.77      0.00 
    3    7    9      1.70      0.00 
    3    7   10     -0.03      0.00 
    3    7   11     -0.56      0.00 
    3    7   12      1.06      0.00 
    3    7   13     -0.65      0.00 
    3    7   14     -0.40      0.00 
    3    7   15     -0.52      0.00 
    3    7   16      0.31      0.00 
    4    7    1      1.85      0.00 
    4    7    2     -0.44      0.00 
    4    7    3      0.15      0.00 
    4    7    4     -0.21      0.00 
    4    7    5     -2.04      0.00 
    4    7    6      1.55      0.00 
    4    7    7     -1.27      0.00 
    4    7    8      2.74      0.00 
    4    7    9     -1.85      0.00 
    4    7   10      1.59      0.00 
    4    7   11     -1.22      0.00 
    4    7   12      0.52      0.00 
    4    7   13     -0.10      0.00 
    4    7   14     -1.25      0.00 
    4    7   15      0.58      0.00 
    4    7   16      0.40      0.00 
    5    7    0      5.86      0.00 
    5    7    1     -3.25      0.00 
    5    7    2      1.66      0.00 
    5    7    3     -2.59      0.00 
    5    7    4      0.44      0.00 
    5    7    5      3.34      0.00 
    5    7    6     -4.39      0.00 
    5    7    7      1.76      0.00 
    5    7    8      0.73      0.00 
    5    7    9     -1.05      0.00 
    5    7   10     -0.23      0.00 
    5    7   11      0.38      0.00 
    5    7   12      0.57      0.00 
    5    7   13      0.27      0.00 
    5    7   14     -0.57      0.00 
    5    7   15      0.48      0.00 
    6    7    1      3.33      0.00 
    6    7    2      1.21      0.00 
    6    7    3     -3.53      0.00 
    6    7    4      1.55      0.00 
    6    7    5      0.49      0.00 
    6    7    6     -0.98      0.00 
    6    7    7      1.00      0.00 
    6    7    8     -1.45      0.00 
    6    7    9      0.51      0.00 
    6    7   10      0.22      0.00 
    6    7   11     -0.53      0.00 
    6    7   12      1.11      0.00 
    6    7   13     -0.56      0.00 
    6    7   14     -0.58      0.00 
    6    7   15      0.78      0.00 
    7    7    0     15.16      0.00 
    7    7    1    -10.66      0.00 
    7    7    2      3.13      0.00 
    7    7    3      1.17      0.00 
    7    7    4     -2.28      0.00 
    7    7    5     -0.26      0.00 
    7    7    6      1.65      0.00 
    7    7    7      0.15      0.00 
    7    7    8      0.55      0.00 
    7    7    9     -1.51      0.00 
    7    7   10      1.34      0.00 
    7    7   11     -0.55      0.00 
    7    7   12     -0.75      0.00 
    7    7   13     -0.58      0.00 
    7    7   14      0.79      0.00 
    7    7   15     -0.31      0.00 
    0    8    0     -3.80      0.00 
    0    8    1      7.38      0.00 
    0    8    2     -4.30      0.00 
    0    8    3     -9.28      0.00 
    0    8    4     16.18      0.00 
    0    8    5    -10.60      0.00 
    0    8    6      1.07      0.00 
    0    8    7      0.50      0.00 
    0    8    8      2.84      0.00 
    0    8    9     -1.86      0.00 
    0    8   10     -0.69      0.00 
    0    8   11      0.18      0.00 
    0    8   12     -0.14      0.00 
    0    8   13      1.30      0.00 
    0    8   14      0.72      0.00 
    0    8   15     -1.80      0.00 
    0    8   16      0.52      0.00 
    1    8    1      1.65      0.00 
    1    8    2     -2.63      0.00 
    1    8    3      1.14      0.00 
    1    8    4      2.05      0.00 
    1    8    5     -1.58      0.00 
    1    8    6     -0.46      0.00 
    1    8    7      2.29      0.00 
    1    8    8     -2.75      0.00 
    1    8    9      0.44      0.00 
    1    8   10     -0.32      0.00 
    1    8   11     -0.01      0.00 
    1    8   12      1.44      0.00 
    1    8   13     -0.82      0.00 
    1    8   14      1.43      0.00 
    1    8   15     -2.23      0.00 
    1    8   16      1.01      0.00 
    2    8    0     -7.88      0.00 
    2    8    1      1.01      0.00 
    2    8    2      2.84      0.00 
    2    8    3      1.45      0.00 
    2    8    4      0.17      0.00 
    2    8    5     -4.07      0.00 
    2    8    6      4.51      0.00 
    2    8    7     -1.52      0.00 
    2    8    8     -1.61      0.00 
    2    8    9      1.61      0.00 
    2    8   10     -0.49      0.00 
    2    8   11      0.41      0.00 
    2    8   12      0.00      0.00 
    2    8   13     -0.75      0.00 
    2    8   14     -0.01      0.00 
    2    8   15     -0.15      0.00 
    2    8   16      0.63      0.00 
    3    8    1      2.93      0.00 
    3    8    2     -2.36      0.00 
    3    8    3      2.37      0.00 
    3    8    4     -2.21      0.00 
    3    8    5      0.19      0.00 
    3    8    6     -2.52      0.00 
    3    8    7      4.62      0.00 
    3    8    8     -2.29      0.00 
    3    8    9      0.51      0.00 
    3    8   10      1.53      0.00 
    3    8   11     -2.10      0.00 
    3    8   12      1.24      0.00 
    3    8   13     -0.78      0.00 
    3    8   14     -0.66      0.00 
    3    8   15      0.68      0.00 
    4    8    0      2.42      0.00 
    4    8    1      2.18      0.00 
    4    8    2     -4.60      0.00 
    4    8    3      1.44      0.00 
    4    8    4     -1.22      0.00 
    4    8    5      1.88      0.00 
    4    8    6     -1.33      0.00 
    4    8    7     -0.33      0.00 
    4    8    8      1.68      0.00 
    4    8    9     -1.23      0.00 
    4    8   10     -0.03      0.00 
    4    8   11      0.05      0.00 
    4    8   12      0.73      0.00 
    4    8   13     -0.25      0.00 
    4    8   14      0.03      0.00 
    4    8   15     -0.01      0.00 
    5    8    1     -0.92      0.00 
    5    8    2      1.80      0.00 
    5    8    3     -0.03      0.00 
    5    8    4     -2.24      0.00 
    5    8    5      3.27      0.00 
    5    8    6     -2.55      0.00 
    5    8    7      2.47      0.00 
    5    8    8     -3.04      0.00 
    5    8    9      1.65      0.00 
    5    8   10     -0.57      0.00 
    5    8   11     -0.35      0.00 
    5    8   12      0.89      0.00 
    5    8   13     -0.19      0.00 
    5    8   14     -0.23      0.00 
    5    8   15      0.76      0.00 
    6    8    0     -0.58      0.00 
    6    8    1      1.33      0.00 
    6    8    2     -3.29      0.00 
    6    8    3      4.34      0.00 
    6    8    4     -2.45      0.00 
    6    8    5     -2.01      0.00 
    6    8    6      3.67      0.00 
    6    8    7     -0.99      0.00 
    6    8    8      0.33      0.00 
    6    8    9     -0.62      0.00 
    6    8   10      0.40      0.00 
    6    8   11     -0.73      0.00 
    6    8   12      0.63      0.00 
    6    8   13     -1.35      0.00 
    6    8   14      1.09      0.00 
    6    8   15     -0.68      0.00 
    7    8    1      0.74      0.00 
    7    8    2     -4.19      0.00 
    7    8    3      3.72      0.00 
    7    8    4     -1.97      0.00 
    7    8    5      1.05      0.00 
    7    8    6     -0.10      0.00 
    7    8    7     -0.19      0.00 
    7    8    8      1.02      0.00 
    7    8    9     -1.54      0.00 
    7    8   10      1.28      0.00 
    7    8   11     -0.53      0.00 
    7    8   12     -0.13      0.00 
    7    8   13     -0.07      0.00 
    7    8   14      0.76      0.00 
    7    8   15     -0.88      0.00 
    8    8    0     -3.55      0.00 
    8    8    1      2.07      0.00 
    8    8    2     -0.17      0.00 
    8    8    3      0.60      0.00 
    8    8    4     -1.27      0.00 
    8    8    5      1.27      0.00 
    8    8    6      0.03      0.00 
    8    8    7     -2.16      0.00 
    8    8    8      1.37      0.00 
    8    8    9      0.37      0.00 
    8    8   10     -1.68      0.00 
    8    8   11      1.63      0.00 
    8    8   12      0.43      0.00 
    8    8   13     -0.10      0.00 
    8    8   14     -0.42      0.00 
    8    8   15     -0.37      0.00 
    0    9    1     -0.35      0.00 
    0    9    2      2.46      0.00 
    0    9    3     -4.77      0.00 
    0    9    4      6.74      0.00 
    0    9    5     -3.87      0.00 
    0    9    6     -0.15      0.00 
    0    9    7      1.34      0.00 
    0    9    8     -1.39      0.00 
    0    9    9     -0.70      0.00 
    0    9   10      0.88      0.00 
    0    9   11      0.00      0.00 
    0    9   12      1.62      0.00 
    0    9   13     -2.41      0.00 
    0    9   14      2.45      0.00 
    0    9   15     -2.79      0.00 
    1    9    0      1.85      0.00 
    1    9    1     -4.01      0.00 
    1    9    2      1.00      0.00 
    1    9    3      7.13      0.00 
    1    9    4     -7.65      0.00 
    1    9    5      1.95      0.00 
    1    9    6      1.76      0.00 
    1    9    7     -0.34      0.00 
    1    9    8     -1.68      0.00 
    1    9    9      1.21      0.00 
    1    9   10      0.28      0.00 
    1    9   11      0.12      0.00 
    1    9   12     -1.27      0.00 
    1    9   13     -0.16      0.00 
    1    9   14      0.03      0.00 
    1    9   15      0.96      0.00 
    2    9    1     -2.02      0.00 
    2    9    2      2.81      0.00 
    2    9    3     -2.43      0.00 
    2    9    4      1.30      0.00 
    2    9    5     -2.34      0.00 
    2    9    6      1.95      0.00 
    2    9    7     -0.36      0.00 
    2    9    8      0.73      0.00 
    2    9    9     -0.22      0.00 
    2    9   10      0.71      0.00 
    2    9   11     -1.15      0.00 
    2    9   12     -0.52      0.00 
    2    9   13      1.18      0.00 
    2    9   14     -0.44      0.00 
    2    9   15     -0.56      0.00 
    3    9    0     -3.03      0.00 
    3    9    1      4.74      0.00 
    3    9    2     -3.05      0.00 
    3    9    3     -0.46      0.00 
    3    9    4     -1.30      0.00 
    3    9    5      3.77      0.00 
    3    9    6     -3.46      0.00 
    3    9    7      0.91      0.00 
    3    9    8      0.60      0.00 
    3    9    9     -0.33      0.00 
    3    9   10     -0.10      0.00 
    3    9   11     -0.39      0.00 
    3    9   12      1.40      0.00 
    3    9   13     -0.21      0.00 
    3    9   14     -0.51      0.00 
    3    9   15     -0.54      0.00 
    4    9    1     -0.03      0.00 
    4    9    2      0.56      0.00 
    4    9    3      0.33      0.00 
    4    9    4     -1.32      0.00 
    4    9    5      1.01      0.00 
    4    9    6      1.65      0.00 
    4    9    7     -2.82      0.00 
    4    9    8      1.20      0.00 
    4    9    9     -0.42      0.00 
    4    9   10     -0.66      0.00 
    4    9   11      0.99      0.00 
    4    9   12     -0.20      0.00 
    4    9   13     -0.24      0.00 
    4    9   14      0.63      0.00 
    4    9   15     -0.42      0.00 
    5    9    0     -1.13      0.00 
    5    9    1      0.00      0.00 
    5    9    2     -0.22      0.00 
    5    9    3      1.21      0.00 
    5    9    4     -0.06      0.00 
    5    9    5     -1.38      0.00 
    5    9    6      1.05      0.00 
    5    9    7      1.01      0.00 
    5    9    8     -0.99      0.00 
    5    9    9      0.23      0.00 
    5    9   10     -0.14      0.00 
    5    9   11     -0.69      0.00 
    5    9   12      0.61      0.00 
    5    9   13     -0.45      0.00 
    5    9   14      0.25      0.00 
    5    9   15      0.04      0.00 
    6    9    1      2.93      0.00 
    6    9    2     -3.82      0.00 
    6    9    3      1.24      0.00 
    6    9    4      0.38      0.00 
    6    9    5     -0.70      0.00 
    6    9    6      0.68      0.00 
    6    9    7     -0.95      0.00 
    6    9    8      2.39      0.00 
    6    9    9     -2.70      0.00 
    6    9   10      1.32      0.00 
    6    9   11      0.38      0.00 
    6    9   12     -0.08      0.00 
    6    9   13     -0.91      0.00 
    6    9   14      0.86      0.00 
    6    9   15     -1.37      0.00 
    7    9    0      3.42      0.00 
    7    9    1     -2.97      0.00 
    7    9    2      2.55      0.00 
    7    9    3     -1.45      0.00 
    7    9    4     -0.44      0.00 
    7    9    5      1.58      0.00 
    7    9    6     -0.48      0.00 
    7    9    7     -1.77      0.00 
    7    9    8      1.18      0.00 
    7    9    9     -0.28      0.00 
    7    9   10     -0.03      0.00 
    7    9   11      1.10      0.00 
    7    9   12     -0.78      0.00 
    7    9   13      0.63      0.00 
    7    9   14     -0.64      0.00 
    7    9   15      0.20      0.00 
    8    9    1      0.21      0.00 
    8    9    2      0.85      0.00 
    8    9    3      0.15      0.00 
    8    9    4     -0.90      0.00 
    8    9    5     -0.74      0.00 
    8    9    6      3.00      0.00 
    8    9    7     -2.59      0.00 
    8    9    8      0.68      0.00 
    8    9    9     -0.62      0.00 
    8    9   10      0.16      0.00 
    8    9   11      0.78      0.00 
    8    9   12     -0.78      0.00 
    8    9   13      0.44      0.00 
    8    9   14     -0.30      0.00 
    9    9    0      1.28      0.00 
    9    9    1     -0.74      0.00 
    9    9    2     -0.36      0.00 
    9    9    3     -0.48      0.00 
    9    9    4      1.73      0.00 
    9    9    5     -1.33      0.00 
    9    9    6      1.30      0.00 
    9    9    7     -1.21      0.00 
    9    9    8      1.07      0.00 
    9    9    9     -1.34      0.00 
    9    9   10      1.84      0.00 
    9    9   11     -1.06      0.00 
    9    9   12     -0.65      0.00 
    9    9   13      0.37      0.00 
    9    9   14     -0.35      0.00 
    0   10    0     -1.12      0.00 
    0   10    1      0.16      0.00 
    0   10    2     -0.88      0.00 
    0   10    3      1.32      0.00 
    0   10    4      1.83      0.00 
    0   10    5     -3.26      0.00 
    0   10    6      1.41      0.00 
    0   10    7     -0.25      0.00 
    0   10    8      0.75      0.00 
    0   10    9      0.20      0.00 
    0   10   10      0.03      0.00 
    0   10   11     -0.71      0.00 
    0   10   12     -1.16      0.00 
    0   10   13      0.09      0.00 
    0   10   14      0.93      0.00 
    0   10   15      0.49      0.00 
    1   10    1     -0.25      0.00 
    1   10    2     -2.69      0.00 
    1   10    3      3.21      0.00 
    1   10    4     -1.33      0.00 
    1   10    5     -1.88      0.00 
    1   10    6      1.50      0.00 
    1   10    7      1.10      0.00 
    1   10    8      0.34      0.00 
    1   10    9     -0.48      0.00 
    1   10   10     -0.33      0.00 
    1   10   11     -0.94      0.00 
    1   10   12      0.02      0.00 
    1   10   13      1.82      0.00 
    1   10   14     -1.06      0.00 
    1   10   15     -0.25      0.00 
    2   10    0     -6.52      0.00 
    2   10    1      6.25      0.00 
    2   10    2     -2.18      0.00 
    2   10    3     -3.32      0.00 
    2   10    4      4.44      0.00 
    2   10    5     -2.29      0.00 
    2   10    6      0.25      0.00 
    2   10    7      0.13      0.00 
    2   10    8     -0.74      0.00 
    2   10    9      0.30      0.00 
    2   10   10      0.28      0.00 
    2   10   11     -0.52      0.00 
    2   10   12      2.00      0.00 
    2   10   13     -0.60      0.00 
    2   10   14     -0.59      0.00 
    2   10   15     -1.30      0.00 
    3   10    1      0.57      0.00 
    3   10    2     -0.19      0.00 
    3   10    3      1.42      0.00 
    3   10    4     -1.17      0.00 
    3   10    5      0.48      0.00 
    3   10    6     -0.07      0.00 
    3   10    7     -0.22      0.00 
    3   10    8     -0.82      0.00 
    3   10    9      0.60      0.00 
    3   10   10     -0.23      0.00 
    3   10   11      0.28      0.00 
    3   10   12      0.61      0.00 
    3   10   13     -1.25      0.00 
    3   10   14      0.55      0.00 
    3   10   15      0.47      0.00 
    4   10    0     -1.52      0.00 
    4   10    1      1.09      0.00 
    4   10    2     -2.21      0.00 
    4   10    3      2.79      0.00 
    4   10    4     -0.17      0.00 
    4   10    5     -2.51      0.00 
    4   10    6      2.11      0.00 
    4   10    7      0.68      0.00 
    4   10    8     -0.74      0.00 
    4   10    9     -0.08      0.00 
    4   10   10     -0.15      0.00 
    4   10   11     -0.37      0.00 
    4   10   12     -0.21      0.00 
    4   10   13      0.21      0.00 
    4   10   14     -0.03      0.00 
    4   10   15      1.06      0.00 
    5   10    1      0.30      0.00 
    5   10    2     -0.44      0.00 
    5   10    3     -0.83      0.00 
    5   10    4      1.08      0.00 
    5   10    5     -0.21      0.00 
    5   10    6     -1.43      0.00 
    5   10    7      1.86      0.00 
    5   10    8     -0.42      0.00 
    5   10    9      0.13      0.00 
    5   10   10     -0.19      0.00 
    5   10   11     -0.09      0.00 
    5   10   12      0.46      0.00 
    5   10   13     -0.07      0.00 
    5   10   14     -0.58      0.00 
    5   10   15      0.10      0.00 
    6   10    0      1.83      0.00 
    6   10    1     -1.18      0.00 
    6   10    2      0.71      0.00 
    6   10    3      0.76      0.00 
    6   10    4     -2.38      0.00 
    6   10    5      1.19      0.00 
    6   10    6      1.01      0.00 
    6   10    7     -2.36      0.00 
    6   10    8      1.53      0.00 
    6   10    9     -0.74      0.00 
    6   10   10      0.13      0.00 
    6   10   11      1.47      0.00 
    6   10   12     -1.14      0.00 
    6   10   13      0.59      0.00 
    6   10   14     -0.87      0.00 
    6   10   15      0.14      0.00 
    7   10    1     -0.22      0.00 
    7   10    2      0.60      0.00 
    7   10    3      0.25      0.00 
    7   10    4     -0.71      0.00 
    7   10    5     -0.09      0.00 
    7   10    6      1.49      0.00 
    7   10    7     -0.70      0.00 
    7   10    8     -1.25      0.00 
    7   10    9      0.97      0.00 
    7   10   10     -0.15      0.00 
    7   10   11     -0.27      0.00 
    7   10   12     -0.43      0.00 
    7   10   13      1.07      0.00 
    7   10   14     -0.54      0.00 
    8   10    0     -0.25      0.00 
    8   10    1      0.27      0.00 
    8   10    2     -1.26      0.00 
    8   10    3      1.14      0.00 
    8   10    4      0.50      0.00 
    8   10    5     -1.08      0.00 
    8   10    6      0.92      0.00 
    8   10    7     -0.43      0.00 
    8   10    8      0.83      0.00 
    8   10    9     -1.00      0.00 
    8   10   10      0.29      0.00 
    8   10   11     -0.25      0.00 
    8   10   12      0.34      0.00 
    8   10   13     -0.19      0.00 
    8   10   14     -0.57      0.00 
    9   10    1      2.38      0.00 
    9   10    2     -1.23      0.00 
    9   10    3     -1.09      0.00 
    9   10    4      1.00      0.00 
    9   10    5      0.50      0.00 
    9   10    6     -1.75      0.00 
    9   10    7      0.52      0.00 
    9   10    8      1.19      0.00 
    9   10    9     -0.38      0.00 
    9   10   10     -0.08      0.00 
    9   10   11      0.14      0.00 
    9   10   12     -0.20      0.00 
    9   10   13      0.14      0.00 
    9   10   14     -0.73      0.00 
   10   10    0      3.84      0.00 
   10   10    1     -1.19      0.00 
   10   10    2     -0.70      0.00 
   10   10    3     -0.38      0.00 
   10   10    4      0.29      0.00 
   10   10    5     -0.10      0.00 
   10   10    6      0.34      0.00 
   10   10    7      0.10      0.00 
   10   10    8     -0.22      0.00 
   10   10    9     -0.76      0.00 
   10   10   10      0.30      0.00 
   10   10   11      0.74      0.00 
   10   10   12      0.03      0.00 
   10   10   13     -0.10      0.00 
    0   11    1     -0.66      0.00 
    0   11    2     -3.27      0.00 
    0   11    3      3.71      0.00 
    0   11    4      0.50      0.00 
    0   11    5     -4.52      0.00 
    0   11    6      2.24      0.00 
    0   11    7      2.02      0.00 
    0   11    8     -0.58      0.00 
    0   11    9     -0.30      0.00 
    0   11   10     -0.22      0.00 
    0   11   11     -1.09      0.00 
    0   11   12      0.44      0.00 
    0   11   13      1.37      0.00 
    0   11   14     -0.65      0.00 
    0   11   15     -0.74      0.00 
    1   11    0     -1.02      0.00 
    1   11    1      0.96      0.00 
    1   11    2     -0.02      0.00 
    1   11    3      0.49      0.00 
    1   11    4     -1.52      0.00 
    1   11    5     -0.17      0.00 
    1   11    6      1.60      0.00 
    1   11    7     -0.31      0.00 
    1   11    8     -2.08      0.00 
    1   11    9      1.36      0.00 
    1   11   10     -0.15      0.00 
    1   11   11      0.45      0.00 
    1   11   12      0.79      0.00 
    1   11   13     -0.08      0.00 
    1   11   14     -0.59      0.00 
    1   11   15     -1.34      0.00 
    2   11    1      0.05      0.00 
    2   11    2      2.47      0.00 
    2   11    3     -1.80      0.00 
    2   11    4      0.39      0.00 
    2   11    5      0.19      0.00 
    2   11    6      0.38      0.00 
    2   11    7     -0.73      0.00 
    2   11    8     -1.65      0.00 
    2   11    9      1.77      0.00 
    2   11   10     -0.28      0.00 
    2   11   11      0.63      0.00 
    2   11   12     -0.30      0.00 
    2   11   13     -0.98      0.00 
    2   11   14      0.82      0.00 
    2   11   15      0.02      0.00 
    3   11    0     -1.46      0.00 
    3   11    1      0.53      0.00 
    3   11    2     -0.48      0.00 
    3   11    3      1.57      0.00 
    3   11    4     -1.41      0.00 
    3   11    5     -0.14      0.00 
    3   11    6      0.75      0.00 
    3   11    7      0.25      0.00 
    3   11    8      0.36      0.00 
    3   11    9      0.44      0.00 
    3   11   10     -1.75      0.00 
    3   11   11      0.31      0.00 
    3   11   12     -0.20      0.00 
    3   11   13      0.22      0.00 
    3   11   14     -0.29      0.00 
    3   11   15      1.76      0.00 
    4   11    1      1.20      0.00 
    4   11    2     -0.74      0.00 
    4   11    3     -1.01      0.00 
    4   11    4     -0.15      0.00 
    4   11    5      1.08      0.00 
    4   11    6     -0.71      0.00 
    4   11    7      0.62      0.00 
    4   11    8      0.29      0.00 
    4   11    9      0.06      0.00 
    4   11   10     -1.02      0.00 
    4   11   11      0.75      0.00 
    4   11   12     -0.09      0.00 
    4   11   13      0.04      0.00 
    4   11   14      0.11      0.00 
    4   11   15     -0.70      0.00 
    5   11    0      1.09      0.00 
    5   11    1     -0.90      0.00 
    5   11    2      1.67      0.00 
    5   11    3     -1.63      0.00 
    5   11    4      0.10      0.00 
    5   11    5      0.24      0.00 
    5   11    6      0.65      0.00 
    5   11    7     -1.34      0.00 
    5   11    8     -0.03      0.00 
    5   11    9      0.73      0.00 
    5   11   10     -0.63      0.00 
    5   11   11      1.05      0.00 
    5   11   12      0.25      0.00 
    5   11   13     -0.38      0.00 
    5   11   14     -0.41      0.00 
    6   11    1      2.03      0.00 
    6   11    2     -1.13      0.00 
    6   11    3      0.53      0.00 
    6   11    4     -0.97      0.00 
    6   11    5      0.72      0.00 
    6   11    6      0.50      0.00 
    6   11    7      0.26      0.00 
    6   11    8     -1.13      0.00 
    6   11    9     -0.74      0.00 
    6   11   10      0.94      0.00 
    6   11   11      0.40      0.00 
    6   11   12     -0.40      0.00 
    6   11   13     -0.76      0.00 
    6   11   14      1.30      0.00 
    7   11    0     -0.93      0.00 
    7   11    1      1.66      0.00 
    7   11    2     -2.35      0.00 
    7   11    3     -0.14      0.00 
    7   11    4      2.48      0.00 
    7   11    5     -1.23      0.00 
    7   11    6     -0.04      0.00 
    7   11    7      0.67      0.00 
    7   11    8     -0.48      0.00 
    7   11    9     -0.18      0.00 
    7   11   10      0.32      0.00 
    7   11   11     -0.65      0.00 
    7   11   12      0.74      0.00 
    7   11   13     -0.71      0.00 
    7   11   14      0.25      0.00 
    8   11    1      0.47      0.00 
    8   11    2      0.16      0.00 
    8   11    3     -0.93      0.00 
    8   11    4      0.20      0.00 
    8   11    5      0.94      0.00 
    8   11    6     -1.67      0.00 
    8   11    7      0.89      0.00 
    8   11    8      0.17      0.00 
    8   11    9     -0.33      0.00 
    8   11   10      0.46      0.00 
    8   11   11      0.59      0.00 
    8   11   12     -0.36      0.00 
    8   11   13     -0.89      0.00 
    8   11   14      0.13      0.00 
    9   11    0      1.51      0.00 
    9   11    1      0.41      0.00 
    9   11    2     -0.68      0.00 
    9   11    3     -1.80      0.00 
    9   11    4      1.74      0.00 
    9   11    5     -0.66      0.00 
    9   11    6      1.01      0.00 
    9   11    7     -1.09      0.00 
    9   11    8     -0.20      0.00 
    9   11    9      0.00      0.00 
    9   11   10      0.90      0.00 
    9   11   11     -0.01      0.00 
    9   11   12     -0.57      0.00 
    9   11   13     -0.03      0.00 
   10   11    1     -2.41      0.00 
   10   11    2      0.05      0.00 
   10   11    3      1.19      0.00 
   10   11    4      0.64      0.00 
   10   11    5     -0.91      0.00 
   10   11    6      0.79      0.00 
   10   11    7     -0.29      0.00 
   10   11    8     -1.15      0.00 
   10   11    9      0.57      0.00 
   10   11   10      0.25      0.00 
   10   11   11      0.69      0.00 
   10   11   12     -1.59      0.00 
   10   11   13      0.23      0.00 
   11   11    0     -0.04      0.00 
   11   11    1     -1.21      0.00 
   11   11    2      0.39      0.00 
   11   11    3      1.85      0.00 
   11   11    4      0.03      0.00 
   11   11    5     -2.15      0.00 
   11   11    6      1.38      0.00 
   11   11    7     -1.13      0.00 
   11   11    8      1.01      0.00 
   11   11    9      1.32      0.00 
   11   11   10     -1.83      0.00 
   11   11   11      0.56      0.00 
   11   11   12     -1.29      0.00 
    0   12    0      0.86      0.00 
    0   12    1     -0.07      0.00 
    0   12    2     -0.09      0.00 
    0   12    3      0.28      0.00 
    0   12    4      0.34      0.00 
    0   12    5     -2.53      0.00 
    0   12    6      2.27      0.00 
    0   12    7     -0.76      0.00 
    0   12    8     -1.29      0.00 
    0   12    9      2.21      0.00 
    0   12   10     -0.47      0.00 
    0   12   11     -0.51      0.00 
    0   12   12      0.57      0.00 
    0   12   13     -0.69      0.00 
    0   12   14      1.52      0.00 
    1   12    1      1.21      0.00 
    1   12    2      1.58      0.00 
    1   12    3     -2.20      0.00 
    1   12    4      0.72      0.00 
    1   12    5      0.33      0.00 
    1   12    6      0.05      0.00 
    1   12    7     -0.30      0.00 
    1   12    8     -0.71      0.00 
    1   12    9      0.60      0.00 
    1   12   10     -0.75      0.00 
    1   12   11      0.96      0.00 
    1   12   12     -0.12      0.00 
    1   12   13     -0.77      0.00 
    1   12   14      1.48      0.00 
    2   12    0     -2.34      0.00 
    2   12    1      1.59      0.00 
    2   12    2     -0.45      0.00 
    2   12    3     -1.57      0.00 
    2   12    4      2.67      0.00 
    2   12    5     -1.41      0.00 
    2   12    6      0.34      0.00 
    2   12    7      0.31      0.00 
    2   12    8      0.26      0.00 
    2   12    9      0.02      0.00 
    2   12   10     -0.63      0.00 
    2   12   11     -1.12      0.00 
    2   12   12      1.73      0.00 
    2   12   13     -0.80      0.00 
    2   12   14     -0.58      0.00 
    3   12    1     -0.17      0.00 
    3   12    2     -0.55      0.00 
    3   12    3     -0.19      0.00 
    3   12    4      0.35      0.00 
    3   12    5     -0.58      0.00 
    3   12    6      0.54      0.00 
    3   12    7     -0.34      0.00 
    3   12    8      1.49      0.00 
    3   12    9     -0.52      0.00 
    3   12   10     -1.27      0.00 
    3   12   11      0.82      0.00 
    3   12   12      0.32      0.00 
    3   12   13     -0.62      0.00 
    3   12   14      0.61      0.00 
    4   12    0      1.50      0.00 
    4   12    1     -0.35      0.00 
    4   12    2     -0.14      0.00 
    4   12    3     -0.67      0.00 
    4   12    4      0.66      0.00 
    4   12    5     -0.36      0.00 
    4   12    6      0.58      0.00 
    4   12    7     -0.18      0.00 
    4   12    8     -1.53      0.00 
    4   12    9      0.35      0.00 
    4   12   10      1.53      0.00 
    4   12   11     -0.85      0.00 
    4   12   12      1.16      0.00 
    4   12   13     -1.04      0.00 
    4   12   14      0.62      0.00 
    5   12    1     -0.07      0.00 
    5   12    2      0.31      0.00 
    5   12    3     -0.52      0.00 
    5   12    4      1.59      0.00 
    5   12    5     -1.24      0.00 
    5   12    6      0.26      0.00 
    5   12    7      0.42      0.00 
    5   12    8     -0.92      0.00 
    5   12    9     -0.40      0.00 
    5   12   10      0.75      0.00 
    5   12   11      0.19      0.00 
    5   12   12      0.04      0.00 
    5   12   13     -0.82      0.00 
    5   12   14      0.73      0.00 
    6   12    0     -0.43      0.00 
    6   12    1      1.30      0.00 
    6   12    2     -2.51      0.00 
    6   12    3      1.35      0.00 
    6   12    4      0.28      0.00 
    6   12    5     -0.14      0.00 
    6   12    6     -0.27      0.00 
    6   12    7      0.61      0.00 
    6   12    8      0.34      0.00 
    6   12    9     -1.57      0.00 
    6   12   10      1.68      0.00 
    6   12   11     -1.10      0.00 
    6   12   12      0.28      0.00 
    6   12   13     -0.53      0.00 
    6   12   14      0.35      0.00 
    7   12    1     -2.57      0.00 
    7   12    2      1.56      0.00 
    7   12    3     -0.98      0.00 
    7   12    4      1.50      0.00 
    7   12    5     -0.80      0.00 
    7   12    6     -0.41      0.00 
    7   12    7      0.09      0.00 
    7   12    8     -0.39      0.00 
    7   12    9      1.31      0.00 
    7   12   10      0.12      0.00 
    7   12   11     -0.77      0.00 
    7   12   12      0.15      0.00 
    7   12   13      0.01      0.00 
    8   12    0      1.49      0.00 
    8   12    1     -1.64      0.00 
    8   12    2      1.66      0.00 
    8   12    3     -0.15      0.00 
    8   12    4     -0.96      0.00 
    8   12    5     -0.08      0.00 
    8   12    6      1.10      0.00 
    8   12    7     -1.28      0.00 
    8   12    8      0.22      0.00 
    8   12    9      0.41      0.00 
    8   12   10      0.30      0.00 
    8   12   11     -0.45      0.00 
    8   12   12      0.21      0.00 
    8   12   13     -0.26      0.00 
    9   12    1      0.14      0.00 
    9   12    2     -0.84      0.00 
    9   12    3      0.45      0.00 
    9   12    4      1.00      0.00 
    9   12    5     -1.04      0.00 
    9   12    6      0.97      0.00 
    9   12    7     -1.22      0.00 
    9   12    8      0.66      0.00 
    9   12    9     -0.04      0.00 
    9   12   10     -0.21      0.00 
    9   12   11      0.12      0.00 
    9   12   12     -0.76      0.00 
    9   12   13      0.40      0.00 
   10   12    0      1.75      0.00 
   10   12    1     -2.02      0.00 
   10   12    2     -0.59      0.00 
   10   12    3      4.06      0.00 
   10   12    4     -2.20      0.00 
   10   12    5     -0.87      0.00 
   10   12    6      0.27      0.00 
   10   12    7      0.39      0.00 
   10   12    8      0.66      0.00 
   10   12    9      0.36      0.00 
   10   12   10     -1.43      0.00 
   10   12   11      0.34      0.00 
   10   12   12     -0.35      0.00 
   11   12    1      2.00      0.00 
   11   12    2     -0.92      0.00 
   11   12    3     -0.02      0.00 
   11   12    4     -0.41      0.00 
   11   12    5     -0.68      0.00 
   11   12    6      1.26      0.00 
   11   12    7     -0.02      0.00 
   11   12    8     -0.83      0.00 
   11   12    9      0.72      0.00 
   11   12   10     -0.13      0.00 
   11   12   11      0.01      0.00 
   11   12   12      0.26      0.00 
   12   12    0      1.34      0.00 
   12   12    1     -0.33      0.00 
   12   12    2     -0.42      0.00 
   12   12    3      0.43      0.00 
   12   12    4     -1.24      0.00 
   12   12    5      1.68      0.00 
   12   12    6     -0.61      0.00 
   12   12    7     -0.46      0.00 
   12   12    8      0.22      0.00 
   12   12    9     -0.45      0.00 
   12   12   10      0.79      0.00 
   12   12   11      0.14      0.00 
    0   13    1      3.43      0.00 
    0   13    2     -1.99      0.00 
    0   13    3      0.49      0.00 
    0   13    4      0.91      0.00 
    0   13    5     -2.96      0.00 
    0   13    6      2.29      0.00 
    0   13    7      0.90      0.00 
    0   13    8     -1.86      0.00 
    0   13    9      1.26      0.00 
    0   13   10     -2.17      0.00 
    0   13   11      1.46      0.00 
    0   13   12     -0.22      0.00 
    0   13   13     -0.92      0.00 
    0   13   14      3.42      0.00 
    1   13    0     -2.57      0.00 
    1   13    1      1.39      0.00 
    1   13    2     -0.26      0.00 
    1   13    3     -0.66      0.00 
    1   13    4      0.46      0.00 
    1   13    5      0.50      0.00 
    1   13    6      0.56      0.00 
    1   13    7      0.27      0.00 
    1   13    8     -1.13      0.00 
    1   13    9      0.04      0.00 
    1   13   10     -0.49      0.00 
    1   13   11     -0.24      0.00 
    1   13   12      1.54      0.00 
    1   13   13      0.36      0.00 
    1   13   14     -2.35      0.00 
    2   13    1     -1.05      0.00 
    2   13    2     -0.16      0.00 
    2   13    3      0.64      0.00 
    2   13    4     -0.38      0.00 
    2   13    5     -0.42      0.00 
    2   13    6      1.09      0.00 
    2   13    7     -1.18      0.00 
    2   13    8      0.53      0.00 
    2   13    9      0.82      0.00 
    2   13   10     -0.89      0.00 
    2   13   11      0.69      0.00 
    2   13   12     -0.03      0.00 
    2   13   13     -0.73      0.00 
    2   13   14     -0.27      0.00 
    3   13    0      0.25      0.00 
    3   13    1      0.31      0.00 
    3   13    2     -0.36      0.00 
    3   13    3      0.67      0.00 
    3   13    4     -1.33      0.00 
    3   13    5      0.47      0.00 
    3   13    6      0.44      0.00 
    3   13    7     -0.34      0.00 
    3   13    8     -0.78      0.00 
    3   13    9      0.61      0.00 
    3   13   10      0.16      0.00 
    3   13   11      0.57      0.00 
    3   13   12     -0.45      0.00 
    3   13   13     -0.45      0.00 
    3   13   14      1.32      0.00 
    4   13    1      0.60      0.00 
    4   13    2      0.21      0.00 
    4   13    3     -0.89      0.00 
    4   13    4      0.74      0.00 
    4   13    5      0.63      0.00 
    4   13    6     -0.80      0.00 
    4   13    7      0.51      0.00 
    4   13    8     -0.99      0.00 
    4   13    9     -0.47      0.00 
    4   13   10      1.22      0.00 
    4   13   11     -0.15      0.00 
    4   13   12      0.12      0.00 
    4   13   13     -0.58      0.00 
    4   13   14      0.15      0.00 
    5   13    0     -1.15      0.00 
    5   13    1      0.56      0.00 
    5   13    2     -0.22      0.00 
    5   13    3      0.04      0.00 
    5   13    4      0.67      0.00 
    5   13    5     -0.90      0.00 
    5   13    6      0.24      0.00 
    5   13    7     -0.07      0.00 
    5   13    8      1.40      0.00 
    5   13    9     -1.12      0.00 
    5   13   10     -0.31      0.00 
    5   13   11      0.66      0.00 
    5   13   12     -0.59      0.00 
    5   13   13     -0.02      0.00 
    6   13    1     -1.91      0.00 
    6   13    2      2.13      0.00 
    6   13    3     -1.40      0.00 
    6   13    4     -0.39      0.00 
    6   13    5      1.07      0.00 
    6   13    6     -0.52      0.00 
    6   13    7      0.48      0.00 
    6   13    8     -0.95      0.00 
    6   13    9      0.58      0.00 
    6   13   10      1.04      0.00 
    6   13   11     -0.92      0.00 
    6   13   12      0.14      0.00 
    6   13   13     -0.71      0.00 
    7   13    0     -0.42      0.00 
    7   13    1     -0.56      0.00 
    7   13    2      1.58      0.00 
    7   13    3     -0.82      0.00 
    7   13    4      0.24      0.00 
    7   13    5     -0.41      0.00 
    7   13    6      0.59      0.00 
    7   13    7     -1.02      0.00 
    7   13    8     -0.28      0.00 
    7   13    9      1.72      0.00 
    7   13   10     -1.01      0.00 
    7   13   11     -0.03      0.00 
    7   13   12      0.16      0.00 
    7   13   13     -0.08      0.00 
    8   13    1      2.17      0.00 
    8   13    2      0.37      0.00 
    8   13    3     -1.25      0.00 
    8   13    4     -0.90      0.00 
    8   13    5      1.64      0.00 
    8   13    6     -0.64      0.00 
    8   13    7      0.23      0.00 
    8   13    8      0.29      0.00 
    8   13    9     -0.98      0.00 
    8   13   10      0.05      0.00 
    8   13   11      0.76      0.00 
    8   13   12     -0.42      0.00 
    8   13   13     -0.76      0.00 
    9   13    0      0.71      0.00 
    9   13    1      1.11      0.00 
    9   13    2     -3.41      0.00 
    9   13    3      2.04      0.00 
    9   13    4      0.41      0.00 
    9   13    5     -0.53      0.00 
    9   13    6     -0.34      0.00 
    9   13    7      0.55      0.00 
    9   13    8      0.06      0.00 
    9   13    9      0.01      0.00 
    9   13   10     -0.13      0.00 
    9   13   11      0.04      0.00 
    9   13   12     -1.04      0.00 
   10   13    1     -0.36      0.00 
   10   13    2      0.49      0.00 
   10   13    3     -0.31      0.00 
   10   13    4     -0.43      0.00 
   10   13    5      0.05      0.00 
   10   13    6      0.49      0.00 
   10   13    7      0.63      0.00 
   10   13    8     -1.62      0.00 
   10   13    9      0.83      0.00 
   10   13   10      0.23      0.00 
   10   13   11      0.05      0.00 
   10   13   12      0.14      0.00 
   11   13    0      0.41      0.00 
   11   13    1      0.25      0.00 
   11   13    2      0.45      0.00 
   11   13    3     -2.52      0.00 
   11   13    4      1.93      0.00 
   11   13    5      0.41      0.00 
   11   13    6     -0.27      0.00 
   11   13    7     -1.15      0.00 
   11   13    8      0.20      0.00 
   11   13    9      0.50      0.00 
   11   13   10      0.19      0.00 
   11   13   11      0.51      0.00 
   12   13    1     -0.57      0.00 
   12   13    2      0.34      0.00 
   12   13    3      0.89      0.00 
   12   13    4     -0.72      0.00 
   12   13    5     -0.69      0.00 
   12   13    6      1.11      0.00 
   12   13    7     -0.55      0.00 
   12   13    8      0.47      0.00 
   12   13    9     -0.17      0.00 
   12   13   10     -0.73      0.00 
   12   13   11      0.10      0.00 
   13   13    0      0.10      0.00 
   13   13    1      0.57      0.00 
   13   13    2     -0.84      0.00 
   13   13    3     -1.05      0.00 
   13   13    4      2.02      0.00 
   13   13    5     -0.87      0.00 
   13   13    6      0.88      0.00 
   13   13    7     -1.21      0.00 
   13   13    8     -0.18      0.00 
   13   13    9      1.65      0.00 
   13   13   10     -1.13      0.00 
    0   14    0     -0.59      0.00 
    0   14    1      0.91      0.00 
    0   14    2     -1.34      0.00 
    0   14    3      0.05      0.00 
    0   14    4      0.11      0.00 
    0   14    5      0.38      0.00 
    0   14    6      1.90      0.00 
    0   14    7     -1.03      0.00 
    0   14    8     -1.88      0.00 
    0   14    9      2.04      0.00 
    0   14   10     -1.52      0.00 
    0   14   11     -0.66      0.00 
    0   14   12      1.92      0.00 
    0   14   13      0.67      0.00 
    1   14    1     -2.94      0.00 
    1   14    2      1.84      0.00 
    1   14    3     -0.86      0.00 
    1   14    4      0.00      0.00 
    1   14    5      1.48      0.00 
    1   14    6     -1.08      0.00 
    1   14    7     -0.77      0.00 
    1   14    8      1.06      0.00 
    1   14    9     -0.54      0.00 
    1   14   10      0.70      0.00 
    1   14   11     -0.18      0.00 
    1   14   12      0.53      0.00 
    1   14   13     -0.04      0.00 
    2   14    0      1.85      0.00 
    2   14    1     -0.37      0.00 
    2   14    2     -0.26      0.00 
    2   14    3     -0.51      0.00 
    2   14    4      0.36      0.00 
    2   14    5     -0.08      0.00 
    2   14    6     -0.04      0.00 
    2   14    7     -0.84      0.00 
    2   14    8      0.48      0.00 
    2   14    9      0.44      0.00 
    2   14   10      0.40      0.00 
    2   14   11      0.15      0.00 
    2   14   12     -1.00      0.00 
    2   14   13     -0.96      0.00 
    3   14    1     -0.29      0.00 
    3   14    2      0.59      0.00 
    3   14    3     -0.97      0.00 
    3   14    4      1.12      0.00 
    3   14    5      0.18      0.00 
    3   14    6     -0.83      0.00 
    3   14    7      0.42      0.00 
    3   14    8      0.11      0.00 
    3   14    9     -1.05      0.00 
    3   14   10      0.80      0.00 
    3   14   11     -0.41      0.00 
    3   14   12      0.42      0.00 
    3   14   13     -0.15      0.00 
    4   14    0      0.85      0.00 
    4   14    1     -1.12      0.00 
    4   14    2      0.86      0.00 
    4   14    3     -0.95      0.00 
    4   14    4      1.54      0.00 
    4   14    5     -0.92      0.00 
    4   14    6      0.08      0.00 
    4   14    7      0.12      0.00 
    4   14    8      0.31      0.00 
    4   14    9     -0.61      0.00 
    4   14   10      0.88      0.00 
    4   14   11     -0.98      0.00 
    4   14   12      0.67      0.00 
    4   14   13     -0.61      0.00 
    5   14    1     -2.07      0.00 
    5   14    2      1.87      0.00 
    5   14    3     -0.98      0.00 
    5   14    4      0.58      0.00 
    5   14    5     -0.77      0.00 
    5   14    6      0.47      0.00 
    5   14    7     -0.21      0.00 
    5   14    8      0.07      0.00 
    5   14    9      0.29      0.00 
    5   14   10      0.58      0.00 
    5   14   11     -0.75      0.00 
    5   14   12     -0.02      0.00 
    5   14   13     -0.37      0.00 
    6   14    0     -0.21      0.00 
    6   14    1      0.36      0.00 
    6   14    2      0.01      0.00 
    6   14    3     -0.79      0.00 
    6   14    4      0.58      0.00 
    6   14    5      0.71      0.00 
    6   14    6     -0.81      0.00 
    6   14    7      0.05      0.00 
    6   14    8     -1.45      0.00 
    6   14    9      1.89      0.00 
    6   14   10      0.67      0.00 
    6   14   11     -2.23      0.00 
    6   14   12      1.24      0.00 
    6   14   13     -0.46      0.00 
    7   14    1      1.87      0.00 
    7   14    2     -0.95      0.00 
    7   14    3     -0.10      0.00 
    7   14    4      0.77      0.00 
    7   14    5     -0.65      0.00 
    7   14    6     -0.33      0.00 
    7   14    7      0.22      0.00 
    7   14    8      0.90      0.00 
    7   14    9     -0.71      0.00 
    7   14   10     -0.29      0.00 
    7   14   11     -0.29      0.00 
    7   14   12      0.59      0.00 
    8   14    0      1.07      0.00 
    8   14    1      1.05      0.00 
    8   14    2     -3.11      0.00 
    8   14    3      1.27      0.00 
    8   14    4      0.69      0.00 
    8   14    5     -0.73      0.00 
    8   14    6      0.10      0.00 
    8   14    7      0.99      0.00 
    8   14    8     -1.02      0.00 
    8   14    9     -0.05      0.00 
    8   14   10      1.21      0.00 
    8   14   11     -1.47      0.00 
    8   14   12      0.41      0.00 
    9   14    1     -1.85      0.00 
    9   14    2     -1.01      0.00 
    9   14    3      1.39      0.00 
    9   14    4      1.22      0.00 
    9   14    5     -1.75      0.00 
    9   14    6      0.85      0.00 
    9   14    7     -0.53      0.00 
    9   14    8     -0.01      0.00 
    9   14    9      0.62      0.00 
    9   14   10      0.10      0.00 
    9   14   11     -0.92      0.00 
    9   14   12      0.59      0.00 
   10   14    0     -0.70      0.00 
   10   14    1     -0.04      0.00 
   10   14    2      1.12      0.00 
   10   14    3     -1.30      0.00 
   10   14    4      1.30      0.00 
   10   14    5     -0.84      0.00 
   10   14    6      0.19      0.00 
   10   14    7     -0.42      0.00 
   10   14    8     -0.09      0.00 
   10   14    9      0.77      0.00 
   10   14   10     -0.38      0.00 
   10   14   11     -0.29      0.00 
   11   14    1     -0.49      0.00 
   11   14    2     -0.31      0.00 
   11   14    3      1.70      0.00 
   11   14    4     -0.30      0.00 
   11   14    5     -1.46      0.00 
   11   14    6      0.42      0.00 
   11   14    7      0.46      0.00 
   11   14    8      0.25      0.00 
   11   14    9     -0.11      0.00 
   11   14   10     -0.61      0.00 
   11   14   11     -0.21      0.00 
   12   14    0     -0.91      0.00 
   12   14    1      0.76      0.00 
   12   14    2     -1.07      0.00 
   12   14    3      1.41      0.00 
   12   14    4     -0.88      0.00 
   12   14    5     -0.30      0.00 
   12   14    6      1.26      0.00 
   12   14    7     -0.86      0.00 
   12   14    8     -0.05      0.00 
   12   14    9      0.63      0.00 
   12   14   10     -0.28      0.00 
   13   14    1     -0.08      0.00 
   13   14    2     -0.51      0.00 
   13   14    3     -0.08      0.00 
   13   14    4      1.36      0.00 
   13   14    5     -1.14      0.00 
   13   14    6     -0.43      0.00 
   13   14    7      0.67      0.00 
   13   14    8     -0.24      0.00 
   13   14    9      1.15      0.00 
   14   14    0      0.13      0.00 
   14   14    1     -0.21      0.00 
   14   14    2      0.63      0.00 
   14   14    3      0.26      0.00 
   14   14    4     -1.40      0.00 
   14   14    5     -0.13      0.00 
   14   14    6      1.14      0.00 
   14   14    7     -0.17      0.00 
   14   14    8      0.43      0.00 
    0   15    1     -1.79      0.00 
    0   15    2     -0.55      0.00 
    0   15    3      0.40      0.00 
    0   15    4      0.80      0.00 
    0   15    5     -0.03      0.00 
    0   15    6     -0.44      0.00 
    0   15    7      0.82      0.00 
    0   15    8     -1.05      0.00 
    0   15    9      0.39      0.00 
    0   15   10     -0.28      0.00 
    0   15   11      0.43      0.00 
    0   15   12      0.49      0.00 
    0   15   13      0.16      0.00 
    1   15    0     -0.84      0.00 
    1   15    1      0.49      0.00 
    1   15    2      0.60      0.00 
    1   15    3     -0.73      0.00 
    1   15    4      0.13      0.00 
    1   15    5      0.23      0.00 
    1   15    6     -0.74      0.00 
    1   15    7      0.05      0.00 
    1   15    8      0.28      0.00 
    1   15    9     -0.43      0.00 
    1   15   10      1.13      0.00 
    1   15   11      0.29      0.00 
    1   15   12     -1.11      0.00 
    1   15   13     -0.54      0.00 
    2   15    1      0.26      0.00 
    2   15    2     -0.58      0.00 
    2   15    3      0.68      0.00 
    2   15    4      0.51      0.00 
    2   15    5     -0.78      0.00 
    2   15    6      0.46      0.00 
    2   15    7     -0.88      0.00 
    2   15    8      0.12      0.00 
    2   15    9      1.26      0.00 
    2   15   10     -1.19      0.00 
    2   15   11      0.22      0.00 
    2   15   12     -0.39      0.00 
    2   15   13      0.19      0.00 
    3   15    0     -2.76      0.00 
    3   15    1      0.81      0.00 
    3   15    2      0.11      0.00 
    3   15    3      1.41      0.00 
    3   15    4     -0.89      0.00 
    3   15    5     -0.44      0.00 
    3   15    6      0.23      0.00 
    3   15    7      0.61      0.00 
    3   15    8     -0.44      0.00 
    3   15    9      0.26      0.00 
    3   15   10     -0.41      0.00 
    3   15   11     -0.50      0.00 
    3   15   12      1.41      0.00 
    3   15   13     -0.58      0.00 
    4   15    1      0.00      0.00 
    4   15    2      0.23      0.00 
    4   15    3     -0.11      0.00 
    4   15    4     -0.08      0.00 
    4   15    5     -0.35      0.00 
    4   15    6      0.59      0.00 
    4   15    7     -1.16      0.00 
    4   15    8      1.08      0.00 
    4   15    9      0.19      0.00 
    4   15   10     -0.17      0.00 
    4   15   11      0.23      0.00 
    4   15   12     -0.69      0.00 
    5   15    0     -1.82      0.00 
    5   15    1      1.20      0.00 
    5   15    2      0.24      0.00 
    5   15    3     -0.98      0.00 
    5   15    4      0.99      0.00 
    5   15    5     -0.74      0.00 
    5   15    6      0.13      0.00 
    5   15    7     -0.08      0.00 
    5   15    8     -0.27      0.00 
    5   15    9      0.97      0.00 
    5   15   10     -0.21      0.00 
    5   15   11     -1.21      0.00 
    5   15   12      0.78      0.00 
    6   15    1      1.61      0.00 
    6   15    2     -0.80      0.00 
    6   15    3      0.09      0.00 
    6   15    4     -0.32      0.00 
    6   15    5      0.29      0.00 
    6   15    6     -0.17      0.00 
    6   15    7      0.22      0.00 
    6   15    8      0.52      0.00 
    6   15    9     -0.58      0.00 
    6   15   10     -0.65      0.00 
    6   15   11      0.21      0.00 
    6   15   12      0.54      0.00 
    7   15    0      1.00      0.00 
    7   15    1     -0.73      0.00 
    7   15    2     -0.06      0.00 
    7   15    3      0.47      0.00 
    7   15    4      0.29      0.00 
    7   15    5     -1.74      0.00 
    7   15    6      1.58      0.00 
    7   15    7      0.18      0.00 
    7   15    8      0.06      0.00 
    7   15    9     -1.15      0.00 
    7   15   10      0.60      0.00 
    7   15   11      0.02      0.00 
    7   15   12      0.19      0.00 
    8   15    1     -2.21      0.00 
    8   15    2      1.57      0.00 
    8   15    3     -0.70      0.00 
    8   15    4     -0.27      0.00 
    8   15    5      0.85      0.00 
    8   15    6      0.12      0.00 
    8   15    7     -0.68      0.00 
    8   15    8     -0.10      0.00 
    8   15    9      0.52      0.00 
    8   15   10     -0.36      0.00 
    8   15   11      0.53      0.00 
    9   15    0     -1.22      0.00 
    9   15    1      0.17      0.00 
    9   15    2      1.13      0.00 
    9   15    3     -0.81      0.00 
    9   15    4      0.16      0.00 
    9   15    5      0.48      0.00 
    9   15    6     -0.88      0.00 
    9   15    7      0.05      0.00 
    9   15    8      0.31      0.00 
    9   15    9      0.13      0.00 
    9   15   10     -0.27      0.00 
    9   15   11     -0.18      0.00 
   10   15    1     -0.54      0.00 
   10   15    2      1.96      0.00 
   10   15    3     -0.61      0.00 
   10   15    4     -0.66      0.00 
   10   15    5      0.00      0.00 
   10   15    6     -0.35      0.00 
   10   15    7      1.19      0.00 
   10   15    8     -0.82      0.00 
   10   15    9      0.22      0.00 
   10   15   10     -0.47      0.00 
   10   15   11      0.47      0.00 
   11   15    0      0.00      0.00 
   11   15    1     -0.14      0.00 
   11   15    2     -0.12      0.00 
   11   15    3      1.20      0.00 
   11   15    4     -2.49      0.00 
   11   15    5      2.17      0.00 
   11   15    6     -0.48      0.00 
   11   15    7      0.11      0.00 
   11   15    8     -0.46      0.00 
   11   15    9      0.22      0.00 
   11   15   10      0.35      0.00 
   12   15    1      0.84      0.00 
   12   15    2     -0.06      0.00 
   12   15    3     -1.45      0.00 
   12   15    4      1.08      0.00 
   12   15    5     -0.35      0.00 
   12   15    6      0.71      0.00 
   12   15    7     -0.96      0.00 
   12   15    8      0.34      0.00 
   12   15    9      1.09      0.00 
   13   15    0      1.47      0.00 
   13   15    1     -0.64      0.00 
   13   15    2      0.35      0.00 
   13   15    3     -0.49      0.00 
   13   15    4     -0.45      0.00 
   13   15    5      0.51      0.00 
   13   15    6     -0.21      0.00 
   13   15    7      0.57      0.00 
   13   15    8     -0.23      0.00 
   13   15    9     -0.79      0.00 
   14   15    1     -0.58      0.00 
   14   15    2     -0.25      0.00 
   14   15    3      0.50      0.00 
   14   15    4      0.17      0.00 
   14   15    5      0.17      0.00 
   14   15    6     -0.11      0.00 
   14   15    7     -0.15      0.00 
   15   15    0      0.16      0.00 
   15   15    1     -0.82      0.00 
   15   15    2      0.27      0.00 
   15   15    3      1.07      0.00 
   15   15    4     -0.43      0.00 
   15   15    5      0.00      0.00 
   15   15    6     -0.29      0.00 
    0   16    0     -1.97      0.00 
    0   16    1      1.14      0.00 
    0   16    2      0.27      0.00 
    0   16    3     -0.45      0.00 
    0   16    4     -0.28      0.00 
    0   16    5      0.76      0.00 
    0   16    6      0.16      0.00 
    0   16    7     -1.22      0.00 
    0   16    8     -0.78      0.00 
    0   16    9      1.62      0.00 
    0   16   10      0.78      0.00 
    0   16   11     -0.92      0.00 
    0   16   12     -0.64      0.00 
    1   16    1      0.01      0.00 
    1   16    2      1.21      0.00 
    1   16    3     -0.01      0.00 
    1   16    4     -0.57      0.00 
    1   16    5      0.38      0.00 
    1   16    6     -0.10      0.00 
    1   16    7     -2.28      0.00 
    1   16    8      2.28      0.00 
    1   16    9      0.66      0.00 
    1   16   10     -0.99      0.00 
    1   16   11     -0.26      0.00 
    1   16   12      0.22      0.00 
    2   16    0     -0.55      0.00 
    2   16    1     -0.05      0.00 
    2   16    2     -0.39      0.00 
    2   16    3      1.58      0.00 
    2   16    4     -0.60      0.00 
    2   16    5     -0.73      0.00 
    2   16    6      0.54      0.00 
    2   16    7     -0.16      0.00 
    2   16    8      0.22      0.00 
    2   16    9      0.87      0.00 
    2   16   10     -1.40      0.00 
    2   16   11     -0.18      0.00 
    2   16   12      1.04      0.00 
    3   16    1      1.57      0.00 
    3   16    2     -0.96      0.00 
    3   16    3      0.33      0.00 
    3   16    4     -0.78      0.00 
    3   16    5      0.08      0.00 
    3   16    6      0.37      0.00 
    3   16    7     -0.36      0.00 
    3   16    8      1.36      0.00 
    3   16    9     -1.21      0.00 
    3   16   10     -0.06      0.00 
    3   16   11      0.44      0.00 
    3   16   12      0.05      0.00 
    4   16    0      1.72      0.00 
    4   16    1     -0.86      0.00 
    4   16    2      1.29      0.00 
    4   16    3     -3.02      0.00 
    4   16    4      2.32      0.00 
    4   16    5     -0.61      0.00 
    4   16    6      0.08      0.00 
    4   16    7     -0.28      0.00 
    4   16    8      0.21      0.00 
    4   16    9     -0.22      0.00 
    4   16   10      0.89      0.00 
    4   16   11     -1.21      0.00 
    4   16   12      0.05      0.00 
    5   16    1      0.80      0.00 
    5   16    2     -0.55      0.00 
    5   16    3      0.08      0.00 
    5   16    4     -0.29      0.00 
    5   16    5      0.00      0.00 
    5   16    6      0.45      0.00 
    5   16    7      0.51      0.00 
    5   16    8     -0.43      0.00 
    5   16    9     -0.50      0.00 
    5   16   10     -0.03      0.00 
    5   16   11     -0.35      0.00 
    6   16    0      1.38      0.00 
    6   16    1     -0.59      0.00 
    6   16    2     -0.64      0.00 
    6   16    3      0.88      0.00 
    6   16    4     -1.22      0.00 
    6   16    5      1.40      0.00 
    6   16    6     -0.53      0.00 
    6   16    7      0.46      0.00 
    6   16    8     -0.27      0.00 
    6   16    9     -1.12      0.00 
    6   16   10      1.14      0.00 
    6   16   11      0.04      0.00 
    7   16    1     -1.52      0.00 
    7   16    2      1.47      0.00 
    7   16    3     -1.30      0.00 
    7   16    4      0.75      0.00 
    7   16    5      0.54      0.00 
    7   16    6     -0.61      0.00 
    7   16    7     -0.51      0.00 
    7   16    8      0.25      0.00 
    7   16    9      0.26      0.00 
    7   16   10      0.36      0.00 
    7   16   11     -0.38      0.00 
    8   16    0     -1.49      0.00 
    8   16    1      1.83      0.00 
    8   16    2     -1.09      0.00 
    8   16    3     -0.55      0.00 
    8   16    4      0.15      0.00 
    8   16    5      1.90      0.00 
    8   16    6     -2.29      0.00 
    8   16    7      0.86      0.00 
    8   16    8     -0.75      0.00 
    8   16    9      0.91      0.00 
    8   16   10      0.48      0.00 
    8   16   11     -1.45      0.00 
    9   16    1      0.22      0.00 
    9   16    2     -0.23      0.00 
    9   16    3      0.48      0.00 
    9   16    4      0.41      0.00 
    9   16    5     -0.54      0.00 
    9   16    6     -0.85      0.00 
    9   16    7      0.99      0.00 
    9   16    8     -0.36      0.00 
    9   16    9      0.31      0.00 
    9   16   10      0.05      0.00 
   10   16    0     -0.06      0.00 
   10   16    1      0.15      0.00 
   10   16    2     -0.47      0.00 
   10   16    3      0.44      0.00 
   10   16    4     -0.45      0.00 
   10   16    5      0.58      0.00 
   10   16    6     -0.26      0.00 
   10   16    7      0.13      0.00 
   10   16    8     -0.03      0.00 
   10   16    9     -0.07      0.00 
   10   16   10      0.21      0.00 
   11   16    1      0.50      0.00 
   11   16    2     -1.12      0.00 
   11   16    3     -0.15      0.00 
   11   16    4      0.81      0.00 
   11   16    5     -0.13      0.00 
   11   16    6     -0.05      0.00 
   11   16    7     -0.22      0.00 
   11   16    8      0.09      0.00 
   11   16    9      1.07      0.00 
   12   16    0      0.04      0.00 
   12   16    1      0.68      0.00 
   12   16    2     -0.70      0.00 
   12   16    3     -0.60      0.00 
   12   16    4      1.71      0.00 
   12   16    5     -2.06      0.00 
   12   16    6      1.00      0.00 
   12   16    7     -0.03      0.00 
   12   16    8      0.42      0.00 
   12   16    9     -0.88      0.00 
   13   16    1     -1.33      0.00 
   13   16    2      0.21      0.00 
   13   16    3      0.79      0.00 
   13   16    4     -0.13      0.00 
   13   16    5      0.70      0.00 
   13   16    6     -1.69      0.00 
   13   16    7      1.77      0.00 
   14   16    0     -0.98      0.00 
   14   16    1     -0.07      0.00 
   14   16    2      0.26      0.00 
   14   16    3      0.49      0.00 
   14   16    4      0.56      0.00 
   14   16    5     -1.16      0.00 
   14   16    6      0.75      0.00 
   15   16    1     -0.07      0.00 
   15   16    2      0.93      0.00 
   15   16    3     -1.57      0.00 
   15   16    4      1.24      0.00 
   15   16    5     -1.56      0.00 
   16   16    0     -0.12      0.00 
   16   16    1      0.03      0.00 
   16   16    2      0.50      0.00 
   16   16    3     -0.99      0.00 
   16   16    4      0.68      0.00 
    0   17    1      0.73      0.00 
    0   17    2      0.96      0.00 
    0   17    3      0.21      0.00 
    0   17    4     -0.89      0.00 
    0   17    5      0.11      0.00 
    0   17    6      0.75      0.00 
    0   17    7     -3.86      0.00 
    0   17    8      3.63      0.00 
    0   17    9      0.97      0.00 
    0   17   10     -1.80      0.00 
    0   17   11     -0.82      0.00 
    1   17    0      0.51      0.00 
    1   17    1      0.03      0.00 
    1   17    2     -0.92      0.00 
    1   17    3      0.78      0.00 
    1   17    4      0.00      0.00 
    1   17    5     -0.09      0.00 
    1   17    6     -0.55      0.00 
    1   17    7      0.66      0.00 
    1   17    8      0.69      0.00 
    1   17    9     -0.47      0.00 
    1   17   10     -1.57      0.00 
    1   17   11      1.45      0.00 
    2   17    1      1.65      0.00 
    2   17    2     -2.51      0.00 
    2   17    3      1.07      0.00 
    2   17    4     -0.10      0.00 
    2   17    5     -0.43      0.00 
    2   17    6      0.52      0.00 
    2   17    7      0.29      0.00 
    2   17    8      0.32      0.00 
    2   17    9     -0.41      0.00 
    2   17   10     -0.92      0.00 
    2   17   11      0.75      0.00 
    3   17    0      0.18      0.00 
    3   17    1      0.42      0.00 
    3   17    2      0.09      0.00 
    3   17    3     -1.19      0.00 
    3   17    4      0.00      0.00 
    3   17    5      0.88      0.00 
    3   17    6     -0.23      0.00 
    3   17    7      0.10      0.00 
    3   17    8      0.07      0.00 
    3   17    9     -0.80      0.00 
    3   17   10      0.31      0.00 
    3   17   11      0.41      0.00 
    4   17    1     -0.59      0.00 
    4   17    2      0.17      0.00 
    4   17    3     -0.34      0.00 
    4   17    4      0.38      0.00 
    4   17    5      0.58      0.00 
    4   17    6     -0.40      0.00 
    4   17    7      0.01      0.00 
    4   17    8     -0.44      0.00 
    4   17    9      0.12      0.00 
    4   17   10      0.22      0.00 
    4   17   11     -0.05      0.00 
    5   17    0     -0.42      0.00 
    5   17    1      0.45      0.00 
    5   17    2     -1.37      0.00 
    5   17    3      2.43      0.00 
    5   17    4     -2.14      0.00 
    5   17    5      1.16      0.00 
    5   17    6     -0.33      0.00 
    5   17    7      0.02      0.00 
    5   17    8      0.39      0.00 
    5   17    9     -0.68      0.00 
    5   17   10     -0.29      0.00 
    5   17   11      1.14      0.00 
    6   17    1     -1.14      0.00 
    6   17    2      1.26      0.00 
    6   17    3     -1.16      0.00 
    6   17    4      0.77      0.00 
    6   17    5      0.88      0.00 
    6   17    6     -1.24      0.00 
    6   17    7     -0.93      0.00 
    6   17    8      1.05      0.00 
    6   17    9      0.58      0.00 
    6   17   10     -0.60      0.00 
    7   17    0      0.08      0.00 
    7   17    1     -0.18      0.00 
    7   17    2      0.78      0.00 
    7   17    3     -1.44      0.00 
    7   17    4      1.73      0.00 
    7   17    5     -1.09      0.00 
    7   17    6     -0.18      0.00 
    7   17    7      0.19      0.00 
    7   17    8      0.02      0.00 
    7   17    9      0.41      0.00 
    7   17   10      0.25      0.00 
    8   17    1     -0.14      0.00 
    8   17    2     -0.05      0.00 
    8   17    3      0.58      0.00 
    8   17    4     -0.51      0.00 
    8   17    5      0.32      0.00 
    8   17    6     -0.48      0.00 
    8   17    7      0.51      0.00 
    8   17    8     -0.40      0.00 
    8   17    9      0.61      0.00 
    9   17    0      0.46      0.00 
    9   17    1     -0.92      0.00 
    9   17    2      0.72      0.00 
    9   17    3     -0.22      0.00 
    9   17    4      0.72      0.00 
    9   17    5     -0.67      0.00 
    9   17    6     -0.22      0.00 
    9   17    7      0.21      0.00 
    9   17    8      1.04      0.00 
    9   17    9     -1.13      0.00 
   10   17    1     -1.23      0.00 
   10   17    2      1.02      0.00 
   10   17    3     -0.98      0.00 
   10   17    4      0.61      0.00 
   10   17    5     -0.08      0.00 
   10   17    6     -0.45      0.00 
   10   17    7      1.02      0.00 
   10   17    8     -0.56      0.00 
   11   17    0     -0.33      0.00 
   11   17    1      0.16      0.00 
   11   17    2      0.32      0.00 
   11   17    3     -0.19      0.00 
   11   17    4      0.42      0.00 
   11   17    5     -1.19      0.00 
   11   17    6      0.12      0.00 
   11   17    7      1.19      0.00 
   12   17    1     -0.61      0.00 
   12   17    2      0.82      0.00 
   12   17    3     -0.13      0.00 
   12   17    4      0.11      0.00 
   12   17    5     -0.25      0.00 
   12   17    6     -0.16      0.00 
   12   17    7      0.88      0.00 
   13   17    0      0.43      0.00 
   13   17    1     -1.17      0.00 
   13   17    2      1.04      0.00 
   13   17    3      0.14      0.00 
   13   17    4     -0.41      0.00 
   13   17    5      0.49      0.00 
   13   17    6     -0.02      0.00 
   14   17    1      0.16      0.00 
   14   17    2      0.16      0.00 
   14   17    3     -0.59      0.00 
   14   17    4      0.88      0.00 
   14   17    5     -2.05      0.00 
   15   17    0      0.38      0.00 
   15   17    1     -0.52      0.00 
   15   17    2      0.79      0.00 
   15   17    3     -0.25      0.00 
   15   17    4     -0.87      0.00 
    0   18    0      1.82      0.00 
    0   18    1     -0.34      0.00 
    0   18    2     -0.73      0.00 
    0   18    3     -1.88      0.00 
    0   18    4      2.56      0.00 
    0   18    5      0.83      0.00 
    0   18    6     -1.47      0.00 
    0   18    7     -0.52      0.00 
    0   18    8      1.12      0.00 
    0   18    9      0.05      0.00 
    0   18   10     -1.87      0.00 
    0   18   11      1.74      0.00 
    1   18    1     -0.27      0.00 
    1   18    2     -2.12      0.00 
    1   18    3      1.28      0.00 
    1   18    4      0.64      0.00 
    1   18    5     -0.14      0.00 
    1   18    6     -1.42      0.00 
    1   18    7      2.47      0.00 
    1   18    8     -1.14      0.00 
    1   18    9     -0.13      0.00 
    1   18   10     -0.68      0.00 
    1   18   11      1.30      0.00 
    2   18    0      0.63      0.00 
    2   18    1     -0.38      0.00 
    2   18    2      0.45      0.00 
    2   18    3     -0.20      0.00 
    2   18    4     -0.44      0.00 
    2   18    5     -0.32      0.00 
    2   18    6      0.98      0.00 
    2   18    7     -0.77      0.00 
    2   18    8      0.76      0.00 
    2   18    9     -0.62      0.00 
    2   18   10     -0.02      0.00 
    2   18   11      0.30      0.00 
    3   18    1     -0.22      0.00 
    3   18    2      0.01      0.00 
    3   18    3      0.01      0.00 
    3   18    4      0.40      0.00 
    3   18    5      0.22      0.00 
    3   18    6     -0.55      0.00 
    3   18    7      0.39      0.00 
    3   18    8     -0.93      0.00 
    3   18    9      0.12      0.00 
    3   18   10      0.74      0.00 
    4   18    0      0.02      0.00 
    4   18    1     -0.02      0.00 
    4   18    2     -0.80      0.00 
    4   18    3      1.41      0.00 
    4   18    4     -0.23      0.00 
    4   18    5     -0.62      0.00 
    4   18    6      0.31      0.00 
    4   18    7     -0.51      0.00 
    4   18    8      0.79      0.00 
    4   18    9     -0.30      0.00 
    4   18   10      0.17      0.00 
    5   18    1      0.21      0.00 
    5   18    2      0.03      0.00 
    5   18    3     -0.12      0.00 
    5   18    4      0.30      0.00 
    5   18    5     -0.66      0.00 
    5   18    6      0.88      0.00 
    5   18    7     -1.35      0.00 
    5   18    8      0.92      0.00 
    5   18    9      0.54      0.00 
    5   18   10     -0.97      0.00 
    6   18    0     -0.27      0.00 
    6   18    1      0.22      0.00 
    6   18    2      0.43      0.00 
    6   18    3     -1.68      0.00 
    6   18    4      2.05      0.00 
    6   18    5     -0.68      0.00 
    6   18    6     -0.49      0.00 
    6   18    7     -0.09      0.00 
    6   18    8      0.41      0.00 
    6   18    9     -0.21      0.00 
    7   18    1     -0.16      0.00 
    7   18    2     -0.12      0.00 
    7   18    3      0.67      0.00 
    7   18    4     -0.44      0.00 
    7   18    5     -0.45      0.00 
    7   18    6      0.16      0.00 
    7   18    7      1.13      0.00 
    7   18    8     -0.79      0.00 
    7   18    9     -0.31      0.00 
    8   18    0     -1.49      0.00 
    8   18    1      1.18      0.00 
    8   18    2     -0.70      0.00 
    8   18    3      0.02      0.00 
    8   18    4      0.17      0.00 
    8   18    5      0.68      0.00 
    8   18    6     -1.07      0.00 
    8   18    7      0.33      0.00 
    8   18    8      0.94      0.00 
    9   18    1     -1.28      0.00 
    9   18    2      0.73      0.00 
    9   18    3     -0.52      0.00 
    9   18    4      0.82      0.00 
    9   18    5     -0.18      0.00 
    9   18    6     -1.41      0.00 
    9   18    7      1.86      0.00 
    9   18    8     -0.47      0.00 
   10   18    0     -1.09      0.00 
   10   18    1      0.45      0.00 
   10   18    2      0.60      0.00 
   10   18    3     -0.16      0.00 
   10   18    4     -0.15      0.00 
   10   18    5     -0.91      0.00 
   10   18    6      0.49      0.00 
   10   18    7      0.86      0.00 
   11   18    1      0.63      0.00 
   11   18    2     -0.04      0.00 
   11   18    3      0.21      0.00 
   11   18    4     -0.35      0.00 
   11   18    5     -0.38      0.00 
   11   18    6      0.96      0.00 
   11   18    7     -0.36      0.00 
   12   18    0      0.12      0.00 
   12   18    1     -0.59      0.00 
   12   18    2      0.67      0.00 
   12   18    3     -0.36      0.00 
   12   18    4     -0.14      0.00 
   12   18    5      0.59      0.00 
   12   18    6      0.79      0.00 
   13   18    1     -0.15      0.00 
   13   18    2      0.28      0.00 
   13   18    3     -0.34      0.00 
   13   18    4     -0.14      0.00 
   13   18    5      0.02      0.00 
   14   18    0     -1.50      0.00 
   14   18    1      1.39      0.00 
   14   18    2     -0.65      0.00 
   14   18    3      0.37      0.00 
   14   18    4     -0.97      0.00 
    0   19    1     -0.62      0.00 
    0   19    2     -2.65      0.00 
    0   19    3      2.66      0.00 
    0   19    4      0.73      0.00 
    0   19    5     -1.19      0.00 
    0   19    6     -1.09      0.00 
    0   19    7      0.95      0.00 
    0   19    8      1.40      0.00 
    0   19    9     -0.80      0.00 
    0   19   10     -0.90      0.00 
    1   19    0     -0.93      0.00 
    1   19    1      0.73      0.00 
    1   19    2     -0.87      0.00 
    1   19    3      3.58      0.00 
    1   19    4     -4.40      0.00 
    1   19    5     -0.11      0.00 
    1   19    6      1.73      0.00 
    1   19    7      0.11      0.00 
    1   19    8      0.00      0.00 
    1   19    9     -0.18      0.00 
    1   19   10     -0.42      0.00 
    2   19    1      0.74      0.00 
    2   19    2     -0.32      0.00 
    2   19    3      0.06      0.00 
    2   19    4      0.26      0.00 
    2   19    5     -0.44      0.00 
    2   19    6      1.12      0.00 
    2   19    7     -1.85      0.00 
    2   19    8      0.96      0.00 
    2   19    9     -0.67      0.00 
    2   19   10      1.09      0.00 
    3   19    0     -1.21      0.00 
    3   19    1      0.94      0.00 
    3   19    2     -1.48      0.00 
    3   19    3      2.28      0.00 
    3   19    4     -1.56      0.00 
    3   19    5      0.73      0.00 
    3   19    6     -0.37      0.00 
    3   19    7      0.18      0.00 
    3   19    8     -0.43      0.00 
    3   19    9      0.73      0.00 
    4   19    1     -0.44      0.00 
    4   19    2      0.62      0.00 
    4   19    3     -0.46      0.00 
    4   19    4     -0.03      0.00 
    4   19    5     -0.16      0.00 
    4   19    6      1.02      0.00 
    4   19    7     -1.90      0.00 
    4   19    8      1.96      0.00 
    4   19    9     -0.26      0.00 
    5   19    0     -0.92      0.00 
    5   19    1      0.28      0.00 
    5   19    2      0.48      0.00 
    5   19    3     -0.62      0.00 
    5   19    4      0.40      0.00 
    5   19    5      0.40      0.00 
    5   19    6     -0.61      0.00 
    5   19    7     -0.10      0.00 
    5   19    8      0.36      0.00 
    5   19    9     -0.35      0.00 
    6   19    1     -0.65      0.00 
    6   19    2      0.59      0.00 
    6   19    3      0.02      0.00 
    6   19    4     -0.41      0.00 
    6   19    5      0.80      0.00 
    6   19    6     -1.65      0.00 
    6   19    7      1.86      0.00 
    6   19    8     -0.44      0.00 
    7   19    0     -0.20      0.00 
    7   19    1     -0.16      0.00 
    7   19    2      0.47      0.00 
    7   19    3      0.27      0.00 
    7   19    4     -0.94      0.00 
    7   19    5      0.24      0.00 
    7   19    6      0.07      0.00 
    7   19    7      0.36      0.00 
    7   19    8      0.49      0.00 
    8   19    1     -0.36      0.00 
    8   19    2      0.10      0.00 
    8   19    3     -0.11      0.00 
    8   19    4     -0.39      0.00 
    8   19    5      1.63      0.00 
    8   19    6     -1.96      0.00 
    8   19    7      0.92      0.00 
    9   19    0     -0.12      0.00 
    9   19    1     -0.72      0.00 
    9   19    2      1.47      0.00 
    9   19    3     -0.27      0.00 
    9   19    4     -0.43      0.00 
    9   19    5     -0.38      0.00 
    9   19    6      0.12      0.00 
    9   19    7      0.66      0.00 
   10   19    1      0.98      0.00 
   10   19    2      0.28      0.00 
   10   19    3     -0.52      0.00 
   10   19    4     -0.31      0.00 
   10   19    5     -0.30      0.00 
   10   19    6      1.55      0.00 
   11   19    0      0.06      0.00 
   11   19    1     -0.58      0.00 
   11   19    2      1.07      0.00 
   11   19    3     -1.31      0.00 
   11   19    4      0.57      0.00 
   11   19    5      0.64      0.00 
   11   19    6      0.37      0.00 
   12   19    1      0.55      0.00 
   12   19    2     -0.04      0.00 
   12   19    3     -0.79      0.00 
   12   19    4      0.16      0.00 
   12   19    5      0.87      0.00 
   13   19    0     -0.81      0.00 
   13   19    1      1.50      0.00 
   13   19    2     -1.29      0.00 
   13   19    3     -0.01      0.00 
    0   20    0      1.19      0.00 
    0   20    1      0.15      0.00 
    0   20    2     -0.78      0.00 
    0   20    3      2.44      0.00 
    0   20    4     -5.01      0.00 
    0   20    5      2.00      0.00 
    0   20    6      0.80      0.00 
    0   20    7     -0.21      0.00 
    0   20    8      0.29      0.00 
    1   20    1      0.45      0.00 
    1   20    2      0.18      0.00 
    1   20    3     -1.16      0.00 
    1   20    4      1.02      0.00 
    1   20    5      0.61      0.00 
    1   20    6     -0.52      0.00 
    1   20    7     -0.38      0.00 
    1   20    8     -0.71      0.00 
    1   20    9      0.64      0.00 
    2   20    0      0.54      0.00 
    2   20    1     -1.17      0.00 
    2   20    2      0.99      0.00 
    2   20    3     -1.13      0.00 
    2   20    4      2.02      0.00 
    2   20    5     -0.26      0.00 
    2   20    6     -1.04      0.00 
    2   20    7      0.22      0.00 
    2   20    8      0.06      0.00 
    3   20    1     -0.41      0.00 
    3   20    2      0.57      0.00 
    3   20    3     -0.79      0.00 
    3   20    4      0.30      0.00 
    3   20    5      0.00      0.00 
    3   20    6     -0.01      0.00 
    3   20    7      0.26      0.00 
    3   20    8     -0.01      0.00 
    4   20    0     -0.28      0.00 
    4   20    1     -0.29      0.00 
    4   20    2      0.92      0.00 
    4   20    3     -1.22      0.00 
    4   20    4      1.60      0.00 
    4   20    5     -0.86      0.00 
    4   20    6     -0.32      0.00 
    4   20    7     -0.09      0.00 
    4   20    8      0.99      0.00 
    5   20    1      0.60      0.00 
    5   20    2     -0.03      0.00 
    5   20    3      0.03      0.00 
    5   20    4     -0.34      0.00 
    5   20    5      0.09      0.00 
    5   20    6     -0.38      0.00 
    5   20    7      0.96      0.00 
    5   20    8     -0.58      0.00 
    6   20    0      0.58      0.00 
    6   20    1      0.13      0.00 
    6   20    2     -0.53      0.00 
    6   20    3      0.46      0.00 
    6   20    4     -0.89      0.00 
    6   20    5      0.42      0.00 
    6   20    6      0.08      0.00 
    6   20    7     -0.11      0.00 
    7   20    1      0.28      0.00 
    7   20    2     -0.48      0.00 
    7   20    3      0.26      0.00 
    7   20    4     -0.56      0.00 
    7   20    5      1.06      0.00 
    7   20    6     -0.40      0.00 
    7   20    7     -0.40      0.00 
    8   20    0     -0.99      0.00 
    8   20    1      0.48      0.00 
    8   20    2      0.36      0.00 
    8   20    3     -0.88      0.00 
    8   20    4      0.76      0.00 
    8   20    5      0.49      0.00 
    8   20    6     -1.06      0.00 
    9   20    1      0.54      0.00 
    9   20    2      0.65      0.00 
    9   20    3     -1.26      0.00 
    9   20    4      1.18      0.00 
    9   20    5     -1.37      0.00 
    9   20    6      1.06      0.00 
   10   20    0     -0.28      0.00 
   10   20    1      0.02      0.00 
   10   20    2      0.61      0.00 
   10   20    3     -1.78      0.00 
   10   20    4      2.09      0.00 
   10   20    5     -1.07      0.00 
   11   20    1      1.07      0.00 
   11   20    2     -0.77      0.00 
   11   20    3     -0.38      0.00 
   11   20    4      0.45      0.00 
   12   20    1      1.66      0.00 
   12   20    2     -2.53      0.00 
    0   21    1     -0.58      0.00 
    0   21    2     -1.28      0.00 
    0   21    3     -0.05      0.00 
    0   21    4      2.92      0.00 
    0   21    5      0.26      0.00 
    0   21    6     -2.74      0.00 
    0   21    7     -0.17      0.00 
    1   21    0     -1.18      0.00 
    1   21    1     -0.69      0.00 
    1   21    2      0.21      0.00 
    1   21    3      1.38      0.00 
    1   21    4      1.61      0.00 
    1   21    5     -2.25      0.00 
    1   21    6     -0.18      0.00 
    1   21    7      0.86      0.00 
    2   21    1     -0.36      0.00 
    2   21    2      0.30      0.00 
    2   21    3      0.22      0.00 
    2   21    4     -0.71      0.00 
    2   21    5     -0.46      0.00 
    2   21    6      1.12      0.00 
    2   21    7     -0.59      0.00 
    3   21    0     -1.15      0.00 
    3   21    1      0.96      0.00 
    3   21    2     -0.82      0.00 
    3   21    3      1.35      0.00 
    3   21    4     -1.13      0.00 
    3   21    5     -0.06      0.00 
    3   21    6     -0.07      0.00 
    3   21    7      0.38      0.00 
    4   21    1     -0.04      0.00 
    4   21    2      0.61      0.00 
    4   21    3      0.26      0.00 
    4   21    4     -1.04      0.00 
    4   21    5      0.22      0.00 
    4   21    6      0.64      0.00 
    4   21    7     -1.08      0.00 
    5   21    0      0.21      0.00 
    5   21    1      0.38      0.00 
    5   21    2     -0.64      0.00 
    5   21    3      0.72      0.00 
    5   21    4     -1.81      0.00 
    5   21    5      1.48      0.00 
    5   21    6      0.11      0.00 
    6   21    1     -0.46      0.00 
    6   21    2     -0.08      0.00 
    6   21    3      0.04      0.00 
    6   21    4      0.14      0.00 
    6   21    5      0.96      0.00 
    6   21    6     -1.64      0.00 
    7   21    0     -1.63      0.00 
    7   21    1      0.45      0.00 
    7   21    2      0.81      0.00 
    7   21    3     -0.87      0.00 
    7   21    4      0.86      0.00 
    7   21    5     -0.04      0.00 
    8   21    1      0.99      0.00 
    8   21    2      0.10      0.00 
    8   21    3     -1.10      0.00 
    8   21    4      1.18      0.00 
    8   21    5     -0.81      0.00 
    9   21    0     -0.25      0.00 
    9   21    1      0.21      0.00 
    9   21    2     -0.01      0.00 
    9   21    3     -0.61      0.00 
    9   21    4      1.48      0.00 
   10   21    1      1.35      0.00 
   10   21    2     -1.45      0.00 
    0   22    0     -1.25      0.00 
    0   22    1     -0.85      0.00 
    0   22    2     -0.31      0.00 
    0   22    3      3.74      0.00 
    0   22    4     -0.70      0.00 
    0   22    5     -1.53      0.00 
    0   22    6     -1.15      0.00 
    1   22    1      0.31      0.00 
    1   22    2      0.93      0.00 
    1   22    3     -0.19      0.00 
    1   22    4     -2.15      0.00 
    1   22    5     -0.05      0.00 
    2   22    0     -0.83      0.00 
    2   22    1      0.67      0.00 
    2   22    2      0.83      0.00 
    2   22    3     -1.39      0.00 
    2   22    4     -0.37      0.00 
    2   22    5      1.16      0.00 
    3   22    1      0.47      0.00 
    3   22    2      0.61      0.00 
    3   22    3     -0.43      0.00 
    3   22    4     -0.33      0.00 
    3   22    5      0.01      0.00 
    4   22    0     -0.08      0.00 
    4   22    1      0.11      0.00 
    4   22    2      0.32      0.00 
    4   22    3     -0.73      0.00 
    4   22    4     -0.40      0.00 
    4   22    5      1.28      0.00 
    5   22    1      0.72      0.00 
    5   22    2     -0.29      0.00 
    5   22    3     -1.06      0.00 
    5   22    4      1.56      0.00 
    6   22    0     -0.29      0.00 
    6   22    1      0.21      0.00 
    6   22    2     -0.29      0.00 
    6   22    3      0.17      0.00 
    6   22    4      0.58      0.00 
    7   22    1      1.34      0.00 
    7   22    2     -0.11      0.00 
    8   22    0      0.81      0.00 
    8   22    1      0.25      0.00 
    0   23    1      0.06      0.00 
    0   23    2      0.11      0.00 
    1   23    0     -0.45      0.00 
    1   23    1      0.35      0.00 
    1   23    2      1.49      0.00 
    1   23    3     -2.63      0.00 
    2   23    1      0.56      0.00 
    2   23    2      0.32      0.00 
    2   23    3     -0.53      0.00 
    3   23    0      1.26      0.00 
    3   23    1     -0.59      0.00 
    3   23    2     -0.52      0.00 
    4   23    1     -0.04      0.00 
    4   23    2      0.47      0.00 
    1    1    0   -156.20      0.00 
   17   17    0     -0.89      0.00 
   16   18    0     -1.03      0.00 
   15   19    0      0.59      0.00 
   12   20    0     -0.03      0.00 
   14   20    0      0.11      0.00 
   11   21    0      0.45      0.00 
   10   22    0      0.94      0.00 
    5   23    0      1.62      0.00 
    7   23    0     -0.08      0.00 
    0    0    1   -231.71      0.00 
   16   17    1      0.22      0.00 
   17   17    1      0.70      0.00 
   15   18    1      0.23      0.00 
   16   18    1      1.24      0.00 
   14   19    1      0.17      0.00 
   15   19    1     -0.27      0.00 
   13   20    1     -1.06      0.00 
   14   20    1     -0.32      0.00 
   11   21    1      1.06      0.00 
   12   21    1     -1.37      0.00 
    9   22    1     -0.01      0.00 
   10   22    1      0.18      0.00 
   11   22    1     -1.20      0.00 
    5   23    1     -0.55      0.00 
    6   23    1     -0.29      0.00 
    7   23    1      0.32      0.00 
    8   23    1     -0.74      0.00 
   16   17    2      0.42      0.00 
   17   17    2     -0.18      0.00 
   15   18    2      1.01      0.00 
   16   18    2     -0.92      0.00 
   14   19    2      0.15      0.00 
   15   19    2     -0.07      0.00 
   13   20    2      0.46      0.00 
   14   20    2     -0.01      0.00 
   11   21    2     -1.99      0.00 
   12   21    2      0.46      0.00 
    8   22    2     -1.16      0.00 
    9   22    2     -0.50      0.00 
   10   22    2     -0.92      0.00 
    5   23    2     -0.79      0.00 
    6   23    2      0.10      0.00 
    7   23    2     -0.41      0.00 
    8   23    2     -0.15      0.00 
   16   17    3     -0.32      0.00 
   17   17    3      0.07      0.00 
   15   18    3     -1.36      0.00 
   16   18    3     -0.16      0.00 
   14   19    3     -0.53      0.00 
   15   19    3     -0.30      0.00 
   12   20    3      0.84      0.00 
   13   20    3      0.28      0.00 
   10   21    3      0.73      0.00 
   11   21    3      0.81      0.00 
   12   21    3      0.65      0.00 
    7   22    3     -1.04      0.00 
    8   22    3      0.18      0.00 
    9   22    3      0.58      0.00 
   10   22    3      0.19      0.00 
    0   23    3      0.11      0.00 
    3   23    3      0.56      0.00 
    4   23    3     -1.40      0.00 
    5   23    3      0.65      0.00 
    6   23    3     -0.17      0.00 
    7   23    3     -0.22      0.00 
   16   17    4      0.67      0.00 
   15   18    4      0.74      0.00 
   13   19    4      0.32      0.00 
   14   19    4      0.95      0.00 
   12   20    4      0.44      0.00 
   13   20    4      0.22      0.00 
   10   21    4     -0.46      0.00 
   11   21    4     -0.31      0.00 
    7   22    4      0.64      0.00 
    8   22    4      0.73      0.00 
    9   22    4     -0.21      0.00 
    0   23    4     -1.39      0.00 
    1   23    4      0.72      0.00 
    2   23    4      0.63      0.00 
    3   23    4     -0.53      0.00 
    4   23    4      1.57      0.00 
    5   23    4      0.18      0.00 
    6   23    4      0.08      0.00 
   16   16    5     -0.23      0.00 
   15   17    5      0.77      0.00 
   16   17    5     -1.16      0.00 
   14   18    5      0.76      0.00 
   15   18    5      0.03      0.00 
   13   19    5     -0.03      0.00 
   14   19    5     -0.42      0.00 
   11   20    5      0.41      0.00 
   12   20    5     -0.59      0.00 
    9   21    5     -1.97      0.00 
   10   21    5      0.31      0.00 
    5   22    5     -0.33      0.00 
    6   22    5     -0.31      0.00 
    7   22    5     -0.74      0.00 
    8   22    5     -0.76      0.00 
    0   23    5      0.27      0.00 
    1   23    5      0.24      0.00 
    2   23    5     -0.36      0.00 
    3   23    5      0.56      0.00 
    4   23    5     -0.51      0.00 
    5   23    5     -0.31      0.00 
   15   16    6      1.38      0.00 
   16   16    6      0.49      0.00 
   14   17    6      2.11      0.00 
   15   17    6      0.14      0.00 
   13   18    6      0.18      0.00 
   14   18    6     -0.06      0.00 
   12   19    6     -1.17      0.00 
   13   19    6     -0.45      0.00 
   10   20    6      0.85      0.00 
   11   20    6     -1.14      0.00 
    7   21    6     -0.69      0.00 
    8   21    6     -0.34      0.00 
    9   21    6      1.32      0.00 
    1   22    6      2.33      0.00 
    2   22    6     -1.29      0.00 
    3   22    6      0.57      0.00 
    4   22    6     -0.31      0.00 
    5   22    6     -0.95      0.00 
    6   22    6     -0.73      0.00 
    7   22    6      0.95      0.00 
    0   23    6      1.07      0.00 
    1   23    6      0.16      0.00 
    2   23    6     -0.19      0.00 
    3   23    6      0.57      0.00 
   15   15    7     -0.26      0.00 
   14   16    7     -1.14      0.00 
   15   16    7      0.52      0.00 
   16   16    7     -0.99      0.00 
   13   17    7     -0.67      0.00 
   14   17    7     -0.41      0.00 
   15   17    7     -0.36      0.00 
   12   18    7     -1.80      0.00 
   13   18    7      0.16      0.00 
   10   19    7     -1.05      0.00 
   11   19    7     -1.29      0.00 
   12   19    7      0.58      0.00 
    8   20    7      0.05      0.00 
    9   20    7     -0.16      0.00 
   10   20    7     -0.79      0.00 
    5   21    7     -0.66      0.00 
    6   21    7      0.88      0.00 
    7   21    7      0.40      0.00 
    8   21    7      1.13      0.00 
    0   22    7      2.30      0.00 
    1   22    7     -0.28      0.00 
    2   22    7      1.12      0.00 
    3   22    7     -0.63      0.00 
    4   22    7     -0.40      0.00 
    5   22    7      1.26      0.00 
   14   15    8     -0.97      0.00 
   15   15    8      0.90      0.00 
   13   16    8     -2.10      0.00 
   14   16    8      1.47      0.00 
   15   16    8     -1.41      0.00 
   11   17    8     -0.66      0.00 
   12   17    8     -1.48      0.00 
   13   17    8      0.33      0.00 
   14   17    8     -0.22      0.00 
   10   18    8     -0.90      0.00 
   11   18    8     -0.71      0.00 
   12   18    8      0.83      0.00 
    8   19    8     -0.07      0.00 
    9   19    8     -0.55      0.00 
   10   19    8     -0.19      0.00 
   11   19    8      0.48      0.00 
    6   20    8      0.93      0.00 
    7   20    8      0.19      0.00 
    8   20    8      0.30      0.00 
    9   20    8      0.00      0.00 
    0   21    8      1.13      0.00 
    1   21    8     -0.21      0.00 
    2   21    8      1.46      0.00 
    3   21    8      0.12      0.00 
    4   21    8      1.36      0.00 
    5   21    8      0.70      0.00 
    6   21    8     -0.09      0.00 
    0   22    8     -0.49      0.00 
    1   22    8     -0.14      0.00 
    2   22    8     -0.20      0.00 
   14   14    9     -1.60      0.00 
   14   15    9      1.63      0.00 
   15   15    9     -0.43      0.00 
   13   16    9      1.56      0.00 
   14   16    9     -0.51      0.00 
   10   17    9      0.37      0.00 
   11   17    9     -0.34      0.00 
   12   17    9      0.58      0.00 
    8   18    9     -1.30      0.00 
    9   18    9     -0.50      0.00 
   10   18    9     -0.04      0.00 
   11   18    9      0.30      0.00 
    6   19    9     -0.78      0.00 
    7   19    9     -1.19      0.00 
    8   19    9     -0.03      0.00 
    9   19    9      0.04      0.00 
    0   20    9      0.53      0.00 
    2   20    9      0.15      0.00 
    3   20    9      0.38      0.00 
    4   20    9     -1.13      0.00 
    5   20    9     -0.26      0.00 
    6   20    9     -1.08      0.00 
    7   20    9     -0.02      0.00 
    0   21    9     -0.24      0.00 
    1   21    9     -0.43      0.00 
    2   21    9     -1.45      0.00 
    3   21    9     -0.36      0.00 
    4   21    9     -1.05      0.00 
   13   14   10     -1.61      0.00 
   14   14   10      1.02      0.00 
   12   15   10     -1.76      0.00 
   13   15   10      0.39      0.00 
   14   15   10     -0.98      0.00 
   11   16   10     -1.39      0.00 
   12   16   10      0.13      0.00 
    8   17   10     -0.84      0.00 
    9   17   10     -0.01      0.00 
   10   17   10     -0.78      0.00 
   11   17   10      0.35      0.00 
    6   18   10      1.06      0.00 
    7   18   10      0.29      0.00 
    8   18   10      0.52      0.00 
    9   18   10      0.65      0.00 
    3   19   10     -0.44      0.00 
    4   19   10     -0.80      0.00 
    5   19   10      0.26      0.00 
    6   19   10      0.62      0.00 
    7   19   10      0.36      0.00 
    0   20   10     -1.61      0.00 
    1   20   10      0.13      0.00 
    2   20   10     -0.25      0.00 
    3   20   10     -1.06      0.00 
    4   20   10      0.58      0.00 
   13   13   11     -0.03      0.00 
   12   14   11     -0.81      0.00 
   13   14   11      1.02      0.00 
   11   15   11     -0.34      0.00 
   12   15   11      1.14      0.00 
    9   16   11     -0.78      0.00 
   10   16   11     -0.23      0.00 
   11   16   11      0.23      0.00 
    6   17   11      0.51      0.00 
    7   17   11     -1.28      0.00 
    8   17   11      0.48      0.00 
    9   17   11      0.20      0.00 
    3   18   11      0.38      0.00 
    4   18   11     -0.13      0.00 
    5   18   11      0.39      0.00 
    6   18   11     -1.69      0.00 
    7   18   11     -0.29      0.00 
    0   19   11      0.46      0.00 
    1   19   11      0.49      0.00 
    2   19   11     -0.54      0.00 
    3   19   11      0.08      0.00 
    4   19   11     -0.26      0.00 
   12   12   12     -1.30      0.00 
   11   13   12     -1.80      0.00 
   12   13   12      0.51      0.00 
   13   13   12      0.23      0.00 
   10   14   12      0.58      0.00 
   11   14   12      0.61      0.00 
   12   14   12      1.05      0.00 
    8   15   12     -0.30      0.00 
    9   15   12      0.68      0.00 
   10   15   12      0.20      0.00 
    5   16   12      0.95      0.00 
    6   16   12      0.08      0.00 
    7   16   12      0.25      0.00 
    8   16   12      1.05      0.00 
    9   16   12      0.78      0.00 
    0   17   12      1.47      0.00 
    1   17   12      0.38      0.00 
    2   17   12     -0.15      0.00 
    3   17   12     -0.28      0.00 
    4   17   12     -0.19      0.00 
    5   17   12     -0.13      0.00 
    6   17   12     -0.33      0.00 
    7   17   12      0.97      0.00 
    0   18   12      0.04      0.00 
    1   18   12     -0.99      0.00 
    2   18   12     -0.21      0.00 
    3   18   12     -0.66      0.00 
    4   18   12     -0.14      0.00 
   11   11   13      1.50      0.00 
   10   12   13      1.27      0.00 
   11   12   13     -0.46      0.00 
   12   12   13      1.52      0.00 
    9   13   13      1.34      0.00 
   10   13   13     -0.53      0.00 
   11   13   13      1.34      0.00 
    7   14   13     -0.14      0.00 
    8   14   13      0.09      0.00 
    9   14   13      0.33      0.00 
    4   15   13      0.03      0.00 
    5   15   13      0.19      0.00 
    6   15   13     -0.08      0.00 
    7   15   13     -0.15      0.00 
    8   15   13      0.03      0.00 
    0   16   13      0.76      0.00 
    1   16   13     -0.16      0.00 
    2   16   13     -0.53      0.00 
    3   16   13     -0.34      0.00 
    4   16   13      0.61      0.00 
    5   16   13     -0.20      0.00 
    6   16   13     -0.49      0.00 
    0   17   13     -0.20      0.00 
    1   17   13     -1.11      0.00 
    2   17   13      0.22      0.00 
   10   10   14     -0.43      0.00 
    9   11   14      0.54      0.00 
   10   11   14      1.38      0.00 
   11   11   14     -0.49      0.00 
    7   12   14     -0.52      0.00 
    8   12   14      0.37      0.00 
    9   12   14      1.06      0.00 
   10   12   14     -1.22      0.00 
    5   13   14     -0.19      0.00 
    6   13   14      0.48      0.00 
    7   13   14      0.54      0.00 
    8   13   14      1.45      0.00 
    0   14   14     -1.42      0.00 
    1   14   14     -2.22      0.00 
    2   14   14      2.47      0.00 
    3   14   14      0.45      0.00 
    4   14   14     -0.01      0.00 
    5   14   14      0.74      0.00 
    6   14   14      1.08      0.00 
    0   15   14     -1.14      0.00 
    1   15   14      0.70      0.00 
    2   15   14      0.92      0.00 
    3   15   14     -0.64      0.00 
    4   15   14      0.21      0.00 
    8    9   15      0.24      0.00 
    9    9   15      0.92      0.00 
    7   10   15      0.85      0.00 
    8   10   15      0.69      0.00 
    9   10   15      0.72      0.00 
    5   11   15     -0.59      0.00 
    6   11   15     -0.45      0.00 
    7   11   15      0.30      0.00 
    8   11   15      0.07      0.00 
    0   12   15     -2.24      0.00 
    1   12   15     -1.20      0.00 
    2   12   15      1.78      0.00 
    3   12   15     -0.80      0.00 
    4   12   15     -1.37      0.00 
    5   12   15      0.01      0.00 
    6   12   15      0.24      0.00 
    0   13   15     -2.89      0.00 
    1   13   15      1.59      0.00 
    2   13   15      0.56      0.00 
    3   13   15     -1.56      0.00 
    4   13   15      0.60      0.00 
    6    6   16     -0.99      0.00 
    5    7   16     -0.18      0.00 
    6    7   16     -0.45      0.00 
    7    7   16      1.55      0.00 
    3    8   16     -0.11      0.00 
    4    8   16     -0.18      0.00 
    5    8   16     -0.99      0.00 
    6    8   16      1.16      0.00 
    7    8   16      0.31      0.00 
    8    8   16     -0.09      0.00 
    0    9   16      1.63      0.00 
    1    9   16      0.22      0.00 
    2    9   16      0.68      0.00 
    3    9   16      0.45      0.00 
    4    9   16      0.63      0.00 
    5    9   16      0.53      0.00 
    6    9   16      1.39      0.00 
    7    9   16     -0.19      0.00 
    0   10   16      0.39      0.00 
    1   10   16      0.15      0.00 
    2   10   16      1.27      0.00 
    3   10   16      0.00      0.00 
    4   10   16     -0.43      0.00 
    5   10   16     -0.46      0.00 
    0   11   16      0.42      0.00 
    1   11   16      0.89      0.00 
    2   11   16      0.44      0.00 
    3   11   16     -1.12      0.00 
    0    0   17     -2.47      0.00 
    3    3   17     -0.54      0.00 
    2    4   17     -0.09      0.00 
    3    4   17      0.98      0.00 
    4    4   17      0.81      0.00 
    0    5   17      0.98      0.00 
    1    5   17      0.14      0.00 
    2    5   17      1.47      0.00 
    3    5   17     -0.44      0.00 
    4    5   17      0.24      0.00 
    5    5   17      1.03      0.00 
    0    6   17      0.96      0.00 
    1    6   17      0.37      0.00 
    2    6   17     -0.47      0.00 
    3    6   17     -0.71      0.00 
    4    6   17      2.12      0.00 
    5    6   17      0.21      0.00 
    6    6   17      0.37      0.00 
    0    7   17      0.39      0.00 
    1    7   17     -0.97      0.00 
    2    7   17     -0.37      0.00 
    3    7   17      0.83      0.00 
    4    7   17      0.39      0.00 
    0    8   17     -0.92      0.00 
    1    8   17      0.00      0.00 
    2    8   17      0.18      0.00 
    3    8   17      0.48      0.00 
    0    0    0      0.00      0.00 
# SQUEEZE RESULTS (Version =  71116) 
# Note: Data are Listed for all Voids in the P1 Unit Cell 
# i.e. Centre of Gravity, Solvent Accessible Volume, 
# Recovered number of Electrons in the Void and 
# Details about the Squeezed Material 
loop_ 
  _platon_squeeze_void_nr 
  _platon_squeeze_void_average_x 
  _platon_squeeze_void_average_y 
  _platon_squeeze_void_average_z 
  _platon_squeeze_void_volume 
  _platon_squeeze_void_count_electrons 
  _platon_squeeze_void_content 
   1  0.734  0.743  0.500      1638       373 ' ' 
# Missing Reflections Below sin(th)/lambda = 0.25 
loop_ 
  _platon_missing_refln_index_h 
  _platon_missing_refln_index_k 
  _platon_missing_refln_index_l 
  _platon_missing_refln_theta 
    1    1    0     3.316 
    0    0    1     3.187 
_platon_squeeze_void_probe_radius                  1.20 
_platon_squeeze_details 
) 
TITL shelxt_a.res in P4/nmm 
CELL   18.8487   18.8487   13.8659     90.00     90.00     90.00 
SPGR P4/nmm 
# Solvent Accessible Volume =      1642 
# Electrons Found in S.A.V. =       370 
# Note: Atoms in Void as Cxxx and Qxxx all others 
C101 0.750 0.756 0.234 !       1.26 eA-3 
C102 0.500 1.000 0.500 !       1.18 eA-3 
C103 0.864 0.863 0.692 !       1.09 eA-3 
C104 0.990 0.954 0.533 !       1.04 eA-3 
C105 0.063 0.070 0.344 !       1.02 eA-3 
C106 0.041 0.452 0.413 !       0.97 eA-3 
C107 0.862 0.597 0.684 !       0.90 eA-3 
C108 0.890 0.822 0.720 !       0.86 eA-3 
C109 0.250 0.246 0.422 !       0.86 eA-3 
C110 0.589 0.910 0.677 !       0.86 eA-3 
C111 0.556 0.571 0.525 !       0.80 eA-3 
C112 0.793 0.706 0.411 !       0.77 eA-3 
C113 0.857 0.564 0.630 !       0.77 eA-3 
C114 0.220 0.125 0.277 !       0.75 eA-3 
C115 0.275 0.219 0.288 !       0.75 eA-3 
Q116 0.250 0.719 0.274 !       0.72 eA-3 
C117 0.822 0.690 0.699 !       0.67 eA-3 
Q118 0.750 0.204 0.648 !       0.66 eA-3 
C119 0.780 0.755 0.390 !       0.60 eA-3 
C120 0.309 0.188 0.379 !       0.59 eA-3 
C121 0.301 0.251 0.671 !       0.59 eA-3 
Q122 0.750 0.752 0.094 !       0.58 eA-3 
Q123 0.060 0.063 0.872 !       0.58 eA-3 
Q124 0.099 0.324 0.623 !       0.58 eA-3 
C125 0.884 0.848 0.518 !       0.58 eA-3 
C126 0.750 0.757 0.438 !       0.57 eA-3 
C127 0.814 0.716 0.345 !       0.55 eA-3 
C128 0.751 0.574 0.689 !       0.55 eA-3 
Q129 0.250 0.654 0.289 !       0.55 eA-3 
Q130 0.536 0.961-0.004 !       0.53 eA-3 
Q131 0.250 0.763 0.787 !       0.51 eA-3 
) 
;
_shelx_fab_checksum              31325
loop_
_space_group_symop_operation_xyz
'x, y, z'
'-x+1/2, -y+1/2, z'
'-y+1/2, x, z'
'y, -x+1/2, z'
'-x, y+1/2, -z'
'x+1/2, -y, -z'
'y+1/2, x+1/2, -z'
'-y, -x, -z'
'-x, -y, -z'
'x-1/2, y-1/2, -z'
'y-1/2, -x, -z'
'-y, x-1/2, -z'
'x, -y-1/2, z'
'-x-1/2, y, z'
'-y-1/2, -x-1/2, z'
'y, x, z'
loop_
_atom_site_label
_atom_site_type_symbol
_atom_site_fract_x
_atom_site_fract_y
_atom_site_fract_z
_atom_site_U_iso_or_equiv
_atom_site_adp_type
_atom_site_occupancy
_atom_site_site_symmetry_order
_atom_site_calc_flag
_atom_site_refinement_flags_posn
_atom_site_refinement_flags_adp
_atom_site_refinement_flags_occupancy
Cu01 Cu 0.53470(4) 0.53470(4) 1.06851(7) 0.0444(4) Uani 1 2 d S TU P
O2 O 0.56070(17) 0.45562(18) 0.8755(2) 0.0536(8) Uani 1 1 d . U .
O1 O 0.61938(17) 0.51623(19) 0.9901(3) 0.0574(9) Uani 1 1 d . U .
C9 C 0.7500 0.2500 0.5541(5) 0.0379(16) Uani 1 4 d S TU P
C6 C 0.7500 0.3132(3) 0.7049(4) 0.0380(12) Uani 1 2 d S TU P
C8 C 0.7500 0.3141(3) 0.6046(4) 0.0420(13) Uani 1 2 d S TU P
C7 C 0.7500 0.2500 0.7547(5) 0.0376(16) Uani 1 4 d S TU P
C5 C 0.7500 0.3798(3) 0.7634(4) 0.0424(13) Uani 1 2 d S TU P
C3 C 0.6863(2) 0.4059(3) 0.7982(3) 0.0463(10) Uani 1 1 d . U .
H3 H 0.6427 0.3886 0.7731 0.056 Uiso 1 1 calc R U .
C4 C 0.7500 0.4809(4) 0.9071(5) 0.0488(14) Uani 1 2 d S TU P
H4 H 0.7500 0.5136 0.9592 0.059 Uiso 1 2 calc R U P
C2 C 0.6859(2) 0.4573(2) 0.8695(3) 0.0451(10) Uani 1 1 d . U .
C1 C 0.6159(3) 0.4786(3) 0.9150(4) 0.0507(11) Uani 1 1 d . U .
C10 C 0.7500 0.3839(4) 0.5514(5) 0.065(2) Uani 1 2 d S TU P
H10A H 0.7500 0.3750 0.4818 0.097 Uiso 1 2 calc R U P
H10B H 0.7075 0.4110 0.5690 0.097 Uiso 0.5 1 calc R U P
H10C H 0.7925 0.4110 0.5690 0.097 Uiso 0.5 1 calc R U P
C11 C 0.7500 0.2500 0.8646(7) 0.063(3) Uani 1 4 d S TU P
H11A H 0.7500 0.2010 0.8881 0.094 Uiso 0.5 2 calc R U P
H11B H 0.7925 0.2745 0.8881 0.094 Uiso 0.25 1 calc R U P
H11C H 0.7075 0.2745 0.8881 0.094 Uiso 0.25 1 calc R U P
N1 N 0.5968(3) 0.5968(3) 1.1765(5) 0.083(2) Uani 1 2 d S TU P
C21 C 0.5446(5) 0.6538(6) 1.2203(7) 0.069(2) Uani 0.5 1 d D U P
C26 C 0.5066(7) 0.6405(6) 1.3005(8) 0.086(4) Uani 0.5 1 d D U P
H26 H 0.5143 0.5966 1.3326 0.104 Uiso 0.5 1 calc R U P
C22 C 0.5268(6) 0.7140(5) 1.1728(7) 0.075(3) Uani 0.5 1 d D U P
H22 H 0.5510 0.7285 1.1161 0.090 Uiso 0.5 1 calc R U P
C23 C 0.4762(5) 0.7500 1.2076(6) 0.096(3) Uani 1 2 d DS TU P
H23 H 0.4565 0.7833 1.1637 0.115 Uiso 0.5 1 calc R U P
C24 C 0.4460(5) 0.7500 1.2919(6) 0.080(2) Uani 1 2 d DS TU P
H24 H 0.4193 0.7879 1.3187 0.095 Uiso 0.5 1 calc R U P
C25 C 0.4597(8) 0.6842(7) 1.3370(9) 0.102(5) Uani 0.5 1 d D U P
H25 H 0.4348 0.6716 1.3940 0.122 Uiso 0.5 1 calc R U P
C31 C 0.7006(8) 0.7006(8) 0.969(2) 0.206(15) Uani 0.5 2 d DS TU P
N2 N 0.656(2) 0.656(2) 0.978(5) 0.208(19) Uani 0.25 2 d S TU P
C32 C 0.7685(4) 0.6819(9) 0.9628(19) 0.221(12) Uani 0.5 1 d D U P
H32 H 0.7812 0.6332 0.9587 0.265 Uiso 0.5 1 calc R U P
loop_
_atom_site_aniso_label
_atom_site_aniso_U_11
_atom_site_aniso_U_22
_atom_site_aniso_U_33
_atom_site_aniso_U_23
_atom_site_aniso_U_13
_atom_site_aniso_U_12
Cu01 0.0393(4) 0.0393(4) 0.0546(6) -0.0119(3) -0.0119(3) 0.0138(4)
O2 0.0419(17) 0.0568(19) 0.0621(19) -0.0155(15) -0.0052(15) 0.0127(15)
O1 0.0458(18) 0.059(2) 0.067(2) -0.0204(17) -0.0026(16) 0.0106(15)
C9 0.040(4) 0.044(4) 0.030(4) 0.000 0.000 0.000
C6 0.023(2) 0.051(3) 0.041(3) -0.006(2) 0.000 0.000
C8 0.038(3) 0.050(3) 0.039(3) -0.004(2) 0.000 0.000
C7 0.025(3) 0.054(4) 0.034(3) 0.000 0.000 0.000
C5 0.037(3) 0.049(3) 0.041(3) -0.006(2) 0.000 0.000
C3 0.039(2) 0.049(2) 0.051(2) -0.0065(19) -0.0072(18) 0.0026(18)
C4 0.047(3) 0.041(3) 0.059(4) -0.007(3) 0.000 0.000
C2 0.044(2) 0.038(2) 0.053(2) -0.0065(18) -0.0028(19) 0.0059(17)
C1 0.045(2) 0.044(2) 0.063(3) -0.007(2) -0.006(2) 0.0103(19)
C10 0.093(6) 0.052(4) 0.050(3) 0.000(3) 0.000 0.000
C11 0.073(7) 0.080(8) 0.035(4) 0.000 0.000 0.000
N1 0.083(3) 0.083(3) 0.083(4) -0.031(3) -0.031(3) 0.001(4)
C21 0.065(6) 0.077(6) 0.065(5) -0.019(5) -0.012(4) -0.008(5)
C26 0.109(10) 0.080(8) 0.070(6) 0.004(6) -0.003(6) 0.017(7)
C22 0.084(8) 0.079(7) 0.062(6) -0.005(5) -0.004(5) -0.003(5)
C23 0.076(6) 0.136(9) 0.075(5) 0.000 0.001(5) 0.000
C24 0.079(6) 0.076(5) 0.084(5) 0.000 0.004(4) 0.000
C25 0.133(13) 0.087(9) 0.085(8) -0.005(6) 0.020(8) 0.028(8)
C31 0.123(17) 0.123(17) 0.37(3) 0.110(19) 0.110(19) 0.030(14)
N2 0.120(19) 0.120(19) 0.38(4) 0.10(3) 0.10(3) 0.030(19)
C32 0.113(19) 0.134(16) 0.42(3) 0.06(2) 0.06(2) 0.029(14)
loop_
_atom_type_symbol
_atom_type_description
_atom_type_scat_dispersion_real
_atom_type_scat_dispersion_imag
_atom_type_scat_source
C C 0.0181 0.0091 'International Tables Vol C Tables 4.2.6.8 and 6.1.1.4'
H H 0.0000 0.0000 'International Tables Vol C Tables 4.2.6.8 and 6.1.1.4'
N N 0.0311 0.0180 'International Tables Vol C Tables 4.2.6.8 and 6.1.1.4'
O O 0.0492 0.0322 'International Tables Vol C Tables 4.2.6.8 and 6.1.1.4'
Cu Cu -1.9646 0.5888 'International Tables Vol C Tables 4.2.6.8 and 6.1.1.4'
loop_
_geom_angle_atom_site_label_1
_geom_angle_atom_site_label_2
_geom_angle_atom_site_label_3
_geom_angle
_geom_angle_site_symmetry_1
_geom_angle_site_symmetry_3
O1 Cu01 O1 89.0(2) 16 .
O1 Cu01 O2 168.14(15) 16 8_667
O1 Cu01 O2 88.90(15) . 8_667
O1 Cu01 O2 88.90(16) 16 9_667
O1 Cu01 O2 168.14(15) . 9_667
O2 Cu01 O2 90.8(2) 8_667 9_667
O1 Cu01 N1 92.2(2) 16 .
O1 Cu01 N1 92.2(2) . .
O2 Cu01 N1 99.55(19) 8_667 .
O2 Cu01 N1 99.55(19) 9_667 .
O1 Cu01 Cu01 85.23(11) 16 9_667
O1 Cu01 Cu01 85.23(11) . 9_667
O2 Cu01 Cu01 82.96(10) 8_667 9_667
O2 Cu01 Cu01 82.96(10) 9_667 9_667
N1 Cu01 Cu01 176.4(3) . 9_667
C1 O2 Cu01 123.7(3) . 9_667
C1 O1 Cu01 121.0(3) . .
C8 C9 C8 119.8(7) . 2_655
C8 C9 C9 120.1(4) . 11_666
C8 C9 C9 120.1(4) 2_655 11_666
C7 C6 C8 120.8(6) . .
C7 C6 C5 117.1(5) . .
C8 C6 C5 122.2(6) . .
C6 C8 C9 119.4(6) . .
C6 C8 C10 120.0(6) . .
C9 C8 C10 120.6(5) . .
C6 C7 C6 119.8(7) . 2_655
C6 C7 C11 120.1(4) . .
C6 C7 C11 120.1(4) 2_655 .
C3 C5 C3 120.3(6) . 14_755
C3 C5 C6 119.2(3) . .
C3 C5 C6 119.2(3) 14_755 .
C2 C3 C5 120.1(4) . .
C2 C3 H3 119.9 . .
C5 C3 H3 119.9 . .
C2 C4 C2 121.0(6) . 14_755
C2 C4 H4 119.5 . .
C2 C4 H4 119.5 14_755 .
C3 C2 C4 119.1(4) . .
C3 C2 C1 119.1(4) . .
C4 C2 C1 121.1(4) . .
O2 C1 O1 126.7(5) . .
O2 C1 C2 116.7(4) . .
O1 C1 C2 116.6(4) . .
C8 C10 H10A 109.5 . .
C8 C10 H10B 109.5 . .
H10A C10 H10B 109.5 . .
C8 C10 H10C 109.5 . .
H10A C10 H10C 109.5 . .
H10B C10 H10C 109.5 . .
C7 C11 H11A 109.5 . .
C7 C11 H11B 109.5 . .
H11A C11 H11B 109.5 . .
C7 C11 H11C 109.5 . .
H11A C11 H11C 109.5 . .
H11B C11 H11C 109.5 . .
C21 N1 C21 134.4(9) . 16
C21 N1 Cu01 106.8(4) . .
C21 N1 Cu01 106.8(4) 16 .
C26 C21 C22 115.2(8) . .
C26 C21 N1 121.5(8) . .
C22 C21 N1 122.5(8) . .
C25 C26 C21 124.1(9) . .
C25 C26 H26 118.0 . .
C21 C26 H26 118.0 . .
C23 C22 C21 116.8(8) . .
C23 C22 H22 121.6 . .
C21 C22 H22 121.6 . .
C22 C23 C24 132.2(7) . .
C22 C23 H23 113.9 . .
C24 C23 H23 113.9 . .
C23 C24 C25 108.5(5) . .
C23 C24 H24 125.7 . .
C25 C24 H24 125.7 . .
C26 C25 C24 120.3(8) . .
C26 C25 H25 119.8 . .
C24 C25 H25 119.8 . .
C32 C31 C32 149(4) 14_755 4_565
C32 C31 N2 104.3(17) 14_755 .
C32 C31 N2 104.3(17) 4_565 .
C32 C31 C32 16.1(10) 14_755 .
C32 C31 C32 136(2) 4_565 .
N2 C31 C32 119.8(8) . .
C32 C31 C32 136(2) 14_755 16
C32 C31 C32 16.1(10) 4_565 16
N2 C31 C32 119.8(8) . 16
C32 C31 C32 120.5(15) . 16
C32 C31 C31 121.0(16) 14_755 4_565
C32 C31 C31 31.9(18) 4_565 4_565
N2 C31 C31 134.7(3) . 4_565
C32 C31 C31 105.4(8) . 4_565
C32 C31 C31 15.8(9) 16 4_565
C32 C31 C31 31.9(18) 14_755 3_655
C32 C31 C31 121.0(16) 4_565 3_655
N2 C31 C31 134.7(3) . 3_655
C32 C31 C31 15.8(9) . 3_655
C32 C31 C31 105.4(8) 16 3_655
C31 C31 C31 89.999(18) 4_565 3_655
C31 N2 C32 25.9(11) . 14_755
C31 N2 C32 25.9(11) . 4_565
C32 N2 C32 51(2) 14_755 4_565
C32 C32 C31 119.5(8) 15_775 .
C32 C32 C32 15.2(3) 15_775 3_655
C31 C32 C32 104.4(8) . 3_655
C32 C32 C32 105.2(3) 15_775 4_565
C31 C32 C32 14.8(8) . 4_565
C32 C32 C32 89.999(1) 3_655 4_565
C32 C32 H32 120.2 15_775 .
C31 C32 H32 120.2 . .
C32 C32 H32 135.4 3_655 .
C32 C32 H32 134.4 4_565 .
loop_
_geom_bond_atom_site_label_1
_geom_bond_atom_site_label_2
_geom_bond_distance
_geom_bond_site_symmetry_2
Cu01 O1 1.962(3) 16
Cu01 O1 1.962(3) .
Cu01 O2 1.967(3) 8_667
Cu01 O2 1.967(3) 9_667
Cu01 N1 2.231(7) .
Cu01 Cu01 2.6519(17) 9_667
O2 C1 1.253(6) .
O2 Cu01 1.967(3) 9_667
O1 C1 1.263(6) .
C9 C8 1.397(7) .
C9 C8 1.397(7) 2_655
C9 C9 1.500(14) 11_666
C6 C7 1.377(7) .
C6 C8 1.391(8) .
C6 C5 1.495(8) .
C8 C10 1.508(10) .
C7 C6 1.377(7) 2_655
C7 C11 1.524(11) .
C5 C3 1.385(5) .
C5 C3 1.385(5) 14_755
C3 C2 1.384(6) .
C3 H3 0.9500 .
C4 C2 1.389(6) .
C4 C2 1.389(6) 14_755
C4 H4 0.9500 .
C2 C1 1.515(7) .
C10 H10A 0.9800 .
C10 H10B 0.9800 .
C10 H10C 0.9800 .
C11 H11A 0.9800 .
C11 H11B 0.9800 .
C11 H11C 0.9800 .
N1 C21 1.579(10) .
N1 C21 1.579(10) 16
C21 C26 1.347(11) .
C21 C22 1.354(11) .
C26 C25 1.310(11) .
C26 H26 0.9500 .
C22 C23 1.266(10) .
C22 H22 0.9500 .
C23 C24 1.300(10) .
C23 H23 0.9500 .
C24 C25 1.413(10) .
C24 H24 0.9500 .
C25 H25 0.9500 .
C31 C32 0.686(12) 14_755
C31 C32 0.686(12) 4_565
C31 N2 1.20(6) .
C31 C32 1.329(18) .
C31 C32 1.329(18) 16
C31 C31 1.86(3) 4_565
C31 C31 1.86(3) 3_655
N2 C32 1.52(5) 14_755
N2 C32 1.52(5) 4_565
C32 C32 1.32(2) 15_775
C32 C32 1.88(3) 3_655
C32 C32 1.88(3) 4_565
C32 H32 0.9500 .
