#------------------------------------------------------------------------------
#$Date: 2017-09-06 14:00:00 +0300 (Wed, 06 Sep 2017) $
#$Revision: 200217 $
#$URL: file:///home/coder/svn-repositories/cod/cif/4/51/41/4514178.cif $
#------------------------------------------------------------------------------
#
# This file is available in the Crystallography Open Database (COD),
# http://www.crystallography.net/
#
# All data on this site have been placed in the public domain by the
# contributors.
#
data_4514178
loop_
_publ_author_name
'Chen, Ya'
'Wang, Bin'
'Wang, Xiaoqing'
'Xie, Lin-Hua'
'Li, Jinping'
'Xie, Yabo'
'Li, Jian-Rong'
_publ_section_title
;
 A Copper(II)-Paddlewheel Metal-Organic Framework with Exceptional
 Hydrolytic Stability and Selective Adsorption and Detection Ability of
 Aniline in Water.
;
_journal_issue                   32
_journal_name_full               'ACS applied materials &amp; interfaces'
_journal_page_first              27027
_journal_page_last               27035
_journal_paper_doi               10.1021/acsami.7b07920
_journal_volume                  9
_journal_year                    2017
_chemical_formula_moiety         '0.25(C100 H60 Cu8 O40), 3.6(O)'
_chemical_formula_sum            'C25 H26.2 Cu2 O13.6'
_chemical_formula_weight         671.34
_chemical_name_systematic
;
 ?
;
_space_group_crystal_system      tetragonal
_space_group_IT_number           129
_space_group_name_Hall           '-P 4a 2a'
_space_group_name_H-M_alt        'P 4/n m m'
_symmetry_space_group_name_Hall  '-P 4a 2a'
_symmetry_space_group_name_H-M   'P 4/n m m :2'
_atom_sites_solution_hydrogens   geom
_audit_creation_date             2017-05-24
_audit_creation_method
;
Olex2 1.2
(compiled 2017.03.28 svn.r3405 for OlexSys, GUI svn.r5337)
;
_cell_angle_alpha                90
_cell_angle_beta                 90
_cell_angle_gamma                90
_cell_formula_units_Z            4
_cell_length_a                   18.9170(5)
_cell_length_b                   18.9170(5)
_cell_length_c                   13.5692(5)
_cell_measurement_reflns_used    2810
_cell_measurement_temperature    99.97(10)
_cell_measurement_theta_max      68.6710
_cell_measurement_theta_min      3.9960
_cell_volume                     4855.8(3)
_computing_molecular_graphics    'Olex2 (Dolomanov et al., 2009)'
_computing_publication_material  'Olex2 (Dolomanov et al., 2009)'
_computing_structure_refinement  'ShelXL (Sheldrick, 2015)'
_diffrn_ambient_temperature      99.97(10)
_diffrn_measured_fraction_theta_full 0.999
_diffrn_measured_fraction_theta_max 0.991
_diffrn_measurement_device_type  'SuperNova, Dual, Cu at zero, AtlasS2'
_diffrn_radiation_type           CuK\a
_diffrn_radiation_wavelength     1.54184
_diffrn_reflns_av_R_equivalents  0.0434
_diffrn_reflns_av_unetI/netI     0.0398
_diffrn_reflns_Laue_measured_fraction_full 0.999
_diffrn_reflns_Laue_measured_fraction_max 0.991
_diffrn_reflns_limit_h_max       18
_diffrn_reflns_limit_h_min       -20
_diffrn_reflns_limit_k_max       16
_diffrn_reflns_limit_k_min       -23
_diffrn_reflns_limit_l_max       12
_diffrn_reflns_limit_l_min       -16
_diffrn_reflns_number            13576
_diffrn_reflns_point_group_measured_fraction_full 0.999
_diffrn_reflns_point_group_measured_fraction_max 0.991
_diffrn_reflns_theta_full        67.684
_diffrn_reflns_theta_max         71.401
_diffrn_reflns_theta_min         4.009
_exptl_absorpt_coefficient_mu    1.428
_exptl_crystal_density_diffrn    0.918
_exptl_crystal_description       block
_exptl_crystal_F_000             1372
_refine_diff_density_max         0.924
_refine_diff_density_min         -0.442
_refine_diff_density_rms         0.172
_refine_ls_extinction_method     none
_refine_ls_goodness_of_fit_ref   1.269
_refine_ls_hydrogen_treatment    constr
_refine_ls_matrix_type           full
_refine_ls_number_parameters     127
_refine_ls_number_reflns         2614
_refine_ls_number_restraints     12
_refine_ls_restrained_S_all      1.269
_refine_ls_R_factor_all          0.1317
_refine_ls_R_factor_gt           0.0967
_refine_ls_shift/su_max          0.001
_refine_ls_shift/su_mean         0.000
_refine_ls_structure_factor_coef Fsqd
_refine_ls_weighting_details
'w=1/[\s^2^(Fo^2^)+(0.2000P)^2^] where P=(Fo^2^+2Fc^2^)/3'
_refine_ls_weighting_scheme      calc
_refine_ls_wR_factor_gt          0.3107
_refine_ls_wR_factor_ref         0.3420
_reflns_Friedel_coverage         0.000
_reflns_number_gt                1706
_reflns_number_total             2614
_reflns_threshold_expression     'I > 2\s(I)'
_iucr_refine_instructions_details
;
TITL cy044-2 in P4/nmm
CELL 1.54184 18.917005 18.917005 13.569204 90 90 90
ZERR 4 0.000543 0.000543 0.000524 0 0 0
LATT 1
SYMM 0.5-Y,+X,+Z
SYMM 0.5-X,0.5-Y,+Z
SYMM +Y,0.5-X,+Z
SYMM 0.5+X,-Y,-Z
SYMM -X,0.5+Y,-Z
SYMM 0.5+Y,0.5+X,-Z
SYMM -Y,-X,-Z
SFAC C H Cu O
UNIT 100 104.8 8 54.4
ISOR 0.01 0.02 O7
ISOR 0.01 0.02 O6
 
L.S. 20 0 0
PLAN  2
MORE -1
BOND $H
CONF
fmap 2 53
acta
REM <olex2.extras>
REM <HklSrc "%.\\cy044-2.hkl">
REM </olex2.extras>
 
WGHT    0.200000
FVAR       3.17156
CU1   3    0.533698    0.533698    0.427913    10.50000    0.04269    0.04269 =
         0.04168    0.01273    0.01273    0.01101
O2    4    0.541631    0.437911    0.376318    11.00000    0.06336    0.04224 =
         0.05346    0.00654    0.01870    0.01019
O1    4    0.482409    0.380122    0.496237    11.00000    0.06121    0.04893 =
         0.05177    0.00513    0.02047    0.00918
C9    1    0.685577    0.250000    0.104922    10.50000    0.05652    0.04089 =
         0.02429    0.00000    0.00391    0.00000
C8    1    0.750000    0.250000    0.372458    10.25000    0.06130    0.07117 =
         0.02276    0.00000    0.00000    0.00000
PART -1
AFIX  33
H8A   2    0.726081    0.291438    0.396040    10.25000   -1.50000
H8B   2    0.797846    0.249995    0.396040    10.25000   -1.50000
H8C   2    0.726073    0.208567    0.396040    10.25000   -1.50000
AFIX   0
PART 0
C6    1    0.686927    0.250000    0.208681    10.50000    0.05497    0.03507 =
         0.03456    0.00000    0.00803    0.00000
C11   1    0.750000    0.250000    0.055498    10.25000    0.05047    0.04108 =
         0.02129    0.00000    0.00000    0.00000
C1    1    0.518665    0.382674    0.418993    11.00000    0.04704    0.04721 =
         0.04775    0.00379    0.00607    0.01817
C5    1    0.619564    0.250000    0.267630    10.50000    0.05007    0.04816 =
         0.03551    0.00000    0.01205    0.00000
C10   1    0.616099    0.250000    0.050185    10.50000    0.04711    0.06975 =
         0.04552    0.00000   -0.00312    0.00000
PART -1
AFIX  33
H10A  2    0.621385    0.224810   -0.010789    10.50000   -1.50000
H10B  2    0.602098    0.297823    0.036791    10.50000   -1.50000
H10C  2    0.580632    0.227367    0.089745    10.50000   -1.50000
AFIX   0
PART 0
C2    1    0.539395    0.313590    0.374182    11.00000    0.04836    0.04685 =
         0.04501   -0.00039    0.00811    0.00450
C4    1    0.592698    0.312987    0.301635    11.00000    0.05384    0.04301 =
         0.03969    0.00450    0.00614    0.00402
AFIX  43
H4    2    0.609804    0.355438    0.276609    11.00000   -1.20000
AFIX   0
C7    1    0.750000    0.250000    0.259431    10.25000    0.04853    0.03769 =
         0.02908    0.00000    0.00000    0.00000
C3    1    0.515155    0.250000    0.411731    10.50000    0.04797    0.05595 =
         0.04089    0.00000    0.00177    0.00000
AFIX  43
H3    2    0.482268    0.249999    0.462676    10.50000   -1.20000
AFIX   0
O3    4    0.585602    0.585602    0.307080    10.50000    0.14515    0.14515 =
         0.05679    0.02168    0.02168   -0.07476
PART 1
O6    4    0.750000    0.485546    0.217294    10.30000    0.13669    0.13158 =
         0.11053    0.00745    0.00000    0.00000
 
PART 0
PART 2
O4    4    0.465785    0.750000    0.326573    10.25000    0.28393    0.10124 =
         0.28847    0.00000    0.10686    0.00000
 
PART 0
PART 3
O7    4    0.685300    0.498432    0.185707    10.25000    0.16579    0.17073 =
         0.18977    0.04611    0.01935    0.04059
 
PART 0
PART 4
O5    4    0.396548    0.396548    0.132282    10.10000    0.21150    0.21150 =
         0.12365    0.02321    0.02321    0.16249
HKLF 4
 
REM  cy044-2 in P4/nmm
REM R1 =  0.0967 for    1706 Fo > 4sig(Fo)  and  0.1317 for all    2614 data
REM    127 parameters refined using     12 restraints
 
END  
     
WGHT      0.2000      0.0000 

REM Highest difference peak  0.924,  deepest hole -0.442,  1-sigma level  0.172
Q1    1   0.7036  0.5232  0.2369  11.00000  0.05    0.92
Q2    1   0.6588  0.5256  0.2974  11.00000  0.05    0.91

  REM The information below was added by Olex2.
  REM
  REM R1 = 0.0967 for 1706 Fo > 4sig(Fo) and 0.1317 for all 14014 data
  REM n/a parameters refined using n/a restraints
  REM Highest difference peak 0.92, deepest hole -0.44
  REM Mean Shift 0, Max Shift -0.001.

  REM +++ Tabular Listing of Refinement Information +++
  REM R1_all = 0.1317
  REM R1_gt = 0.0967
  REM wR_ref = 0.3420
  REM GOOF = 1.269
  REM Shift_max = -0.001
  REM Shift_mean = 0
  REM Reflections_all = 14014
  REM Reflections_gt = 1706
  REM Parameters = n/a
  REM Hole = -0.44
  REM Peak = 0.92
  REM Flack = n/a

  
;
_cod_data_source_file            am7b07920_si_002.cif
_cod_data_source_block           boiling_water_treated_BUT-155
_cod_original_formula_sum        'C25 H26.20 Cu2 O13.60'
_cod_database_code               4514178
_shelxl_version_number           2014-1
_shelx_space_group_comment
;
The symmetry employed for this shelxl refinement is uniquely defined
by the following loop, which should always be used as a source of
symmetry information in preference to the above space-group names.
They are only intended as comments.
;
_olex2_refinement_description
;
1. Fixed Uiso
 At 1.2 times of:
  All C(H) groups
 At 1.5 times of:
  All C(H,H,H) groups
2. Uiso/Uaniso restraints and constraints
Uanis(O7) \\sim Ueq: with sigma of 0.01 and sigma for terminal atoms of 0.02
Uanis(O6) \\sim Ueq: with sigma of 0.01 and sigma for terminal atoms of 0.02
3. Others
 Fixed Sof: H8A(0.25) H8B(0.25) H8C(0.25) H10A(0.5) H10B(0.5) H10C(0.5)
 O6(0.3) O4(0.25) O7(0.25) O5(0.1)
4.a Me refined with riding coordinates:
 C8(H8A,H8B,H8C), C10(H10A,H10B,H10C)
4.b Aromatic/amide H refined with riding coordinates:
 C4(H4), C3(H3)
;
_olex2_submission_special_instructions 'No special instructions were received'
loop_
_space_group_symop_operation_xyz
'x, y, z'
'-y+1/2, x, z'
'-x+1/2, -y+1/2, z'
'y, -x+1/2, z'
'x+1/2, -y, -z'
'-x, y+1/2, -z'
'y+1/2, x+1/2, -z'
'-y, -x, -z'
'-x, -y, -z'
'y-1/2, -x, -z'
'x-1/2, y-1/2, -z'
'-y, x-1/2, -z'
'-x-1/2, y, z'
'x, -y-1/2, z'
'-y-1/2, -x-1/2, z'
'y, x, z'
loop_
_atom_site_label
_atom_site_type_symbol
_atom_site_fract_x
_atom_site_fract_y
_atom_site_fract_z
_atom_site_U_iso_or_equiv
_atom_site_adp_type
_atom_site_occupancy
_atom_site_site_symmetry_order
_atom_site_calc_flag
_atom_site_refinement_flags_posn
_atom_site_refinement_flags_adp
_atom_site_refinement_flags_occupancy
_atom_site_disorder_assembly
_atom_site_disorder_group
Cu1 Cu 0.53370(5) 0.53370(5) 0.42791(8) 0.0424(5) Uani 1 2 d S T P . .
O2 O 0.5416(2) 0.4379(2) 0.3763(3) 0.0530(11) Uani 1 1 d . . . . .
O1 O 0.4824(2) 0.3801(2) 0.4962(3) 0.0540(11) Uani 1 1 d . . . . .
C9 C 0.6856(4) 0.2500 0.1049(5) 0.0406(18) Uani 1 2 d S T P . .
C8 C 0.7500 0.2500 0.3725(7) 0.052(3) Uani 1 4 d S T P . .
H8A H 0.7261 0.2914 0.3960 0.078 Uiso 0.25 1 calc R . . A -1
H8B H 0.7978 0.2500 0.3960 0.078 Uiso 0.25 1 calc RS T P A -1
H8C H 0.7261 0.2086 0.3960 0.078 Uiso 0.25 1 calc R . . A -1
C6 C 0.6869(4) 0.2500 0.2087(5) 0.0415(19) Uani 1 2 d S T P . .
C11 C 0.7500 0.2500 0.0555(7) 0.038(2) Uani 1 4 d S T P . .
C1 C 0.5187(3) 0.3827(3) 0.4190(5) 0.0473(14) Uani 1 1 d . . . . .
C5 C 0.6196(4) 0.2500 0.2676(6) 0.0446(19) Uani 1 2 d S T P . .
C10 C 0.6161(5) 0.2500 0.0502(6) 0.054(2) Uani 1 2 d S T P . .
H10A H 0.6214 0.2248 -0.0108 0.081 Uiso 0.5 1 calc R . . B -1
H10B H 0.6021 0.2978 0.0368 0.081 Uiso 0.5 1 calc R . . B -1
H10C H 0.5806 0.2274 0.0897 0.081 Uiso 0.5 1 calc R . . B -1
C2 C 0.5394(3) 0.3136(3) 0.3742(4) 0.0467(14) Uani 1 1 d . . . . .
C4 C 0.5927(3) 0.3130(3) 0.3016(4) 0.0455(14) Uani 1 1 d . . . . .
H4 H 0.6098 0.3554 0.2766 0.055 Uiso 1 1 calc R . . . .
C7 C 0.7500 0.2500 0.2594(7) 0.038(2) Uani 1 4 d S T P . .
C3 C 0.5152(5) 0.2500 0.4117(6) 0.048(2) Uani 1 2 d S T P . .
H3 H 0.4823 0.2500 0.4627 0.058 Uiso 1 2 calc RS T P . .
O3 O 0.5856(3) 0.5856(3) 0.3071(5) 0.116(4) Uani 1 2 d S T P . .
O6_a O 0.7500 0.4855(11) 0.2173(14) 0.126(6) Uani 0.6 2 d S TU P C 1
O4_b O 0.4658(18) 0.7500 0.327(3) 0.225(17) Uani 0.5 2 d S T P D 2
O7_c O 0.685(2) 0.498(2) 0.186(3) 0.175(15) Uani 0.25 1 d . U . E 3
O5_d O 0.397(3) 0.397(3) 0.132(4) 0.18(3) Uani 0.2 2 d S T P F 4
loop_
_atom_site_aniso_label
_atom_site_aniso_U_11
_atom_site_aniso_U_22
_atom_site_aniso_U_33
_atom_site_aniso_U_23
_atom_site_aniso_U_13
_atom_site_aniso_U_12
Cu1 0.0427(6) 0.0427(6) 0.0417(8) 0.0127(4) 0.0127(4) 0.0110(5)
O2 0.063(3) 0.042(2) 0.053(2) 0.007(2) 0.019(2) 0.0102(19)
O1 0.061(3) 0.049(2) 0.052(3) 0.005(2) 0.020(2) 0.009(2)
C9 0.057(5) 0.041(4) 0.024(4) 0.000 0.004(3) 0.000
C8 0.061(8) 0.071(8) 0.023(5) 0.000 0.000 0.000
C6 0.055(5) 0.035(4) 0.035(4) 0.000 0.008(4) 0.000
C11 0.050(6) 0.041(6) 0.021(5) 0.000 0.000 0.000
C1 0.047(3) 0.047(3) 0.048(3) 0.004(3) 0.006(3) 0.018(3)
C5 0.050(5) 0.048(5) 0.036(4) 0.000 0.012(4) 0.000
C10 0.047(5) 0.070(6) 0.046(5) 0.000 -0.003(4) 0.000
C2 0.048(3) 0.047(3) 0.045(3) 0.000(3) 0.008(3) 0.004(2)
C4 0.054(3) 0.043(3) 0.040(3) 0.005(2) 0.006(3) 0.004(3)
C7 0.049(6) 0.038(6) 0.029(5) 0.000 0.000 0.000
C3 0.048(5) 0.056(5) 0.041(4) 0.000 0.002(4) 0.000
O3 0.145(6) 0.145(6) 0.057(4) 0.022(3) 0.022(3) -0.075(7)
loop_
_atom_type_symbol
_atom_type_description
_atom_type_scat_dispersion_real
_atom_type_scat_dispersion_imag
_atom_type_scat_source
C C 0.0181 0.0091 'International Tables Vol C Tables 4.2.6.8 and 6.1.1.4'
H H 0.0000 0.0000 'International Tables Vol C Tables 4.2.6.8 and 6.1.1.4'
Cu Cu -1.9646 0.5888 'International Tables Vol C Tables 4.2.6.8 and 6.1.1.4'
O O 0.0492 0.0322 'International Tables Vol C Tables 4.2.6.8 and 6.1.1.4'
loop_
_geom_angle_atom_site_label_1
_geom_angle_atom_site_label_2
_geom_angle_atom_site_label_3
_geom_angle
_geom_angle_site_symmetry_1
_geom_angle_site_symmetry_3
O2 Cu1 Cu1 81.69(12) . 9_666
O2 Cu1 Cu1 81.69(12) 16 9_666
O2 Cu1 O2 90.8(3) 16 .
O2 Cu1 O1 88.86(19) 16 9_666
O2 Cu1 O1 168.03(17) 16 8_666
O2 Cu1 O1 88.85(19) . 8_666
O2 Cu1 O1 168.04(17) . 9_666
O2 Cu1 O3 96.6(2) . .
O2 Cu1 O3 96.6(2) 16 .
O1 Cu1 Cu1 86.43(13) 8_666 9_666
O1 Cu1 Cu1 86.43(13) 9_666 9_666
O1 Cu1 O1 89.0(3) 8_666 9_666
O1 Cu1 O3 95.3(2) 8_666 .
O1 Cu1 O3 95.3(2) 9_666 .
O3 Cu1 Cu1 177.6(3) . 9_666
C1 O2 Cu1 125.1(4) . .
C1 O1 Cu1 119.6(4) . 9_666
C6 C9 C10 120.5(7) . .
C11 C9 C6 117.8(7) . .
C11 C9 C10 121.7(7) . .
H8A C8 H8B 109.5 . .
H8A C8 H8C 109.5 . .
H8B C8 H8C 109.5 . .
C7 C8 H8A 109.5 . .
C7 C8 H8B 109.5 . .
C7 C8 H8C 109.5 . .
C9 C6 C5 121.1(7) . .
C7 C6 C9 121.0(7) . .
C7 C6 C5 117.9(7) . .
C9 C11 C9 122.4(9) . 3_655
C9 C11 C11 118.8(4) 3_655 10_665
C9 C11 C11 118.8(4) . 10_665
O2 C1 C2 116.4(5) . .
O1 C1 O2 126.8(6) . .
O1 C1 C2 116.8(5) . .
C4 C5 C6 119.4(4) . .
C4 C5 C6 119.4(4) 14_565 .
C4 C5 C4 120.1(7) 14_565 .
C9 C10 H10A 109.5 . .
C9 C10 H10B 109.5 . .
C9 C10 H10C 109.5 . .
H10A C10 H10B 109.5 . .
H10A C10 H10C 109.5 . .
H10B C10 H10C 109.5 . .
C4 C2 C1 118.6(5) . .
C3 C2 C1 121.6(5) . .
C3 C2 C4 119.1(6) . .
C5 C4 C2 120.4(5) . .
C5 C4 H4 119.8 . .
C2 C4 H4 119.8 . .
C6 C7 C8 120.0(5) . .
C6 C7 C8 120.0(5) 3_655 .
C6 C7 C6 120.0(9) . 3_655
C2 C3 C2 120.6(8) . 14_565
C2 C3 H3 119.7 . .
C2 C3 H3 119.7 14_565 .
loop_
_geom_bond_atom_site_label_1
_geom_bond_atom_site_label_2
_geom_bond_distance
_geom_bond_site_symmetry_2
Cu1 Cu1 2.660(2) 9_666
Cu1 O2 1.948(4) 16
Cu1 O2 1.948(4) .
Cu1 O1 1.952(4) 9_666
Cu1 O1 1.952(4) 8_666
Cu1 O3 2.149(7) .
O2 C1 1.271(7) .
O1 Cu1 1.952(4) 9_666
O1 C1 1.254(7) .
C9 C6 1.408(10) .
C9 C11 1.391(9) .
C9 C10 1.510(11) .
C8 H8A 0.9600 .
C8 H8B 0.9600 .
C8 H8C 0.9600 .
C8 C7 1.534(14) .
C6 C5 1.505(10) .
C6 C7 1.378(9) .
C11 C9 1.391(9) 3_655
C11 C11 1.506(18) 10_665
C1 C2 1.494(8) .
C5 C4 1.375(7) 14_565
C5 C4 1.375(7) .
C10 H10A 0.9600 .
C10 H10B 0.9600 .
C10 H10C 0.9600 .
C2 C4 1.409(8) .
C2 C3 1.385(7) .
C4 H4 0.9300 .
C7 C6 1.378(9) 3_655
C3 C2 1.385(7) 14_565
C3 H3 0.9300 .
loop_
_geom_torsion_atom_site_label_1
_geom_torsion_atom_site_label_2
_geom_torsion_atom_site_label_3
_geom_torsion_atom_site_label_4
_geom_torsion
_geom_torsion_site_symmetry_1
_geom_torsion_site_symmetry_4
Cu1 O2 C1 O1 6.2(9) . .
Cu1 O2 C1 C2 -171.3(4) . .
Cu1 O1 C1 O2 -7.9(9) 9_666 .
Cu1 O1 C1 C2 169.7(4) 9_666 .
O2 C1 C2 C4 12.1(9) . .
O2 C1 C2 C3 -177.3(6) . .
O1 C1 C2 C4 -165.7(6) . .
O1 C1 C2 C3 4.9(10) . .
C9 C6 C5 C4 -95.8(7) . .
C9 C6 C5 C4 95.8(7) . 14_565
C9 C6 C7 C8 180.000(1) . .
C9 C6 C7 C6 0.000(1) . 3_655
C6 C9 C11 C9 0.000(0) . 3_655
C6 C9 C11 C11 180.000(0) . 10_665
C6 C5 C4 C2 -166.0(6) . .
C11 C9 C6 C5 180.000(0) . .
C11 C9 C6 C7 0.000(0) . .
C1 C2 C4 C5 171.7(6) . .
C1 C2 C3 C2 -174.8(5) . 14_565
C5 C6 C7 C8 0.000(1) . .
C5 C6 C7 C6 180.000(0) . 3_655
C10 C9 C6 C5 0.000(0) . .
C10 C9 C6 C7 180.000(0) . .
C10 C9 C11 C9 180.000(0) . 3_655
C10 C9 C11 C11 0.0 . 10_665
C4 C5 C4 C2 2.4(12) 14_565 .
C4 C2 C3 C2 -4.2(12) . 14_565
C7 C6 C5 C4 -84.2(7) . 14_565
C7 C6 C5 C4 84.2(7) . .
C3 C2 C4 C5 0.9(10) . .
loop_
_platon_squeeze_void_nr
_platon_squeeze_void_average_x
_platon_squeeze_void_average_y
_platon_squeeze_void_average_z
_platon_squeeze_void_volume
_platon_squeeze_void_count_electrons
_platon_squeeze_void_content
1 0.006 0.006 -0.003 1863 190 ' '
loop_
_refln_index_h
_refln_index_k
_refln_index_l
_refln_F_squared_meas
_refln_F_squared_sigma
_refln_scale_group_code
0 0 2 57093.8 1569.21 1
0 0 2 56393 1524.47 2
0 0 3 9795.87 894.783 2
0 0 -3 9329.07 923.112 1
0 0 -3 8655.72 869.33 2
0 0 3 9082.69 909.473 1
0 0 4 235403 2540.2 3
0 0 4 238795 4599.98 1
0 0 4 235503 4430.29 2
0 0 -4 233302 4498.91 2
0 0 -4 236009 4716.65 1
0 0 5 25506.1 1762.55 1
0 0 -5 25752.1 1800.41 2
0 0 -5 24604.4 1828.28 1
0 0 5 26228 1021.04 3
0 0 6 237391 3213.29 3
0 0 7 44709.8 1580.24 3
0 0 -7 42555.5 1288.99 4
0 0 8 13102.2 1027.04 3
0 0 9 17957.3 1238.25 3
0 0 10 43707.1 1963.77 3
0 0 11 27801.9 1680.96 3
0 0 12 823.004 628.84 3
0 0 -12 -607.346 916.632 7
0 0 -13 25067.5 1812.83 7
0 0 -14 27244.3 1695.64 7
0 0 -15 36065.7 1720.13 7
0 0 -16 9342.54 849.851 7
0 -1 1 6133.5 406.358 2
-1 0 1 5980.66 327.685 1
1 0 1 6133.11 458.752 1
1 0 1 5425.09 440.667 2
0 1 1 6152.51 458.082 1
0 -1 1 5763.68 459.02 1
0 1 2 2112.66 464.782 1
-1 0 2 2442.8 418.601 1
1 0 -2 2348.33 416.28 2
1 0 2 2218.38 476.483 1
0 -1 2 1902.35 434.538 2
1 0 2 2121.72 498.948 2
0 -1 2 2325.06 502.082 1
0 1 -2 2230.74 461.107 2
1 0 -2 2777.45 452.774 1
1 0 -3 73988.5 2149.58 1
1 0 3 77121.1 2348.1 2
0 -1 -3 74482.3 2298.45 2
1 0 -3 73390.4 2044.47 2
0 -1 3 78583.8 2330.09 1
0 -1 3 75757.4 2152.86 2
1 0 3 77322.1 2374.53 1
0 -1 -3 74910.7 2315.23 1
-1 0 3 74759.4 2108.65 1
0 1 3 77060.8 2294.64 1
0 1 -3 75416.1 2367.76 1
0 1 -3 76560 2163.81 2
0 1 -4 3958.57 782.51 2
1 0 -4 5235.8 824.256 2
-1 0 4 4663.07 777.329 1
-1 0 4 4666.07 514.044 3
1 0 -4 4377.62 761.57 1
1 0 4 5745.41 948.924 1
-1 0 -4 4967.6 879.962 2
0 1 -4 5088.52 962.559 1
0 -1 4 4941.65 494.24 3
0 1 4 6517.51 935.03 1
0 -1 -4 6647.22 1060.85 1
0 -1 4 5080.24 891.61 2
1 0 4 5084.61 490.626 3
0 -1 -4 4741.6 939.064 2
-1 0 -4 5411.91 990.763 1
1 0 4 5326.39 919.183 2
0 -1 4 5753.24 935.805 1
0 1 4 4555.21 484.727 3
0 -1 -5 101.189 668.75 2
0 -1 5 622.822 637.204 2
1 0 5 1340.05 424.51 3
1 0 5 1787.82 784.751 1
1 0 -5 532.341 649.418 1
1 0 5 2088.96 738.938 2
1 0 -5 751.776 297.671 4
-1 0 5 883.904 655.67 1
0 -1 5 694.478 667.243 1
0 1 -5 630.332 600.629 2
-1 0 -5 511.402 776.575 2
0 -1 -5 1254.38 815.449 1
-1 0 -5 332.783 641.08 1
0 -1 5 862.497 392.047 3
1 0 -5 1130.32 629.043 2
0 1 5 -41.445 596.042 1
0 1 -5 524.545 592.418 1
1 0 -6 10584 623.913 4
-1 0 6 11227.9 810.848 3
0 -1 6 12127.4 801.284 3
0 1 6 10394.5 791.538 3
1 0 6 11126.7 783.611 3
1 0 7 9444.25 792.003 3
0 1 7 10939.5 864.66 3
1 0 -7 9802.77 677.173 4
0 -1 7 9894.83 819.519 3
0 1 -7 10589.1 759.64 4
-1 0 7 9445.4 828.682 3
1 0 8 22.7612 491.331 3
0 1 8 250.754 534.838 3
-1 0 8 1056.03 569.883 3
0 1 -8 1315.63 497.206 4
0 -1 8 815.16 566.013 3
1 0 9 6386.07 825.294 3
-1 0 9 6658.16 868.941 3
0 1 9 4713.06 808.151 3
0 -1 9 4471.78 770.184 3
0 1 10 6993.06 913.316 3
-1 0 10 7698.7 955.102 3
0 -1 10 8397.8 1000.66 3
1 0 10 9485.75 1037.87 3
-1 0 11 3053.1 767.074 3
0 -1 11 2728.94 746.83 3
0 1 11 1782.27 667.743 3
1 0 11 3541.54 779.146 3
-1 0 12 696.02 625.653 3
0 1 12 713.596 622.487 3
-1 0 -12 746.107 840.554 7
0 1 -12 1110.62 773.991 7
1 0 12 859.968 568.898 3
0 -1 12 719.112 645.873 3
0 -1 -12 794.416 805.965 7
1 0 -12 715.799 717.114 7
0 -1 -13 -1382.79 939.78 7
0 1 -13 415.045 834.062 7
1 0 -13 -207.113 798.821 7
-1 0 -13 1133.95 823.83 7
1 0 -14 -607.268 644.435 7
0 -1 -14 1429.6 730.67 7
0 1 -14 177.983 662.895 7
-1 0 -14 1391.61 734.929 7
0 -1 -15 443.584 650.701 7
1 0 -15 234.464 625.682 7
-1 0 -15 166.963 596.055 7
0 1 -15 150.573 607.57 7
1 0 -16 407.986 467.204 7
0 -1 -16 -799.093 485.999 7
1 1 1 26843.1 966.687 1
1 1 -1 27455.7 595.123 2
-1 -1 1 26072.1 821.189 1
-1 -1 1 27636.4 582.038 2
1 -1 -1 26798.1 961.775 2
1 -1 1 26351.5 945.034 2
1 -1 1 26817.8 960.276 1
1 1 2 53458.7 1698.79 1
1 -1 -2 50485.2 1448.13 1
1 1 -2 49221.8 1237.36 2
1 -1 2 52331.3 1683.19 1
-1 -1 2 51395 1252.25 2
1 1 -2 51244.9 1510.96 1
-1 1 2 51436.5 1449.24 1
-1 -1 2 49875.9 1448.13 1
1 -1 2 53155.3 1634.13 2
1 1 -3 114268 2756.06 1
1 -1 3 113252 2914.39 1
1 1 -3 112234 2403.55 2
-1 -1 3 114026 2653.07 1
-1 -1 3 116249 2450.42 2
1 1 3 114107 2918.27 1
1 -1 -3 112321 2711.18 2
1 -1 3 116493 2834.88 2
-1 1 -3 109580 2787.21 2
-1 1 3 114011 2611.28 1
1 -1 -3 112346 2657.42 1
1 -1 4 353.41 701.331 2
-1 -1 -4 277.328 686.271 2
1 1 -4 941.435 658.573 1
1 1 -4 174.323 456.941 2
-1 -1 4 131.06 356.228 3
-1 1 4 75.1289 549.593 1
1 1 4 704.081 681.506 1
-1 1 -4 -358.284 775.519 1
1 -1 4 178.543 341.95 3
1 -1 -4 -327.536 582.136 1
-1 -1 -4 394.06 642.524 1
-1 -1 4 641.529 592.855 1
-1 -1 4 -459.386 544.465 2
1 -1 4 -86.4722 617.945 1
1 -1 -4 -343.523 599 2
-1 1 -4 1004.3 680.764 2
1 1 4 220.421 369.28 3
1 1 -5 -76.439 662.07 1
1 1 5 270.75 385.172 3
-1 -1 -5 72.164 607.756 2
1 -1 -5 1238.93 772.549 1
1 -1 -5 -827.003 786.026 2
1 -1 5 -426.061 647.679 2
1 -1 5 128.8 379.45 3
-1 1 -5 -625.302 609.665 1
-1 -1 5 419.138 377.686 3
1 1 -5 363.757 658.33 2
1 -1 -5 241.115 281.071 4
-1 1 -5 860.694 801.285 2
-1 -1 5 1261.75 670.671 1
1 1 -5 278.607 344.133 4
-1 -1 -5 270.397 726.426 1
-1 1 5 -219.679 568.533 1
1 1 -6 33582.9 1101.72 4
-1 1 6 32190.5 1260.91 3
-1 -1 6 33386 1306.97 3
1 1 -6 32153.2 2112.48 2
1 1 6 32285.9 1237.21 3
1 -1 6 31995 1202.24 3
1 -1 7 6847.37 701.734 3
1 1 -7 7636.04 653.663 4
-1 -1 7 7291.34 765.62 3
1 1 7 7797.15 754.329 3
-1 1 7 5974.55 732.322 3
-1 1 8 444.042 553.637 3
1 -1 8 854.965 451.03 3
1 1 8 1337.72 544.454 3
-1 -1 8 1039.25 514.225 3
1 1 -8 1119.53 417.623 4
1 -1 9 5488.77 735.58 3
-1 1 9 6307.48 890.431 3
-1 -1 9 5647.17 827.944 3
1 1 9 6051.15 811.431 3
1 -1 10 1916.42 644.935 3
1 1 10 1257.06 628.2 3
-1 1 10 163.793 650.031 3
-1 -1 10 1309.45 673.249 3
1 1 11 278.209 689.911 3
-1 1 11 1790.1 751.677 3
-1 -1 11 863.458 614.205 3
1 -1 11 731.045 651.672 3
-1 1 12 7054.81 1017.6 3
1 1 -12 6059.94 1225.31 7
1 1 12 6938.08 980.343 3
-1 1 -12 5778 988.92 7
-1 -1 -12 5969.05 1087.28 7
1 -1 12 6386.81 968.424 3
1 -1 -12 7447.32 1158.99 7
-1 -1 12 5175.29 885.427 3
-1 1 -13 676.845 756.798 7
1 -1 -13 1302.15 805.449 7
1 1 -13 715.042 810.199 7
-1 -1 -13 660.143 769.13 7
-1 1 -14 731.714 705.796 7
1 -1 -14 112.356 684.475 7
1 1 -14 -24.548 681.262 7
-1 -1 -14 -365.008 727.306 7
1 1 -15 186.422 610.738 7
1 -1 -15 708.885 690.499 7
-1 -1 -15 1000.05 595.021 7
-1 -1 -16 -665.971 478.888 7
1 -1 -16 265.673 471.485 7
-2 0 0 574395 2697.35 1
-2 0 0 577826 3345.06 2
0 -2 0 559671 4663.03 2
2 0 0 580428 2720.54 1
2 0 0 574511 3305.79 2
0 -2 0 561770 4866.9 1
2 0 1 824547 5469.8 2
0 -2 1 824296 5279.98 2
0 -2 1 823963 5999.98 1
2 0 1 825890 5260.15 1
2 0 -1 832068 3847.86 2
0 -2 -1 832841 6266.93 2
-2 0 2 518803 3840.25 1
0 -2 2 521400 5393.89 1
0 -2 2 518365 4817.12 2
2 0 2 530427 5419.1 2
0 2 -2 509028 4820.67 2
2 0 2 534274 5430.55 1
2 0 -2 518597 3975.09 1
2 0 -2 520560 3886.66 2
2 0 3 14463.4 1205.08 2
2 0 -3 13014.7 929.762 1
0 2 3 11394.8 1037.46 1
0 2 -3 11033.3 911.234 2
-2 0 3 13382.6 898.589 1
2 0 -3 11236.3 836.939 2
0 -2 3 12619.7 1103.73 1
0 2 -3 11333.3 1094.8 1
2 0 3 13081.9 1157.77 1
0 -2 -3 12724.3 1121.56 1
0 -2 3 12451.7 1007.99 2
0 2 -4 131069 3333.44 2
2 0 4 138030 3805.64 1
2 0 4 135810 1892.07 3
0 2 -4 130822 3745.62 1
-2 0 -4 137860 3838.43 2
2 0 -4 128307 1595.86 4
2 0 4 144012 3871.36 2
0 2 4 138296 3655.29 1
0 -2 -4 130358 3681.23 2
2 0 -4 136750 3147.58 2
2 0 4 129142 1902.1 4
2 0 -4 134139 3281.61 1
-2 0 4 139406 3211.48 1
0 -2 4 140953 3438.83 2
0 -2 4 139296 3704.7 1
0 -2 -4 136585 3744.64 1
0 -2 4 135060 1930.69 3
-2 0 5 78409.6 2819.7 1
0 -2 -5 76943.9 3184.04 2
2 0 5 77224.6 1640.4 3
0 2 -5 74149.1 2899.63 2
2 0 -5 72529.1 2846.69 1
2 0 -5 75483.8 1363.34 4
0 -2 -5 77026.2 3186.2 1
0 -2 5 75511.5 3074.13 1
0 2 5 75925.4 3050.06 1
0 -2 5 76526 2919.5 2
0 2 -5 77154.4 3256.58 1
2 0 -5 73563.2 2721.95 2
0 -2 5 76369.9 1659.36 3
2 0 6 34136.7 1236.65 3
2 0 -6 36192.6 1068.95 4
2 0 -6 34100.9 2110.45 2
-2 0 6 37067.3 1354.44 3
0 -2 6 34888.6 1273.46 3
0 2 6 35556.9 1318.11 3
0 -2 7 99652.2 2288.24 3
0 2 7 102865 2412.45 3
2 0 -7 102607 1902.54 4
2 0 7 96603.4 2217.79 3
-2 0 7 104864 2427.72 3
2 0 8 19385.5 1144.67 3
0 2 -8 17800.2 1028.87 4
0 2 8 18151.3 1179.43 3
-2 0 8 19483.1 1231.98 3
0 -2 8 19311.5 1174.04 3
0 -2 9 2582.08 665.171 3
2 0 9 1742.5 617.569 3
0 2 -9 2041.83 583.085 4
-2 0 9 1839.24 687.115 3
0 2 9 3242.38 750.215 3
0 -2 10 1424.82 641.407 3
2 0 10 673.468 598.505 3
0 2 10 190.763 592.409 3
-2 0 10 1039.13 586.022 3
0 2 11 11959.9 1196.45 3
2 0 11 12091 1158.36 3
0 -2 11 14220.5 1245.16 3
-2 0 11 12490.9 1259.8 3
0 -2 12 20901.8 1469.13 3
0 2 -12 22814.5 1722.94 7
0 2 12 19136.4 1487.02 3
-2 0 -12 22158.4 1693.04 7
2 0 -12 22925.5 1756.64 7
-2 0 12 20261.4 1542.44 3
0 2 -13 11204.7 1329.71 7
2 0 -13 10627 1344.88 7
0 -2 -13 9753.98 1236.54 7
-2 0 -13 11872.6 1298.1 7
-2 0 -14 20055 1466.55 7
2 0 -14 21947.9 1629.78 7
0 -2 -14 21858.9 1627.94 7
0 2 -14 19898.9 1482.74 7
0 2 -15 16280.3 1231.49 7
2 0 -15 17214.9 1296.68 7
0 -2 -15 14554.9 1171.3 7
0 -2 -16 2899.14 597.683 7
2 0 -16 4577.51 679.394 7
2 -1 0 -25.2821 201.531 1
2 -1 0 19.6281 283.229 2
1 -2 0 416.983 466.693 2
-2 1 0 4.86866 216.332 1
-1 -2 0 188.368 313.059 2
1 -2 0 232.598 388.371 1
-2 -1 0 -62.6411 184.282 2
-1 -2 0 88.9342 344.468 1
1 -2 1 7848.05 699.476 1
2 1 1 8059.33 640.623 2
1 2 -1 8049.43 593.293 2
2 1 1 7913.35 635.251 1
-1 -2 1 8017.23 515.737 2
-2 -1 1 8181.52 475.598 1
2 1 -1 7414.22 514.626 1
1 -2 -1 8500.64 767.583 2
1 -2 1 8136.95 690.532 2
-2 1 1 7886.83 624.637 2
2 -1 1 8285.98 666.83 2
-1 -2 1 8375.64 705.223 1
2 -1 -1 7672.68 643.701 2
2 -1 1 8350.39 653.578 1
1 2 -2 44887.5 1662.48 1
2 1 2 44350.6 1653.6 1
2 -1 2 44756.4 1670.43 2
1 -2 2 43710 1598.17 2
-1 -2 2 43291.1 1248.29 2
2 1 -2 42997.7 961.003 2
-2 -1 2 41439.3 1242.85 1
1 -2 -2 42160.4 1489.87 1
1 2 2 44948 1696.51 1
2 -1 2 42980.9 1641.02 1
-2 1 2 43665.4 1205.7 1
2 -1 -2 43019 1213.7 1
1 -2 2 43502.4 1682.1 1
2 -1 -2 42746.9 1486.72 2
1 -2 -2 42695 1731.73 2
2 1 -2 44250.8 1329.96 1
2 1 2 46140.9 1701.83 2
-1 -2 2 42391.5 1537.29 1
1 2 -2 41955.6 1260.9 2
1 2 -3 44681.3 1567.3 2
1 -2 3 45167.1 1885.72 2
2 -1 -3 43780.2 1585.87 1
2 1 3 45574.8 1965.76 1
-2 1 3 46119.4 1596.06 1
2 1 -3 45932.3 1430.04 2
-1 2 -3 43612.3 1841.11 2
2 -1 3 43531.8 1910.75 2
1 2 -3 44428.5 1900.5 1
2 1 -3 45430.3 1680.01 1
2 -1 -3 43352.5 1650.8 2
2 -1 3 47128.7 2022.91 1
-2 -1 3 44292.3 1587.9 1
2 1 3 46821.3 2002.95 2
-1 2 3 47824.6 1823.52 1
1 -2 -3 44648.6 1807.19 1
1 2 3 45758.6 1042.42 3
-1 -2 3 45975.5 1575.69 2
-1 -2 3 45065.3 1836.41 1
1 -2 3 48794.3 2054.17 1
1 2 3 47979.8 2031.26 1
1 -2 4 6730.75 960.342 2
-2 -1 -4 8403.49 1137.65 1
-2 1 -4 5836.84 965.992 1
-1 -2 4 8164.94 1058.6 1
-1 2 4 7853.64 1009.83 1
-1 -2 -4 6210.28 1063.34 1
1 2 -4 5582.59 951.909 1
2 1 -4 7388.51 798.15 2
-1 -2 4 6816.85 847.183 2
1 2 4 7144.76 588.573 3
2 1 4 7061.93 541.987 3
1 -2 -4 6760.14 997.706 2
1 -2 4 7325.74 517.063 3
2 1 -4 5542.15 858.446 1
2 -1 4 7490.74 522.866 3
1 -2 -4 8626.89 1058.63 1
1 -2 4 6258.79 940.025 1
2 -1 4 6488.91 967.071 2
1 2 -4 6774.74 837.627 2
-2 1 4 7400.23 575.343 3
-1 -2 -4 6764.26 1069.88 2
2 1 -4 7323.12 504.847 4
-1 2 -4 7008.16 1004.57 2
-2 1 4 6837.98 919.368 1
-2 -1 4 8128.9 941.342 1
2 -1 -4 6738.16 885.401 1
-2 -1 -4 7259.36 1124.29 2
-2 1 -4 6163.67 953.208 2
2 1 4 7659.49 1097.46 2
2 -1 -4 6816.54 937.516 2
2 -1 4 6851.07 1098.32 1
2 1 4 7868.16 1079.34 1
1 2 4 7267.06 1014.76 1
-1 2 -4 7255.1 1138.48 1
-1 2 5 -1074.32 542.911 1
-2 1 5 990.197 685.729 1
2 1 -5 -124.84 571.257 2
1 2 -5 149.409 370.701 4
1 2 -5 238.655 646.505 2
2 1 5 220.158 372.866 3
2 -1 -5 -124.182 654.378 1
1 2 -5 -130.493 655.891 1
1 -2 -5 605.421 707.071 1
2 -1 -5 566.146 670.497 2
2 -1 -5 311.11 252.24 4
1 -2 5 91.0705 624.318 2
2 -1 5 32.5137 365.221 3
-1 -2 5 429.017 625.765 1
-2 -1 5 -92.1808 666.987 1
1 -2 -5 -609.381 747.877 2
2 1 -5 316.027 713.143 1
-1 -2 5 558.689 412.524 3
1 -2 5 143.213 381.636 3
-1 2 -5 30.2105 519.769 2
2 1 -5 248.459 313.157 4
-1 -2 5 103.369 577.641 2
-2 1 6 6338.93 693.235 3
1 2 6 5728.85 664.432 3
-2 -1 6 6839.77 690.548 3
2 -1 -6 6261.85 468.679 4
2 1 -6 6114.51 567.553 4
2 1 6 6990.57 667.208 3
1 2 -6 5834.43 580.789 4
-1 2 6 6381.37 678.417 3
-1 -2 6 6033.28 669.977 3
2 -1 6 6940.4 629.006 3
1 -2 6 7252.72 644.276 3
-1 -2 7 6389.95 718.131 3
-2 1 7 7122.73 785.848 3
1 2 7 5700.71 703.954 3
-1 2 7 6065.89 719.75 3
-2 -1 7 5472.99 710.198 3
2 -1 7 6156.11 668.947 3
1 -2 7 5676.65 668.191 3
2 1 7 6305.99 718.348 3
1 2 -7 5916.45 628.533 4
2 1 -7 6316.05 611.609 4
2 1 8 1649.73 547.021 3
2 -1 8 2348.13 582.015 3
-2 1 8 2646.75 681.653 3
2 1 -8 1709.36 487.371 4
1 2 8 933.354 546.404 3
1 -2 8 1976.58 540.361 3
-2 -1 8 1682.84 623.076 3
-1 -2 8 2289.46 648.111 3
1 2 -8 1591.55 474.111 4
-1 2 8 2469.43 705.538 3
-2 1 9 2340.65 705.083 3
1 -2 9 1779.83 606.63 3
2 -1 9 1365.05 537.136 3
-2 -1 9 2317.08 685.204 3
1 2 9 2163.82 681.795 3
1 2 -9 1054.85 505.204 4
-1 -2 9 1370.66 562.807 3
-1 2 9 1964.06 693.454 3
-1 2 -9 2625.35 666.304 4
2 1 9 2210.12 643.166 3
-1 2 10 6622.71 918.759 3
-1 -2 10 6697.05 928.524 3
2 1 10 6349.02 873.865 3
-2 1 10 6923.18 937.608 3
2 -1 10 6479.71 856.846 3
1 2 10 6045.54 894.829 3
1 -2 10 5914.14 852.586 3
-2 -1 10 6173.6 928.079 3
1 2 11 5236.94 914.196 3
2 -1 -11 2593.96 982.893 7
-2 -1 11 3754.89 843.686 3
2 -1 11 4731.53 824.035 3
1 -2 11 4030.24 798.336 3
-1 2 11 3085.16 802.381 3
2 1 11 3680.08 790.784 3
-1 -2 11 4043.09 834.769 3
-2 1 11 3442.73 837.502 3
-2 1 12 823.431 534.825 3
2 1 12 1949.87 730.587 3
-1 -2 12 571.364 627.312 3
1 -2 -12 2271.88 804.645 7
-2 -1 12 -437.906 629.113 3
2 1 -12 1735.01 819.501 7
-1 2 12 269.235 702.359 3
2 -1 -12 -271.882 955.915 7
-1 2 -12 961.084 745.654 7
1 2 12 1417.28 693.711 3
1 2 -12 573.933 739.891 7
1 -2 -13 -277.497 777.084 7
-1 2 -13 1279.55 757.089 7
-1 -2 -13 -200.548 774.607 7
2 1 -13 591.536 815.953 7
2 -1 -13 -744.279 889.603 7
-2 -1 -13 218.922 773.123 7
1 2 -13 543.289 840.99 7
-2 -1 -14 -150.252 693.669 7
2 -1 -14 -497.622 731.777 7
2 1 -14 874.079 803.246 7
-1 -2 -14 1105.52 802.396 7
1 -2 -14 787.843 760.197 7
1 2 -14 -1011.18 871.496 7
-2 -1 -15 923.011 597.104 7
1 2 -15 170.301 583.224 7
2 -1 -15 548.248 637.957 7
1 -2 -15 -929.37 610.74 7
2 1 -15 -126.389 672.334 7
-1 -2 -15 1308.96 724.581 7
-1 -2 -16 -639.75 496 7
2 -1 -16 -28.8662 487.352 7
1 -2 -16 273.169 461.445 7
2 -2 0 624276 4994.76 1
2 -2 0 633803 5661.33 2
2 2 -1 123835 1547.45 2
2 2 -1 122394 2387.66 1
2 -2 -1 123108 2193.51 1
2 -2 1 124861 2487.02 1
-2 2 1 115392 2547.3 2
-2 -2 -1 120177 2351.02 2
-2 -2 1 124702 1503.24 2
2 -2 1 124391 2560.76 2
-2 -2 1 123207 2392.03 1
2 -2 -1 121761 2700.54 2
2 2 -2 419305 3281.86 2
2 -2 -2 403507 4166.59 1
2 -2 2 420752 5322.37 1
-2 -2 2 415708 3090.34 2
2 -2 2 423470 5227.99 2
2 2 -2 414134 4913.17 1
2 2 2 433098 5345.98 1
-2 -2 2 412525 4445.51 1
2 -2 -2 411772 5215.79 2
2 2 -3 1245.22 419.971 2
2 2 3 1120.45 321.455 3
2 -2 -3 935.444 674.558 2
2 -2 3 1205.98 658.94 2
-2 2 3 1624.96 358.549 3
-2 -2 3 744.984 471.937 1
2 2 -3 1575.9 350.269 4
-2 -2 3 1415.12 401.214 2
2 2 3 797.65 673.911 1
2 -2 3 1666.02 471.607 4
2 -2 3 1675.12 734.049 1
2 -2 -3 1224.12 501.423 1
2 2 -3 1001.21 590.076 1
-2 -2 -4 44431.3 2352.65 1
-2 2 -4 46164.9 2277.2 2
2 -2 4 44106.9 1063.69 3
-2 2 4 49092.8 2050.47 1
2 2 -4 44808.8 2139.47 1
2 -2 -4 46876.7 2124.83 2
2 2 4 45425.1 1204.57 3
2 2 -4 46940.8 1134.14 4
2 2 -4 46005.6 1727.63 2
-2 2 4 45781.7 1233.17 3
2 2 4 48211.2 2378.32 1
2 -2 4 47317.2 2354.6 1
-2 -2 4 48525.8 1776.77 2
2 -2 4 49202.7 2329.69 2
-2 -2 4 49916.1 2106.84 1
2 -2 -4 45829.9 1995.89 1
-2 2 -4 45071.8 2372.77 1
-2 -2 -4 46889.8 2382.41 2
2 -2 -5 40992.7 2270.14 2
2 2 5 42182.2 1285.84 3
2 2 -5 42645.7 1175.75 4
2 -2 5 41852.7 1186.1 3
2 -2 -5 42528.4 2252.48 1
-2 -2 5 43459 1332.19 3
2 2 -5 43284 2390.58 1
-2 2 5 40106.2 2110.01 1
2 2 -5 39666.1 1902.95 2
-2 -2 5 41123.5 2185.81 1
-2 -2 6 153342 2702.1 3
2 2 -6 154010 2376.45 4
-2 2 6 159655 2742.03 3
2 2 6 154086 2646.91 3
2 -2 6 157380 2512.21 3
2 -2 7 39397 1420.11 3
2 2 -7 41018.2 1368.4 4
2 2 7 38732.9 1502.49 3
-2 -2 7 36022.3 1482.26 3
-2 2 7 39521.9 1535.77 3
2 2 8 17271.2 1124.12 3
2 -2 8 19127.3 1117.97 3
-2 -2 8 20283.4 1240.82 3
2 2 -8 21369.9 1084.74 4
-2 2 8 21809.7 1289.89 3
2 2 9 10497.2 1023.06 3
2 -2 9 9768.86 939.699 3
2 2 -9 11590.8 908.474 4
-2 -2 9 9679.05 996.904 3
-2 2 9 8963.93 962.253 3
2 2 10 1894.3 684.989 3
-2 -2 10 1367.49 677.448 3
2 -2 10 886.541 553.898 3
-2 2 10 1573.5 691.922 3
2 2 -11 -392.744 712.556 7
2 2 11 -123.233 634.024 3
-2 2 11 25.5564 662.822 3
-2 -2 11 517.923 684.437 3
-2 2 12 2910.27 761.015 3
2 -2 -12 2221.47 921.145 7
2 2 -12 4076 1084.59 7
-2 -2 12 566.92 569.256 3
2 2 12 549.875 564.464 3
2 -2 -13 18447.8 1531.6 7
-2 -2 -13 23536.1 1704.55 7
2 2 -13 20526.6 1654.07 7
2 2 -14 8307.91 1134.58 7
-2 -2 -14 8978.38 1109.94 7
2 -2 -14 9444.14 1202.27 7
-2 -2 -15 4311.64 764.668 7
2 2 -15 3785.35 804.179 7
2 -2 -15 5637.21 910.332 7
2 -2 -16 2506.29 569.465 7
-3 0 0 -125.397 209.204 1
0 -3 0 3.00041 558.636 1
3 0 0 16.3101 204.329 1
-3 0 0 188.871 299.327 2
0 -3 0 201.581 488.912 2
3 0 0 36.9766 269.992 2
0 -3 1 239944 3936.77 1
3 0 1 246200 3379.83 2
-3 0 -1 243397 3336.26 2
3 0 -1 247723 2221.1 2
0 -3 1 248078 3607.04 2
3 0 1 244307 3157.24 1
-3 0 1 247472 2404.34 2
0 -3 -1 246269 3991.44 2
-3 0 -1 243703 3147.66 1
3 0 -2 402686 3533.86 2
-3 0 2 400925 2874.22 1
0 -3 2 398321 4694.18 2
0 -3 2 404446 5341.59 1
3 0 -2 406504 3000.11 1
3 0 2 399797 5121.17 2
0 3 -2 390994 4898.52 2
-3 0 -2 400249 5074.68 1
3 0 2 401959 5036.54 1
0 -3 3 64399.9 2422.58 1
3 0 -3 63446.9 1702.39 2
3 0 -3 65454.1 1852.29 2
0 3 3 67014.4 1294.56 3
0 3 -3 61693.8 2163.55 2
0 -3 3 65475.8 2163.13 2
3 0 3 63601.1 2422.67 2
0 3 -3 63775.8 2539.07 1
3 0 3 68562.9 2493.25 1
-3 0 3 64848.5 1677.12 1
3 0 -3 62501.6 1730.02 1
0 -3 -3 62764.7 2367.19 1
3 0 -4 24884.5 758.438 4
3 0 4 25057.1 934.068 4
0 -3 4 25652.4 1746.84 1
0 -3 -4 25232.9 1797.99 1
0 3 -4 25700 1618.79 2
3 0 4 25631.4 851.787 3
3 0 4 26340.6 1848.71 1
-3 0 -4 25163.8 1793.3 2
0 3 -4 26233.7 1892.56 1
0 -3 -4 25690.8 1757.49 2
3 0 4 27198.7 1847.76 2
3 0 -4 26127.6 1362.41 2
-3 0 -4 25552.5 1840.7 1
3 0 -4 26343.1 1429.27 1
-3 0 4 27865 1417.89 1
0 -3 4 26903.5 1624.79 2
3 0 -5 97421.6 3157.86 1
0 3 -5 94987.6 3326.89 2
-3 0 5 97107 3007.62 1
0 -3 5 95267.3 3272.15 2
3 0 -5 99166.8 1589.83 4
0 -3 5 97841.6 1882.29 3
3 0 5 104281 1874.32 3
3 0 -5 100926 3030.04 2
0 -3 6 39968.1 1369.54 3
3 0 6 40747.5 1326.6 3
0 3 6 41782.1 1456.78 3
-3 0 6 40021.3 1447.41 3
3 0 -6 40376.3 1126.41 4
3 0 -7 672.919 382.873 4
0 -3 7 1001.66 486.991 3
-3 0 7 653.884 520.035 3
3 0 7 908.233 438.127 3
0 3 7 163.913 508.178 3
3 0 8 43110.2 1645.31 3
0 3 8 43982.4 1762.13 3
0 -3 8 42872.9 1683.95 3
-3 0 8 44225.7 1781.9 3
0 3 -8 46172.7 1667.96 4
0 3 9 52496.8 2072.35 3
3 0 9 51444.6 1928.84 3
-3 0 9 54249.4 2096.39 3
0 3 -9 54653.3 1916.03 4
0 -3 9 49983.2 1937.88 3
-3 0 10 14632.7 1259.6 3
0 3 10 13274.5 1200.01 3
0 -3 10 13475.3 1173.9 3
3 0 10 13360.7 1141.04 3
0 3 -10 12848.4 1066.14 4
-3 0 11 1397.52 710.732 3
3 0 11 1176.33 642.907 3
0 -3 11 1704.24 662 3
3 0 -11 1509.1 718.663 7
0 3 11 2494.47 768.587 3
3 0 -12 3425.41 1029.81 7
0 3 -12 5850.58 1030.77 7
0 3 -13 5373.53 986.292 7
3 0 -13 6516.72 1164.3 7
0 -3 -13 7127.09 1194.92 7
3 0 -14 1235.3 722.631 7
0 -3 -14 -382.305 673.945 7
0 -3 -15 -564.551 610.666 7
3 0 -15 -599.974 632.6 7
0 -3 -16 2114.08 552.707 7
-1 -3 0 124649 2557.4 2
1 -3 0 122716 2904.42 2
-3 -1 0 123767 1821.53 1
3 1 0 121739 1780.61 2
-1 -3 0 126347 2896.63 1
1 -3 0 115213 2807.93 1
-3 -1 0 122339 1753.48 2
-3 1 0 121849 1779.42 1
3 -1 0 119108 2210.78 2
-3 1 0 123177 2370.05 2
1 3 0 124828 2549.83 2
3 -1 0 122720 1734.05 1
3 -1 -1 63268.7 957.124 1
-3 1 -1 64572.1 1726.46 1
3 -1 1 68647.7 1759.39 1
3 1 1 67154.1 1789.96 2
3 -1 1 67687.5 1904.5 2
-1 -3 1 70336.2 1799.64 2
1 3 -1 66253.3 1844.03 2
-3 -1 1 70300.2 1247.91 1
-3 -1 -1 66938.6 1764.93 2
-3 1 1 66584.3 1735.11 2
1 -3 1 69306.9 2045.14 2
1 -3 1 68857.1 2140.06 1
3 1 1 68863.8 1785.97 1
-3 -1 -1 70546.5 1814.87 1
-1 -3 -1 69686.8 2167.9 2
1 -3 -1 66457.5 2068.06 1
1 -3 -1 68440.6 2237.3 2
-1 -3 1 71297.1 2227.27 1
3 -1 -1 66973.6 1721.4 2
3 1 2 2918.92 640.536 1
3 1 -2 1520.69 398.572 1
1 3 -2 1311.73 603.048 1
3 -1 2 1098.33 533.451 2
-1 -3 2 1793.16 607.133 1
1 3 -2 1307.45 496.9 2
-3 -1 2 2014.01 365.174 1
3 -1 2 1400.54 585.489 1
-1 3 -2 1329.37 579.564 2
1 -3 -2 2120.38 751.342 2
-3 1 -2 1853.9 597.021 1
1 -3 2 2212.9 618.525 2
1 -3 -2 1362.53 478.302 1
3 -1 -2 1819.42 519.606 2
-1 -3 2 1962.31 484.257 2
-3 -1 -2 1619.63 573.463 1
3 -1 -2 1737.3 330.573 1
3 1 2 1203.93 577.448 2
1 -3 2 1596.36 634.63 1
3 -1 -3 47946.5 1514.45 1
1 -3 -3 47071 1988.93 1
3 1 -3 49855 1676.23 1
-1 3 3 50078.7 1133.4 3
3 1 3 48536.2 2136.37 1
3 1 3 51554 2209.77 2
1 3 -3 47675.5 2213.03 1
1 -3 -3 49588.7 2342.98 2
1 -3 3 48796.9 2195.67 1
-1 -3 3 48300.7 1721.05 2
-3 1 3 49550.7 1136.3 3
-1 -3 3 46602.3 2022.92 1
-3 1 3 48856.3 1513.57 1
3 -1 3 47565.4 1193.64 4
1 -3 3 50064.4 2072.59 2
3 -1 3 51237.5 2196.37 1
3 -1 3 48966.9 2153.65 2
3 1 -3 48928.6 1000.88 4
-1 3 -3 46382.5 2029.56 2
3 1 -3 47483.6 1260.12 2
1 3 -3 47579.4 1765.25 2
1 3 3 49827.9 1141.25 3
3 -1 -3 48543.7 1858.9 2
-3 -1 3 46503.1 1526.85 1
3 -1 4 5538.46 443.97 3
1 -3 -4 6728.96 1063.53 1
3 -1 -4 5782.33 388.618 4
3 1 -4 6163.03 664.935 2
-1 -3 -4 5279.83 958.461 1
3 -1 4 6360.94 1008.58 2
-3 1 4 5849.46 762.749 1
-3 1 -4 6288.8 966.022 2
1 -3 4 5104.96 463.487 3
1 3 4 7660.22 1083.79 1
3 1 4 5630.44 502.168 4
3 -1 4 5254.2 585.922 4
3 -1 -4 6149.55 826.054 2
1 -3 4 4637.9 939.225 1
1 3 -4 5359.04 817.58 2
3 1 4 6374.9 1024.84 1
3 -1 -4 6427.52 840.355 1
-3 1 4 5676.88 551.737 3
-3 -1 -4 5862.45 977.164 2
-1 -3 -4 5495.68 948.208 2
-3 -1 4 7146.86 819.35 1
3 1 4 6212.68 1023.26 2
-3 -1 -4 6403.5 1066.89 1
3 1 -4 5764.51 469.46 4
1 -3 4 7325.21 1027.57 2
1 -3 -4 5989.47 954.384 2
-3 1 -4 6714.42 1114.92 1
1 3 -4 5618.23 1063.85 1
3 -1 -4 6439.08 982.361 2
3 1 4 6032.51 523.44 3
3 -1 4 6931.69 1096.49 1
-1 -3 4 8356.71 1128.53 1
-1 3 -4 7533.18 1152.36 1
-1 -3 4 6457.08 837.401 2
-1 3 -4 5517.88 937.04 2
-1 3 4 5632.77 557.501 3
3 1 -4 5076.49 792.334 1
3 -1 -5 7938.51 1019.98 1
3 1 -5 7823.59 879.718 2
3 -1 -5 9678.78 1135.18 2
-1 3 -5 8265.58 1102.2 2
3 1 5 8186.05 631.015 3
3 1 -5 7806.54 554.515 4
-3 1 5 8219.26 1004.12 1
3 -1 5 7004.64 572.555 3
-3 -1 5 8027.16 1000.74 1
1 -3 -5 8088.54 1101.13 1
1 3 -5 7499.8 1128.39 1
3 1 5 8928.6 648.947 4
3 1 -5 8141.74 1166.33 1
3 -1 -5 7877.43 475.602 4
1 -3 5 8946.1 635.647 3
1 3 -5 6381.12 1011.72 2
-1 -3 5 8159.43 665.446 3
-1 -3 5 7320.64 970.208 2
3 1 6 2656.9 503.801 3
3 -1 6 1998.65 398.08 3
-1 -3 6 3264.95 574.75 3
-3 -1 6 2989.86 580.437 3
1 3 6 2865.25 569.778 3
3 -1 -6 2567.85 374.569 4
-3 1 6 2919.61 628.758 3
1 3 -6 2330.83 481.851 4
3 1 -6 2665.92 434.619 4
-1 3 6 1666.22 529.757 3
1 -3 6 2462.2 555.553 3
1 3 -7 197.11 446.342 4
-1 -3 7 257.368 454.121 3
-3 -1 7 366.261 509.433 3
-3 1 7 616.493 573.295 3
1 3 7 74.0247 494.663 3
1 -3 7 403.224 391.89 3
3 1 7 179.475 417.028 3
3 1 -7 256.784 361.607 4
3 -1 7 435.53 391.284 3
-1 3 7 684.996 522.146 3
-1 3 8 306.321 549.881 3
3 1 8 -113.483 456.764 3
3 1 -8 958.965 460.987 4
1 -3 8 1150.94 527.184 3
-1 -3 8 397.036 510.152 3
1 3 8 742.41 543.683 3
1 3 -8 669.932 498.561 4
3 -1 8 604.993 456.437 3
-3 1 8 813.061 595.499 3
-3 -1 8 816.014 640.897 3
3 -1 9 2894.42 646.572 3
-3 1 9 3931.27 797.72 3
-1 -3 9 2950.83 687.412 3
1 3 9 3861.29 766.107 3
1 3 -9 3289.17 638.738 4
3 1 9 2936.57 694.536 3
1 -3 9 3432.97 683.33 3
-1 3 -9 4329.64 741.689 4
-1 3 9 3270.89 750.028 3
-3 -1 9 3606.17 738.841 3
-1 3 10 -564.812 657.127 3
1 -3 10 -215.259 516.752 3
1 3 -10 -822.467 628.881 4
-1 3 -10 -545.793 640.761 4
3 1 10 -896.787 609.748 3
1 3 10 347.499 609.888 3
-3 -1 10 1310.27 696.96 3
3 -1 10 -794.973 605.725 3
-3 1 10 -59.132 612.972 3
-1 -3 10 -600.4 577.968 3
1 3 -11 1304.03 922.061 7
-1 -3 11 -570.685 654.794 3
-1 3 11 307.111 628.786 3
3 -1 -11 444.066 747.367 7
1 3 11 -491.027 594.816 3
3 1 11 1582.39 707.307 3
-3 -1 11 421.592 625.216 3
-3 1 11 691.217 695.584 3
3 1 -11 2247.55 1031.83 7
1 3 -12 708.266 695.99 7
3 -1 -12 151.21 669.612 7
-1 -3 12 -60.6675 638.914 3
3 1 -12 -180.36 684.254 7
3 1 -13 3706.09 960.158 7
1 -3 -13 1694.96 807.66 7
-3 -1 -13 3730.77 922.704 7
3 -1 -13 2543.45 948.483 7
-1 -3 -13 1470.26 766.706 7
1 3 -13 2060.55 811.636 7
1 -3 -14 900.968 810.421 7
3 1 -14 -246.723 661.397 7
1 3 -14 62.454 714.945 7
-1 -3 -14 -717.608 725.077 7
3 -1 -14 729.819 831.868 7
3 -1 -15 750.377 650.565 7
-1 -3 -15 -262.675 621.522 7
1 -3 -15 548.03 569.081 7
3 1 -15 530.95 612.814 7
3 -1 -16 349.153 455.407 7
1 -3 -16 366.191 443.37 7
-1 -3 -16 766.434 475.922 7
3 -2 0 201.911 370.62 1
-3 2 0 112.727 418.782 1
-3 -2 0 202.025 296.003 2
2 -3 0 -186.245 483.186 1
-2 3 0 231.652 527.033 1
-2 -3 0 -366.44 410.298 2
-3 2 0 -223.54 546.356 2
2 -3 0 -418.506 555.803 2
-2 -3 0 558.629 596.013 1
3 -2 0 119.394 466.671 2
2 -3 1 30865.4 1489.52 1
-3 -2 1 30527.6 1267.26 1
-3 2 1 30813.8 1476.1 2
3 -2 -1 30191.7 1512.54 2
3 -2 -1 30429.1 1136.42 1
-3 -2 -1 30539.7 1331.97 1
-2 -3 1 31543.9 1575.6 1
3 -2 1 30773.1 1344.53 1
2 3 -1 28069.9 1455.76 1
3 -2 1 30257.5 1440.57 2
-3 -2 -1 30231.1 1320.48 2
2 -3 -1 30219.1 1437.94 1
2 -3 -1 32385.5 1718.12 2
-2 -3 1 30567.2 1144.54 2
2 -3 1 32385 1551.07 2
2 3 -1 30783.1 1134.78 2
-3 2 -1 32185.7 1400.93 1
2 3 -2 72261.2 2511.33 1
-3 -2 2 74373.6 1856.56 1
2 -3 -2 68565.6 1988.84 1
-3 -2 -2 72888.6 2367.57 1
2 -3 2 73494.8 2455 1
3 -2 2 74397.1 2387.8 1
2 3 -2 73517.4 1888.58 2
2 -3 2 75016.1 2424.66 2
3 2 -2 72322.1 2107.54 1
-3 2 -2 71527.1 2378.5 1
-3 -2 -2 74389.2 2375.78 2
-2 -3 2 75614.9 1621.43 2
3 -2 -2 75915.8 2393.62 2
-2 -3 2 76203.8 2298.33 1
3 -2 2 76104.8 2462 2
3 2 2 73824.6 2374.88 1
3 -2 -2 73779.4 1675.69 1
2 -3 -2 78308.3 2643.27 2
2 -3 3 50895.8 2223.33 2
3 2 -3 51268.7 1975.85 1
-3 -2 3 52371 1808.77 1
3 2 3 51453.6 1138.47 3
2 3 -3 48718 2228.65 1
3 -2 3 53371.2 1321.99 4
3 2 3 55919.6 2358.14 1
2 -3 3 52955.7 2373.12 1
3 2 -3 50398.9 1234.53 2
2 -3 -3 50751.9 2366.49 2
3 -2 3 52471.9 2295.16 1
2 -3 3 51344.3 1369.68 4
2 3 3 51544.9 1184.28 3
-3 2 3 52208.3 1167.73 3
3 -2 -3 50294.3 1687.89 1
3 -2 -3 50555.5 2146.45 2
2 3 -3 50633.8 1666.82 2
2 -3 -3 49264.5 1938.3 1
-3 2 -3 52244 2324.59 1
-2 3 3 51049.8 1153.54 3
-2 -3 3 51130.5 2069.18 1
3 -2 3 51631.2 2270.87 2
2 3 -3 51755.7 1141.11 4
3 2 -3 51699.2 1095.82 4
-2 3 -3 47785 2190.94 2
-2 -3 3 54316.7 1604.97 2
-2 3 -4 52545.4 2667.45 1
3 -2 4 58638.5 2667.08 2
3 2 4 55829.9 1337.72 3
-2 -3 4 55493.4 1911.72 2
-2 -3 4 58894.6 2453.92 1
-2 -3 -4 53830 2607.1 2
3 2 -4 55443.6 1240.18 4
3 -2 -4 54182.3 2061.77 1
-3 -2 4 55099.5 2125.2 1
3 2 -4 59612.7 2418.38 1
3 2 4 57858.1 2683.17 1
-2 3 4 54979.4 1354.37 3
3 -2 4 55433.8 1489.38 4
2 3 -4 54596 1284.55 4
2 -3 -4 53467.4 2305.43 1
2 3 -4 55498.6 1992.02 2
3 2 -4 54915.6 1673.86 2
2 3 4 52772.6 1343.99 3
2 3 -4 57090 2635.52 1
2 3 4 57279.3 2666.09 1
-3 2 4 57485.4 1387.52 3
-2 3 -4 57213.9 2642.34 2
-3 2 -4 54366.3 2668.17 1
3 -2 4 56794.3 2649.7 1
-2 -3 -4 54514.4 2631.39 1
2 -3 4 53852.6 1169.96 3
-3 2 -4 55381.1 2621.88 2
-3 -2 -4 55108 2653.17 2
2 -3 4 62602.7 2687.69 2
2 -3 4 54866.6 2625.86 1
3 -2 -4 56470.3 2494.98 2
-3 -2 -4 56819.4 2726.34 1
2 -3 -4 57055 2709.85 2
3 2 5 25658 1035.7 3
3 2 -5 25603.3 944.077 4
-3 -2 5 21439.1 1567.06 1
3 -2 -5 27730.6 1997.24 2
3 -2 -5 26240.8 1711.46 1
2 -3 -5 26536.5 1824.11 1
2 3 -5 23754.1 1535.7 2
3 -2 5 26223.9 936.409 3
2 -3 5 26114.7 959.573 3
3 2 -5 25720.2 1918.05 1
2 3 -5 26025 1005.35 4
-2 3 5 25410.9 1078.99 3
2 3 -5 26898.1 2032.01 1
2 -3 -5 25978.6 1843.55 2
-2 -3 5 25484.1 1561.63 2
2 3 5 26024.5 1071.69 3
-2 -3 5 25549.6 1821.51 1
-3 2 5 26068.3 1076.91 3
3 2 5 24542 881.48 4
3 -2 -5 25168.3 1810.89 2
-3 2 6 25197.2 1177.25 3
-2 3 6 23486.9 1133.1 3
-3 -2 6 25596.5 1183.66 3
2 3 -6 24718.3 1062.56 4
3 2 6 25447.3 1138.63 3
3 -2 6 24876.2 1016.95 3
2 3 6 25668.9 1173.94 3
3 2 -6 24524.2 998.741 4
2 -3 6 26859.4 1097.54 3
-2 -3 6 25123 1173.34 3
-3 -2 7 4015 749.873 3
3 2 7 2517.1 574.482 3
2 -3 7 2733.56 526.09 3
2 3 7 2013.34 562.602 3
3 2 -7 2388.06 503.21 4
2 3 -7 2652.9 551.427 4
3 -2 7 1736.28 446.367 3
-3 2 7 2520.67 627.201 3
-2 -3 7 2802 654.227 3
-2 3 7 1938.92 570.128 3
2 3 -8 5518.72 700.715 4
3 2 -8 5503.11 640.07 4
-3 2 8 5746.3 789.621 3
2 3 8 6058.39 804.604 3
-2 -3 8 5205.36 800.218 3
3 2 8 5497.03 735.038 3
-2 3 8 4699.06 716.321 3
-3 -2 8 4700.25 764.358 3
2 -3 8 5919.72 735.336 3
3 -2 8 5579.99 705.802 3
2 -3 9 17623 1162.99 3
3 2 -9 20477.6 1137.52 4
2 3 -9 20002.3 1183.43 4
-3 2 9 19044.8 1340.65 3
3 2 9 19108.6 1285.94 3
-3 -2 9 18976.6 1342.3 3
-2 -3 9 19029.3 1323.79 3
-2 3 9 18921.5 1357.99 3
2 3 9 18407.1 1280.06 3
3 -2 9 17016.7 1126.66 3
2 3 10 18824.8 1400.68 3
-2 -3 10 19930.1 1412.75 3
2 3 -10 19836.1 1274.98 4
-3 -2 10 18695.9 1423.08 3
-3 2 10 19969.9 1446.06 3
-2 3 -10 18244.6 1294.08 4
3 2 10 20401.9 1398.52 3
-2 3 10 19607 1430.04 3
-2 3 11 13614.8 1284.55 3
3 2 11 13413.1 1221.77 3
-3 -2 11 12216.5 1246.47 3
3 2 -11 12155.5 1316.51 7
2 3 -11 12500.9 1315.69 7
3 -2 -11 13803.8 1453.69 7
-2 -3 11 14508.2 1304.2 3
2 3 11 15474.7 1340.01 3
-3 2 11 11902.1 1215.63 3
3 -2 -12 2903.82 987.848 7
3 2 -12 5091.35 1173.95 7
2 3 -12 4384.92 1083.95 7
2 -3 -12 6233.88 1125.38 7
2 3 -13 -255.775 878.594 7
3 2 -13 -187.743 794.204 7
3 -2 -13 1816.13 860.157 7
-3 -2 -13 285.799 739.378 7
2 -3 -13 -419.624 773.19 7
-3 -2 -14 537.116 693.666 7
3 -2 -14 263.821 732.518 7
2 -3 -14 107.13 744.979 7
3 2 -14 -91.6206 696.823 7
-2 -3 -14 -244.876 724.597 7
2 3 -14 67.7583 732.238 7
-2 -3 -15 320.455 577.046 7
3 -2 -15 1003.93 754.413 7
3 2 -15 1673.8 648.339 7
3 -2 -16 1492.85 506.57 7
-2 -3 -16 389.122 481.583 7
2 -3 -16 421.773 491.397 7
-3 -3 0 138838 3152.56 1
-3 3 0 127562 3003.18 1
-3 -3 0 136171 2588.49 2
3 -3 0 134967 3262.1 2
3 -3 0 137618 2863.36 1
-3 3 1 22600.4 1528.28 2
-3 -3 -1 24420.5 1283.76 2
-3 -3 1 22865.3 1393.45 1
-3 -3 -1 21343.7 1248.78 1
-3 -3 1 22467.1 932.368 2
-3 3 -1 21040.7 1372.95 1
3 -3 1 21557.8 1387.5 2
3 -3 -1 20694 1456.54 2
3 -3 1 21433.1 1310.57 1
3 -3 -1 20410.2 1240.36 1
-3 -3 2 728.339 230.289 2
3 -3 -2 516.496 741.196 2
-3 -3 2 477.866 501.35 1
3 3 2 438.572 318.74 3
3 -3 2 200.755 640.883 2
-3 3 2 459.092 727.537 2
3 -3 -2 524.842 507.431 1
3 3 -2 749.957 613.896 1
-3 -3 -2 832.432 567.563 2
3 3 -2 35.8836 260.139 2
-3 3 -2 662.55 656.485 1
3 -3 2 389.869 593.865 1
3 -3 2 709.366 427.546 4
3 3 -2 799.677 347.148 3
3 3 -2 913.962 317.947 4
-3 -3 -2 521.006 573.729 1
3 3 -3 -142.609 614.909 1
-3 -3 -3 -125.306 665.159 1
3 -3 -3 227.643 496.957 1
-3 3 3 195.506 326.215 3
3 -3 3 447.659 738.484 1
-3 -3 3 396.315 588.57 1
3 -3 -3 -451.163 719.368 2
-3 -3 -3 -129.715 600.209 2
-3 3 -3 697.497 683.22 1
3 3 -3 556.699 373.067 2
3 3 3 656.273 344.276 3
3 -3 3 -362.294 730.994 2
-3 3 -3 427.294 678.466 2
-3 -3 3 136.72 268.287 2
-3 3 4 113589 1942.84 3
3 3 -4 120602 3780.74 1
-3 -3 4 117752 3326.84 1
3 3 -4 120370 2590.72 2
-3 -3 4 119371 2457.43 2
3 -3 -4 112732 3126.19 1
-3 3 -4 124567 4188.43 1
-3 -3 -4 115859 3970.41 1
3 -3 -4 119330 3868.4 2
-3 3 -4 116730 3917 2
-3 -3 -4 120745 4001.98 2
3 3 4 111155 1940.32 3
3 3 -5 66804.9 1562.68 4
3 3 -5 57413.8 2907.04 1
-3 3 5 66212.7 1663.05 3
3 3 5 68184.6 1673.41 3
3 -3 -5 60016.9 2617.69 1
-3 -3 5 67393.7 2795.49 1
3 -3 -5 65692.3 3147.51 2
3 -3 5 63830.9 1396.49 3
3 -3 -5 57918.1 2794.45 2
3 -3 6 3215.64 496.165 3
-3 3 6 3068.55 596.565 3
-3 -3 6 3058.43 585.104 3
3 3 -6 3707.2 564.26 4
3 3 6 3645.06 593.143 3
3 -3 7 73229.1 1858.29 3
-3 -3 7 72629.8 2136.16 3
3 3 -7 76417.2 1903.88 4
-3 3 7 74658 2128.82 3
3 3 7 76063.6 2125.65 3
-3 3 8 60301.8 2093.73 3
3 3 8 58350.6 2018.85 3
-3 -3 8 59883.5 2105.2 3
3 3 -8 59230.1 1824.39 4
-3 3 9 3095.16 725.493 3
-3 -3 9 2932.5 710.904 3
3 3 9 2958.75 683.243 3
3 3 -9 3381.97 630.493 4
-3 3 10 -5.58108 631.42 3
3 3 10 584.251 565.541 3
-3 -3 10 1050.44 722.556 3
-3 3 -10 871.31 648.437 4
3 3 11 7443.44 1002.14 3
3 3 -11 7332.21 1249.22 7
-3 3 11 8159.34 1085.5 3
-3 -3 11 7262.23 1043.09 3
3 3 -12 2466.83 796.954 7
3 -3 -12 2605.62 913.466 7
3 3 -13 3182.01 869.241 7
3 -3 -13 1258.84 761.129 7
3 3 -14 2402.64 868.279 7
3 -3 -14 1762.03 800.449 7
-3 -3 -14 449.503 660.066 7
3 -3 -15 2155.03 720.85 7
-3 -3 -15 1408.38 603.22 7
3 -3 -16 1234.85 516.206 7
0 -4 0 974489 9333.88 1
0 -4 0 981368 9010.76 2
4 0 0 985968 6185.88 2
-4 0 0 991884 6346.68 2
4 0 0 990605 4920.89 1
-4 0 0 999999 4963.51 1
-4 0 -1 160839 2799.87 1
4 0 1 154374 2994.01 2
0 -4 1 157628 3737.04 1
0 -4 1 158017 3373.89 2
0 4 -1 155117 3602.51 2
0 -4 -1 163290 3766.22 1
4 0 1 156484 2737.5 1
-4 0 -1 156734 2977.87 2
-4 0 1 155897 2352.58 2
4 0 -1 159515 2055.32 2
0 -4 -1 155330 3669.07 2
-4 0 -2 84550.9 2587.24 2
4 0 2 89587.1 2553.65 1
0 4 -2 83613.5 2689.45 2
0 -4 2 88657.5 2529.77 2
4 0 -2 90673.3 1680.66 2
0 -4 -2 84895.1 2942.91 2
-4 0 -2 85416.3 2522.16 1
0 -4 2 89428.1 2861.84 1
4 0 2 86810 2621.72 2
-4 0 -3 6653.16 958.343 1
0 -4 3 7692.89 1093.46 1
4 0 3 7090.25 993.902 1
0 -4 -3 5345.15 906.201 1
0 4 3 7156.04 529.95 3
4 0 -3 7250.57 456.816 4
4 0 -3 7267.65 618.893 2
0 4 -3 6991.72 1212.47 1
-4 0 -3 6942.53 1026.08 2
0 -4 -3 8284.1 1218.75 2
4 0 -3 8421.72 629.23 1
4 0 3 8170.84 1085.43 2
4 0 3 7242.53 568.779 4
4 0 -3 7813.34 724.33 2
0 4 -3 6214.77 941.239 2
0 -4 3 6866.38 902.925 2
-4 0 3 7508.35 559.538 1
4 0 -4 65736.9 1961.76 2
-4 0 -4 65213.3 2971.99 1
4 0 4 64126.9 1488.08 4
0 -4 4 65506.3 2568.98 2
4 0 -4 62812 1221.54 4
4 0 -4 64337.5 2040.09 1
-4 0 -4 66058.4 2937.91 2
4 0 4 62227.6 2784.74 1
4 0 4 61593 1273.59 3
0 -4 -4 64896.6 2829.76 1
0 4 -4 62468.2 2616.74 2
-4 0 4 61418 1474.77 3
-4 0 4 65778.6 1954.53 1
0 4 -4 65699.4 3100.74 1
0 -4 4 65358.7 2879.11 1
4 0 -4 68825.6 2172.25 2
4 0 5 253611 3134.94 4
0 -4 5 251050 5462.13 2
4 0 -5 253736 2594.27 4
4 0 5 257874 2899.56 3
0 -4 5 249834 3024.03 3
-4 0 5 253413 3239.85 3
-4 0 6 218350 3311.07 3
0 -4 6 209735 3082.46 3
4 0 6 215503 2948.76 3
4 0 -6 217374 2604.83 4
0 4 6 214335 3260.73 3
4 0 -7 3259.82 469.165 4
0 -4 7 2366.39 532.952 3
-4 0 7 2917.78 662.101 3
4 0 7 2459.69 507.961 3
0 4 7 1971.07 593.574 3
0 4 -8 3184.23 652.679 4
-4 0 8 3189.86 724.8 3
0 4 8 4303.53 739.477 3
4 0 8 3800.06 631.066 3
0 -4 8 2992.67 568.131 3
4 0 9 3952.18 705.987 3
0 4 9 3502.44 791.758 3
-4 0 9 3107.51 752.858 3
0 4 -9 2979.66 703.682 4
0 -4 9 3916.52 725.986 3
0 4 -10 2179.15 707.52 4
0 -4 10 2319.94 725.742 3
0 4 10 2497.44 784.126 3
-4 0 10 1727.17 713.092 3
0 4 11 1700.18 752.478 3
0 -4 11 1257.83 659.236 3
-4 0 11 741.797 682.017 3
4 0 -11 1279.77 976.344 7
4 0 -12 4528 1027.58 7
0 -4 -13 10063.7 1207.77 7
4 0 -13 12667.2 1399.86 7
0 -4 -14 4850.57 907.01 7
4 0 -14 5554.59 960.767 7
4 0 -15 1779.49 659.168 7
0 -4 -15 1310.14 584.197 7
0 -4 -16 1434.35 542.446 7
1 -4 0 -637.249 764.754 2
-1 -4 0 606.125 733.047 1
4 -1 0 -48.9865 428.899 2
-1 -4 0 7.98059 576.491 2
-4 1 0 -367.738 341.139 1
4 -1 0 168.803 293.082 1
1 4 0 405.211 574.599 2
-4 -1 0 858.248 387.744 1
-4 1 0 -135.636 454.255 2
1 -4 0 189.088 676.044 1
-4 -1 0 808.855 397.045 2
4 1 0 669.22 393.227 2
4 1 1 135426 2676.77 1
-4 1 -1 130995 2597.1 1
-1 -4 1 133238 3494.47 1
1 4 -1 132421 3050.27 2
1 -4 -1 137224 3465.25 1
-1 -4 1 136530 3013.98 2
-4 -1 1 128188 1722.01 1
4 -1 1 133756 2928.58 2
4 -1 -1 134658 2515.54 2
-4 -1 -1 130065 2693.26 2
1 -4 1 136889 3292.24 2
-1 -4 -1 139481 3407.3 2
-4 1 -1 131280 2948.95 2
1 -4 -1 133124 3549.59 2
-4 -1 -1 135095 2670.34 1
-4 -1 1 127686 1491.86 1
1 -4 1 140108 3481.14 1
4 -1 1 130505 2586.09 1
-4 1 1 130644 2724.92 2
4 1 1 131345 2719.54 2
4 1 -2 115980 1471.69 4
4 -1 -2 120081 2665.41 2
-4 1 -2 113650 2945.11 1
1 4 2 116341 1603.31 3
1 4 -2 111505 2975.89 2
-4 -1 -2 116710 2998.7 1
1 -4 2 116696 3094.44 2
-4 -1 -2 115247 3003.18 2
4 1 2 115901 3018.6 2
-1 -4 -2 119420 3522.64 2
1 -4 2 116232 3297.56 1
4 -1 2 115175 3082.09 2
1 4 -2 110872 3529.4 1
4 -1 2 116098 2940.32 1
-1 -4 2 115182 2662.72 2
4 1 -2 114072 1785.79 1
1 -4 -2 116439 3501.54 2
-1 -4 2 117884 3269.46 1
-1 4 -2 115646 3294.35 2
4 1 2 117427 2966.14 1
-4 -1 2 114250 1590.76 1
4 -1 2 114267 1650.03 4
-1 -4 -3 25439.7 1740.3 1
4 -1 -3 29397.4 1484.81 2
4 1 3 26780.2 850.388 4
1 -4 3 29642.6 1903.68 1
1 4 -3 28133.2 1599.69 2
-4 -1 -3 29995.5 1854.58 2
-1 -4 3 29303 1503.81 2
4 1 3 30647.2 1840.09 2
4 -1 -3 27616.7 1033.7 1
-1 4 -3 26898.7 1755.58 2
4 1 -3 27520.6 1233.43 1
4 1 3 27477.4 810.009 3
1 -4 3 30369.3 1779.17 2
4 -1 3 27751.6 969.761 4
1 4 -3 27448.1 1965.03 1
-4 1 -3 26413 1746.46 1
-4 1 3 29757.1 933.09 3
-1 -4 3 28518.7 1802.24 1
4 1 -3 25957.4 747.525 2
4 1 -3 27076.5 870.837 2
4 1 -3 27840.8 818.536 4
1 -4 -3 32047.5 2093.8 2
4 1 3 28753.4 1779.03 1
1 4 3 26817.3 907.593 3
-4 -1 3 27278.5 1086.4 1
-1 4 3 28368.2 917.624 3
4 -1 3 30052.9 1837.53 2
4 -1 -3 25959.2 716.12 4
-4 -1 -3 26058 1713.17 1
4 -1 3 27681.2 1732.23 1
-4 1 -3 28565.3 1753.33 2
1 -4 -3 25626.7 1585.25 1
4 -1 4 7224.2 466.702 3
4 1 -4 7252.12 741.976 2
4 1 -4 6878.35 595.91 2
4 -1 -4 7204.65 831.361 2
1 4 -4 7015.04 925.71 2
4 -1 -4 6214.2 932.234 2
4 -1 4 7356.67 647.533 4
4 1 -4 7782.96 865.302 1
-4 1 4 7894.56 616.437 3
4 1 4 11756.1 751.854 3
4 1 -4 7924.16 530.163 4
-4 1 -4 7845.45 1139.9 2
-1 -4 4 7473.99 1162.5 1
-4 -1 -4 10858.8 1542.5 1
1 -4 -4 7132.61 1318.13 2
4 -1 4 5226.09 1012.78 1
-1 -4 4 8776.73 986.962 2
4 -1 -4 7770.75 766.333 1
-1 -4 -4 5876.62 947.144 1
-1 -4 -4 7225.72 1071.46 2
4 1 4 9159.7 1389.29 1
1 -4 -4 7975.99 1142.78 1
-1 4 4 7314.32 613.827 3
1 4 -4 8532.66 1295.18 1
-4 -1 -4 10024.8 1494.59 2
-4 -1 4 7076.75 773.351 1
1 -4 4 7266.15 1084.34 2
-1 4 -4 7084.22 1121.71 2
-1 4 -4 8602.08 1281.62 1
-4 1 -4 6312.37 1148.7 1
4 -1 -4 7379.23 448.902 4
1 4 -5 38454.1 1262.83 4
4 1 5 39871.9 1230.88 3
1 4 -5 34617.5 2068.45 2
1 -4 5 39235 1207.62 3
-1 4 5 40093.9 1332.62 3
4 1 5 37050.8 1203.6 4
4 -1 5 37416.4 1318.53 4
4 -1 -5 36411.9 961.691 4
-4 1 5 38104.1 1309.1 3
-1 -4 5 36233.9 1999.69 2
4 -1 5 36861.9 1098.14 3
4 1 -5 38186 1094.48 4
1 4 6 3101.71 577.824 3
4 1 -6 3087.01 444.095 4
-1 4 6 3970.22 653.487 3
4 -1 6 2895.64 483.548 3
1 -4 6 3269.89 536.763 3
4 1 6 2763.87 516.285 3
-1 -4 6 3269.9 561.739 3
1 4 -6 3798.14 600.97 4
-4 1 6 2788.34 569.909 3
4 -1 -6 2742.54 381.766 4
-4 -1 6 3848.5 664.79 3
1 4 -7 1196.36 516.404 4
4 1 7 1159.18 471.841 3
-1 -4 7 937.311 473.089 3
4 -1 7 670.567 371.789 3
1 4 7 1069.91 489.51 3
-4 1 7 1004.16 536.902 3
-4 -1 7 1749.85 658.277 3
1 -4 7 960.054 438.38 3
-1 4 7 1247.13 535.43 3
4 1 -7 1329.71 399.17 4
1 -4 8 313.295 445.355 3
-4 -1 8 -298.775 554.497 3
-1 -4 8 -114.252 512.798 3
1 4 -8 -412.814 539.202 4
1 4 8 152.876 546.295 3
4 1 8 -45.6061 484.92 3
4 -1 8 233.502 433.903 3
-4 1 8 79.1251 545.146 3
4 1 -8 -333.25 415.204 4
-1 4 8 6.40906 546.972 3
1 4 9 554.634 634.429 3
-1 4 9 771.41 646.994 3
-1 -4 9 1280 642.551 3
4 1 9 161.922 518.283 3
-1 4 -9 2343.66 715.614 4
1 4 -9 138.671 586.329 4
-4 -1 9 691.293 629.536 3
1 -4 9 2747.43 634.812 3
-4 1 9 680.222 659.692 3
-1 4 10 707.503 644.817 3
-4 1 10 840.435 696.142 3
4 1 10 -43.7103 591.002 3
-1 -4 10 -377.162 675.462 3
-4 -1 10 936.191 664.756 3
-1 4 -10 131.672 605.253 4
1 4 10 1247.54 715.48 3
1 4 -10 486.732 560.415 4
1 4 11 647.808 652.088 3
4 -1 -11 -1008.89 1000.74 7
-1 4 11 431.735 696.141 3
-4 -1 11 -271.069 662.317 3
4 1 -11 -117.553 876.792 7
1 4 -11 -1074.15 801.774 7
-1 -4 11 -490.034 677.987 3
-4 1 11 126.72 652.367 3
1 4 -12 -54.547 889.795 7
4 -1 -12 87.587 871.27 7
4 1 -12 1124.75 919.686 7
4 1 -13 992.458 785.783 7
1 4 -13 284.583 785.586 7
1 -4 -13 151.455 727.18 7
4 -1 -13 919.833 799.054 7
4 1 -14 49.1758 682.909 7
1 -4 -14 -528.101 807.487 7
-1 -4 -14 482.168 640.988 7
1 4 -14 824.498 708.684 7
4 -1 -14 38.0079 701.339 7
4 -1 -15 -271.541 644.414 7
4 1 -15 834.54 692.468 7
-1 -4 -15 482.883 525.237 7
1 -4 -15 602.8 621.863 7
-1 -4 -16 610.503 468.751 7
1 -4 -16 102.466 465.762 7
4 -2 0 1528.87 449.188 1
-2 -4 0 2327.79 684.432 2
2 -4 0 1125.62 761.403 1
-4 -2 0 1227 444.435 1
2 -4 0 1798.61 860.123 2
-4 2 0 1284.25 514.003 1
-4 2 0 1784.68 718.488 2
-2 4 0 1805.37 743.039 1
4 -2 0 1810.36 576.122 2
-4 -2 0 1672.19 402.682 2
-2 -4 0 1203.24 724.43 1
2 -4 -1 1242.47 678.165 1
-4 -2 1 776.733 433.268 1
4 -2 1 501.996 507.798 1
-2 -4 1 470.964 543.405 2
-2 -4 1 1131.61 733.975 1
2 -4 -1 613.86 746.442 2
-4 2 1 686.525 591.744 2
4 -2 -1 700.215 546.324 2
2 4 1 873.487 308.593 3
2 4 -1 575.984 673.181 1
2 4 -1 756.16 555.535 2
4 -2 1 793.295 617.4 2
4 -2 -1 644.228 309.019 1
2 -4 1 1102.31 712.907 1
-4 -2 -1 360.178 448.46 2
-4 -2 -1 1102.59 565.612 1
-4 2 -1 917.785 484.011 1
-2 -4 -1 627.429 681.165 2
2 -4 1 787.869 665.173 2
-4 2 -1 714.388 559.638 2
-2 -4 2 9768.86 788.007 2
-2 -4 2 11595 1199.98 1
2 4 2 9976.56 570.877 3
4 2 -2 10924.7 540.118 4
-4 -2 -2 9579.22 995.193 1
4 -2 2 11177.1 655.39 4
-4 -2 -2 8593.85 978.15 2
-4 2 -2 10487.9 1082.9 1
4 -2 -2 10094.4 593.917 1
-4 -2 2 10152.6 714.941 1
4 -2 -2 10209.5 1064.9 2
-4 2 2 9867.98 1049.42 2
4 2 -2 9388.84 793.711 1
2 4 -2 9701.65 544.282 4
4 2 2 9383.24 1036.22 1
4 -2 2 10390.1 1053.08 1
2 -4 2 11702.4 1221.07 1
2 -4 2 12501.6 1196.84 2
2 4 -2 9673.68 1208.06 1
2 -4 2 9837.79 678.051 4
2 4 -2 9869.85 910.372 2
2 -4 -2 10748.6 1306.95 2
4 -2 2 9981.52 1093.63 2
2 -4 -2 9538.3 1097.96 1
4 -2 -2 9758.96 702.596 1
2 4 -2 10165 556.341 3
4 -2 -3 23223.4 1067.26 1
4 2 3 24144.8 1673.88 1
4 2 -3 22796.4 789.141 4
4 -2 -3 25334.9 1621.34 2
-4 2 3 23134.9 833.799 3
-2 -4 -3 24153.3 1710.2 2
-2 -4 3 23744.9 1637.4 1
2 -4 -3 22105.4 1769.61 2
-4 2 -3 23077.9 1672.48 1
-4 -2 -3 23161.1 1686.65 1
4 -2 3 24918.1 1719.15 1
-2 -4 3 23070.5 1206.59 2
2 4 -3 23063.2 1386.42 2
-2 4 -3 20419.9 1643.66 2
4 -2 3 23324.8 1678.91 2
-2 -4 -3 23871.8 1694.31 1
2 -4 -3 23333 1502.39 1
2 4 -3 23741.5 1862 1
-2 4 -3 21658.2 1729.68 1
-4 -2 3 22680.3 1152.07 1
4 -2 3 20958.6 922.982 4
-4 2 -3 22679.7 1620.68 2
4 2 3 23006.6 813.689 3
-4 -2 -3 23223.4 1664.56 2
2 -4 3 22535 1705.94 1
4 2 -3 22435.4 1354.58 1
-2 4 3 22798.8 832.438 3
2 -4 3 23300.4 1631.83 2
-4 2 -4 11735.7 1381.54 1
4 2 -4 11997.9 639.832 4
2 -4 4 13193.8 1390.49 2
-2 4 4 11864.3 712.377 3
2 4 -4 12464.3 1504.38 1
2 -4 4 12501.6 606.504 3
-2 4 -4 11309.4 1323.69 2
2 -4 -4 12276.7 1542.89 2
-4 -2 4 12522 1015.61 1
2 -4 -4 11315 1292.42 1
4 2 4 11381.2 630.341 4
-2 -4 4 12742.9 1336.63 1
4 -2 4 11695.6 791.407 4
4 -2 -4 11467.2 521.088 4
-2 -4 4 12461.7 1015.91 2
4 -2 -4 12071.4 969.417 1
2 4 -4 12902.9 1161.47 2
4 2 -4 13323.2 1234.13 1
-4 2 4 12496.2 728.4 3
4 2 4 13319.4 710.52 3
4 -2 -4 12609 1299.27 2
4 -2 5 41818.9 1124.86 3
4 2 5 42295.1 1203.87 4
2 -4 5 43989.1 1225.95 3
2 4 5 45297.4 1427.06 3
4 -2 5 46006 1499.55 4
4 -2 -5 40917.4 2230 2
2 -4 -5 38696 2297.14 1
2 4 -5 46335.4 1358.98 4
-4 2 5 44590.5 1403.62 3
4 -2 -5 44855.8 2512.79 2
-2 4 5 44193.2 1397.83 3
4 2 -5 44048.9 1232.11 4
4 2 5 44754.2 1343.2 3
-2 -4 6 61346.2 1776.79 3
-2 4 6 63476 1802.2 3
4 2 -6 61649.6 1551.09 4
-4 -2 6 64927.9 1877.39 3
2 -4 6 62741.7 1600.42 3
4 -2 6 59306.2 1494.72 3
2 4 -6 64843.2 1729.01 4
2 4 6 62118.2 1805.28 3
-4 2 6 60832.4 1788.12 3
4 2 6 61197.1 1708.37 3
4 2 -7 90045 1986.42 4
2 4 -7 93040 2212.58 4
-4 -2 7 88983.1 2381.78 3
2 4 7 89441.4 2335.08 3
2 -4 7 88745.9 2089.42 3
-2 4 7 91322.4 2351.43 3
4 2 7 89422.8 2231.33 3
-4 2 7 91837.6 2367.78 3
-2 -4 7 89307.8 2323.12 3
4 2 8 52538.5 1875.31 3
2 4 -8 56782.8 1868.74 4
4 2 -8 49755.4 1591.03 4
-2 -4 8 51862.9 1943.57 3
2 4 8 52328.3 1975.7 3
-4 -2 8 52672.8 1995.78 3
-4 2 8 51672.9 1948.07 3
2 -4 8 51900.7 1760.1 3
-2 4 8 56414.8 2042.72 3
-2 -4 9 11884.8 1113.72 3
2 4 -9 12381.5 1034.33 4
-2 4 9 12397.8 1139.75 3
-4 -2 9 10793.1 1086.53 3
4 2 9 10741.5 1011.95 3
4 2 -9 12378 942.558 4
2 4 9 12321.4 1119.86 3
-4 2 9 10963.3 1125.04 3
4 2 10 4958.48 818.005 3
2 4 -10 6115.64 834.645 4
-2 -4 10 4588.62 891.246 3
2 4 10 6256.01 963.341 3
-4 2 10 5128.35 873.535 3
-2 4 -10 5721.64 890.144 4
-2 4 10 5913.61 935.422 3
-4 -2 10 4420.67 875.349 3
4 2 -11 1036.01 903.967 7
-4 -2 11 -172.399 633.722 3
-2 4 11 -140.753 684.372 3
-4 2 11 1231.76 783.931 3
2 4 -11 -556.198 867.157 7
4 2 11 -1062.37 643.739 3
4 -2 -11 -1155.12 819.154 7
2 4 11 -540.521 614.009 3
-2 -4 11 577.709 666.803 3
2 4 -12 850.856 816.033 7
4 2 -12 1755.04 906.85 7
4 -2 -12 1157.83 787.1 7
2 4 -13 2733.68 901.837 7
2 -4 -13 3556.4 881.757 7
4 2 -13 3735.3 1052.7 7
-4 -2 -13 2204.79 825.935 7
4 -2 -13 3488.79 1014 7
2 -4 -14 3949.07 961.453 7
4 2 -14 991.241 673.355 7
-2 -4 -14 1870.74 717.34 7
4 -2 -14 3471.97 982.953 7
2 4 -14 3545.88 839.138 7
2 -4 -15 1463.71 643.499 7
-2 -4 -15 104.742 578.694 7
-2 -4 -16 360.469 414.29 7
4 -2 -16 109.772 488.681 7
2 -4 -16 312.701 476.272 7
3 4 0 -67.4314 285.288 3
-3 -4 0 303.639 599.292 2
-4 3 0 676.549 635.162 1
-3 4 0 -4.10131 671.457 1
4 -3 0 -186.707 452.119 1
-3 -4 0 -319.702 724.256 1
4 3 0 224.455 246.019 3
3 -4 0 -62.4787 683.308 2
3 -4 0 256.803 633.701 1
-4 -3 0 -146.004 542.318 1
-4 -3 0 128.509 363.996 2
4 -3 0 -61.221 581.221 2
-4 3 0 -20.7822 760.476 2
-3 4 1 31019.9 1917.67 2
3 -4 1 34106.2 1878.56 2
3 -4 1 34286.8 984.103 4
3 -4 -1 33914.7 1816.97 1
3 -4 -1 33374.3 2031.16 2
-3 -4 1 33990 1962.36 1
4 -3 1 33332.8 945.051 4
4 -3 1 34924 1855.63 2
-3 4 -1 30752.1 1902.33 1
4 3 -1 35970.9 934.877 3
3 4 -1 33911.5 830.121 4
-4 3 1 31260.1 1840.08 2
-4 -3 1 35088.8 1037.43 2
-4 -3 -1 34865.8 1585.95 2
4 -3 -1 33912.8 1847.2 2
3 4 -1 34603.5 911.073 3
4 -3 -1 35394 1458.93 1
4 -3 1 33937.5 1636.9 1
3 -4 1 32574.4 1750.34 1
-3 -4 1 33951.4 1457.31 2
-4 3 -1 33755.9 1943.07 2
-4 3 -1 32389.1 1718.42 1
-4 -3 -1 31722.4 1563.37 1
4 3 -1 34258.4 847.105 4
-4 -3 1 34618.6 1701.01 1
4 3 1 36535 915.862 3
3 4 1 34344.3 919.422 3
-4 -3 1 35436.3 892.295 2
4 -3 -2 679.289 549.401 1
3 4 -2 559.65 356.401 3
-3 -4 2 828.95 698.525 1
3 4 -2 824.248 316.555 4
3 4 -2 279.606 428.463 2
-4 3 -2 194.847 597.248 1
4 -3 2 303.367 395.808 4
-3 -4 -2 340.058 562.21 2
-3 -4 2 775.202 383.42 2
3 4 2 407.519 327.112 3
3 -4 2 102.022 430.581 4
4 -3 -2 718.089 744.937 2
-3 4 2 378.161 709.352 2
4 3 2 374.362 280.01 3
-4 -3 2 609.994 529.559 1
4 3 -2 197.615 541.582 1
-3 4 -2 142.969 713.274 1
3 -4 -2 861.923 707.41 1
3 -4 2 1333.82 710.504 1
3 4 -2 -115.64 671.151 1
3 -4 -2 1460.6 899.739 2
3 -4 2 -41.9279 622.374 2
4 -3 2 79.4131 622.254 2
-3 -4 -2 975.729 630.499 1
4 3 -2 414.116 356.786 3
4 -3 -2 772.292 327.358 1
-4 -3 -2 953.083 584.019 2
4 -3 2 928.663 623.621 1
-4 3 2 1496.29 737.057 2
4 3 -2 750.969 331.152 4
-4 -3 -2 2552.61 744.059 1
4 -3 -3 56011.3 2616.66 2
4 3 3 51119.6 1246.42 3
4 -3 -3 54120.9 2007.94 1
4 -3 3 49979.8 2452.36 1
3 -4 -3 47880.3 1994.52 1
-4 -3 -3 51634 2474.54 1
-4 -3 -3 52611.3 2488.85 2
-4 -3 3 53736.5 1991.12 1
-3 -4 3 49064.6 2215.04 1
-3 4 -3 55497.7 2767.36 1
3 -4 3 52983.9 2591.34 1
4 -3 -3 50750 1732.82 1
3 -4 3 56020 2573.02 2
3 4 -3 52170 2612.62 1
-3 4 3 49586.3 1171.01 3
-4 3 -3 48787.1 2512.68 2
-3 4 -3 51012.6 2588.32 2
3 4 -3 54739.1 1804.89 2
-4 3 -3 50175.5 2520.38 1
-3 -4 -3 50856.8 2493.23 1
-3 -4 -3 52458.1 2514.62 2
-4 3 3 51915.9 1197.2 3
4 3 -3 52378.7 2265.42 1
4 -3 3 51830 2500.4 2
3 -4 -3 54133.5 2687.57 2
-3 -4 3 52613 1497.14 2
4 3 4 69137.5 1567.47 3
-3 4 4 71234.2 1578.83 3
4 3 -4 64617.7 2795 1
3 4 -4 69057.9 3225.42 1
4 -3 -4 67268.7 2300.65 1
-4 3 4 69061.9 1550.71 3
-3 -4 4 70223 2819.36 1
4 -3 -4 66990.3 2981.65 2
3 -4 -4 68197.6 3194.87 2
-4 -3 4 68197.7 2458.73 1
3 -4 -4 63884.3 2568.6 1
3 4 4 69485.8 1618.07 3
4 3 5 15465.1 879.455 3
3 4 -5 15205.1 853.613 4
4 -3 -5 13463.8 1409.38 2
3 4 -5 10918.9 1480.45 1
3 -4 -5 13398.9 1382.17 1
3 4 5 15042.6 886.418 3
4 3 -5 15320.1 817.404 4
-4 3 5 15903.6 900.706 3
-3 4 5 14733.3 870.488 3
-4 3 6 4078.58 635.217 3
-4 -3 6 3512.06 642.517 3
3 4 6 2412.93 533.618 3
-3 4 6 3464.33 600.5 3
4 3 -6 2804.89 500.228 4
4 3 6 3022.9 552.684 3
3 4 -6 2953.24 525.647 4
4 3 7 557.257 476.824 3
-4 3 7 772.74 529.8 3
4 3 -7 454.471 434.577 4
-3 4 7 302.911 483.677 3
3 4 -7 -200.691 461.379 4
-4 -3 7 838.453 545.299 3
3 4 7 -224.556 523.958 3
-3 -4 7 283.697 514.473 3
-3 4 8 3047.02 714.763 3
3 4 -8 3244.92 626.417 4
-4 -3 8 2613.86 632.582 3
4 3 -8 3795.04 624.361 4
-3 -4 8 3289.18 687.708 3
3 4 8 3334.82 670.093 3
4 3 8 3922.6 707.565 3
-4 3 8 3411.86 726.126 3
3 4 9 996.459 615.078 3
3 4 -9 1543.41 603.382 4
-3 4 9 1452.25 677.24 3
4 3 9 402.006 556.496 3
-4 -3 9 1274.56 679.036 3
-4 3 9 370.63 618.556 3
-3 -4 9 1715.61 744.429 3
4 3 -9 1922.02 568.723 4
-3 4 -10 3812.7 802.273 4
-4 -3 10 3777.07 783.768 3
4 3 10 3644.38 806.888 3
3 4 10 2757.23 656.843 3
-3 -4 10 3403.23 864.287 3
-3 4 10 2885.2 738.523 3
-4 3 10 3156.13 745.008 3
3 4 -10 5266.49 761.783 4
-3 4 11 6955.19 1012.52 3
-4 3 11 8932.17 1118.51 3
4 3 -11 10406.7 1267.2 7
4 3 11 7281.2 973.023 3
3 -4 -11 8831.47 1213.29 8
-3 -4 11 7269.71 1035.13 3
4 -3 -11 8787.81 1313.12 7
-4 -3 11 8299.3 1103.74 3
3 4 -11 9369.38 1238.94 7
4 -3 -11 5432.46 1134.23 8
3 4 11 9968.66 1138.79 3
3 4 -12 3320.15 838.572 7
3 -4 -12 2660.85 880.398 7
4 -3 -12 1958.16 828.721 7
4 3 -12 912.361 747.838 7
4 3 -13 1654.08 888.343 7
4 -3 -13 -584.251 837.568 7
3 -4 -13 -718.177 825.673 7
3 4 -13 525.001 806.168 7
-3 -4 -14 -1196.28 766.472 7
3 -4 -14 1851.32 779.407 7
4 -3 -14 -594.192 742.044 7
-4 -3 -14 856.396 687.996 7
4 3 -14 627.004 674.851 7
3 -4 -15 463.086 514.853 7
4 -3 -15 737.554 608.573 7
-3 -4 -15 808.002 580.025 7
3 -4 -16 602.923 445.927 7
4 -3 -16 535.379 504.622 7
4 4 0 89.8468 243.77 4
-4 4 0 786.655 825.743 2
4 -4 0 97.7013 533.672 1
-4 -4 0 206.888 444.921 2
-4 4 0 384.625 665.226 1
-4 -4 0 974.262 726.768 1
4 -4 0 -1.01526 320.295 4
4 -4 0 708.937 735.95 2
4 4 0 107.361 281.403 3
-4 -4 0 493.211 515.41 2
4 4 1 5590.01 473.825 3
4 4 -1 6072.26 503.966 3
4 -4 1 5943.15 537.116 4
-4 4 1 5332.65 1067.01 2
4 4 -1 5977.79 458.622 4
-4 -4 1 3547.53 841.633 1
-4 -4 -1 5200.9 809.086 2
4 -4 1 6275.01 966.354 1
4 -4 1 5016.87 1007.38 2
-4 4 -1 4333.76 1034.72 2
-4 -4 -1 5914.36 883.622 1
4 -4 -1 5522.59 858.395 1
4 -4 -1 4491.49 965.77 2
-4 -4 1 7123.5 733.434 2
-4 4 -1 3829.12 871.855 1
4 -4 2 89991.4 1762.7 4
-4 -4 -2 94113.8 3136.55 1
-4 -4 2 99029.1 3022.13 1
4 4 -2 98062.2 3075.75 1
4 -4 2 94984 3206.63 1
-4 -4 2 97110.6 1491.83 2
-4 4 -2 94933.8 3405.55 1
-4 -4 -2 95071.9 3121.76 2
4 -4 -2 93793.9 3579.22 2
-4 4 2 97146.6 3454.26 2
4 -4 2 97436.3 3350.76 2
4 4 -2 93125.9 1555.29 4
-4 4 -2 90187.5 3432.99 2
4 4 2 92147.3 1623.02 3
4 -4 -2 94151 2906.67 1
-4 4 -3 38857.2 2419.15 1
4 -4 -3 37790 1740.5 1
4 4 3 38821.8 1169.42 3
-4 -4 -3 39064.3 2296.08 2
-4 -4 3 40056 1967.95 1
4 -4 -3 42915.2 2056 1
4 -4 3 44092.9 2449.21 1
4 -4 -3 35753.9 2348.76 2
-4 4 3 37771.4 1045.99 3
-4 -4 -3 39267 2286.44 1
4 4 -3 41237.2 2235.12 1
-4 -4 4 73319.7 2826.31 1
-4 4 4 77619 1669.37 3
4 -4 -4 67799.3 2509.54 1
4 -4 -4 73054.9 3393.8 2
4 4 4 72354 1662.61 3
4 4 -4 68440.3 3206.79 1
4 4 -5 109959 2091.32 4
-4 4 5 104874 2142.05 3
4 4 5 109909 2231.35 3
4 4 -6 69827.9 1804.13 4
-4 4 6 67742.9 1893.08 3
4 4 6 66763 1899.91 3
-4 -4 7 31308.3 1502.32 3
4 4 7 33483.4 1482.74 3
-4 4 7 36282.6 1543.13 3
4 4 -7 35478.8 1400.98 4
4 4 -8 30443.5 1386.02 4
-4 -4 8 30613.7 1617.03 3
-4 4 8 29814.1 1518.06 3
4 4 8 30649.8 1548.92 3
-4 -4 9 27938.9 1647.02 3
4 4 -9 30406.9 1479.74 4
4 4 9 30813.8 1648.11 3
-4 4 9 29577 1652.58 3
4 4 10 5846.16 923.204 3
4 4 -10 4330.69 748.888 4
-4 -4 10 4782.32 910.598 3
-4 4 10 4669.03 866.67 3
4 4 11 157.366 635.492 3
4 -4 -11 -822.762 757.673 8
-4 -4 11 -1080.55 664.947 3
-4 4 11 187.992 668.352 3
4 4 -11 -13.5281 832.385 7
4 -4 -12 -860.838 856.813 8
4 4 -12 188.909 788.093 7
4 -4 -12 480.516 656.67 7
4 -4 -13 -607.963 783.278 7
4 4 -13 1156.25 829.022 7
4 -4 -14 791.062 660.307 7
-4 -4 -14 -97.9844 708.284 7
4 -4 -15 18.3117 603.33 7
-4 -4 -15 111.106 504.089 7
4 -4 -16 282.089 445.036 7
0 -5 0 -657.619 777.69 2
5 0 0 -283.517 295.158 1
-5 0 0 -49.2618 289.176 1
0 5 0 -318.949 691.457 2
0 -5 0 -147.841 725 1
5 0 0 -12.4077 375.004 2
5 0 0 -111.94 300.557 4
-5 0 0 -126.838 411.192 2
-5 0 -1 65139.1 1920.56 1
0 -5 1 67444.9 2563.51 2
0 -5 -1 66888.5 2791.68 2
5 0 1 65328.7 2144.33 2
-5 0 1 64951.2 1794.97 2
0 -5 1 66064.3 2786.13 1
-5 0 -1 65104.4 2131.11 2
5 0 1 65726.9 1936.16 1
5 0 1 64750 1231.96 4
0 -5 -1 68408.8 2829.73 1
5 0 -1 65249.5 1172.75 4
5 0 -1 65307.5 1529.5 2
0 5 -1 64607.8 2606.45 2
-5 0 -2 683431 7718.48 2
5 0 -2 694709 4445.07 2
0 5 2 693462 4044.74 3
0 -5 2 708208 8823.8 1
0 -5 2 696957 7850.14 2
0 -5 -2 715144 9212.76 2
0 5 -2 661478 8583.28 2
5 0 2 689292 4177.93 4
5 0 2 691272 7389.13 1
-5 0 -2 685813 7388.02 1
5 0 -2 695763 3809.93 4
5 0 2 690875 7781.94 2
5 0 3 221049 4831.58 1
5 0 3 209728 2533.16 4
0 -5 -3 218295 5493.42 2
5 0 3 223648 5003.34 2
5 0 -3 222612 3041.42 2
5 0 -3 213823 2223.89 4
0 -5 -3 203168 4785.22 1
5 0 -3 213469 2738.2 2
-5 0 -3 227532 4959 1
0 -5 3 220305 4569.63 2
-5 0 -3 214467 4898.78 2
0 5 -3 204449 5586.26 1
0 5 -3 209101 4926.84 2
0 -5 3 219903 5179.98 1
0 5 3 207893 2487.97 3
0 -5 4 174350 4424.95 2
0 5 -4 173467 4724.64 2
5 0 4 174193 2520.06 4
5 0 -4 175661 2126.36 4
5 0 4 164483 2065.88 3
0 5 4 173729 2508.57 3
-5 0 4 181217 2553.09 3
-5 0 5 40000.9 1382.71 3
5 0 5 38929.4 1157.77 3
5 0 5 38200.5 1313.21 4
5 0 -5 39165.1 1109.32 4
0 5 5 38525.8 1346.15 3
-5 0 6 21633.4 1151 3
5 0 6 21771 976.965 3
5 0 6 22362.5 1104.23 4
0 -5 6 22250.9 1066.04 3
5 0 -6 23224.8 932.672 4
0 5 6 21312.7 1144.07 3
5 0 7 552.33 403.679 3
5 0 -7 276.15 347.149 4
0 5 -7 711.951 591.46 4
0 5 7 673.997 572.369 3
0 -5 7 632.106 499.647 3
-5 0 7 227.104 522.938 3
0 5 8 32088.6 1597.61 3
0 5 -8 32321.2 1546.55 4
-5 0 8 29537.3 1535.45 3
0 -5 8 27069.2 1370.79 3
-5 0 9 48187.7 2084.32 3
0 5 -9 46980.3 1937.43 4
0 -5 9 46210.1 1888.82 3
0 5 9 48370.3 2073.63 3
-5 0 10 42393.6 2066.73 3
0 5 10 42610.2 2037.69 3
0 -5 10 44015.9 1955.9 3
0 5 -10 44148.2 1976.92 4
5 0 -11 21571 1750.01 7
0 5 -11 21126.7 1448.79 4
-5 0 11 20811.9 1580.78 3
0 5 11 19856.9 1547.24 3
5 0 -12 4834.79 1097.81 7
5 0 -13 5167.63 1042.7 7
5 0 -14 4327.17 981.393 7
0 -5 -14 3614.82 901.539 7
5 0 -15 1859.4 664.513 7
0 -5 -15 1288.98 634.121 7
0 -5 -16 4188.79 634.944 7
1 5 0 165239 1824.78 3
-5 -1 0 171827 2726.49 2
5 -1 0 165954 2319.56 1
-5 1 0 170141 3443.33 2
-1 -5 0 173432 4533.04 1
5 -1 0 170996 1904.62 4
1 -5 0 168133 4381.89 1
5 1 0 168398 2726.36 2
5 1 0 172027 1888.11 4
-5 -1 0 170594 2508.15 1
1 -5 0 173591 4415.34 2
-5 1 0 169437 2460.59 1
5 -1 0 167641 3189.89 2
-1 -5 0 168647 4141.41 2
1 5 0 175388 4038.72 2
-5 -1 1 881.12 233.234 1
5 1 1 1988.46 591.542 2
1 -5 1 2321.09 891.116 1
1 5 -1 1797.76 337.073 3
-5 -1 1 1159.02 298.444 2
5 -1 -1 2059.06 544.269 2
1 -5 -1 2176.03 975.167 2
-1 -5 1 608.887 635.092 2
5 1 1 1624.09 347.766 4
1 -5 1 1655.52 828.527 2
-5 1 1 1481.63 642.942 2
5 1 1 1633.91 545.483 1
-1 -5 -1 1608.61 924.762 1
-5 -1 -1 2211.04 617.337 2
5 -1 -1 1715.88 335.347 4
1 5 -1 1210.8 676.525 2
-5 1 -1 1224.68 512.225 1
5 -1 1 1722.63 620.855 2
-5 1 -1 1360.06 593.794 2
5 -1 1 2047.74 382.702 4
-1 -5 -1 1744.49 879.926 2
1 5 1 2179.85 372.503 3
-1 5 -1 2389.73 953.922 2
5 -1 1 1337.17 519.144 1
-5 -1 -1 968.878 501.995 1
1 -5 -1 1454.65 850.476 1
-1 -5 1 1817.65 889.254 1
5 1 -1 1438.3 260.069 2
5 1 -1 1938.89 364.485 4
-5 -1 1 1030.81 213.017 1
-1 -5 -2 15328.6 1512.89 2
-5 -1 -2 13017.8 1143.62 1
5 1 2 14782.4 1289.5 2
-5 1 2 13484.5 1019.61 2
-1 -5 2 13738.3 1186.89 2
1 5 -2 13191.3 632.436 3
-5 1 -2 13167.3 1173.43 1
5 1 2 13383.6 649.919 4
-1 5 2 13029.4 615.618 3
5 -1 2 12430.9 669.114 4
-5 1 -2 13013.1 1238.36 2
-1 5 -2 14791.8 1571.7 2
-5 -1 -2 13536.2 1208.68 2
1 5 -2 13993.7 1330.89 2
-1 -5 2 12720.5 1403.98 1
5 -1 -2 12632.6 578.871 4
5 -1 2 12423 1238.31 2
1 -5 2 12598.9 1348.17 1
1 -5 -2 12406.2 1492.71 2
1 5 2 13320.3 660.792 3
1 -5 2 13370.8 1307.26 2
1 5 -2 11405.7 1453.71 1
5 1 2 12869.7 1156.45 1
5 1 -2 12893.8 609.809 4
1 -5 -2 13542 1419.03 1
5 -1 2 11667.6 1093.33 1
5 -1 -2 14197.9 973.984 2
5 -1 -3 45303.7 1024.35 4
-1 -5 3 45807.7 2004.24 2
1 -5 -3 44064.6 2587.8 2
-5 1 3 46411.8 1182.03 3
-1 -5 -3 44399.9 2584.1 2
5 1 -3 44748.5 1288.25 1
1 5 -3 45578.3 2756.35 1
1 -5 3 48310.1 2539.75 1
5 1 3 43194.9 1022.66 3
-1 5 -3 46544.6 2696.34 1
5 1 3 45945.2 2297.3 1
5 1 3 48763.7 2393.77 2
-5 1 -3 48880.3 2438.72 2
-5 -1 -3 45377.9 2282.11 1
-1 -5 3 43396.2 2343.76 1
-1 5 -3 43476.2 2415.38 2
-5 -1 -3 47271.4 2378.09 2
-1 -5 -3 48212.8 2450.24 1
5 -1 -3 40473.6 881.755 1
1 5 -3 43424.1 2255.56 2
5 -1 3 46210.6 2359.54 2
5 1 -3 44193.1 1082.52 4
-5 -1 3 45613.6 1141.49 1
-5 1 -3 47248.7 2333.62 1
1 -5 -3 43145.7 2235.5 1
5 -1 -3 52258.5 2011.48 2
5 1 3 44309.4 1172.06 4
5 -1 3 43945.6 1267.96 4
5 -1 3 46583.3 2296.85 1
1 -5 3 47709.2 2321.94 2
-1 5 3 44981.1 1175.47 3
1 -5 4 32494.3 2065.46 2
5 1 -4 34794.4 1032.01 4
5 1 4 35868.4 1161.16 4
5 -1 4 36097.7 1231.83 4
1 5 -4 34223 2096.51 2
1 -5 -4 32690.8 2079.14 1
5 -1 -4 36369.5 1867.8 2
-1 5 -4 32335.5 2184.97 2
-1 -5 4 34295.3 1887.89 2
-5 1 4 35485.1 1180.19 3
-1 5 4 34166.3 1153.04 3
5 -1 -4 32109.1 1530.17 2
5 -1 -4 34603.5 949.605 4
5 1 4 35285.7 1045.51 3
5 -1 -5 25958 874.321 4
-5 1 5 26073.6 1134.01 3
-1 5 5 26178.7 1127.83 3
5 1 5 25655.5 1065.61 4
5 1 -5 25425.1 953.005 4
1 5 -5 25113.4 1113.02 4
1 -5 5 26777.9 1028.79 3
1 5 -5 23225.7 1906.22 2
-5 -1 5 26035.1 1155.7 3
5 -1 5 24737.7 1140.17 4
1 5 5 25379.8 1139.57 3
5 1 5 26872.5 1021.65 3
5 -1 -6 4391.87 480.362 4
5 -1 6 4827.71 683.427 4
1 5 -6 5437.42 712.996 4
5 1 6 5121.21 594.966 3
-1 -5 6 5161.81 627.387 3
1 -5 6 5348.54 591.471 3
5 1 -6 4210.26 507.505 4
1 5 6 4520.08 652.703 3
-1 5 6 5165.39 661.099 3
-5 1 6 5427.07 698.071 3
-5 -1 6 4733.27 713.208 3
5 1 6 5056.48 592.981 4
1 5 -7 24084.7 1270.29 4
1 5 7 22889.5 1290.87 3
-1 5 7 21921.4 1262.18 3
5 1 -7 21672 996.387 4
-5 1 7 21945.1 1250.33 3
-1 -5 7 22582.3 1228.6 3
-5 -1 7 21561.6 1278.17 3
1 -5 7 21928.9 1134 3
5 1 7 21987.4 1126.86 3
1 5 -8 16910 1154.24 4
1 -5 8 12766.5 941.65 3
5 1 -8 13494.8 867.87 4
1 5 8 16127.3 1213.61 3
-5 1 8 15193.8 1167.4 3
-1 -5 8 14564.1 1074.37 3
-5 -1 8 15430.5 1202.83 3
-1 5 8 16876.8 1214.75 3
5 1 8 14609.8 1015.2 3
-1 -5 9 6926.87 858.655 3
1 5 -9 8211.65 941.71 4
5 1 9 7020.74 830.212 3
-5 1 9 9404.04 1049.28 3
-5 -1 9 9607.96 1068.23 3
-1 5 9 9635.29 1057.25 3
-1 5 -9 7467.21 926.771 4
1 5 9 8441.49 1015.04 3
-1 5 10 911.186 680.232 3
-1 -5 10 636.199 642.629 3
-5 1 10 157.017 633.615 3
1 5 10 932.211 622.432 3
-1 5 -10 -440.9 691.881 4
1 5 -10 454.163 654.891 4
-5 -1 10 -250.526 643.323 3
-1 -5 11 2741.97 810.81 3
1 5 -11 778.91 655.666 4
-1 5 -11 676.184 736.796 4
1 5 -11 1578.07 1044.08 7
5 -1 -11 1442.04 918.4 7
5 1 -11 776.573 970.291 7
-1 5 11 1216.43 740.971 3
1 5 11 712.341 666.013 3
-5 1 11 1742.8 699.542 3
-5 -1 11 2432.76 790.862 3
5 1 -12 2163.17 944.901 7
5 -1 -12 2844.51 1010.35 7
1 5 -12 4548.78 1055.52 7
5 -1 -13 777.351 870.373 7
5 1 -13 236.775 821.087 7
1 -5 -13 732.515 767.814 7
-1 -5 -14 -91.0431 701.436 7
1 -5 -14 701.575 688.77 7
5 -1 -14 1081.76 689.866 7
5 1 -14 482.182 633.981 7
-1 -5 -15 104.64 594.819 7
1 -5 -15 500.919 560.173 7
5 -1 -15 -48.979 522.86 7
5 1 -15 335.632 610.485 7
1 -5 -16 669.206 487.512 7
-1 -5 -16 425.304 411.293 7
-5 -2 0 -16.7531 382.043 1
5 -2 0 61.0126 507.285 2
-5 -2 0 559.211 382.388 2
-2 -5 0 35.3701 660.958 2
-2 5 0 97.8104 781.059 1
5 -2 0 -152.685 376.699 1
2 -5 0 348.16 811.876 2
5 2 0 234.952 293.442 4
5 -2 0 207.367 317.869 4
-2 -5 0 277.272 870.53 1
2 -5 0 -387.532 739.21 1
-5 2 0 966.937 674.075 2
2 5 0 49.627 290.392 3
5 2 0 -166.238 254.473 3
-5 2 0 -360.683 433.926 1
2 5 -1 114373 3616.55 1
5 2 1 115427 1591.64 4
2 -5 1 114325 3539.81 1
2 5 1 117508 1688.02 3
2 -5 -1 118128 3979.73 2
5 2 1 111321 1509.95 3
2 -5 1 121811 3597.6 2
2 5 -1 111928 1528.39 4
-2 -5 -1 115820 3726.83 1
2 5 -1 115322 1643.05 3
5 2 -1 112874 1592.09 3
-5 -2 -1 115131 2823.75 1
5 2 -1 112323 1575.44 4
-5 2 -1 111362 2786.16 1
-5 2 1 109369 3120.76 2
5 -2 1 116697 2780.07 1
5 -2 1 112989 3132.31 2
2 5 -1 115078 3078.13 2
5 -2 1 113351 1690.01 4
-5 -2 1 109925 2376.7 1
2 -5 -1 112702 3606.19 1
-2 -5 -1 117645 3493.51 2
-5 -2 1 111749 1989.76 1
-5 2 -1 112228 3270.64 2
-2 5 -1 113529 3794.09 1
2 -5 1 111675 1750.59 4
5 -2 -1 115524 2908.79 2
5 -2 -1 115088 1553.47 4
-2 -5 1 114138 3800.5 1
5 -2 -1 115714 1743.6 1
-2 -5 1 118074 3160.15 2
-5 -2 -1 114595 2781.43 2
-5 -2 1 105656 1242.39 2
-5 2 -2 57438.8 2516.13 2
5 2 2 60259.8 1190.17 3
-5 2 2 63799.3 2337.99 2
5 -2 -2 69963.2 2410.9 2
-2 -5 -2 66384.2 2930.5 2
2 5 -2 62391.6 2911.64 1
2 5 -2 60269 1298.86 3
2 -5 -2 66291 3075.29 2
2 5 -2 63702.4 1300.77 4
5 -2 2 66885.5 2661.92 2
5 -2 -2 58846.8 1116.8 1
-5 -2 -2 61140.5 2382.62 2
5 2 2 63783.8 2445.45 2
2 5 -2 61961.3 2311.55 2
5 -2 -2 61803.6 1147.47 4
2 -5 2 67649.3 2748.12 2
5 -2 2 61472.6 2378.52 1
-2 -5 2 65616.5 2165.99 2
-2 5 -2 63151.4 3012.84 1
-5 -2 2 63360.6 1514.28 1
-2 -5 2 66490.7 2814.65 1
2 -5 -2 65893.8 2790.03 1
2 -5 2 61511.5 2709.75 1
5 2 2 63960.3 2428.92 1
-5 2 -2 60568.9 2376.03 1
-2 5 -2 61206.2 2928.51 2
-2 -5 -2 59884.8 2564.22 1
-5 -2 -2 61522.1 2389.1 1
-2 5 2 61270.9 1191.03 3
5 -2 -2 55707.4 1006.7 1
5 2 2 61641.7 1249.17 4
5 2 3 80908.6 1495.21 3
-5 -2 -3 80737.9 3088.51 1
-2 -5 3 79138.1 3088.89 1
-5 -2 -3 80691.5 3117.07 2
-5 2 3 80671.2 1527.46 3
5 2 -3 87159.3 2244.18 1
5 2 3 84818.2 3169 2
2 -5 3 82333.8 3133.73 2
5 2 3 77756.4 1479.15 4
-5 2 -3 78509.6 3052.73 1
2 5 -3 77901.3 3510.02 1
-2 -5 3 85169.9 2482.44 2
5 -2 -3 83504.1 1827.53 1
-2 5 -3 79910 3336.94 2
2 -5 -3 75978.9 2841.7 1
5 -2 -3 81325.1 1616.69 1
2 5 -3 80567.4 2846.45 2
-5 2 -3 80424.1 3237.29 2
5 2 3 83773.6 3113.15 1
-2 -5 -3 80889.1 3224.92 1
-2 5 -3 82931.9 3599.58 1
2 -5 3 80058.5 3255.32 1
2 -5 -3 77183.7 3370.75 2
5 -2 3 82971.5 3194.72 2
5 -2 -3 84858.4 2937.82 2
5 -2 3 82618.1 3096.69 1
5 -2 -3 81057 1326.28 4
-5 -2 3 84589.2 1944.15 1
-2 5 3 83248.3 1556.52 3
5 -2 -4 125884 1711.72 4
5 -2 4 125240 2331.25 4
5 2 -4 126375 1967.87 4
5 -2 -4 132325 3886.08 2
2 5 -4 121936 3670.2 2
5 2 4 122723 2019.64 4
-5 2 4 127576 2127.82 3
2 5 -4 118630 4541.02 1
2 -5 -4 116082 3761.07 1
2 -5 4 124235 1818.87 3
-2 5 4 122190 2091.47 3
-2 -5 4 125781 3219.26 2
5 2 4 129398 2056.69 3
5 2 5 117462 2092.4 4
2 -5 5 115965 1988.36 3
-5 2 5 119359 2297.18 3
2 5 -5 121331 2279.92 4
5 2 -5 117941 2030.24 4
2 5 5 120036 2352.1 3
5 -2 -5 115102 1725.33 4
5 -2 5 114500 2426.65 4
-2 5 5 119204 2275.32 3
5 2 5 118786 2148.67 3
5 2 -6 22163.5 994.817 4
-5 2 6 22238.2 1138.1 3
2 5 -6 23284.7 1153.75 4
-5 -2 6 21189.1 1170.09 3
5 2 6 20498.4 1040.94 3
-2 5 6 22363.5 1146.03 3
2 5 6 22384.8 1174.09 3
5 2 -7 742.274 432.825 4
2 5 7 827.285 580.944 3
-5 2 7 361.567 533.669 3
5 2 7 249.04 437.456 3
-5 -2 7 75.5935 565.874 3
2 5 -7 717.69 556.491 4
-2 5 7 691.866 518.953 3
-2 -5 7 342.567 486.764 3
-5 -2 8 2353.74 703.339 3
5 2 8 1906.9 538.823 3
-2 5 8 2123.14 650.345 3
2 5 -8 1467.77 627.376 4
-2 -5 8 1983.21 633.535 3
5 2 -8 2229.64 493.045 4
-5 2 8 2540.03 689.3 3
2 5 8 1770.09 605.198 3
2 5 9 41306.5 1925.5 3
5 2 9 37705.3 1707.49 3
5 2 -9 39340.6 1551.19 4
-5 -2 9 39737.3 1932.14 3
-2 5 9 37862.4 1828.88 3
2 5 -9 38961 1721.41 4
-5 2 9 37057 1803.59 3
-2 -5 9 34422.5 1731.33 3
5 2 10 43762.2 1936.82 3
2 5 -10 45910.1 1943.84 4
-2 5 -10 43655.9 1988.46 4
-2 -5 10 45174.9 2041.66 3
-5 2 10 43344.4 2057.54 3
-5 -2 10 43584.2 2123.65 3
-2 5 10 40273.5 1999.45 3
2 5 10 41394.8 2027.32 3
-5 -2 11 16308.2 1431.41 3
-2 5 -11 14427.5 1266.42 4
-5 2 11 13387 1290.12 3
2 5 -11 16839.8 1307.67 4
-2 -5 11 15640.7 1378.33 3
5 -2 -11 17738.7 1560.63 8
2 5 -11 11310.6 1421.64 7
-2 5 11 15981.1 1385.36 3
2 5 11 14710.9 1341.69 3
5 -2 -11 13674.1 1378.07 7
2 -5 -11 13813.3 1420.06 8
5 2 -11 15169.3 1531.75 7
5 2 -12 13172.9 1459.31 7
2 5 -12 11389.8 1286.81 7
5 -2 -12 14089 1483.89 7
5 -2 -13 2164.98 850.947 7
5 2 -13 1456.39 892.217 7
2 -5 -13 2043.02 856.448 7
2 5 -13 2135.89 845.036 7
-2 -5 -14 48.4364 739.94 7
5 2 -14 586.837 666.124 7
2 -5 -14 264.395 658.4 7
5 -2 -14 631.06 655.347 7
5 -2 -15 1844.8 630.289 7
-2 -5 -15 951.097 554.46 7
2 -5 -15 1158.75 544.446 7
2 -5 -16 2380.46 547.353 7
3 -5 0 60600.3 2587.01 1
-3 5 0 57472 2653.68 1
3 5 0 59018.2 1240.2 3
-5 3 0 60239.3 2212.55 1
3 -5 0 63278.5 2791.56 2
-3 -5 0 62516 2393.47 2
-5 -3 0 58887.1 1697.68 2
5 3 0 59652.1 1211.27 3
-5 3 0 57599 2696.18 2
5 -3 0 59344.8 1220.11 4
-5 -3 0 56338.3 1903.79 1
5 -3 0 61088.1 2436.58 2
-3 -5 0 66022.5 2953.67 1
-5 -3 0 62274.2 2299.07 1
5 -3 0 61210.6 1955.19 1
5 3 0 59235.9 1156.32 4
3 5 -1 99943.8 1487.92 4
-5 3 -1 97795.4 2977.3 1
3 -5 1 101822 1747.75 4
-3 5 1 102452 3634.13 2
5 3 1 98906.5 1487.94 4
5 -3 1 105961 2922.34 1
-3 -5 1 106597 2944.39 2
3 5 -1 96623 1602.33 3
5 3 -1 102911 1616.87 3
5 3 1 100157 1571.77 3
5 3 -1 97382.6 1517.35 4
-5 3 1 96267.7 3284.49 2
-3 5 -1 102669 3693.56 1
5 -3 1 105664 3256.32 2
5 -3 -1 102761 3145.27 2
-5 -3 -1 99388.2 2829.64 1
5 -3 -1 103416 2255.6 1
5 -3 -1 100072 1472.41 4
-5 -3 -1 102086 2743.57 2
-5 -3 1 102398 1577.56 2
-5 3 -1 98312.1 3394.77 2
3 -5 -1 94534.4 3331.04 1
-5 -3 1 98909.8 1334.47 2
3 -5 1 105413 3405.97 1
3 -5 -1 106238 3821.49 2
5 -3 1 97937.8 1648.01 4
-3 -5 -1 105966 3330.76 2
-3 -5 -1 107286 3688.3 1
3 -5 1 107854 3528.69 2
-3 -5 1 102585 3660.32 1
-5 -3 1 94805.4 2779.45 1
-3 -5 2 8822.89 844.687 2
5 3 2 7805.05 544.856 3
5 3 2 7655.1 503.914 4
-3 -5 2 7503.14 1171.59 1
-3 5 -2 9065.38 1297.65 2
-3 -5 -2 7597.97 1161.82 2
5 -3 -2 8460.15 761.284 1
3 -5 -2 6518.38 1095.66 1
5 -3 2 9109.55 1094.86 1
3 5 -2 8192.29 1220.03 1
3 -5 -2 10184.7 1399.31 2
5 -3 -2 8560.64 497.488 4
-5 3 2 9421.69 1225.22 2
5 -3 2 9596.92 1191.58 2
3 -5 2 8051.08 1211.84 1
5 -3 -2 8229.12 649.954 1
-5 3 -2 7967.06 1066.35 1
5 -3 -2 9052.21 1162.16 2
3 5 -2 6738.65 517.203 4
3 -5 2 9041.97 707.154 4
3 5 -2 7792.15 583.067 3
3 5 -2 8832.59 908.002 2
-3 5 2 8121.78 1301.35 2
-5 -3 2 8985.77 849.204 1
-3 5 -2 8710.08 1386.17 1
-5 3 -2 9443.97 1315.17 2
-5 -3 -2 8553.43 1061.35 1
-5 -3 -2 9207.24 1032.67 2
5 3 -2 7963.92 580.628 3
3 -5 2 9053.57 1162.15 2
-3 5 2 7459.89 479.751 3
-3 -5 -2 6456.88 976.242 1
5 -3 -3 7101.89 663.411 1
-5 -3 -3 7451.8 1143.22 2
5 3 3 8071.96 591.682 3
5 3 3 8574.18 555.258 4
-3 -5 3 8008.19 1103.09 1
3 5 -3 7090.36 842.738 2
-3 -5 -3 8115.73 1198.66 2
5 -3 -3 8693.72 1312.14 2
5 3 -3 8762.62 970.584 1
5 -3 -3 9077.62 883.846 1
3 -5 -3 7003.12 1096.99 1
5 -3 3 9469.35 1245.39 1
-3 5 3 7806.56 559.457 3
5 -3 -3 8002.7 469.542 4
3 5 -3 7890.47 1289.63 1
-5 -3 3 7666.94 803.622 1
3 -5 -3 6771.22 1281.05 2
-5 -3 -3 9626.31 1305.68 1
-5 3 3 8837.01 570.365 3
-3 -5 3 8034.93 765.873 2
3 -5 -3 7284.05 1061.09 1
-5 3 -3 6993.29 1146.54 1
5 3 -4 6987.7 590.22 4
-3 5 4 7724.11 645.703 3
3 -5 -4 6047.62 1006.19 1
5 3 4 6592.46 593.972 3
-3 -5 4 7175.76 1172.5 1
5 3 4 6312.58 551.417 4
3 5 -4 5802.78 1082.56 1
-5 3 4 7141.75 610.986 3
5 -3 -4 5375.47 1010.25 2
-3 5 5 601.713 471.542 3
5 -3 5 593.732 526.533 4
-5 3 5 635.494 466.718 3
5 3 -5 582.761 419.09 4
5 3 5 174.109 364.089 3
3 5 5 -84.6333 436.261 3
3 5 -6 13105.8 901.306 4
5 3 -6 12255.7 805.384 4
-3 5 6 13036.4 921.816 3
-5 3 6 12744 917.693 3
3 5 6 11654.2 917.558 3
5 3 6 12910.9 881.575 3
3 5 -7 46389.2 1657.89 4
3 5 7 46672.5 1770.53 3
5 3 -7 47003 1542.59 4
-3 5 7 47832.1 1758.42 3
-3 -5 7 44010.5 1743.78 3
-5 -3 7 46635.2 1830.74 3
-5 3 7 47035.5 1737.72 3
5 3 7 48249.3 1708.46 3
3 5 8 48265.2 1924.48 3
3 5 -8 49661.6 1809.56 4
5 3 -8 47217.3 1655.11 4
-3 -5 8 43766.5 1868.11 3
-5 -3 8 45313.7 1945.39 3
-5 3 8 46150.5 1885.71 3
-3 5 8 45573.8 1870.75 3
5 3 8 45673.4 1795.92 3
3 5 -9 11275.9 1009.47 4
5 3 -9 11083.4 935.664 4
-5 -3 9 8365.88 1051.41 3
5 3 9 11263.5 1061.78 3
-5 3 9 8773.33 1014.46 3
-3 -5 9 10540.5 1116.78 3
3 5 9 11213.1 1125.09 3
-3 5 9 10638.5 1110.92 3
3 5 -10 946.779 635.81 4
3 5 10 39.873 612.441 3
-5 -3 10 -54.3831 774.913 3
-3 5 10 198.747 673.63 3
-3 -5 10 348.577 707.018 3
-5 3 10 28.7092 627.12 3
-3 5 -10 381.555 701.654 4
5 3 10 -670.833 677.015 3
3 5 -11 1844.84 719.031 4
5 -3 -11 1054.11 808.744 7
-3 -5 11 1474.36 732.15 3
5 3 -11 1861.25 826.541 7
-5 3 11 3133.55 854.544 3
3 5 11 357.055 645.444 3
5 -3 -11 2886.58 969.267 8
-5 -3 11 1353.42 733.079 3
-3 5 -11 3291.58 851.255 4
3 -5 -11 1225.96 717.708 8
-3 5 11 6.18616 722.603 3
3 5 -11 1919.96 991.36 7
5 3 11 254.868 667.607 3
3 -5 -12 3764.68 1015 8
5 3 -12 3275.96 1000.3 7
5 -3 -12 3651.45 966.366 8
3 5 -12 2069.55 977.533 7
5 -3 -12 1674.3 800.947 7
3 -5 -13 978.292 711.735 7
5 3 -13 2307.09 826.584 7
3 5 -13 1365.83 818.824 7
5 -3 -13 1543.9 824.443 7
3 -5 -14 4261.35 930.406 7
5 -3 -14 4615.88 935.154 7
-3 -5 -14 2845.64 727.465 7
5 -3 -15 3515.63 755.902 7
3 -5 -15 2359.63 639.685 7
-3 -5 -15 1872.13 616.421 7
3 -5 -16 1650.21 469.595 7
5 -3 -16 1840.48 499.184 7
5 4 0 112.363 292.054 4
-5 -4 0 66.1657 428.742 2
5 -4 0 48.5315 322.611 4
-4 5 0 523.5 820.682 1
-5 -4 0 1049.93 724.956 1
5 -4 0 -324.086 660.298 2
-5 4 0 135.023 708.919 1
4 5 0 -225.005 244.906 4
5 -4 0 143.318 554.859 1
4 -5 0 -722.082 645.015 1
-4 -5 0 -488.874 851.14 1
-5 4 0 320.553 898.174 2
4 -5 0 196.783 323.291 4
-5 -4 0 507.058 479.08 2
-4 5 0 269.152 947.452 2
-4 -5 0 -327.926 597.737 2
5 4 0 -117.27 320.934 3
4 -5 0 -678.758 803.075 2
4 -5 -1 581.964 683.845 1
-5 -4 1 1838.08 370.225 2
5 -4 1 1206.19 416.054 4
5 -4 -1 2621.01 664.473 1
-4 5 -1 161.771 793.828 2
-4 5 -1 1953.51 990.494 1
5 4 -1 1476.81 363.167 4
5 4 -1 1379.52 367.662 3
4 -5 -1 625.782 762.991 2
-5 -4 -1 852.829 593.47 2
5 -4 1 1352.14 628.817 2
5 -4 1 1694.74 725.563 1
5 4 1 1310.88 318.373 4
-4 5 1 1069.14 922.837 2
5 -4 -1 1207.06 318.668 4
4 5 -1 1572.7 346.493 4
4 5 1 1614.73 281.159 4
5 -4 -1 1128.2 691.733 2
-5 -4 1 1498.83 821.706 1
-5 -4 1 1882.54 423.239 2
-5 4 1 1028.63 680.435 2
-4 -5 -1 840.022 589.145 2
4 -5 1 1382.32 411.782 4
-5 -4 -1 11.4744 554.613 1
-4 -5 1 2247.39 1079.11 1
-4 -5 -1 1259.21 736.812 2
5 4 1 983.528 346.011 3
-5 4 -1 1081.24 788.508 2
4 -5 1 1038.46 633.512 1
4 -5 1 121.933 702.266 2
-4 -5 1 1248.2 540.665 2
-5 4 -1 2751.54 934.48 1
5 -4 -2 10262.1 1033.32 1
5 4 2 9804.28 637.146 3
-5 4 -2 8234.75 1220.83 1
-5 -4 -2 9586.14 1150.12 1
-4 -5 2 10971.6 1298.6 1
5 -4 -2 10503.9 530.017 4
4 -5 2 10262.3 740.094 4
-5 4 2 8955.1 1301.61 2
-4 -5 -2 10330.6 1272.28 1
5 -4 2 9615.14 694.282 4
-5 4 -2 11585.2 1460.69 2
-4 -5 -2 10020.3 1111.42 2
4 -5 2 9240.03 1228.46 1
4 5 -2 10120.7 615.796 4
5 -4 2 8870.2 1104.1 1
-5 -4 -2 10934.8 1215.93 2
-4 -5 2 10349.3 739.093 2
5 4 2 9650.79 536.661 4
-4 5 2 10461.5 1425.46 2
5 -4 -2 10817.6 1398.19 2
4 -5 -2 10292.7 1301.11 1
4 -5 -2 10918.5 1475.4 2
-4 5 -2 9158.99 1431.12 2
-4 5 -2 9239.62 1344.44 1
-5 -4 2 9594.24 1094.85 1
4 -5 -3 58996.9 2379.92 1
4 5 3 64049.8 1546.16 3
4 5 -3 60994.5 2940.16 1
5 -4 -3 61173.1 3141.05 2
-5 4 3 62471.1 1342.94 3
-5 -4 -3 63388.3 2960.43 2
-4 5 3 64674.3 1377.49 3
-5 -4 3 66975.3 2440.91 1
5 4 3 60258 1263.46 4
4 -5 -3 65022 2842.04 1
4 -5 3 63128.6 1720.41 4
-4 -5 3 62375.5 2726.43 1
5 4 -3 61283.9 2581.89 1
5 4 3 65687.8 1531.77 3
5 4 4 78877.8 1784.29 3
5 4 -4 79795.8 1714.29 4
-4 5 4 80975.2 1738.58 3
5 -4 4 80676.4 2027.88 4
4 5 -4 82141.7 1773.13 4
4 5 4 81662.2 1872.46 3
-4 -5 4 81051.2 3274.24 1
-5 4 4 81794.9 1733.06 3
4 5 -4 82606.7 3789.45 1
5 -4 -4 83135.3 3841.95 2
-4 5 5 55874.7 1609.39 3
-5 4 5 53807.6 1579.88 3
5 4 -5 57804.9 1568.65 4
4 5 -5 58141.6 1618.22 4
5 4 5 56107.3 1642.88 3
5 -4 5 54664 1806.19 4
4 5 5 56729.3 1690.14 3
4 5 -6 5063.89 671.435 4
5 4 -6 5023.75 613.348 4
4 5 6 4412.59 666.321 3
-5 4 6 4074.62 630.193 3
-4 5 6 4686.62 652.099 3
5 4 6 4942.55 671.567 3
-5 4 7 -93.9216 478.351 3
-4 5 7 -37.8814 484.324 3
-5 -4 7 397.453 576.788 3
-4 -5 7 182.63 556.437 3
4 5 -7 326.183 516.021 4
4 5 7 37.8589 480.262 3
5 4 7 -306.611 461.204 3
5 4 -7 256.164 444.521 4
-5 4 8 2023.52 616.941 3
5 4 8 2874.62 585.186 3
-5 -4 8 2811.52 743.425 3
5 4 -8 2744.13 651.027 4
-4 -5 8 2884.28 698.307 3
-4 5 8 3419.76 730.897 3
4 5 8 2752.14 654.553 3
4 5 -8 3410.07 702.372 4
5 4 -9 3807.21 698.554 4
-4 5 9 5505.72 872.257 3
-5 4 9 4595.61 814.708 3
5 4 9 4446.16 798.586 3
-5 -4 9 4721.49 929.437 3
4 5 9 4936.77 854.668 3
-4 -5 9 4338.54 881.568 3
4 5 -9 4066.27 734.956 4
-5 -4 10 8568.68 1086.36 3
5 4 -10 9112.32 958.993 4
-5 4 10 11574.5 1200.9 3
5 4 10 11000.8 1082.99 3
-4 -5 10 8415.25 1053.1 3
4 5 10 11375.9 1139.17 3
4 5 -10 11623.4 1071.45 4
-4 5 10 8959.15 1088.4 3
5 4 11 12609.5 1211.71 3
-5 -4 11 14442.8 1361.51 3
4 -5 -11 15239 1491.82 8
-4 -5 11 16786.4 1433.88 3
4 5 -11 15313.4 1254.14 4
-4 5 -11 14708.3 1313.08 4
4 5 -11 16375.4 1533.29 7
5 -4 -11 14540.8 1448.58 8
4 5 11 14218.7 1268.07 3
-5 4 11 16944.4 1419.88 3
-4 5 11 16587.1 1336.06 3
5 4 -11 15267.9 1434.8 7
5 -4 -11 15710.2 1491.61 7
4 -5 -12 3314.63 980.401 7
5 4 -12 2469.16 952.383 7
4 5 -12 4951.18 1174.88 7
4 -5 -12 3325.71 929.952 8
5 -4 -12 3523.68 906.285 7
5 -4 -12 3045.48 887.951 8
5 -4 -13 -619.476 685.388 8
5 4 -13 420.498 743.122 7
5 -4 -13 369.486 753.125 7
4 -5 -13 269.272 703.667 8
4 -5 -13 -633.611 850.614 7
4 -5 -14 1705.32 696.064 7
-5 -4 -14 447.723 608.802 7
5 -4 -14 1509.1 679.728 7
-4 -5 -15 134.193 479.987 7
5 -4 -15 944.559 594.248 7
4 -5 -15 1671.54 640.081 7
4 -5 -16 1097.41 439.937 7
5 -4 -16 1073.27 472.025 7
5 5 0 6794.69 480.949 4
-5 5 0 7046.65 1349.69 2
-5 -5 0 8175.74 1195.63 1
-5 -5 0 6517.19 856.909 2
5 -5 0 6707.3 566.19 4
-5 5 0 5220.75 1030.27 1
5 -5 0 7104.14 982.339 1
-5 -5 0 5692.92 815.54 2
5 -5 0 7314.35 1256.29 2
-5 5 1 1270.95 1041.52 2
5 -5 -1 2459.29 897.657 2
5 -5 -1 625.969 687.007 1
5 5 -1 2139.25 377.118 4
5 -5 1 1781.01 832.545 1
-5 -5 1 1330.87 442.927 2
5 5 1 1864.24 325.447 4
-5 -5 1 1015.57 459.66 2
-5 5 -1 2024.81 806.313 1
-5 -5 1 862.498 817.091 1
-5 -5 -1 1633.98 595.29 2
-5 -5 -1 1368.11 769.282 2
5 -5 -1 2624.88 375.569 4
5 -5 1 1749.8 438.885 4
-5 -5 -1 1334.03 584.145 1
-5 5 2 22184.5 2029.16 2
5 5 2 23429.7 954.024 3
-5 -5 2 23232.5 1757.84 1
5 -5 -2 22769.5 1683.12 1
-5 -5 -2 20445.3 1655.64 2
5 5 -2 22125.9 875.003 4
5 5 2 21817.2 751.831 4
5 -5 2 24370.3 1896.08 1
5 -5 -2 21241.4 1934.02 2
-5 -5 -2 20251.2 1700.14 1
5 -5 2 21906.1 1016.17 4
-5 5 -2 22580.7 2107.58 1
-5 -5 3 38287 2161.54 1
5 5 -3 38138 1194.58 4
5 5 -3 33998.1 2238.24 1
5 5 3 37682.1 1256.29 3
5 -5 3 37314.4 1381.69 4
-5 5 3 37965.3 1076.06 3
5 5 4 1135.4 466.763 3
-5 5 4 658.541 391.904 3
5 5 -4 709.901 408.235 4
5 -5 4 1009.41 533.827 4
5 5 5 18387.1 1037.49 3
5 5 -5 18264.3 980.08 4
-5 5 5 17750.4 969.603 3
5 5 6 78929.1 2175.95 3
5 5 -6 81848.2 2063.51 4
-5 5 6 80365.4 2124.27 3
5 5 -7 142512 2857.16 4
5 5 7 142821 3101.33 3
-5 -5 7 132004 3124.72 3
-5 5 7 134463 2943.09 3
5 5 -8 104288 2616.43 4
5 5 8 101559 2788.7 3
-5 5 8 99788.2 2745.58 3
-5 -5 8 103076 2971.64 3
5 5 9 43947.9 1981.43 3
5 5 -9 46548.1 1876.98 4
-5 -5 9 42969.5 2076.57 3
-5 5 9 42360.8 1966.13 3
5 5 -10 1086.09 743.214 7
5 -5 -10 2975.75 907.8 8
-5 5 10 3139.9 852.797 3
-5 -5 10 3060.48 915.347 3
5 5 -10 4104.38 764.083 4
5 5 10 2938.92 695.723 3
5 5 -11 305.182 768.725 7
-5 5 -11 -213.368 726.307 4
-5 -5 11 487.983 697.116 3
5 5 11 -55.2519 644.066 3
5 -5 -11 934.341 967.498 7
-5 5 11 256.144 555.974 3
5 -5 -11 -574.074 825.053 8
5 -5 -12 5392.77 1086.28 7
5 -5 -12 6489.43 1131.02 8
5 5 -12 5512.73 1122.58 7
5 -5 -13 12608.6 1237.23 8
5 -5 -13 12856.3 1378.39 7
5 -5 -14 7231.9 935.644 7
-5 -5 -14 5750.65 822.306 7
5 -5 -15 3099.1 687.173 7
6 0 0 10168.5 916.171 2
0 6 0 9906.46 524.689 3
-6 0 0 10557 932.592 2
-6 0 0 9566.73 649.587 1
0 6 0 10680.5 1402.67 2
0 -6 0 8531.17 1430.81 1
0 -6 0 10946.1 1437.34 2
0 6 1 116115 1672.67 3
6 0 1 113173 3037.97 2
6 0 -1 112978 1695.93 4
0 6 1 117383 3961.53 2
-6 0 -1 121921 2787.4 1
6 0 1 122587 2752.73 1
-6 0 1 114963 2657.39 2
0 6 -1 113208 1577.86 3
0 6 -1 115274 4038.55 1
6 0 -1 120752 2329.94 2
-6 0 -1 110862 3006.89 2
0 -6 1 125084 3845.69 2
0 -6 1 114955 3983.9 1
0 6 -1 118230 3855.84 2
0 -6 -1 118693 4101.15 1
0 -6 -1 124942 4159.36 2
0 6 2 68429.8 1402.49 3
6 0 2 69023 2698.09 2
-6 0 -2 67159.3 2517.24 1
0 -6 -2 69559.7 3211.73 2
0 -6 2 66227.3 3057.25 1
0 -6 -2 70725.4 3280.45 1
0 6 -2 65239.5 3272.27 1
6 0 -2 64576.5 1312.84 4
-6 0 -2 67104.6 2631.92 2
0 -6 2 71858.6 2838.96 2
0 6 -2 68957.1 3111.05 2
6 0 2 71889.5 2547.44 1
0 6 -2 67975.9 1314.88 3
6 0 2 66139.3 1456.9 4
6 0 -2 69938.2 1501.91 2
-6 0 -3 94580.4 3485.18 2
0 -6 3 98292.4 3360.5 2
-6 0 -3 96903.7 3429.42 1
0 6 -3 88838.9 3678.81 2
6 0 3 96685.2 1857.32 4
6 0 3 94330 3311.9 1
6 0 -3 96327.1 1640.65 4
0 6 3 95668.2 1783.45 3
6 0 -4 729.086 346.547 4
0 6 -4 1642.68 999.568 2
-6 0 4 897.363 429.647 3
6 0 4 429.366 272.868 3
6 0 4 773.195 440.744 4
0 6 4 1193.03 465.675 3
0 -6 4 2256.87 736.454 2
6 0 5 30495.8 1269.56 4
6 0 -5 29017.9 1020.32 4
0 6 5 29921 1244.96 3
-6 0 5 30646.8 1272.24 3
6 0 -6 88.3507 333.661 4
0 6 6 -386.068 489.074 3
6 0 6 877.175 476.425 4
-6 0 6 153.859 469.187 3
0 -6 6 718.947 424.586 3
0 -6 7 5676.16 696.553 3
0 6 -7 6884.55 849.524 4
-6 0 7 5920.26 781.058 3
6 0 -7 5793.31 586.191 4
0 6 7 5842.33 803.701 3
0 6 8 49.856 545.752 3
-6 0 8 307.163 586.585 3
0 -6 8 212.01 485.448 3
0 6 -8 -90.5337 608.619 4
0 6 9 4637.73 865.779 3
0 6 -9 2894.87 733.863 4
-6 0 9 3286.52 748.128 3
0 6 -10 2691.16 793.742 4
0 6 10 2170.58 681.808 3
-6 0 10 2109.6 759.883 3
0 6 11 2763.45 770.653 3
0 6 -11 1409.8 742.449 4
6 0 -11 947.574 852.166 7
-6 0 11 1984.7 773.062 3
6 0 -12 10960.9 1405.36 7
6 0 -13 3156.88 958.754 7
0 -6 -14 3183.5 864.375 7
6 0 -14 2974.93 823.165 7
6 0 -15 1106.76 648.547 7
0 -6 -15 1198.29 592.006 7
0 -6 -16 769.637 396.581 7
1 6 0 50.0305 820.44 2
-6 1 0 -576.505 554.805 2
-1 6 0 -986.456 801.174 1
-6 -1 0 143.322 357.14 1
6 -1 0 -271.536 327.221 4
6 1 0 93.3482 384.998 2
-1 -6 0 -36.0444 863.885 1
1 -6 0 -528.008 932.319 2
-1 -6 0 211.944 860.322 2
-6 1 0 -37.4146 350.3 1
6 -1 0 206.07 323 1
1 6 0 57.3662 289.693 3
1 -6 0 -593.147 904.622 1
-6 -1 0 162.931 448.041 2
-1 6 0 -221.672 805.703 2
6 -1 0 247.88 546.118 2
-1 6 -1 2117.55 954.285 1
1 6 -1 1740.19 338.375 3
6 1 -1 1892.92 325.889 3
1 -6 -1 1301.66 925.662 1
-1 6 1 1639.42 318.774 3
1 6 -1 1128.78 923.526 1
1 -6 1 1690.58 732.098 2
-6 -1 1 544.824 345.687 2
6 1 -1 1124.14 308.452 2
1 -6 -1 952.785 879.065 2
-6 -1 1 779.373 179.441 1
6 -1 1 1588.12 536.69 1
-6 1 -1 855.633 550.837 2
1 6 1 1867.16 367.165 3
-6 1 -1 2185.88 589.324 1
6 1 1 1779.64 702.227 2
6 -1 -1 1526.84 376.542 4
6 1 1 1473.36 395.346 4
6 -1 -1 1331.36 502.697 2
1 6 -1 2059.91 797.754 2
-6 1 1 1737.14 694.173 2
-1 6 1 2252.82 915.876 2
-1 -6 -1 1598.67 963.418 2
-1 -6 -1 1807.35 1026.11 1
1 6 -1 1557.51 329.386 4
-1 -6 1 1732.03 1035.06 1
-6 -1 1 605.869 148.959 1
-1 -6 1 2740.12 952.199 2
1 -6 1 474.5 784.492 1
-1 6 -1 1263.07 934.103 2
-6 -1 -1 1172.78 557.769 1
-6 -1 -1 1909.7 599.819 2
6 -1 1 1654.24 688.322 2
6 -1 2 660.148 720.966 2
-6 1 -2 1059.22 560.065 1
1 6 -2 393.776 800.554 1
-6 -1 -2 39.5305 553.775 2
-1 -6 2 1362.17 851.061 1
1 -6 2 1317.67 774.21 1
-6 -1 -2 1707.38 622.323 1
1 -6 -2 1406.51 917.84 1
1 6 -2 308.936 776.78 2
-6 1 -2 485.338 590.838 2
1 6 -2 858.611 387.512 4
6 -1 -2 394.616 404.079 2
-1 6 2 1441.85 347.325 3
6 1 2 778.087 368.496 4
-1 -6 -2 612.624 775.061 2
6 -1 -2 499.257 305.824 4
1 -6 -2 -322.035 836.085 2
6 1 2 563.603 544.409 1
-1 -6 -2 486.787 778.397 1
1 6 2 959.504 356.237 3
-1 6 -2 502.615 909.251 2
6 1 2 720.067 256.739 3
1 6 -2 1272.09 364.356 3
6 1 2 1095.47 627.112 2
1 -6 2 -3.63194 626.978 2
6 -1 2 990.87 581.079 1
-1 6 -2 2729.58 1040.14 1
-1 -6 2 1056.27 674.847 2
-6 1 2 1411.48 640.388 2
6 -1 3 21820.6 1700.25 1
6 1 3 21120.9 906.547 4
1 6 -3 20885 916.563 4
-1 6 -3 21654.6 1872.73 2
6 1 -3 21156.9 837.092 4
-1 -6 3 19548.8 1488.2 2
6 -1 -3 21258.2 802.643 4
6 1 3 20031.8 748.75 3
1 -6 3 19502.6 1592.97 2
-6 -1 -3 23875.1 1831.2 2
6 -1 3 20801.9 956.015 4
-6 1 -3 19925.2 1692.93 1
6 1 3 20010.8 1651.25 1
1 6 -3 20518.6 1789.76 2
6 1 3 20673.7 1726.19 2
-6 -1 -3 21228.7 1727.55 1
1 -6 -3 20302.3 1656.33 1
-6 1 3 21807.4 884.988 3
-1 6 3 21964.8 897.256 3
1 6 3 21593.6 908.166 3
6 -1 -4 4429.45 464.362 4
-1 -6 4 5286.93 1009.9 2
1 6 4 4521.12 568.109 3
6 1 4 4234.95 569.152 4
1 6 -4 4326.87 592.521 4
6 1 -4 4305.26 486.879 4
-1 6 4 4680.54 570.302 3
1 6 -4 2216.84 946.342 2
6 -1 4 4755.62 615.597 4
6 1 4 4528.29 465.837 3
-6 1 4 4841.89 579.554 3
-1 6 5 243.157 431.589 3
-6 1 5 -268.781 439.246 3
1 6 -5 673.492 530.893 4
6 1 5 -292.606 422.566 4
6 1 -5 -212.529 349.581 4
1 6 5 -62.9305 465.226 3
6 -1 -5 418.866 332.842 4
6 1 5 -241.432 379.628 3
6 -1 5 219.041 463.118 4
-6 -1 5 874.349 484.364 3
-1 6 6 2106.79 610.207 3
6 1 -6 2213.37 452.183 4
-6 1 6 1886.61 525.694 3
1 6 -6 1947.47 587.262 4
6 -1 -6 1300.61 359.256 4
1 6 6 1784.99 583.938 3
6 1 6 1823.33 431.707 3
6 1 6 566.71 433.486 4
6 -1 6 1041.95 529.952 4
-6 -1 6 1669.41 567.609 3
1 -6 6 1818.53 451.262 3
-1 -6 7 5013.35 673.685 3
-6 -1 7 5657.97 801.249 3
6 1 -7 5442.54 604.636 4
-6 1 7 5114.44 756.999 3
6 1 7 4351.12 594.283 3
1 6 -7 5262.09 749.776 4
1 6 7 4755.27 745.06 3
-1 6 7 5440.74 786.122 3
-1 6 -8 1729.54 722.289 4
-1 6 8 2825.74 759.328 3
1 6 -8 1792.52 642.283 4
1 6 8 1616.17 638.185 3
-6 -1 8 2071.11 694.78 3
-1 -6 8 2023.09 590.569 3
-6 1 8 2187.1 709.718 3
6 1 -8 2100.25 477.417 4
-1 -6 9 -581.22 607.108 3
1 6 9 -531.489 610.374 3
1 6 -9 -284.362 632.518 4
-1 6 -9 493.309 699.931 4
-6 1 9 549.484 627.596 3
-1 6 9 -42.1181 578.548 3
-6 -1 9 611.714 665.387 3
-1 6 10 -11.7036 637.574 3
1 6 -10 -411.047 696.818 4
-6 1 10 958.888 729.587 3
-1 6 -10 -385.313 665.162 4
1 6 10 822.749 655.823 3
-6 -1 10 672.762 625.763 3
-1 -6 10 261.01 609.285 3
-6 1 11 152.439 681.349 3
6 1 -11 376.112 897.213 7
-1 6 -11 1717.23 755.392 4
1 6 -11 -441.556 680.184 4
1 6 11 186.46 568.517 3
1 -6 -11 243.656 803.16 8
-1 6 11 672.555 666.042 3
6 -1 -11 1864.79 867.47 7
-6 -1 11 797.374 739.001 3
6 -1 -11 -695.87 821.23 8
6 1 -12 671.239 872.891 7
6 -1 -12 1353.13 818.223 7
6 1 -13 -175.031 722.577 7
6 -1 -13 706.694 757.811 7
6 1 -14 1903.14 832.2 7
1 -6 -14 1530.46 666.671 7
-1 -6 -14 709 593.439 7
6 -1 -14 1892.81 746.466 7
-1 -6 -15 -972.255 614.399 7
6 -1 -15 -1036.31 642.707 7
1 -6 -15 72.6538 521.025 7
1 -6 -16 397.852 385.196 7
-2 6 0 2221.44 918.038 1
6 -2 0 1383 424.135 1
-2 -6 0 950.717 998.55 1
6 2 0 1956.33 337.215 3
-6 2 0 2369.27 747.001 2
6 2 0 1209.47 368.583 4
2 -6 0 2674.19 952.103 2
6 -2 0 1820.06 390.408 4
-2 6 0 1120.7 735.053 2
-6 -2 0 1772.36 515.534 1
2 6 0 1328.67 346.721 3
-6 2 0 1263.18 520.184 1
-2 -6 0 1511.35 832.101 2
-6 -2 0 1710.37 486.513 2
6 -2 0 2207.41 600.997 2
2 -6 0 1647.71 899.243 1
6 2 1 9509.02 595.771 4
2 6 1 10262.4 610.086 3
-6 -2 1 9814.47 650.828 1
2 -6 1 9503.57 1287.9 1
6 2 -1 10389 591.773 3
-6 -2 1 8600.68 484.41 2
2 6 -1 10559.3 567.043 4
-2 -6 -1 9460.5 1274.75 2
-2 -6 -1 10113.5 1460.51 1
6 -2 1 10148 1114.78 2
-2 6 -1 8811.7 1438.57 2
-6 2 -1 9895.29 983.813 1
6 -2 -1 9311.94 568.596 4
-6 2 -1 10042.8 1209.17 2
2 6 -1 9884 1161.69 2
-2 6 -1 9210.83 1423.87 1
-2 6 1 10138.1 1380.84 2
-2 -6 1 11409.3 1296.51 2
2 -6 1 10366.8 1280.9 2
-6 -2 -1 10936.2 1017.34 1
6 2 1 9369.44 518.249 3
6 -2 -1 9643.23 1009.94 2
6 2 1 10341.3 979.343 2
-6 2 1 8940.21 1182.35 2
2 -6 -1 10696.5 1553 1
6 -2 -1 8192.07 431.489 1
2 6 -1 9753.16 584.345 3
6 -2 1 9229.79 923.147 1
2 -6 -1 10458.5 1538.33 2
-2 -6 1 7153.33 1288.32 1
-6 -2 1 9932.93 772.071 1
-6 -2 -1 9878.16 985.527 2
2 6 -2 799.403 352.112 3
-2 -6 -2 655.921 714.958 2
6 -2 -2 249.947 532.473 2
-6 2 2 1178.82 329.946 3
-6 2 2 2274.51 798.472 2
6 2 2 1921.73 696.544 2
-2 -6 2 2648.1 925.969 1
2 6 -2 1499.04 391.368 4
-6 -2 -2 2686.25 688.847 1
-2 6 -2 878.948 825.072 2
-6 2 -2 1939.78 711.425 1
-2 6 -2 2516.22 1096.65 1
2 -6 -2 1418.56 944.213 1
2 6 -2 1362.1 790.141 2
2 -6 2 1942.46 819.976 1
-2 6 2 1643.43 341.922 3
6 -2 -2 1246.49 340.821 4
6 2 2 1286.08 325.937 3
-6 -2 2 878.921 251.334 1
-6 2 -2 334.284 692.707 2
2 6 -2 1665.01 924.861 1
-2 -6 2 1790.89 700.422 2
-6 -2 2 1232.6 279.658 1
6 2 2 1502.02 409.909 4
2 -6 2 13.749 647.036 2
6 -2 2 517.849 605.989 1
-6 -2 -2 1423.8 626.488 2
6 -2 2 1461.09 745.412 2
6 2 3 7201.82 558.846 3
2 -6 -3 5387.92 1074.54 1
2 6 -3 7316.99 598.926 4
-6 -2 -3 6823.91 1164.07 2
6 -2 -3 7119.88 504.555 4
-6 2 -3 8919 1232.86 1
-2 6 3 6751.13 561.337 3
-6 -2 -3 7067.51 1169.95 1
6 -2 3 6110.08 1018.26 1
6 2 3 7668.99 1087.76 1
6 -2 -3 8882.89 1029.23 2
2 6 -3 5918.22 1027.45 2
-6 2 3 8149.79 583.427 3
2 -6 -3 6515.89 1002.5 1
-2 -6 3 6452.67 904.249 2
2 6 -3 8054.07 1385.32 1
6 2 3 7151.55 595.715 4
2 6 -4 133.173 442.245 4
6 2 4 324.623 328.912 3
-6 2 4 364.968 375.45 3
6 2 -4 53.8865 350.667 4
6 2 4 -4.02598 381.149 4
2 6 4 52.448 384.05 3
6 -2 4 -199.174 456.274 4
6 -2 -4 217.743 310.583 4
-2 6 4 -85.7693 393.452 3
6 2 5 52.7348 339.374 3
6 -2 5 -62.3445 509.577 4
-2 6 5 -254.181 449.261 3
2 6 -5 939.503 510.705 4
6 2 -5 113.05 354.697 4
6 -2 -5 161.805 280.374 4
-6 2 5 728.17 456.139 3
6 2 5 16.5327 430.581 4
2 6 5 17.8511 449.267 3
6 2 6 3631.7 548.221 3
6 -2 6 3989.19 709.556 4
2 6 6 4733.43 700.108 3
6 2 -6 4344.87 569.601 4
-6 -2 6 4519.72 742.046 3
-6 2 6 4515.83 657.939 3
-2 6 6 4036.05 655.412 3
2 6 -6 5256.06 702.936 4
2 6 -7 9274.08 908.135 4
-6 2 7 7916.86 874.574 3
-6 -2 7 8443.88 942.141 3
6 2 -7 6662.13 666.277 4
-2 -6 7 8018.84 819.96 3
2 6 7 8079.9 872.949 3
-2 6 7 9416.97 911.382 3
6 2 7 7972.46 771.63 3
-2 6 8 3733.08 735.781 3
-6 2 8 3163.8 743.105 3
-2 -6 8 3219.77 730.702 3
6 2 8 4044.28 651.575 3
6 2 -8 3885.99 612.803 4
2 6 8 3584.93 730.29 3
2 6 -8 3116.32 683.552 4
-6 -2 8 3523.42 733.525 3
6 2 -9 486.783 494.735 4
-2 6 -9 479.569 632.257 4
-6 -2 9 782.687 669.426 3
-6 2 9 1290.88 609.247 3
-2 6 9 986.52 647.741 3
2 6 9 1966 677.269 3
-2 -6 9 1220.09 615.859 3
2 6 -9 1144.3 716.246 4
-6 -2 10 3187.72 831.66 3
2 6 -10 3418.57 806.674 4
-2 -6 10 3754.85 871.803 3
-2 6 10 1634.31 672.698 3
-2 6 -10 1019.87 700.028 4
2 6 10 2070.5 741.581 3
-6 2 10 2128.41 750.331 3
-6 2 11 -485.703 717.194 3
2 6 -11 1868.11 963.995 7
6 -2 -11 605.36 880.738 7
2 -6 -11 -883.612 783.74 8
-2 6 -11 662.12 678.918 4
-2 6 11 -778.747 649.165 3
6 2 -11 338.617 872.699 7
6 -2 -11 -582.294 695.38 8
2 6 11 -1161.85 764.992 3
-6 -2 11 -750.748 721.516 3
2 6 -11 26.609 615.385 4
-2 -6 11 -174.033 732.997 3
2 -6 -12 -777.159 823.542 8
6 2 -12 924.971 920.288 7
6 -2 -12 -536.206 712.526 7
2 6 -12 1148.42 825.746 7
6 -2 -12 484.593 779.995 8
6 -2 -13 1305.41 814.786 7
6 2 -13 328.517 651.648 7
2 -6 -13 88.6859 684.766 7
-2 -6 -14 719.194 588.35 7
6 -2 -14 -144.327 588.567 7
2 -6 -14 51.0718 618.093 7
6 2 -14 1267.87 755.148 7
-2 -6 -15 8.8509 511.578 7
2 -6 -15 231.701 513.546 7
6 -2 -15 590.232 558.91 7
2 -6 -16 1783.17 461.14 7
3 -6 0 352.672 709.569 1
-3 6 0 16.4454 753.451 2
-3 6 0 -831.377 777.376 1
-6 -3 0 46.7136 491.467 1
6 -3 0 124.086 331.643 4
3 6 0 -110.293 225.757 4
-3 -6 0 208.535 931.819 1
6 3 0 -170.776 321.75 4
-6 3 0 361.428 664.942 1
-6 -3 0 -91.8328 588.061 1
3 -6 0 -7.73538 318.266 4
-6 3 0 63.7366 741.603 2
3 -6 0 171.374 755.722 2
6 -3 0 -135.499 487.696 1
-3 -6 0 -201.28 750.275 2
6 -3 0 -537.62 604.763 2
6 3 0 -316.316 343.012 3
-6 -3 0 -163.209 383.496 2
-6 -3 -1 1615.81 521.388 2
-3 -6 -1 1678.45 748.7 2
-6 3 -1 1802.25 772.959 2
-6 3 -1 964.766 546.577 1
6 3 -1 1658.23 378.175 3
-3 -6 1 1309.34 730.219 2
-3 6 -1 2266.95 949.581 2
6 3 1 2340.98 425.848 4
6 -3 1 1552.46 628.48 1
6 3 -1 1556.77 372.914 4
3 6 -1 1792.82 375.331 4
6 -3 1 1690.78 762.943 2
-6 3 1 1447.87 871.453 2
-3 -6 1 3162.18 1087.86 1
3 -6 1 1661.02 454.22 4
-6 -3 1 1462.69 246.211 2
6 -3 -1 2275.16 392.646 4
3 -6 1 4116.61 1115.58 1
6 -3 1 2362.35 469.068 4
-6 -3 -1 1790.39 683.825 1
-6 -3 1 1480.04 218.91 2
6 -3 -1 1928.82 441.132 1
3 -6 -1 1647.57 908.53 1
-3 6 -1 2217.2 935.511 1
-3 -6 -1 2344.65 948.071 1
-6 -3 1 1967.11 613.953 1
-3 6 1 1159.29 912.644 2
3 -6 -1 1850.26 1140.01 2
6 3 1 1677.2 365.104 3
6 -3 -1 1724.78 712.822 2
-6 -3 1 1758.91 482.024 1
3 6 -1 1786.69 379.341 3
-6 -3 -2 3276.44 839.157 2
-3 6 -2 2718.88 1132.84 1
-3 -6 2 4034.19 952.439 1
6 3 -2 3220.08 466.36 3
6 -3 2 4616.73 902.97 1
6 3 2 4138.7 463.554 4
-6 -3 2 3596.41 567.306 1
3 6 -2 3112.58 418.51 4
3 6 -2 2009.87 887.776 1
-3 -6 2 3079.64 674.786 2
3 6 -2 2891.62 777.802 2
3 6 -2 3437.09 471.395 3
6 -3 -2 2790.98 378.877 4
-3 -6 -2 3674.65 1065.57 2
-6 3 2 2725.38 819.426 2
3 -6 -2 2985.19 886.571 1
6 3 2 3675.75 461.233 3
-6 -3 -2 3566.59 867.746 1
6 -3 -2 3487.74 875.446 2
-6 3 -2 3286.95 949.736 2
-6 3 -2 3064.02 764.949 1
-3 6 2 3971.45 413.351 3
-3 6 3 3414.08 461.44 3
-6 3 3 2828.64 398.395 3
3 -6 -3 2263.35 860.136 1
3 6 -3 3331.67 474.134 4
6 -3 -3 3075.46 383.554 4
6 -3 -3 1743.96 695.987 2
3 -6 -3 2331.54 617.421 1
3 6 -3 2867.22 904.061 1
6 3 3 3698.13 480.33 3
-6 3 -3 3216.88 976.631 1
6 3 3 3407.62 455.271 4
6 3 -4 23959.4 987.156 4
6 3 4 24073.4 977.509 4
3 6 4 23559.2 1091.64 3
3 6 -4 25229 1066.41 4
6 -3 -4 23972.5 832.034 4
6 -3 4 23856.8 1175.28 4
-6 3 4 25627.7 1030.73 3
-3 6 4 24660.8 1024.36 3
6 3 4 22819.5 980.852 3
6 3 -5 532.396 384.45 4
3 6 -5 516.967 464.674 4
-3 6 5 473.453 442.234 3
-6 3 5 276.706 395.426 3
3 6 5 39.9599 442.067 3
6 3 5 361.3 355.251 3
6 -3 5 662.221 548.711 4
-3 6 6 -90.1644 435.045 3
3 6 -6 188.601 494.498 4
6 3 -6 180.679 403.703 4
3 6 6 370.248 489.456 3
6 3 6 369.615 383.15 3
6 -3 6 83.4664 562.492 4
-6 3 6 333.11 481.145 3
-6 3 7 2061.74 589.891 3
6 3 7 2502.38 563.538 3
-3 -6 7 1754.99 630.707 3
6 3 -7 1835.77 510.774 4
-6 -3 7 1833.96 654.914 3
3 6 7 1731.91 625.339 3
-3 6 7 2159.7 613.14 3
3 6 -7 1986.28 620.186 4
-6 -3 8 1291.5 686.071 3
3 6 -8 917.318 610.618 4
6 3 8 1236.84 549.077 3
-3 6 8 2129.98 698.055 3
3 6 8 983.831 584.26 3
6 3 -8 1509.28 521.452 4
-6 3 8 865.15 600.422 3
-3 -6 8 1090.45 670.497 3
6 3 -9 2452.48 598.993 4
-6 3 9 2677.15 739.532 3
-3 -6 9 2244.49 740.119 3
-3 6 9 2681.87 743.638 3
3 6 9 2394.3 682.384 3
6 3 9 1664.49 639.014 3
3 6 -9 2355.38 703.656 4
-6 -3 9 2110.06 785.311 3
-6 3 10 1572.43 638.888 3
3 6 -10 3022.94 831.481 4
-6 -3 10 2458.66 840.035 3
-3 6 10 1561.3 769.54 3
3 6 10 1449.86 695.785 3
-3 -6 10 676.676 697.108 3
6 3 -10 805.697 884.229 7
-3 6 -10 2698.99 853.361 4
6 -3 -11 593.512 732.467 8
-6 -3 11 302.818 683.871 3
3 -6 -11 93.0759 795.912 8
3 6 -11 138.654 814.251 7
-3 6 11 1651.55 840.655 3
-3 6 -11 307.44 707.15 4
6 3 -11 716.049 920.409 7
3 6 11 -74.4813 564.892 3
-3 -6 11 545.743 616.141 3
6 -3 -11 367.421 841.331 7
-6 3 11 1670.05 730.676 3
3 6 -11 927.669 538.82 4
6 -3 -12 670.209 726.785 8
6 3 -12 400.07 870.392 7
3 -6 -12 -203.769 744.709 8
6 -3 -12 608.661 779.792 7
6 -3 -13 -1055.15 725.933 8
6 -3 -13 185.183 786.051 7
3 -6 -13 275.995 649.354 8
6 3 -13 -432.766 663.781 7
3 -6 -13 -1488.34 842.406 7
-3 -6 -14 -278.397 654.379 7
3 -6 -14 944.391 739.549 7
6 -3 -14 -54.4958 667.92 7
6 -3 -15 611.287 595.988 7
3 -6 -15 244.25 567.246 7
-3 -6 -15 690.489 524.399 7
-6 4 0 3836.55 903.706 1
4 -6 0 6076.3 1092.44 1
6 4 0 5303.4 478.576 4
6 -4 0 6057.74 528.359 4
-6 -4 0 5826.07 730.608 2
4 6 0 5477.17 438.507 4
-6 -4 0 5046.71 777.783 1
-4 -6 0 3812.78 1069.97 1
6 4 0 6048.29 530.941 3
4 -6 0 4933.7 499.765 4
-4 6 0 5602.39 1172.07 1
-6 -4 0 5965.83 795.384 2
-4 -6 0 5310.02 1048.51 2
6 -4 0 7108.08 920.41 1
-6 4 0 6351.84 1322.95 2
6 -4 0 5626.71 1023.97 2
-6 -4 0 4140.04 958.137 1
4 6 -1 15065.3 688.746 4
4 -6 1 15052.6 1552.87 1
6 4 1 14560.5 732.409 3
-6 -4 -1 13759.6 1236.64 1
6 4 -1 14864.5 723.772 4
-6 4 1 13498 1558.1 2
-4 6 -1 14073.9 1705.62 1
-4 -6 -1 13535.5 1434.88 2
4 6 1 13567.6 560.235 4
4 -6 1 14681.2 804.686 4
6 -4 -1 15450 720.775 4
6 -4 -1 13419.6 1400.88 2
6 -4 -1 17645.8 1148.93 1
-6 -4 -1 13500 1167.35 2
6 -4 1 14086.9 786.629 4
6 4 -1 14519.2 760.484 3
-6 4 -1 12745.5 1384.78 1
6 -4 1 13246.3 1278.72 1
4 -6 -1 12496.2 1495.24 1
-4 -6 1 13879.4 1643.38 1
-6 -4 1 13282.6 1364.02 1
-6 4 -1 15477.7 1703.59 2
6 4 1 14904.6 702.219 4
-4 -6 1 16029.5 1397.24 2
6 4 2 15544 787.529 3
4 -6 2 13996.6 880.466 4
-6 -4 -2 13411.3 1339.77 1
4 -6 -2 12776.1 1516.16 1
6 4 -2 14800.8 793.628 3
6 -4 2 14200.1 851.949 4
-4 -6 -2 15614.8 1510.1 2
4 6 -2 15134.3 737.578 4
6 4 -2 14460.8 737.101 4
-6 4 -2 14336.9 1476.8 1
6 -4 2 15059.2 1440.34 1
-6 -4 -2 12173.3 1295.87 2
-4 -6 -2 13589.6 1488.38 2
-6 4 2 11577.6 1481.37 2
6 -4 -2 11652.6 1350.46 2
6 4 2 15506.8 724.27 4
-4 -6 2 13366.8 1530.8 1
6 -4 -2 14842.9 678.971 4
4 -6 -3 1576.98 591.5 1
6 -4 -3 1015.59 854.052 2
6 4 3 1810.41 447.443 3
-6 4 3 953.783 336.391 3
4 -6 -3 2470.81 1068.1 1
4 6 3 1368.44 473.74 3
4 6 -3 2760.76 857.72 1
6 -4 -3 832.942 277.697 4
6 4 3 1238.2 363.64 4
6 -4 3 1182.92 499.66 4
4 -6 3 1288.4 542.624 4
-4 6 3 1069.34 346.037 3
4 6 -3 1344.95 432.507 4
4 6 4 5651.03 630.655 3
-6 4 4 6378.61 595.759 3
6 4 4 5964.47 605.471 3
4 6 -4 6596.89 649.126 4
6 4 -4 6486.84 639.787 4
6 -4 4 5654.19 757.781 4
-4 6 4 6289.28 596.362 3
4 6 5 7484.21 774.147 3
6 4 5 6601.78 694.753 3
4 6 -5 8464.81 777.265 4
6 -4 5 7722.18 878.13 4
6 4 -5 8161 708.255 4
-6 4 5 7123.62 695.545 3
-4 6 5 8005.53 728.804 3
4 6 6 7687.32 825.437 3
6 4 6 6952.72 745.631 3
4 6 -6 7488.84 815.531 4
-6 4 6 8521.91 826.02 3
-4 6 6 7073.23 760.604 3
6 4 -6 7466.09 738.447 4
6 4 7 10077.4 928.755 3
4 6 -7 13065.5 994.417 4
6 4 -7 12174.9 931.772 4
-4 -6 7 11986.2 1092.05 3
-6 -4 7 10039.7 1024.48 3
-6 4 7 10119.6 945.962 3
-4 6 7 11742.5 996.109 3
4 6 7 11083.4 996.154 3
6 4 8 11829.3 1019.22 3
4 6 -8 13448.1 1074.87 4
6 4 -8 10382.6 908.663 4
-6 -4 8 12110 1181.2 3
-4 -6 8 11982.4 1141.35 3
-6 4 8 12550.8 1086.96 3
-4 6 8 12239.5 1069.45 3
4 6 8 12500.2 1088.3 3
6 4 9 10017.1 1008.17 3
6 4 -9 11769.7 1038.81 4
4 6 -9 10550 1036.25 4
-6 -4 9 11411.9 1243.09 3
-4 -6 9 9484.49 1098.96 3
-6 4 9 9215.19 1042.76 3
-4 6 9 10562.7 1070.08 3
4 6 9 9911.56 1069.78 3
-6 4 10 474.002 618.308 3
-4 6 10 -450.583 702.594 3
6 4 -10 -725.834 911.204 7
6 -4 -10 -131.563 741.515 7
-4 -6 10 759.649 801.002 3
6 4 -10 -46.3519 576.249 4
4 6 10 -314.517 648.744 3
6 4 10 348.501 578.92 3
-6 -4 10 -725.45 737.907 3
4 -6 -10 971.709 844.557 8
4 6 -10 -2582.2 983.577 7
4 6 -10 1236.96 695.733 4
6 -4 -10 -1336.98 909.814 8
4 6 -11 -558.607 551.121 4
6 -4 -11 198.866 859.274 7
-4 -6 11 -854.033 587.701 3
-4 6 -11 882.563 628.415 4
6 4 -11 -259.217 898.897 7
-4 6 11 998.013 666.063 3
-6 4 11 734.261 589.084 3
4 6 -11 -186.795 812.643 7
4 6 11 267.554 535.562 3
4 -6 -11 -424.455 775.42 8
-6 -4 11 593.049 717.187 3
6 -4 -11 -599.266 896.94 8
4 -6 -12 185.545 695.373 8
4 -6 -12 -653.98 832.904 7
6 4 -12 86.6589 661.722 7
6 -4 -12 1645.51 918.652 7
6 -4 -12 91.9179 763.02 8
6 -4 -13 1.36488 730.189 8
6 -4 -13 1098.73 702.1 7
4 -6 -13 302.541 766.427 7
4 -6 -13 367.059 690.82 8
4 -6 -14 -104.766 632.531 7
6 -4 -14 242.314 564.668 7
-4 -6 -14 321.849 582.036 7
-4 -6 -15 75.3849 488.243 7
6 -4 -15 -428.174 526.393 7
4 -6 -15 -82.8893 466.972 7
-5 -6 0 -233.197 500.312 2
6 -5 0 831.111 667.239 1
5 6 0 -160.652 280.238 4
-6 5 0 1742.17 811.084 1
5 -6 0 447.419 613.226 1
-6 -5 0 -1009.16 888.386 1
6 5 0 142.014 309.251 4
-6 -5 0 -856.617 513.904 1
6 -5 0 -218.779 386.477 4
-5 -6 0 -573.888 671.982 2
5 -6 0 96.1919 339.108 4
-5 6 0 -130.821 773.614 1
6 5 0 13.6725 334.801 3
-5 -6 0 114.433 828.191 1
6 5 -1 849.987 364.482 4
-6 -5 -1 -169.466 594.146 1
-5 -6 -1 821.675 607.02 2
5 -6 -1 102.45 701.524 1
5 6 -1 589.778 342.679 4
-6 -5 -1 -862.14 804.977 2
-6 -5 -1 1647.49 776.949 1
5 6 1 549.718 308.445 4
-6 -5 1 1557.18 909.471 1
6 -5 -1 451.225 319.137 4
6 5 -1 655.386 353.061 3
5 -6 1 1066.27 867.702 1
6 5 1 1109.05 344.791 4
-6 -5 -1 174.729 538.403 2
-5 -6 -1 1557.16 799.673 2
6 -5 1 678.423 435.549 4
5 -6 1 401.938 399.952 4
5 -6 -1 214.437 274.235 4
6 -5 1 1572.86 726.397 1
-6 5 -1 2351.59 974.318 1
-5 6 -1 512.451 873.172 1
-5 -6 1 1058.97 906.476 1
6 5 1 879.335 366.342 3
-6 -5 -2 -529.318 776.848 2
-5 -6 2 410.665 766.751 1
6 5 -2 1038.78 419.8 3
-5 -6 -2 646.54 726.753 2
5 -6 -2 671.819 836.26 1
5 6 -2 969.243 394.729 4
6 5 2 678.206 327.213 4
6 -5 2 590.06 478.775 4
6 -5 -2 597.379 301.8 4
6 5 -2 820.316 387.972 4
5 -6 2 906.758 500.302 4
5 6 2 982.575 420.011 3
6 5 2 690.877 375.595 3
-6 5 -2 1417.82 1035.83 1
5 6 3 5299.16 602.982 3
6 5 3 5454.73 620.664 3
5 6 -3 6307.1 596.706 4
6 -5 3 5186.7 687.962 4
5 -6 3 4864.26 701.168 4
6 5 -3 6182.85 595.453 4
5 6 4 7485.99 710.923 3
6 5 4 6866.11 666.329 3
5 6 -4 7775.25 690.256 4
6 5 -4 7054.5 658.255 4
-6 5 4 6560.49 603.925 3
6 -5 4 7660.6 819.775 4
5 -6 4 7668.11 843.613 4
-5 6 4 7102.59 619.917 3
5 6 5 16595.6 1042.16 3
6 5 5 16425.9 1017.69 3
5 6 -5 15341.1 950.81 4
6 5 -5 17261.7 984.644 4
6 -5 5 16208.1 1167.99 4
-6 5 5 16327.6 943.83 3
-5 6 5 16311.2 937.931 3
6 5 -6 -94.2901 461.07 4
5 6 -6 -133.615 499.408 4
-5 6 6 -5.18754 451.563 3
6 5 6 515.192 465.467 3
-6 5 6 -24.1309 450.571 3
5 6 6 152.531 516.027 3
-6 5 7 604.777 534.249 3
5 6 -7 526.842 533.815 4
6 5 -7 519.839 487.004 4
-6 -5 7 534.175 637.126 3
5 6 7 167.844 531.694 3
6 5 7 -147.874 485.393 3
-5 6 7 85.3058 481.749 3
5 6 -8 163.361 534.644 4
6 5 -8 80.3865 524.34 4
-5 6 8 1016.22 614.261 3
6 5 8 358.976 487.475 3
-6 -5 8 1336.06 690.009 3
-5 -6 8 -349.349 657.416 3
5 6 8 407.271 571.913 3
-6 5 8 890.478 568.239 3
5 6 -9 280.439 572.862 4
-5 6 9 1095.82 608.636 3
6 5 -9 352.622 543.182 4
6 5 9 -264.537 593.792 3
-5 -6 9 -154.51 682.4 3
-6 5 9 867.603 631.569 3
5 6 9 -93.185 641.294 3
-6 -5 9 -1514.15 878.088 3
-5 6 10 2226.37 770.281 3
6 -5 -10 1454.88 851.492 7
5 -6 -10 1485.84 762.192 8
6 5 -10 1583.38 649.021 4
-5 -6 10 1338.42 676.113 3
6 5 10 213.771 608.086 3
5 6 10 1342.83 691.754 3
-6 -5 10 2201.2 854.829 3
5 6 -10 2184.76 722.284 4
5 6 -10 1023.26 864.015 7
-6 5 10 2765.79 816.264 3
6 -5 -10 2070.29 990.17 8
6 5 -10 2737.07 1066.31 7
6 -5 -11 5397.57 1143.6 8
6 -5 -11 2685.41 821.143 7
5 -6 -11 3780.54 883.079 7
6 5 -11 3119.18 931.731 7
5 -6 -11 2046.6 890.472 8
5 -6 -12 -195.693 781.529 7
6 -5 -12 146.255 714.721 7
6 -5 -12 6.26626 744.848 8
5 -6 -12 1272.59 842.404 8
6 -5 -13 -542.78 669.088 8
5 -6 -13 -41.6505 739.466 7
5 -6 -13 -525.997 665.309 8
6 -5 -13 -296.17 679.599 7
5 -6 -14 820.967 643.137 7
-5 -6 -14 -151.322 633.49 7
5 -6 -14 1771.64 670.576 8
6 -5 -14 1963.91 656.541 8
6 -5 -14 539.161 630.275 7
6 -5 -15 -220.618 468.808 7
5 -6 -15 -226.315 488.522 7
-5 -6 -15 255.665 467.984 7
6 6 0 1597.45 355.5 4
6 -6 0 808.58 694.834 1
-6 6 0 1436.13 882.892 1
6 -6 0 1192.34 414.151 4
6 6 0 1610.73 437.412 3
6 6 -1 5991.68 549.604 4
6 6 -1 6380.8 606.49 3
6 6 1 6276.06 521.22 4
6 -6 1 5238.92 624.289 4
6 6 1 6162.43 604.879 3
6 -6 -1 6078.19 553.93 4
6 6 -2 64.0143 408.297 3
6 6 -2 -221.735 371.829 4
6 6 2 -29.8674 309.413 4
6 -6 2 -31.8604 454.556 4
6 6 2 -128.859 389.352 3
6 -6 3 21738.3 1171.75 4
6 6 3 22384.8 1082.08 3
6 6 -3 21372.2 1004.94 4
6 6 -4 -66.5061 414.301 4
6 -6 4 53.0323 544.069 4
6 6 4 303.615 418.026 3
6 6 5 154.633 467.67 3
6 6 -5 845.995 541.862 4
-6 6 5 -58.1507 411.467 3
6 6 -6 1994.4 587.753 4
-6 6 6 1987.26 553.117 3
6 6 6 1457.58 580.431 3
-6 6 7 2733.83 731.836 3
6 6 -7 2284.49 626.062 4
6 6 7 753.997 575.843 3
6 6 -8 484.762 520.924 4
6 6 8 432.839 553.146 3
-6 6 8 728.477 630.72 3
-6 -6 8 885.648 685.389 3
-6 6 9 5359.65 889.397 3
6 6 -9 3383.35 692.399 4
6 6 9 4992.95 826.335 3
-6 -6 9 5144.09 923.653 3
6 6 10 12256.2 1186.59 3
6 6 -10 12818.9 1184.85 4
6 -6 -10 10965.2 1346.29 8
-6 -6 10 11667.2 1296.42 3
-6 6 10 10650 1149.36 3
6 -6 -11 248.898 792.148 8
6 -6 -11 757.553 781.762 7
6 -6 -12 924.137 717.968 7
6 -6 -12 -132.894 758.781 8
6 -6 -13 802.841 644.932 7
6 -6 -13 307.252 665.668 8
-6 -6 -14 -279.285 584.487 7
6 -6 -14 -158.745 582.494 7
6 -6 -14 203.344 565.236 8
6 -6 -15 -254.861 449.977 7
7 0 0 -60.1624 464.491 2
0 -7 0 514.219 803.242 2
0 7 0 110.163 281.665 3
-7 0 0 126.996 312.127 1
0 7 0 642.893 954.004 2
-7 0 0 -23.9566 514.853 2
0 7 1 92193 1619.45 3
0 7 -1 89657 1517.11 3
0 7 -1 87863.4 3645.66 2
7 0 1 91827.5 2943.41 2
0 -7 1 93485.6 3612.96 2
7 0 -1 94195.2 2268.21 2
-7 0 -1 87692 2505.12 1
-7 0 -1 87995 2901.83 2
-7 0 1 89961.4 2594.65 2
7 0 1 95413.6 2561.2 1
0 7 2 98073 1771.71 3
7 0 2 91253.2 3284 2
7 0 2 97409.4 3093.57 1
-7 0 -2 95464.7 3085.61 1
7 0 -2 94174.1 1726.91 4
0 7 -2 93037.6 3864.73 2
0 7 -2 101211 1709.01 3
-7 0 -2 94247.6 3313.7 2
7 0 2 100435 1924.24 4
0 -7 2 96882 3561.87 2
0 7 3 578802 4572.27 3
7 0 -3 583670 4307.77 4
7 0 3 573286 8473.69 1
-7 0 -3 565982 8566.79 1
0 7 -3 557015 9803.59 2
7 0 3 599965 4892.73 4
7 0 -4 575455 4440.12 4
7 0 4 577199 5155.36 4
0 7 4 576075 4925.88 3
7 0 -5 126893 2186.11 4
7 0 5 123896 2591.81 4
-7 0 5 124129 2540.13 3
0 7 5 125314 2525.64 3
0 7 6 -334.224 481.693 3
-7 0 6 819.676 572.372 3
0 7 -6 209.293 586.386 4
7 0 -6 305.997 383.756 4
7 0 6 344.935 503.49 4
0 -7 6 534.651 438.442 3
7 0 -7 53343 1610.33 4
0 -7 7 48638.5 1731.13 3
0 7 -7 53295.9 1993.98 4
0 7 7 52830.5 1945.27 3
7 0 7 50097.8 1891.13 4
-7 0 7 49929.1 1909.13 3
0 7 -8 12368.7 1151.47 4
-7 0 8 12669.4 1135.66 3
0 7 8 12692.1 1122.72 3
0 7 -9 46478.3 2045.12 4
-7 0 9 44840.4 2058.22 3
0 7 9 47823.3 2125.15 3
-7 0 10 55744.6 2413.92 3
7 0 -10 61118.2 2722.57 7
0 7 -10 60670.3 2410.86 4
0 7 10 55484.4 2375.9 3
0 7 -11 38551 1945.2 4
0 -7 -11 35820.8 2073.41 8
7 0 -11 37837.9 2246.2 7
7 0 -11 37873.8 2108.18 8
-7 0 11 36771.2 2022.05 3
0 7 11 37017 1991.02 3
7 0 -12 36472 2159.98 7
7 0 -13 2131.13 920.73 7
7 0 -14 3185.39 806.925 7
0 -7 -14 2648.81 782.998 7
0 -7 -15 5422.61 739.416 7
7 1 0 73332.2 2207.48 2
-1 7 0 67632.5 1258.41 3
1 7 0 70412.3 1414.43 3
1 7 0 69029.7 3193.44 2
7 1 0 66718.1 1274.14 3
-7 1 0 68202.3 2636.77 2
7 -1 0 71002.7 2486.69 2
-7 -1 0 69802.6 1787.97 1
7 -1 0 72388.6 1659.24 1
-7 -1 0 71195.1 2202.98 2
-1 7 0 69449.5 3336.89 2
-7 1 0 67791.3 1771.23 1
7 -1 1 1708.38 661.739 2
7 1 1 2631.48 457.975 4
-7 -1 -1 1681.14 584.687 1
1 7 -1 3178.95 423.446 3
-7 1 1 2936.84 800.787 2
-1 7 1 2821.02 377.442 3
7 -1 1 2475.92 550.761 1
7 1 1 1527.77 625.05 2
7 -1 -1 2755.28 430.39 4
-1 -7 -1 2653.87 783.381 2
1 7 -1 1781.8 800.931 2
-1 7 -1 3214.52 1091.63 2
1 7 -1 2413.72 408.915 4
1 7 1 3094.51 434.26 3
-1 -7 1 2169.01 885.047 2
-7 1 -1 2486.77 700.213 2
-7 1 -1 1756.82 531.064 1
-7 -1 -1 3057.98 684.286 2
7 1 1 2763.22 325.61 3
7 -1 -1 2337.46 590.963 2
-1 7 -1 2133.14 326.825 3
-1 7 2 9968.91 640.832 3
1 7 2 9112.43 649.7 3
1 7 -2 9974.48 646.322 3
7 1 2 8866.98 515.663 3
-7 1 -2 10230.4 1119.3 1
1 7 -2 9585.61 654.538 4
1 7 -2 11814 1544.69 2
7 -1 2 9987.17 1315.18 2
7 -1 -2 8888.02 627.556 4
-1 -7 2 8980.21 1280.47 2
7 1 2 9901.55 682.385 4
7 1 2 8103.51 1064.3 1
-7 -1 -2 9129.47 1094.01 1
-1 7 -2 9372.88 539.657 3
-7 1 -2 9241.6 1250.61 2
7 -1 2 10493.3 1206.51 1
7 1 2 8491.05 1121.38 2
-7 -1 -2 7612.85 1002.95 2
-7 -1 -3 2725.26 939.265 1
-1 7 3 2271.13 469.75 3
7 1 -3 2958.7 492.275 4
7 -1 -3 2899.04 475.247 4
-7 1 -3 4238.24 1028.19 1
7 1 3 2941.4 538.369 4
1 7 3 3068.44 540.07 3
7 -1 3 2544.04 562.072 4
7 -1 3 2872.15 862.629 1
1 7 -3 2203.94 1013.57 2
1 7 -3 2975.85 544.508 4
7 1 3 2300.9 397.109 3
-7 1 3 2785.98 476.258 3
-1 -7 3 1985.43 764.742 2
7 1 4 67116.1 1461.79 3
1 7 -4 75312.7 1868.21 4
7 -1 -4 73052 1584.64 4
7 -1 4 72836.9 1922.28 4
7 1 4 71896.1 1849.68 4
7 1 -4 71836.1 1646.59 4
1 7 4 73914.9 1832.57 3
-7 1 4 71913.8 1752.16 3
-1 7 4 71573.9 1771.36 3
1 7 -5 18942.2 1107.67 4
7 1 -5 17151.2 891.485 4
7 -1 -5 17869.1 847.334 4
7 1 5 15854.5 985.599 4
-7 -1 5 18114 1080.14 3
7 -1 5 17174.9 1095.12 4
-7 1 5 16443.7 1003.56 3
-1 7 5 18203.8 1034.37 3
1 7 5 17596.4 1044.01 3
7 1 6 10239.7 864.675 4
1 7 6 13345.8 1001.04 3
1 7 -6 15151.6 1082.66 4
7 -1 -6 13630.7 806.588 4
7 1 -6 12372.4 812.059 4
7 -1 6 11112.6 988.521 4
-7 -1 6 12995.8 1021.75 3
-7 1 6 12840 973.357 3
-1 7 6 12314.9 950.497 3
-7 -1 7 6150.57 874.352 3
1 7 -7 4926.97 770.245 4
-7 1 7 4406.11 744.062 3
7 1 -7 4051.28 575.807 4
1 7 7 3824.3 711.68 3
-1 7 7 4383.09 727.523 3
-7 1 8 3531.6 753.365 3
-1 -7 8 5390.79 804.585 3
-1 7 8 3985.06 765.262 3
1 7 8 4272.49 765.082 3
1 7 -8 3743.96 792.512 4
-7 -1 8 8163.1 1021.26 3
-1 7 -8 3101.24 795.981 4
7 1 -8 6695.71 749.877 4
1 7 -9 466.22 638.96 4
-7 -1 9 1283.81 667.687 3
1 7 9 633.978 582.462 3
-1 7 9 1206.91 664.98 3
-1 7 -9 514.815 677.42 4
-1 -7 9 2516.12 722.704 3
-7 1 9 1131.42 679.393 3
7 -1 -10 4367.93 996.247 8
1 7 10 3983.24 879.678 3
1 -7 -10 5489.98 1105.47 8
7 1 -10 4164.16 990.183 7
-7 1 10 3861.17 878.307 3
-1 7 10 3868.91 802.959 3
-1 7 -10 5802.48 1039.3 4
-7 -1 10 5201.13 985.228 3
1 7 -10 3409.45 877.334 4
7 -1 -10 3225.92 1100.72 7
7 -1 -11 103.043 809.73 7
-1 7 11 672.722 620.67 3
7 1 -11 682.621 815.941 8
-7 -1 11 495.884 564.947 3
7 1 -11 2205.28 979.702 7
7 -1 -11 251.953 727.788 8
1 -7 -11 215.049 795.695 8
1 7 11 457.421 638.983 3
1 7 -11 -414.291 582.489 4
-1 7 -11 -545.709 766.239 4
-7 1 11 1633.48 698.618 3
-1 -7 -11 -577.763 825.092 8
7 -1 -12 -309.837 747.931 8
7 1 -12 944.036 837.888 7
7 -1 -12 1301.84 890.806 7
1 -7 -12 408.773 758.927 8
7 1 -13 5777.27 975.195 7
7 -1 -13 4031.55 975.862 7
-1 -7 -14 -75.2726 610.737 7
7 -1 -14 1178.92 682.161 7
1 -7 -14 562.806 678.19 7
7 1 -14 936.192 737.21 7
-1 -7 -15 -40.0036 516.108 7
1 -7 -15 1253.39 604.417 7
7 2 0 299.906 324.432 3
2 7 0 -79.7754 327.013 3
2 7 0 -5.9309 225.197 4
-7 -2 0 -266.304 403.083 1
7 -2 0 266.323 368.686 4
-2 -7 0 -204.456 808.617 2
-7 2 0 857.581 661.53 2
-7 -2 0 -691.988 449.628 2
7 -2 0 -111.412 642.035 2
-2 -7 1 11879 1474.94 2
7 2 1 13337.4 724.634 4
-2 7 1 13120.9 601.215 3
7 -2 -1 11475.9 1111.3 2
2 7 1 12818.1 722.252 3
7 2 1 13559.6 646.698 3
2 7 -1 13873.3 655.626 4
2 7 -1 13081.5 708.601 3
-7 2 1 11368.5 1236.25 2
7 -2 1 10941.5 1215.56 2
7 2 -1 12930.6 692.243 3
-7 2 -1 13366.8 1477.93 2
-2 -7 -1 14863.7 1748.51 2
2 7 -1 10357.2 1393.45 2
7 -2 -1 13880.3 718.757 4
-7 -2 -1 11681 1067.97 1
-7 -2 -1 11312.2 1061.93 2
7 2 1 12857.1 1143.06 2
-7 2 -1 12173.8 1155.71 1
7 -2 1 13781.5 1097.26 1
7 -2 -2 163621 3761.78 2
-2 7 2 161449 2148.79 3
2 7 2 159201 2398.97 3
7 2 2 161791 2113.81 3
-7 2 -2 150022 4065.11 1
2 7 -2 159701 2269.21 4
2 7 -2 152832 4447.76 2
-2 -7 2 153030 4211.58 2
-7 -2 -2 152029 4126.65 2
7 2 2 160943 4271.99 2
7 -2 -2 157589 2210.3 4
-7 -2 -2 162409 4182.3 1
2 7 -2 158503 2346.29 3
7 2 2 160466 2361.63 4
7 -2 2 152596 3981.52 1
-7 2 3 194341 2523.3 3
2 7 3 191241 2769.96 3
7 2 3 188379 2419.25 3
2 7 -3 191896 2697.08 4
7 2 3 191755 2711.69 4
7 -2 3 192493 2949.56 4
7 2 -3 194654 2616.94 4
7 -2 -3 196505 2465.73 4
-2 7 3 198663 2602.6 3
2 7 4 162440 2742.52 3
7 2 4 167491 2424.76 3
7 2 -4 166515 2514.6 4
7 -2 4 160354 2901.65 4
2 7 -4 165989 2706.32 4
7 2 4 164889 2679.65 4
-7 2 4 169259 2617.21 3
7 -2 -4 173312 2375.13 4
-2 7 4 166694 2617.63 3
7 2 5 147934 2470.45 3
7 -2 5 148628 2955.21 4
7 2 5 144988 2690.54 4
2 7 -5 148950 2790.48 4
7 2 -5 147435 2484.36 4
7 -2 -5 156718 2342.57 4
-7 2 5 145298 2665.25 3
-2 7 5 146777 2683.49 3
2 7 5 152156 2822.55 3
2 7 -6 38463.5 1580.21 4
7 2 -6 37374.1 1360.94 4
-7 2 6 41371.2 1584.37 3
7 2 6 37554.6 1376.05 3
7 -2 6 37901.1 1670.98 4
-7 -2 6 38614.5 1634.22 3
-2 7 6 39878 1559.17 3
2 7 6 38823.3 1600.05 3
2 7 -7 1682.82 617.875 4
-7 -2 7 2178.49 666.638 3
7 2 -7 577.838 408.305 4
2 7 7 1710.36 643.762 3
-7 2 7 1146.44 582.31 3
-2 7 7 1753.06 584.046 3
-2 -7 7 1548.6 584.911 3
2 7 -8 58442.6 2150.02 4
-7 -2 8 53935 2190.58 3
7 2 -8 53908.6 1794.8 4
2 7 8 52849.7 2125.81 3
-2 -7 8 51586.4 2032.83 3
-7 2 8 52315.9 2057.09 3
-2 7 8 53366.3 2088.71 3
2 7 -9 32933.6 1729.55 4
-2 7 9 33309.5 1777.84 3
-2 7 -9 34043 1833.7 4
-2 -7 9 34283.6 1764.18 3
-7 -2 9 33543.6 1867.99 3
-7 2 9 30193.6 1726.91 3
2 7 9 35570.3 1856.95 3
-2 7 -10 37602.2 1988.73 4
2 7 -10 39712.9 1956.03 4
7 -2 -10 36741.9 2086.56 8
7 2 -10 34642.2 2110.37 7
2 -7 -10 36764.9 2132.94 8
-2 -7 10 35987.1 1892.52 3
-7 -2 10 32606 1917.93 3
-7 2 10 37706.9 1985.65 3
-2 7 10 35301.3 1929.55 3
7 -2 -10 35028.5 2058.09 7
2 7 10 36012 1913.77 3
2 7 11 52454.5 2342.7 3
2 7 -11 55691.4 2267.97 4
-2 7 -11 54443.1 2303.14 4
2 -7 -11 55053.3 2513.41 8
7 -2 -11 55171.4 2510.47 8
7 2 -11 56713.6 2649.57 7
7 -2 -11 54306.7 2553.43 7
2 -7 -12 7694.63 1084.25 8
7 2 -12 8849.8 1263.56 7
7 -2 -12 7886.26 1251.93 7
7 -2 -12 7872.59 1105.52 8
7 2 -13 165.697 806.612 7
7 -2 -13 470.52 671.62 8
2 -7 -13 772.216 682.761 8
2 -7 -13 521.634 768.566 7
7 -2 -13 472.924 836.662 7
7 -2 -14 1368.54 747.25 7
2 -7 -14 2157.23 795.459 7
-2 -7 -14 2265.24 689.423 7
7 -2 -15 3142.53 623.365 7
-2 -7 -15 2206.89 588.893 7
2 -7 -15 3522.3 685.489 7
-3 7 0 7791.62 1470.91 1
7 3 0 7145.76 555.337 3
3 7 0 6979.02 450.998 4
3 7 0 8540.87 672.401 3
-7 -3 0 7059.82 981.346 1
7 3 0 7192.54 571.404 4
-7 3 0 6496.55 1279.36 2
7 -3 0 6983 579.903 4
-3 -7 0 6736.98 1240.39 2
7 -3 0 5956.44 957.802 2
7 -3 1 8944.71 1026.05 1
-7 3 -1 6513.29 946.657 1
7 3 -1 8887.68 627.525 3
3 7 1 8610.81 656.006 3
7 -3 -1 8586.24 603.711 4
3 7 -1 9862.75 590.893 4
3 7 -1 9780.98 668.314 3
7 3 -1 9608.11 638.98 4
7 3 1 10116 621.677 3
-7 3 1 7172.31 1153.07 2
7 -3 1 9157.65 1204.49 2
-7 -3 -1 9034.7 1006.71 2
-3 -7 1 9912.01 1408.03 2
7 3 1 9143.11 634.19 4
-3 -7 -1 8498.66 1307.96 2
7 -3 -1 8783.74 1145.5 2
7 -3 1 9249.64 686.957 4
-7 3 -1 10115.5 1535.97 2
-7 -3 -1 11235.1 1172.59 1
-3 7 2 52782.8 1217.78 3
3 7 2 55302.8 1482.68 3
7 3 2 56215.6 1361.41 3
3 7 -2 53589.1 1453.27 3
-7 -3 -2 51280.8 2475.47 2
3 7 -2 54912.7 2612.18 2
3 7 -2 53875.2 1357.18 4
-7 3 -2 52386.5 2609.77 1
-7 3 2 47225.9 2523.05 2
7 -3 -2 57980.6 2563.6 2
7 -3 -2 55246.7 1333.2 4
7 -3 2 54276.2 2569.49 1
7 3 2 53714.8 1388.04 4
-7 -3 -2 52359.9 2544.16 1
7 3 3 134131 2264.47 4
3 7 3 131685 2381.99 3
7 3 3 134135 2179.76 3
3 7 -3 132204 2267.9 4
7 -3 -3 137210 2069.28 4
7 3 -3 136339 2265.67 4
7 -3 3 130684 2517.32 4
3 7 -3 130543 2338.18 3
-3 7 3 134356 2134.45 3
7 3 4 5336.78 580.633 3
7 3 -4 5508.57 614.678 4
-7 3 4 4966.83 579.031 3
3 7 -4 5608.22 666.672 4
3 7 4 4993.98 656.077 3
7 -3 4 5527.62 742.207 4
7 -3 -4 5105.15 522.917 4
7 3 4 5042.91 596.411 4
-3 7 4 5625.1 615.998 3
3 7 5 15968.9 1032.8 3
7 3 5 17314 944.363 3
3 7 -5 17759.8 1064.15 4
7 3 -5 17682.3 975.138 4
7 -3 5 15795.4 1104.4 4
-7 3 5 17697.8 987.65 3
7 3 5 14866.1 946.037 4
-3 7 5 16236.1 968.449 3
3 7 6 31135.7 1471.47 3
7 3 -6 32499.2 1308.74 4
3 7 -6 35034.4 1484.05 4
7 3 6 33603.5 1364.59 3
-7 3 6 32638.5 1419.82 3
7 -3 6 30222.6 1559.7 4
-3 7 6 31643.6 1392.34 3
7 3 7 31517 1417.64 3
3 7 -7 36708.6 1621.16 4
7 3 -7 34306.4 1423.88 4
-3 -7 7 34098.6 1606.16 3
-7 -3 7 36622.3 1768.51 3
-7 3 7 33924.9 1565.9 3
-3 7 7 35713.6 1610.31 3
3 7 7 34769.8 1660.77 3
7 3 8 28335 1466.78 3
-3 -7 8 27808.2 1569.73 3
3 7 -8 29506.1 1569.12 4
-7 -3 8 28341.4 1664.01 3
7 3 -8 27138.2 1357.49 4
-7 3 8 25508.3 1495.09 3
-3 7 8 26267.9 1501.16 3
3 7 8 28907.4 1603.04 3
-7 -3 9 31075.4 1843.96 3
3 7 9 32546.5 1797.93 3
3 7 -9 32676.7 1706.49 4
7 3 -9 32538 1540.98 4
-3 -7 9 33943 1812.95 3
-7 3 9 31464.8 1720.21 3
-3 7 9 32840.2 1767.2 3
-7 -3 10 1593.85 823.947 3
3 -7 -10 868.761 976.481 8
7 -3 -10 -151.579 751.568 7
7 3 -10 1776.12 1003.43 7
-7 3 10 875.738 748.655 3
-3 7 10 -562.191 717.736 3
3 7 10 454.822 586.046 3
-3 -7 10 830.305 678.921 3
3 7 -10 236.179 638.325 4
-3 7 -10 101.477 719.158 4
7 -3 -10 1557.39 971.152 8
7 -3 -11 1732.36 873.464 7
7 3 -11 1211.62 912.113 7
3 -7 -11 1998.35 940.119 8
7 -3 -11 2153.64 862.722 8
7 3 -12 11925.7 1425.55 7
7 -3 -12 12985.7 1388.82 7
7 -3 -12 13220.2 1340.51 8
3 -7 -12 10945.4 1214.49 8
7 -3 -13 13537.8 1354.66 7
3 -7 -13 13578.1 1291.12 7
3 -7 -13 13259 1250.83 8
7 -3 -13 12855.7 1285.07 8
7 -3 -14 5751.03 920.832 7
3 -7 -14 4910.41 829.742 7
7 -3 -15 1154.17 537.984 7
3 -7 -15 170.439 467.123 7
-3 -7 -15 -137.289 455.9 7
-4 -7 0 -840.791 830.087 2
4 7 0 83.0169 247.121 4
7 4 0 -18.5163 323.556 4
-7 -4 0 -157.051 799.641 1
7 -4 0 -262.391 379.541 4
4 -7 0 -170.857 334.93 4
7 4 0 57.9083 350.153 3
-4 -7 -1 14168.2 1564.68 2
7 4 -1 14337 767.374 4
7 4 1 14333.4 761.264 3
4 7 -1 13576.2 782.493 3
4 7 -1 14663.2 703.549 4
7 4 -1 14672.6 814.164 3
-7 -4 -1 11258 1195.01 1
7 4 1 14466.7 755.401 4
4 -7 1 14844.3 854.949 4
7 -4 1 14488.2 845.997 4
7 -4 -1 13810.2 744.895 4
-7 4 1 10719.8 1470.09 2
7 -4 1 14348.5 1371.35 1
7 -4 -1 12167.4 1377.85 2
4 7 2 59952.4 1599.72 3
7 4 2 58062 1480.21 3
4 7 -2 59030.8 1443.41 4
-7 4 2 52973 2992.5 2
7 4 -2 60366.2 1513.91 4
4 7 -2 59999.6 1590.49 3
-7 -4 -2 56975.6 2768.64 2
7 4 2 60149.2 1469.11 4
7 -4 -2 63094.5 1428.44 4
7 4 -2 58360.9 1559.79 3
-7 4 -2 57638.3 3018.68 1
7 -4 2 58427.6 1659.81 4
4 7 3 105844 2206.64 3
7 4 3 109689 2097.86 3
4 7 -3 108276 2210.94 3
4 7 -3 106157 2056.58 4
7 4 -3 109583 2093.43 4
7 4 3 110771 2036.76 4
7 -4 3 109304 2368.43 4
7 -4 -3 110640 1880.07 4
-4 7 3 109087 1909.9 3
7 4 4 111921 2248.38 3
4 7 -4 115349 2303.12 4
7 4 -4 113774 2232.82 4
7 4 4 106388 2087.06 4
7 -4 4 109467 2529.99 4
4 7 4 113562 2426.09 3
-4 7 4 116738 2190.48 3
4 7 5 17788.6 1097.53 3
7 4 5 18696.7 1034.26 3
-7 4 5 17919.8 999.498 3
7 4 -5 17601.3 982.944 4
7 -4 5 17712.1 1189.11 4
4 7 -5 17658.1 1048.93 4
-4 7 5 17609.7 1002.01 3
4 7 6 36289.3 1612.44 3
7 4 6 35394.7 1468.33 3
4 7 -6 37753.2 1554.41 4
7 4 -6 35476 1417.51 4
7 -4 6 35665.2 1688.01 4
-7 4 6 34984 1454.02 3
-4 7 6 33628.3 1437.49 3
4 7 7 894.769 661.938 3
-4 7 7 542.442 527.706 3
-7 4 7 912.393 563.901 3
4 7 -7 24.547 559.235 4
7 4 -7 -190.101 491.281 4
7 4 7 557.452 477.889 3
-7 -4 7 650.715 611.976 3
4 7 -8 2606.03 722.054 4
7 4 -8 1592.81 575.353 4
-4 7 8 1850.15 673.013 3
4 7 8 1860.53 683.264 3
7 4 8 2427.09 620.981 3
-4 -7 8 2766.89 712.673 3
-7 4 8 2221.16 628.986 3
-7 -4 8 2524.97 788.927 3
4 7 9 48314.4 2148.87 3
7 4 9 49348.5 2045.3 3
4 7 -9 51194.1 2092.62 4
7 4 -9 52681.5 1991.96 4
-7 4 9 49427.8 2110.13 3
-4 -7 9 48185.4 2195.55 3
-7 -4 9 47013.4 2239.82 3
-4 7 9 47520.9 2098.25 3
4 7 10 35985.2 1965.86 3
-4 7 10 34091.4 1870.55 3
-4 7 -10 35209.5 1974.15 4
4 7 -10 40139.4 1938.02 4
7 4 -10 33955.1 1712.91 4
7 -4 -10 36294.9 2167.45 8
7 4 -10 38113.5 2210.49 7
7 -4 -10 32520 1975.36 7
4 -7 -10 38126.7 2218.77 8
-4 -7 10 31865.7 1869.01 3
-7 -4 10 34075.1 2013.53 3
-7 4 10 33708.5 1858.22 3
7 4 -11 3399.69 910.265 7
7 -4 -11 4334.61 1082.23 7
4 -7 -11 4638.1 1063.13 8
7 -4 -11 4335.09 1020.42 8
4 -7 -12 141.412 887.054 7
7 -4 -12 654.57 742.365 7
7 -4 -12 1352.87 754.724 8
4 -7 -13 -237.781 729.357 7
7 -4 -13 232.509 742.302 7
7 -4 -13 58.0623 655.706 8
4 -7 -13 433.801 623.817 8
7 -4 -14 -338.883 628.319 7
4 -7 -14 743.353 605.101 7
4 -7 -14 105.408 544.196 8
7 -4 -15 3451.2 649.706 7
-4 -7 -15 2108.52 566.096 7
4 -7 -15 3583.61 639.156 7
5 7 0 13838.7 686.856 4
5 7 0 14245.2 831.543 3
7 -5 0 13191.7 801.175 4
7 5 0 13527 800.797 3
7 5 0 12810.9 730.603 4
5 -7 0 13195.5 775.15 4
5 7 1 33794.8 1220.9 3
7 5 1 34623.1 1188.35 3
5 7 -1 32881.6 1214.12 3
7 5 -1 32782.8 1194.75 3
7 5 -1 33247.7 1133.47 4
5 7 1 30071.3 917.458 4
5 7 -1 33612.9 1065.59 4
7 -5 -1 34063.8 1136.9 4
7 -5 1 32073.5 1237.9 4
7 5 1 31615.1 1058.59 4
5 -7 1 33593.2 1244.41 4
5 7 2 72865.9 1830.13 3
7 5 2 77658.7 1814.25 3
5 7 -2 71050.2 1633.8 4
7 5 -2 73876.1 1713.3 4
7 -5 2 72475.6 1890.07 4
5 -7 2 71848.7 1884.51 4
7 -5 -2 73047.3 1578.16 4
7 5 -2 71165 1784.25 3
7 5 2 76372.5 1658.2 4
5 7 -2 71003.6 1812.35 3
7 5 3 5068.21 601.548 3
5 7 -3 3649.19 613.197 3
5 7 3 4056.32 618.393 3
5 7 -3 4178.31 562.062 4
7 5 -3 4175.89 562.782 4
7 5 3 4428.59 519.647 4
7 -5 3 4131.19 720.395 4
7 5 -4 134.573 418.08 4
7 5 4 -491.321 416.824 3
5 7 4 29.4195 471.447 3
7 -5 4 -784.859 611.195 4
5 7 -4 359.584 438.413 4
5 7 5 64950.7 2003.72 3
7 5 5 60977.1 1867.74 3
5 7 -5 63265.9 1880.16 4
7 5 -5 63638.3 1857.32 4
7 -5 5 60819.2 2106.5 4
-5 7 5 63385.5 1787.04 3
5 7 6 139070 3086.24 3
7 5 6 131743 2894.37 3
5 7 -6 139179 2909.89 4
7 5 -6 135842 2775.46 4
-5 7 6 137676 2842.22 3
-7 5 6 139386 2828.84 3
5 7 7 127090 3130.86 3
7 5 7 126872 2999.15 3
5 7 -7 129689 2970.8 4
7 5 -7 124575 2803.62 4
-7 -5 7 126970 3279.46 3
-7 5 7 124444 2897.3 3
-5 7 7 124830 2918.46 3
5 7 8 88509.2 2769.74 3
7 5 8 86916.8 2622.72 3
5 7 -8 83452.1 2533.47 4
7 5 -8 82646.6 2421.17 4
-5 -7 8 82910.4 2785.3 3
-7 -5 8 82264.5 2819.86 3
-7 5 8 88265.3 2618.98 3
-5 7 8 80960.7 2551.37 3
5 7 9 18893.5 1406.23 3
7 5 9 19640.8 1379.9 3
5 7 -9 21171.3 1409.06 4
7 5 -9 18699.1 1302.55 4
-5 -7 9 17784.1 1491.23 3
-7 -5 9 16343.4 1406.77 3
-7 5 9 19198.3 1381.96 3
-5 7 9 16468.3 1279.01 3
5 7 10 26970.1 1707.95 3
7 5 10 25870.5 1636.05 3
5 7 -10 27465.4 1594.95 4
7 5 -10 27335.9 1563.01 4
7 5 -10 23195.4 1861.9 7
5 -7 -10 27726.1 1926.97 8
7 -5 -10 27650.7 1927.04 8
-5 -7 10 26962 1797.91 3
-7 -5 10 28356.7 1838.24 3
7 -5 -10 25614.3 1872.67 7
-7 5 10 27939.7 1680.94 3
-5 7 10 29001.4 1755.61 3
7 -5 -11 2807.4 1009.87 8
7 -5 -11 2164.25 866.241 7
5 -7 -11 2004.96 852.599 8
5 -7 -12 16526.2 1515.72 8
7 -5 -12 16009.2 1424.79 7
5 -7 -12 14655.3 1382.17 7
7 -5 -12 17066 1526.63 8
7 -5 -13 15560 1319.92 8
7 -5 -13 17174 1432.56 7
5 -7 -13 14202 1290.02 7
5 -7 -13 17347.7 1364.38 8
7 -5 -14 6372.11 852.385 7
5 -7 -14 6998.38 885.738 7
7 -5 -14 5262.68 837.577 8
5 -7 -14 6360.87 832.298 8
-5 -7 -15 0.7127 413.481 7
5 -7 -15 1131.79 471.089 7
7 -5 -15 709.947 480.602 7
6 7 0 -257.244 304.168 4
7 6 0 -314.699 337.632 4
7 -6 0 -40.388 438.805 4
6 -7 0 -101.83 403.407 4
6 7 0 -271.46 440.443 3
7 6 0 -184.234 401.294 3
6 7 1 23684.1 1089.49 3
6 7 -1 23854.8 1100.29 3
7 6 -1 25056.4 1111.04 3
6 7 -1 24069.9 975.709 4
7 6 -1 25155.3 1032.42 4
6 7 1 23815.2 885.993 4
7 -6 1 23757.8 1123.56 4
6 -7 1 23935 1118.68 4
7 -6 -1 25152.1 1045.79 4
7 6 1 24785.3 1092.02 3
7 6 1 24493.4 965.245 4
6 7 2 23825.5 1136.86 3
7 6 2 23938.8 1102.61 3
6 7 -2 22571.5 999.398 4
7 6 -2 24282.2 1058.7 4
6 7 -2 24205.7 1159.75 3
7 6 -2 23614.6 1143.27 3
7 6 2 23261.6 934.74 4
7 -6 2 22917.2 1175.39 4
6 -7 2 23855.7 1193.36 4
6 7 3 8387.2 763.84 3
7 6 3 9474.98 791.92 3
6 7 -3 9053.59 745.926 4
7 6 -3 9260.73 739.431 4
7 -6 3 10627.3 910.008 4
6 -7 3 9179.85 879.795 4
7 6 -4 2412.59 539.587 4
6 7 -4 2264.7 529.68 4
6 7 4 2233.29 560.959 3
7 -6 4 1870.86 679.501 4
7 6 4 2388.17 569.68 3
6 7 5 11226.7 953.118 3
6 7 -5 12351 940.246 4
7 6 -5 11769.2 914.184 4
7 -6 5 13053.8 1147.57 4
6 7 -6 5114.12 763.201 4
6 7 6 4951.21 746.656 3
7 6 6 5060.55 755.171 3
7 6 -6 5899.09 779.749 4
7 6 7 483.765 539.013 3
6 7 -7 437.187 566.27 4
7 6 -7 609.395 579.876 4
6 7 7 47.1549 563.494 3
-6 7 7 77.8255 532.645 3
-7 6 7 908.109 533.978 3
6 7 -8 8335.49 973.226 4
7 6 -8 8190.92 921.698 4
-6 -7 8 5811.37 971.1 3
-7 6 8 6687.48 907.621 3
-7 -6 8 5944.44 981.135 3
6 7 8 7274.22 980.555 3
7 6 8 5578.67 836.758 3
-6 7 8 6937.75 928.97 3
6 -7 -9 8942.01 1274.32 8
6 7 9 9593.97 1127.48 3
7 6 9 10945.9 1123.7 3
-6 -7 9 9635.8 1214.36 3
6 7 -9 10198.1 1065.3 4
7 6 -9 9728.09 1059.72 4
-7 -6 9 10015.4 1232.46 3
7 -6 -9 10083.4 1362.14 8
-7 6 9 6991.65 927.456 3
-6 7 9 10108 1113.32 3
-7 6 10 4558.18 858.407 3
6 -7 -10 5727.68 1065.6 8
7 6 10 4904.12 825.449 3
-7 -6 10 4296.49 895.47 3
7 -6 -10 2872.42 873.855 7
6 7 -10 5876.14 870.149 4
7 -6 -10 4042.82 957.726 8
7 6 -10 4380.8 755.805 4
-6 7 10 5088.04 889.697 3
6 7 10 3181.41 769.362 3
-6 -7 10 4367.75 927.967 3
7 -6 -11 1232.55 815.913 8
7 -6 -11 1653.08 779.017 7
6 -7 -11 1458.22 722.284 7
6 -7 -11 2547.65 952.792 8
7 -6 -12 -170.3 737.519 8
6 -7 -12 131.331 789.888 8
7 -6 -12 -1.53153 647.251 7
6 -7 -12 451.84 771.617 7
7 -6 -13 -134.409 619.879 8
6 -7 -13 -840.266 708.751 7
6 -7 -13 -1626.43 714.499 8
7 -6 -13 37.1469 595.667 7
7 -6 -14 176.295 561.431 7
6 -7 -14 1077.36 630.907 7
6 -7 -14 738.245 589.132 8
7 -6 -14 645.116 589.559 8
6 -7 -15 536.586 431.139 7
7 -6 -15 802.781 443.812 7
7 -7 0 104846 2206.09 4
7 7 0 104297 2259.49 3
7 7 0 99160.9 1964.23 4
7 -7 1 56571.9 1715.8 4
7 7 1 56991 1699.79 3
7 7 -1 58369.9 1742.94 3
7 7 -1 54840.9 1520.27 4
7 7 1 55132.9 1425.55 4
7 7 -2 5388.6 675.556 3
7 7 -2 4806.32 606.699 4
7 -7 2 4590.55 728.952 4
7 7 2 4519.67 633.373 3
7 7 3 17287.9 1054.52 3
7 7 -3 19026.1 1034.85 4
7 -7 3 17986.9 1163.73 4
7 7 4 9940.96 891.778 3
7 7 -4 10430.2 842.611 4
7 -7 4 10316.9 1015.48 4
7 7 5 42533.2 1737.55 3
7 7 -5 41211 1610.16 4
7 7 6 120503 2998.43 3
7 7 -6 120337 2830.09 4
7 7 7 193832 3967.78 3
7 7 -7 197752 3745.23 4
7 7 8 189493 4128.46 3
7 7 -8 192633 3867.98 4
-7 -7 8 187247 4364.76 3
7 7 9 119976 3401.88 3
7 7 -9 129664 3305.83 4
7 -7 -9 129123 3859.77 8
-7 -7 9 124777 3719.17 3
7 -7 -10 12512.9 1451.64 8
7 -7 -10 11055.8 1290.1 7
7 -7 -11 14568.7 1479.31 8
7 -7 -11 12262.8 1369.83 7
7 -7 -12 11476.2 1227.25 7
7 -7 -12 11775.4 1308.24 8
7 -7 -13 9235.17 1038.88 8
7 -7 -13 10208.5 1081.27 7
7 -7 -14 8044.76 869.964 8
7 -7 -14 8974.12 902.498 7
0 8 0 33403 1029.11 3
8 0 1 -111.556 609.937 2
0 8 -1 -34.4259 307.669 4
0 8 1 648.096 342.454 3
-8 0 -1 1577.85 698.306 2
8 0 -1 155.358 385.545 4
0 8 -1 471.875 319.138 3
0 8 2 41345.9 1252.45 3
0 8 -2 41483.9 1195.95 3
8 0 -2 39476.9 1244.39 4
8 0 2 41580.9 1372.26 4
-8 0 -2 36891.9 2319.99 2
0 8 3 64716.8 1652.34 3
8 0 3 69413.5 1844.53 4
8 0 -3 65020.1 1591.86 4
0 8 4 166888 2794.57 3
8 0 4 166572 3000.13 4
8 0 -4 169504 2605.99 4
-8 0 4 168372 2791.86 3
8 0 5 9331.7 913.576 4
0 8 -5 10874.1 931.217 4
8 0 -5 9739.39 719.695 4
-8 0 5 9377.48 815.207 3
0 8 5 8904.04 805.789 3
-8 0 6 4193.71 717.112 3
0 8 -6 3607.43 725.35 4
8 0 -6 3891.54 548.717 4
0 8 6 4100.61 663.429 3
8 0 6 4417.24 732.124 4
0 8 -7 2301.43 710.487 4
8 0 -7 1487.17 500.931 4
0 8 7 810.952 527.7 3
8 0 7 1167.45 634.973 4
-8 0 7 1128.16 575.872 3
0 8 -8 83.5601 714.83 4
0 8 8 191.777 600.448 3
-8 0 8 1004.32 716.938 3
-8 0 9 8732.39 1047.14 3
0 8 -9 9243.65 1100.15 4
0 8 9 7982.55 1013.72 3
-8 0 10 1731.14 840.895 3
0 8 -10 -188.758 717.147 4
8 0 -10 -390.254 865.965 7
0 8 10 -622.213 632.727 3
8 0 -10 1073.32 914.435 8
8 0 -11 17447.3 1512.52 8
8 0 -11 20613.7 1744.29 7
0 -8 -11 18192.8 1528.07 8
0 -8 -12 24124.5 1693.57 8
8 0 -12 21109.6 1586.47 8
8 0 -12 21088.1 1700.72 7
8 0 -13 22545.7 1665.57 7
0 -8 -14 434.174 576.192 7
0 -8 -15 1643.45 539.155 7
8 -1 0 1758.99 727.811 2
8 1 0 -318.532 289.079 3
-8 1 0 2594.19 779.878 2
-1 8 0 17.3854 244.663 3
1 8 0 137.961 344.193 3
8 -1 1 1854.24 916.564 2
8 1 1 1266.63 633.432 2
1 8 -1 1802.42 391.127 4
8 1 1 1377.37 433.839 4
-1 8 1 1375.4 369.482 3
1 8 1 1412.18 388.63 3
8 -1 -1 1449.22 419.773 4
-8 1 -1 -142.499 594.652 2
1 8 -1 2018.84 404.425 3
-1 8 -1 1321.65 339.793 3
8 1 1 1663.55 345.503 3
-1 8 2 37415.7 1179.34 3
1 8 2 36801.7 1219.07 3
1 8 -2 35368.8 1175.29 4
1 8 -2 37878.2 1200.82 3
8 -1 -2 35929.1 1181.86 4
8 -1 2 35453.8 1299.98 4
8 1 2 37535.6 1284.46 4
8 1 -2 36553.3 1211.43 4
-8 1 3 177.902 359.188 3
1 8 -3 551.352 442.37 4
8 1 -3 -263.395 387.69 4
8 -1 -3 199.309 383.735 4
8 1 3 4.82249 458.793 4
-1 8 3 95.8339 371.129 3
1 8 3 686.984 448.405 3
8 -1 3 326.666 498.068 4
-8 1 4 1894.19 512.599 3
-1 8 4 1809.98 480.231 3
1 8 -4 2459.85 599.083 4
1 8 4 1295.13 496.374 3
8 1 4 2764.66 579.373 4
8 -1 4 1908.73 572.343 4
8 1 -4 2648.35 527.019 4
8 -1 -4 2133.94 457.411 4
8 1 -5 129.678 390.068 4
-8 -1 5 793.267 493.538 3
8 -1 -5 1121.56 403.01 4
-1 8 5 62.2638 444.374 3
1 8 -5 875.182 503.276 4
8 1 5 419.643 470.786 4
1 8 5 547.903 504.166 3
8 -1 5 -60.2672 519.053 4
-8 1 5 1061.85 485.42 3
8 -1 -6 3461.78 539.229 4
8 1 6 3930.04 725.193 4
1 8 -6 3743.57 768.817 4
8 1 -6 3340.2 557.751 4
-1 8 6 3196.77 622.799 3
8 -1 6 4722.96 818.903 4
-8 -1 6 3056.4 636.097 3
-8 1 6 2490.2 617.581 3
1 8 6 3842.36 657.813 3
1 8 -7 3270.58 805.068 4
-1 8 -7 3453.13 804.03 4
8 -1 7 1795.77 680.496 4
-1 8 7 2594.42 612.564 3
-8 1 7 2839.91 669.653 3
8 1 -7 3064.42 586.704 4
-1 -8 7 2563.74 588.763 3
-8 -1 7 2310.93 686.662 3
1 8 7 2742.33 697.131 3
-1 8 -8 9572.37 1073.11 4
1 8 -8 9385.01 1063.62 4
8 1 -8 8992.6 815.825 4
-1 8 8 8124.78 932.075 3
-8 -1 8 8814.82 1030.24 3
-8 1 8 9649.88 1053.31 3
1 8 8 10239 1085.42 3
-8 1 9 929.818 738.81 3
-1 8 -9 -302.131 693.839 4
1 8 -9 211.535 664.541 4
-1 8 9 111.855 632.574 3
1 8 9 297.162 648.093 3
-8 -1 9 476.889 692.161 3
8 -1 -10 -194.035 827.602 8
8 1 -10 -1393.76 908.843 8
-8 -1 10 975.699 777.768 3
-1 8 -10 -101.185 788.467 4
8 1 -10 2061.25 951.858 7
-8 1 10 486.867 655.962 3
8 -1 -10 708.378 949.065 7
1 8 -10 -527.641 727.324 4
-1 8 10 -29.9749 672.336 3
1 8 10 -501.336 694.126 3
8 1 -11 -361.118 794.993 8
8 1 -11 2241.14 1004.27 7
8 -1 -11 908.656 823.166 7
8 -1 -11 2473.46 971.928 8
1 -8 -11 2504.22 940.182 8
-1 -8 -11 1955.14 802.558 8
8 1 -12 -275.269 710.766 8
-1 -8 -12 1024.01 749.797 8
8 -1 -12 445.618 674.321 7
8 1 -12 480.642 902.787 7
1 -8 -12 965.996 850.965 8
8 -1 -12 1344.1 750.231 8
1 -8 -13 149.469 664.243 8
8 1 -13 -743.848 732.435 7
8 -1 -13 132.488 717.717 7
8 -1 -13 79.0582 674.775 8
8 -1 -14 926.467 690.008 7
1 -8 -14 -517.124 598.93 7
-1 -8 -14 102.012 617.893 7
1 -8 -15 -280.569 483.529 7
-1 -8 -15 -219.481 503.406 7
-8 2 0 48317 2709.9 2
2 8 0 53201.7 1389.31 3
8 2 0 51955.3 1310.5 3
8 -2 0 53758.5 1475 4
8 2 0 52365.7 1421.5 4
8 -2 0 51339.1 2475.04 2
-2 8 1 3587.61 400.521 3
8 2 -1 2837.23 442.221 3
8 2 -1 3805.2 521.843 4
8 2 1 3351.96 523.54 4
8 -2 -1 3362.32 468.364 4
2 8 -1 2732.51 396.058 4
2 8 -1 3210.11 961.87 2
8 -2 1 3454.4 532.029 4
2 8 1 3438.26 487.478 3
-8 2 -1 3777.72 1101.83 2
8 2 1 3280.94 423.406 3
2 8 -1 3935.12 503.596 3
2 8 2 25768.9 1089.35 3
8 2 2 25604.3 914.629 3
2 8 -2 27529.6 1077.38 3
8 2 -2 24946.5 1042.26 4
-2 8 2 27717.1 984.338 3
8 2 2 26879.8 1097.62 4
8 -2 -2 26425 1045.95 4
8 -2 2 26381.1 1152.41 4
2 8 -2 27101.3 1026.82 4
-2 8 3 78635.8 1745.82 3
2 8 3 76003.1 1870.26 3
8 2 3 72788.4 1562.45 3
2 8 -3 74893.7 1792.32 4
8 2 -3 75475.2 1777.53 4
8 2 3 73438.3 1832.38 4
2 8 -3 75415.4 1827.13 3
8 -2 3 77586 2013.5 4
8 -2 -3 76630.5 1710.65 4
8 2 4 20153 916.819 3
2 8 -4 24259.4 1161.3 4
2 8 4 21976.9 1123.66 3
8 2 -4 24204.9 1083.75 4
8 2 4 21902.6 1099.61 4
-8 2 4 22719.1 1047.27 3
8 -2 -4 23752.2 1009.48 4
8 -2 4 22629.7 1235.33 4
-2 8 4 22845.6 1066.17 3
2 8 5 13039.5 996.859 3
2 8 -5 13807.6 992.436 4
8 2 -5 13146 885.478 4
8 -2 5 12750.3 1034.32 4
8 2 5 12086.2 926.873 4
8 -2 -5 14904.3 833.234 4
-8 2 5 12724.8 889.007 3
-2 8 5 12603.7 903.119 3
2 8 6 8958.4 907.687 3
2 8 -6 8730.81 928.284 4
8 2 -6 5958.14 674.058 4
8 2 6 6142.96 773.463 4
8 -2 6 7080.28 924.611 4
-8 -2 6 7779.59 902.842 3
-8 2 6 7608.49 808.453 3
-2 8 6 7741.25 811.276 3
-2 8 7 369.962 493.203 3
-8 2 7 -309.911 531.218 3
2 8 -7 -196.846 652.226 4
8 2 -7 218.209 417.547 4
-2 -8 7 644.713 564.966 3
2 8 7 568.61 602.031 3
8 -2 7 826.145 677.968 4
-8 -2 7 -531.506 604.825 3
-8 -2 8 -862.124 676.009 3
2 8 -8 191.742 641.648 4
8 2 -8 979.098 529.664 4
2 8 8 582.742 580.68 3
-2 -8 8 353.383 578.129 3
-2 8 8 -305.895 601.604 3
-8 2 8 798.594 644.978 3
-8 -2 9 2583.29 766.479 3
-2 -8 9 2093.58 704.246 3
-2 8 -9 2651.69 841.272 4
-8 2 9 2533.16 765.658 3
2 8 -9 349.351 699.12 4
2 8 9 3437.66 867.952 3
-2 8 9 1772.2 631.64 3
2 8 10 12825.8 1270.21 3
-2 8 -10 12616.3 1295.42 4
2 8 -10 13763.3 1254.02 4
8 2 -10 11235.5 1326.2 8
8 -2 -10 12368.9 1394.73 7
8 2 -10 14346.7 1589.79 7
2 -8 -10 11043.4 1369.51 8
-8 -2 10 13358 1358.86 3
-8 2 10 13151.5 1278.47 3
8 -2 -10 10479.1 1349.19 8
-2 8 10 13159 1296.41 3
8 2 -11 8811.33 1265.2 8
8 -2 -11 12306 1416.66 7
8 2 -11 11032.5 1423.5 7
8 -2 -11 9939.01 1299.73 8
2 -8 -11 9677.76 1290.55 8
8 -2 -12 10837.5 1308.21 7
8 2 -12 11555.8 1330.53 7
2 -8 -12 9708.04 1217.43 8
8 -2 -12 12139.3 1283.05 8
8 -2 -13 2813.51 801.779 7
2 -8 -13 1987.76 764.099 8
8 -2 -13 1507.04 689.387 8
8 -2 -14 375.002 605.564 7
2 -8 -14 -389.313 604.685 7
-2 -8 -15 -53.2065 452.544 7
2 -8 -15 -44.5211 470.706 7
8 3 0 245.226 311.724 3
8 3 0 -20.9315 358.681 4
8 -3 0 307.196 411.717 4
3 8 0 212.285 254.628 4
-8 3 0 1444.92 1142.11 2
3 8 0 152.301 385.214 3
3 8 1 48210.4 1427.12 3
8 3 1 49633.8 1334.88 3
3 8 -1 47730.1 1214.56 4
3 8 -1 45263.5 1365.44 3
8 3 -1 47294.2 1358.29 3
8 3 -1 46756.8 1368.62 4
8 3 1 44371.4 1332.2 4
8 -3 1 48902.9 1499.84 4
8 -3 -1 46378.1 1351.04 4
3 8 2 8603.37 725.164 3
8 3 2 8515.33 623.927 3
3 8 -2 8470.79 622.289 4
3 8 -2 8406.01 696.103 3
8 3 -2 8435.12 678.003 4
8 3 2 8087.95 682.639 4
8 -3 2 9441.19 815.142 4
8 -3 -2 7978.94 637.297 4
3 8 -3 1294.59 477.905 3
3 8 3 741.594 456.222 3
8 -3 3 560.777 517.337 4
8 -3 -3 241.717 340.017 4
8 3 3 763.661 436.546 4
-3 8 3 979.133 360.128 3
8 3 -3 885.301 529.545 4
8 3 3 1002.5 379.286 3
3 8 -3 804.815 396.973 4
3 8 -4 1120.96 498.262 4
8 3 -4 984.815 455.867 4
8 -3 -4 1848.27 430.426 4
-3 8 4 1046.84 427.279 3
8 3 4 1201.9 405.907 3
3 8 4 1037.8 525.621 3
8 -3 4 1381.9 610.986 4
8 3 4 1379.93 477.771 4
8 3 -5 5167.96 662.925 4
8 -3 5 5151.24 804.415 4
-3 8 5 4972.82 652.481 3
3 8 -5 4949.87 694.443 4
3 8 5 5875.56 769.565 3
8 3 5 4980.04 644.452 4
8 3 5 4299.65 561.704 3
-8 3 5 5294.41 675.163 3
8 -3 6 775.481 662.691 4
8 3 -6 475.328 486.682 4
-8 3 6 579.423 464.621 3
3 8 -6 373.152 549.474 4
3 8 6 408.709 622.91 3
8 3 6 785.647 431.686 3
-8 3 7 41.5191 520.108 3
3 8 -7 -130.348 555.591 4
8 3 -7 14.7742 444.374 4
-8 -3 7 287.634 658.458 3
-3 8 7 229.101 506.499 3
3 8 7 -394.795 605.111 3
3 8 8 8971.05 1013.8 3
3 8 -8 8409.57 973.993 4
8 3 -8 8543.31 863.744 4
-3 -8 8 7847.24 969.046 3
-8 -3 8 9182.45 1117.84 3
-8 3 8 8330.99 976.139 3
-3 8 8 8716.81 992.908 3
-3 -8 9 839.204 696.691 3
-3 8 -9 2946.62 828.576 4
-8 3 9 2754.98 792.956 3
3 8 -9 3199.68 760.21 4
8 3 -9 1964.45 582.875 4
3 8 9 2993.13 834.773 3
-8 -3 9 1756.89 821.755 3
-3 8 9 2505.14 754.904 3
8 3 -10 407.786 826.972 8
-8 -3 10 -83.0479 653.953 3
3 -8 -10 -537.089 813.018 8
-3 8 -10 -244.149 682.632 4
8 3 -10 3262.48 1009.39 7
8 -3 -10 215.664 808.889 7
3 8 -10 479.298 612.298 4
-8 3 10 713.033 638.094 3
-3 -8 10 487.786 748.369 3
8 -3 -10 497.513 928.597 8
-3 8 10 -404.026 710.11 3
3 8 10 -1292.88 764.957 3
3 -8 -11 6139.99 1177.57 8
8 -3 -11 4886.03 977.906 8
8 3 -11 6544.19 1209.91 7
8 -3 -11 8240.81 1177.69 7
8 -3 -12 -362.111 769.468 8
8 -3 -12 174.469 841.695 7
3 -8 -12 505.591 669.951 8
3 -8 -13 1215.86 714.707 7
8 -3 -13 1681.41 754.669 8
3 -8 -13 434.979 686.829 8
8 -3 -13 2655.59 825.23 7
8 -3 -14 6364.77 913.227 7
3 -8 -14 5534.18 859.431 7
8 -3 -14 6270.86 874.963 8
3 -8 -14 4138 697.894 8
-3 -8 -15 47.2753 499.606 7
3 -8 -15 -83.5829 457.806 7
8 4 0 3537.78 512.653 3
4 8 0 2995.38 380.259 4
8 4 0 3550.35 495.94 4
8 -4 0 2619.99 500.019 4
4 8 0 3232.46 526.662 3
8 4 -1 3086.81 505.058 3
4 8 -1 3033.2 438.834 4
8 4 1 2577.67 493.762 4
8 4 -1 3350.96 513.165 4
8 -4 -1 3668.6 542.964 4
8 -4 1 3356.32 567.974 4
4 8 1 3243.29 529.924 3
8 4 1 3198.95 487.278 3
4 8 -1 3477.39 527.176 3
4 8 -2 -189.871 440.557 3
4 8 -2 412.447 342.245 4
8 4 -2 -25.5733 388.697 4
8 4 2 -191.454 356.945 4
8 -4 -2 742.413 401.671 4
8 -4 2 91.4652 474.212 4
4 8 2 144.206 443.729 3
8 4 2 77.5022 349.305 3
8 4 3 4818.1 564.856 3
4 8 -3 5661.27 596.84 4
4 8 -3 5959.89 706.382 3
8 4 -3 5841.6 632.337 4
8 -4 3 5004.51 712.795 4
4 8 3 5259.23 679.301 3
8 -4 -3 5331.19 585.528 4
8 4 3 5581.87 597.807 4
4 8 4 12232 949.953 3
4 8 -4 12595.4 884.768 4
8 4 -4 12951.4 897.337 4
8 4 4 13450.4 884.472 4
8 -4 4 13700.1 1080.34 4
8 4 4 11451 800.826 3
-4 8 4 11338.3 771.369 3
8 4 5 990.001 439.105 3
4 8 -5 520.016 511.616 4
8 4 -5 955.821 500.232 4
-4 8 5 -25.6333 419.01 3
4 8 5 845.613 558.698 3
8 -4 5 120.526 590.95 4
-4 8 6 -46.1262 459.122 3
-8 4 6 736.839 488.118 3
4 8 -6 90.3222 503.058 4
8 4 -6 31.001 471.144 4
8 4 6 396.879 470.84 3
4 8 6 155.632 539.606 3
8 -4 6 60.4747 633.909 4
-4 8 7 2591.87 607.724 3
-8 4 7 3742.55 687.16 3
8 4 -7 2654.72 600.796 4
-8 -4 7 3282.55 821.524 3
4 8 -7 2600.59 698.402 4
4 8 7 2048.98 642.865 3
8 4 7 2398.04 576.122 3
-4 -8 8 1463.24 710.778 3
4 8 -8 1391.4 653.181 4
-8 4 8 1643.56 574.095 3
8 4 -8 2193.98 634.591 4
-4 8 8 1356.4 585.535 3
4 8 8 2303.99 701.776 3
-8 -4 8 1486.12 804.933 3
-4 -8 9 4491.15 916.881 3
-4 8 9 4797.35 909.635 3
4 8 -9 4963.72 867.545 4
-8 4 9 6079.26 946.411 3
8 4 -9 4292.62 751.679 4
4 8 9 5441.87 922.792 3
-8 -4 9 5111.28 1012.12 3
4 -8 -10 340.826 815.394 8
8 4 -10 649.354 788.018 7
-4 8 -10 -635.893 711.218 4
-8 -4 10 2272.17 764.032 3
8 -4 -10 -1972.2 938.715 7
4 8 -10 -406.73 660.916 4
-8 4 10 1792.86 711.622 3
8 4 -10 -1106.34 671.496 4
-4 8 10 -393.078 598.19 3
8 -4 -10 6.89816 797.268 8
-4 -8 10 -270.056 751.535 3
4 8 10 -946.092 647.818 3
4 -8 -11 5532.47 1063.3 8
8 -4 -11 3945.22 1077.26 7
8 -4 -11 5730.37 1087.84 8
4 -8 -12 432.863 747.102 8
8 -4 -12 1362.27 751.104 7
8 -4 -12 804.714 752.6 8
8 -4 -13 -130.722 686.96 7
4 -8 -13 -1316.16 819.599 7
4 -8 -13 713.058 616.694 8
8 -4 -13 -47.5094 652.131 8
8 -4 -14 1015.64 647.271 7
4 -8 -14 -524.757 579.799 7
4 -8 -14 140.359 519.987 8
8 -4 -14 -372.844 554.165 8
4 -8 -15 884.87 506.112 7
-4 -8 -15 356.097 431.747 7
5 8 0 104.035 290.228 4
8 5 0 14.6154 383.597 4
8 -5 0 276.322 408.141 4
5 8 0 114.911 397.821 3
8 5 0 -67.1137 376.252 3
8 5 1 19929 990.92 3
5 8 -1 20737.4 1064.03 3
5 8 -1 21484.4 911.546 4
8 5 -1 20054 1016.6 3
8 5 -1 21598.7 1003.47 4
5 8 1 20494 1043.75 3
8 -5 -1 22027.5 1018.07 4
8 -5 1 19209.7 1039.69 4
8 5 1 20570.1 970.968 4
5 -8 1 22164.3 1095.1 4
8 -5 -2 21411.7 967.261 4
5 8 2 20740.7 1098.04 3
8 5 2 21418.5 1025.71 3
5 8 -2 20589.2 967.663 4
8 5 -2 21932.3 1048.77 4
8 5 -2 20131.9 1063.48 3
8 -5 2 21683.7 1187.46 4
8 5 2 21450.1 986.886 4
5 8 -2 21422.5 1103.17 3
5 8 -3 2103.95 572.253 3
8 5 3 2617.69 468.287 4
5 8 -3 2441.19 502.771 4
8 5 -3 2417.42 514.98 4
8 -5 3 2300.28 617.987 4
5 8 3 2189.46 572.774 3
8 5 3 2651.84 515.015 3
5 8 -4 2200.16 530.564 4
8 5 -4 2235.95 556.684 4
8 5 4 2302.72 546.62 3
5 8 4 1843.3 562.306 3
8 -5 4 2836.04 680.625 4
5 8 -5 1273.62 533.482 4
5 8 5 1159.17 565.588 3
8 5 -5 1715.71 585.755 4
8 5 5 1166.52 489.809 3
8 -5 5 1744.41 733.607 4
5 8 -6 603.196 554.42 4
-5 8 6 664.173 476.704 3
5 8 6 872.92 531.41 3
8 5 6 318.022 433.476 3
8 -5 6 1540.86 753.216 4
8 5 -6 -41.4057 503.784 4
-5 8 7 572.93 556.816 3
5 8 -7 187.271 541.239 4
8 5 -7 -392.019 536.591 4
5 8 7 -81.1116 583.915 3
8 5 7 1253.57 564.894 3
-8 -5 7 1423.21 745.739 3
-5 8 8 201.267 565.065 3
5 8 -8 71.5937 603.497 4
8 5 -8 -202.901 535.453 4
-8 5 8 505.422 567.201 3
-5 -8 8 -88.155 667.305 3
5 8 8 183.133 600.195 3
8 5 8 -136.127 520.466 3
-8 -5 8 618.594 770.676 3
5 -8 -9 2322.28 965.974 8
-8 5 9 4701.52 885.316 3
8 5 -9 4926.43 850.836 4
5 8 9 4874.55 845.893 3
-8 -5 9 4428.75 887.126 3
-5 8 9 4036.44 815.889 3
-5 -8 9 4576.06 992.241 3
8 -5 -9 4663.85 1017.36 8
5 8 -9 5058.34 920.636 4
-8 -5 10 4785.07 870.443 3
8 -5 -10 5388.55 1058.25 7
-5 8 10 2536.32 696.344 3
8 -5 -10 5646.79 1121.71 8
5 8 10 5822.15 920.214 3
5 8 -10 5168.4 795.885 4
5 -8 -10 5440.69 1104.56 8
8 5 -10 5337.68 841.428 4
-8 5 10 6751.51 1016.04 3
-5 -8 10 5305.76 976.662 3
5 -8 -11 319.301 784.41 8
8 -5 -11 1481.81 880.09 7
8 -5 -11 -997.313 779.306 8
5 -8 -12 1199.6 811.209 8
5 -8 -12 437.802 749.13 7
8 -5 -12 872.534 756.517 8
8 -5 -12 284.234 685.108 7
5 -8 -13 3668.84 857.732 8
8 -5 -13 3307.93 846.018 7
5 -8 -13 2253.52 733.05 7
8 -5 -13 2170.15 752.895 8
8 -5 -14 -612.839 533.762 8
8 -5 -14 282.67 550.008 7
5 -8 -14 154.401 531.135 7
5 -8 -14 1078.81 579.997 8
5 -8 -15 118.509 433.78 7
8 -6 0 22166.1 1099.53 4
6 8 0 22521 1124.05 3
8 6 0 22222.2 1094.22 3
6 8 0 22280.7 921.181 4
8 6 0 21471.9 1000.77 4
6 8 1 7830.31 748.332 3
8 6 1 7463.2 701.53 3
8 6 1 7623.25 659.712 4
6 8 -1 7274.62 738.25 3
6 8 -1 7993.31 640.912 4
8 6 -1 8609.99 788.082 3
8 -6 -1 8181.59 725.601 4
6 -8 1 7610.62 742.552 4
8 -6 1 7323.15 761.519 4
8 6 -1 7863.29 682.401 4
6 8 -2 152.707 448.91 3
8 6 -2 176.834 439.645 3
6 8 -2 -358.785 401.582 4
8 6 2 298.318 354.464 4
8 -6 2 571.784 525.652 4
6 -8 2 375.629 548.473 4
6 8 2 -129.031 478.356 3
8 6 2 122.493 409.379 3
8 6 -2 97.3003 440.686 4
8 -6 3 10156.8 911.461 4
6 8 3 9819.17 857.113 3
8 6 3 8801.92 809.889 3
6 8 -3 9818.93 791.077 4
8 6 -3 9685.08 817.163 4
6 8 -4 -360.987 450.786 4
8 6 -4 187.586 454.264 4
8 -6 4 -329.037 635.774 4
6 8 4 -83.5552 467.784 3
8 6 4 -400.737 496.888 3
6 8 5 3397.6 700.199 3
6 8 -5 2943.82 646.614 4
8 6 -5 1976.82 563.987 4
8 -6 5 2711.46 759.665 4
8 6 5 2967.06 642.722 3
6 8 -6 1435.11 607.813 4
8 6 -6 1552.24 603.382 4
6 8 6 1536.72 621.789 3
8 6 6 825.902 552.512 3
6 8 -7 255.409 607.12 4
8 6 -7 -449.537 642.38 4
6 8 7 -547.682 615.705 3
8 6 7 783.419 583.037 3
6 8 -8 1509.78 652.688 4
-6 -8 8 506.787 685.373 3
8 6 -8 888.158 560.997 4
8 6 8 1141.98 613.009 3
6 8 8 665.29 610.129 3
-8 -6 8 881.274 738.829 3
-8 -6 9 1833.71 866.775 3
8 -6 -9 1045.83 850.483 8
8 6 -9 2364.87 698.375 4
-6 8 9 935.613 689.651 3
6 -8 -9 1475.3 839.434 8
6 8 9 3283.37 753.903 3
6 8 -9 3023.28 813.681 4
8 6 9 1844.28 725.855 3
-6 -8 9 3349.55 931.416 3
8 -6 -10 25292.9 1863.96 8
8 -6 -10 25532.2 1760.15 7
6 -8 -10 24441.4 1810.61 8
8 -6 -11 2760.15 974.101 8
8 -6 -11 3685.98 938.268 7
6 -8 -11 2938.7 949.686 7
6 -8 -11 2277.19 910.212 8
8 -6 -12 30.0103 739.94 7
6 -8 -12 195.468 735.775 7
6 -8 -12 1144.64 832.626 8
8 -6 -12 177.373 672.428 8
6 -8 -13 -1198.36 711.854 8
6 -8 -13 -2.45462 621.926 7
8 -6 -13 560.744 602.003 8
8 -6 -13 142.802 623.736 7
8 -6 -14 731.754 534.76 7
6 -8 -14 279.956 503.718 7
6 -8 -14 1132.91 576.343 8
8 -6 -14 -613.661 550.88 8
8 7 0 -128.662 359.545 4
7 8 0 10.6224 336.242 4
8 -7 0 -414.116 483.865 4
7 -8 0 142.567 477.987 4
7 8 0 -3.25647 457.691 3
8 7 0 -27.492 414.714 3
7 8 -1 396.803 503.233 3
8 7 -1 533.016 477.728 3
7 8 -1 164.425 345.847 4
8 7 -1 562.324 404.371 4
8 -7 1 -35.1849 483.733 4
7 -8 1 -391.235 502.352 4
8 7 1 388.642 409.285 4
7 8 1 561.421 514.785 3
8 7 1 57.2953 399.503 3
7 -8 2 743.757 503.512 4
7 8 -2 -16.718 477.893 3
8 7 -2 -343.928 491.655 3
7 8 -2 489.911 446.342 4
8 7 -2 142.21 415.908 4
8 -7 2 -132.587 528.833 4
7 8 2 -534.034 503.465 3
8 7 2 11.6983 428.584 3
8 7 -3 920.497 519.875 4
8 -7 3 556.704 561.636 4
7 -8 3 659.211 594.668 4
7 8 3 1167.18 539.219 3
7 8 -3 1276.31 485.764 4
8 7 3 1240.85 507.7 3
8 7 -4 2193.23 555.471 4
7 8 -4 3402.68 602.997 4
8 -7 4 2482.88 715.122 4
7 8 4 2499.78 633.256 3
8 7 4 1756.25 531.267 3
7 8 -5 5.88168 508.594 4
8 7 -5 -18.6002 523.383 4
7 8 5 1220.81 602.282 3
8 7 5 554.351 501.176 3
8 7 -6 4507.4 772.824 4
7 8 6 3471.28 719.118 3
8 7 6 3451.14 725.666 3
7 8 -6 4067.37 729.535 4
7 8 -7 636.749 637.559 4
8 7 -7 102.254 563.148 4
8 7 7 730.412 584.545 3
7 8 7 1027.77 666.824 3
7 8 8 10810.7 1194.71 3
8 7 8 11567.1 1167.3 3
7 8 -8 10174.6 1099.75 4
8 7 -8 11325.7 1110.84 4
-8 -7 8 9254.41 1168.19 3
-7 -8 8 8937.22 1208.58 3
7 8 9 10604.9 1158.53 3
8 7 9 12708.1 1217.1 3
7 8 -9 11849.9 1141 4
8 7 -9 13397.7 1204.16 4
8 -7 -9 13872.6 1433.52 8
7 -8 -9 13423.3 1419.5 8
-7 -8 9 13675.3 1432.03 3
-8 -7 9 13538.3 1405.71 3
7 -8 -10 3319.79 1013.69 8
8 -7 -10 985.602 890.068 8
8 -7 -11 464.953 675.371 7
7 -8 -11 567.805 730.965 7
7 -8 -11 2320.02 879.269 8
8 -7 -11 -315.655 797.743 8
8 -7 -12 424.025 645.76 7
7 -8 -12 1056.81 715.017 7
7 -8 -12 1055.07 785.834 8
8 -7 -12 1246.78 778.033 8
8 -7 -13 2084.58 681.118 7
8 -7 -13 1988.37 701.326 8
7 -8 -13 1421.55 597.998 8
7 -8 -13 1732.48 648.096 7
7 -8 -14 2145.48 589.353 8
8 -7 -14 1401.49 535.673 7
7 -8 -14 308.523 444.427 7
-7 -8 -14 -281.392 497.526 7
8 -7 -14 1943.5 547.65 8
8 8 0 173071 3191.81 3
8 8 0 174720 2839.3 4
8 -8 0 180728 3135.74 4
8 8 1 74027.3 2104.74 3
8 8 -1 73860.1 2146.76 3
8 8 -1 68527.3 1855.07 4
8 -8 1 76240.1 2160.85 4
8 8 2 29798.1 1405.8 3
8 8 -2 26878 1233.74 4
8 8 -2 29473 1441.69 3
8 -8 2 27858.2 1422.05 4
8 8 -3 5563.97 705.932 4
8 -8 3 5566.07 829.721 4
8 8 3 6086.8 782.797 3
8 8 -4 191.73 509.005 4
8 -8 4 724.562 628.095 4
8 8 4 87.0582 529.49 3
8 8 -5 4148.54 709.146 4
8 8 5 3726.73 766.346 3
8 8 -6 7058.32 889.434 4
8 8 6 5963.44 883.296 3
8 8 -7 20.9472 580.937 4
8 8 7 340.138 558.913 3
8 8 -8 5890.56 917.905 4
8 -8 -8 5278.88 964.96 8
8 8 8 6762.43 986.104 3
-8 -8 8 5714.3 1092.91 3
8 8 9 34170.5 1898.54 3
8 8 -9 41828.8 1974.49 4
8 -8 -9 38876 2212.2 8
-8 -8 9 34782.5 2107.01 3
8 -8 -10 196.04 817.814 8
8 -8 -11 1662.57 882.576 8
8 -8 -12 -686.534 713.584 8
8 -8 -13 582.636 497.99 7
8 -8 -13 468.54 651.786 8
8 -8 -14 478.347 518.395 8
9 0 0 288.247 434.33 4
0 9 0 -71.2631 307.638 3
0 9 1 23008 972.001 3
0 9 -1 22112.2 892.178 4
0 9 -1 22437.3 920.586 3
9 0 -1 21828 1043.44 4
9 0 1 22986.9 1103.08 4
0 9 2 373727 3871.72 3
0 9 -2 375660 3842.1 4
0 9 -2 384450 3739.86 3
9 0 -2 372321 3951.63 4
9 0 2 377525 4248.51 4
0 9 3 264735 3458.93 3
0 9 -3 255973 3450.68 4
9 0 -3 259193 3374.17 4
9 0 3 268479 3747.1 4
0 9 4 120477 2518.04 3
0 9 -4 122814 2599.02 4
9 0 -4 123421 2390.15 4
9 0 4 123993 2740.1 4
-9 0 4 123683 2501.54 3
0 9 5 7177.82 779.911 3
0 9 -5 6098.3 755.306 4
9 0 -5 7540.16 723.839 4
9 0 5 6058.16 813.81 4
-9 0 5 6722.93 786.714 3
-9 0 6 1782.65 562.728 3
0 9 -6 2719.16 748.595 4
9 0 -6 2413.42 531.688 4
0 9 6 2475.04 645.048 3
9 0 6 1873 657.575 4
0 9 7 13690.6 1127.26 3
0 9 -7 14768.4 1265.46 4
9 0 -7 14125.8 964.149 4
9 0 7 14178.2 1243.01 4
-9 0 7 11939 1086.97 3
0 9 -8 30457.9 1715.87 4
-9 0 8 28733.1 1675.59 3
0 9 8 28981.5 1636.58 3
0 9 9 9736.48 1125.54 3
-9 0 9 9262.79 1132.21 3
0 9 -9 9378.61 1103.34 4
0 9 10 13576.3 1284.41 3
0 9 -10 14364.2 1351.27 4
9 0 -10 12883 1424.34 7
9 0 -10 12089.9 1424.06 8
-9 0 10 11784 1253.46 3
9 0 -11 26603.6 1853.77 8
0 -9 -11 28023.8 1851.95 8
9 0 -11 26860.3 1895.36 7
9 0 -12 9627.29 1231.73 7
9 0 -12 8645.09 1179.64 8
0 -9 -12 7788.16 1063.1 8
0 -9 -13 7524.2 1000.42 8
9 0 -13 6195.63 1063.96 7
9 0 -13 5071.65 872.459 8
0 -9 -14 551.239 556.152 7
0 -9 -15 -496.479 494.233 7
-1 9 0 8860.88 597.532 3
1 9 0 9381.25 664.843 3
9 1 0 8991.06 736.189 4
9 -1 0 9420.42 768.857 4
9 -1 -1 8697.91 726.295 4
-1 9 1 10371.8 676.041 3
1 9 1 10289.8 724.624 3
1 9 -1 10102.7 649.455 4
1 9 -1 10311.8 714.409 3
9 -1 1 10064.1 812.592 4
9 1 1 10520.3 804.112 4
9 1 -1 9613.09 755.125 4
-1 9 2 6968.88 636.85 3
1 9 2 6259.02 655.223 3
1 9 -2 6965.36 640.746 4
1 9 -2 7023.34 652.286 3
9 -1 2 6202.64 729.28 4
9 -1 -2 6877.28 689.959 4
9 1 -2 7725.78 723.117 4
9 1 2 6798.17 725.699 4
-1 9 3 15792.8 901.402 3
1 9 3 16779.6 987.436 3
1 9 -3 16660 985.853 4
9 1 -3 14882.9 937.631 4
9 -1 -3 16769.9 932.907 4
9 -1 3 16817.8 1076.22 4
9 1 3 16498.6 1025.66 4
9 -1 -4 5900.63 669.866 4
1 9 -4 5293.34 727.821 4
9 1 -4 5369.16 662.257 4
-9 1 4 5276.63 648.716 3
-1 9 4 3948.67 612.015 3
9 1 4 4270.06 729.953 4
1 9 4 5325.26 693.937 3
9 -1 4 5814.29 794.989 4
-1 9 5 10894.5 870.005 3
1 9 5 10814.9 900.488 3
1 9 -5 9645.73 922.273 4
9 1 -5 11082.4 855.637 4
9 -1 -5 10365.4 789.923 4
9 1 5 8750.5 908.904 4
9 -1 5 9658.48 993.883 4
-9 -1 5 9880.25 907.732 3
-9 1 5 11521.6 929.299 3
1 9 -6 5423.63 826.177 4
9 1 -6 5861.94 690.957 4
-9 -1 6 6526.87 833.688 3
9 -1 -6 6251.23 702.528 4
-1 9 6 5531.11 770.9 3
1 9 6 6609.96 847.608 3
9 1 6 5800.85 855.644 4
9 -1 6 5797.03 864.865 4
-9 1 6 5600.86 723.934 3
-1 9 -7 2601.22 743.722 4
1 9 -7 3681.08 806.525 4
-9 1 7 3239.31 684.587 3
9 1 -7 3366.2 619.684 4
-1 9 7 2707.42 683.773 3
1 9 7 3190.84 732.437 3
-9 -1 7 3130.46 720.062 3
9 -1 7 2743.97 720.373 4
-9 -1 8 3038.33 770.83 3
-1 9 -8 3480.55 851.024 4
1 9 -8 2952.63 808.644 4
-1 9 8 3132.91 750.29 3
1 9 8 4131.82 789.928 3
9 1 -8 3274.41 642.563 4
-9 1 8 2803.05 737.499 3
-9 1 9 5542.12 1011.53 3
-1 9 -9 4393.56 946.607 4
1 9 -9 3225.76 857.352 4
-9 -1 9 5546.83 990.03 3
1 9 9 3953.41 813.317 3
-1 9 9 4114.21 842.625 3
-9 -1 10 3974.56 857.632 3
9 1 -10 4163.21 1089.36 7
-1 9 -10 4231.25 828.138 4
9 -1 -10 5179.15 1162.73 7
-9 1 10 6185.14 981.098 3
1 9 -10 4115.36 859.057 4
-1 9 10 6235.79 976.648 3
1 9 10 3714.43 802.235 3
9 1 -10 4313.29 965.874 8
9 -1 -10 5887.18 1150.18 8
9 1 -11 847.913 821.202 8
-1 -9 -11 433.802 742.457 8
1 -9 -11 416.541 818.726 8
9 1 -11 1666.42 972.025 7
9 -1 -11 1826 894.567 7
9 -1 -11 699.347 840.447 8
1 -9 -12 1252.56 757.036 8
9 1 -12 -42.982 735.847 7
9 -1 -12 747.076 771.22 7
-1 -9 -12 660.559 675.767 8
9 1 -12 716.25 701.751 8
9 -1 -12 563.677 748.34 8
9 -1 -13 1385.59 802.631 7
1 -9 -13 225.39 628.746 8
9 -1 -13 577.023 685.865 8
1 -9 -14 168.132 527.715 7
-1 -9 -14 881.538 599.484 7
1 -9 -15 416.244 406.3 7
-1 -9 -15 1186.51 471.012 7
9 2 0 -92.8134 313.645 3
9 -2 0 45.694 462.662 4
9 2 0 -284.092 414.403 4
2 9 0 357.341 367.951 3
2 9 1 91140.1 1970.05 3
2 9 -1 88197.4 1699.29 4
2 9 -1 92522 1951.54 3
9 2 1 88638.7 1750.43 3
9 -2 -1 89190.3 1972.18 4
9 -2 1 90890.2 2110.54 4
9 2 -1 90719.9 1991.71 4
9 2 1 89280.1 2009.07 4
-2 9 2 75111.5 1674.03 3
2 9 2 72139.8 1843.04 3
2 9 -2 72089.2 1688.81 4
2 9 -2 70786 1774.09 3
9 -2 -2 67824.7 1730.98 4
9 2 -2 69640.1 1789.81 4
9 2 2 70294.4 1845.21 4
9 -2 2 72128.9 1949.82 4
-2 9 3 89381 1962.62 3
2 9 3 86204.9 2099.91 3
2 9 -3 82708.5 1966.27 4
9 -2 -3 81250 1879.39 4
9 2 3 83288.3 2094.19 4
9 -2 3 85118.4 2251.74 4
9 2 -3 85151.7 2026.94 4
2 9 -3 84589 2025.28 3
-2 9 4 63249.9 1792.11 3
2 9 4 63258.5 1910.2 3
2 9 -4 61958 1850.1 4
9 2 -4 62271.3 1789.42 4
9 -2 4 59023.1 2015.66 4
9 -2 -4 62698.2 1684.2 4
9 2 4 60000.9 1879.11 4
2 9 5 12852.5 1000.3 3
2 9 -5 14528.2 1048.35 4
9 2 -5 12587.1 905.842 4
9 2 5 13474.6 1043.86 4
9 -2 -5 14077.4 874.19 4
9 -2 5 11618 1062.53 4
-9 2 5 13156.3 935.254 3
-2 9 5 13248.9 960.972 3
-9 2 6 2109.43 590.461 3
-2 9 6 2084.94 534.029 3
-9 -2 6 1687.58 633.924 3
9 2 -6 1593.14 495.762 4
2 9 6 1833.75 589.205 3
9 2 6 1281.88 604.179 4
9 -2 6 1603.14 696.536 4
2 9 -6 2118.54 669.673 4
-9 2 7 1753.03 622.793 3
2 9 -7 1910.44 736.523 4
-2 9 7 1609.57 621.723 3
9 2 -7 1648.23 545.241 4
2 9 7 1328.46 571.762 3
9 -2 7 2028.6 781.391 4
-2 -9 7 2118.01 682.261 3
-9 -2 7 3121.35 786.374 3
9 2 -8 759.845 534.016 4
-2 9 -8 486.8 683.873 4
-9 2 8 699.678 616.715 3
2 9 -8 815.685 655.139 4
-2 -9 8 785.197 686.51 3
-2 9 8 -81.3477 586.42 3
2 9 8 316.365 595.371 3
-9 -2 8 805.827 669.265 3
2 9 9 22874.8 1605.36 3
-2 9 -9 22805.6 1604.06 4
2 9 -9 23261.7 1573.93 4
9 -2 -9 24808 1805.88 8
9 2 -9 22415.6 1716.96 7
9 2 -9 22585.9 1745.66 8
-9 -2 9 24564.4 1701.57 3
-9 2 9 21274.3 1506.05 3
-2 9 9 24431.8 1595.31 3
2 9 10 19287.9 1500.19 3
-2 9 -10 18258 1439.44 4
2 9 -10 22211.9 1526.52 4
9 -2 -10 21720.8 1729.07 8
9 2 -10 20058.9 1690.06 7
9 -2 -10 21366.9 1771.24 7
9 2 -10 19171.6 1664.96 8
-9 -2 10 20037.6 1543.78 3
-9 2 10 20217.5 1497.2 3
2 -9 -10 21065.4 1744.02 8
-2 9 10 18848.6 1437.45 3
9 2 -11 3529.52 946.412 7
9 -2 -11 2721.85 871.656 7
9 -2 -11 4419.45 1024.07 8
9 2 -11 3266.28 1001.94 8
2 -9 -11 3736.49 923.025 8
2 -9 -12 8752.62 1088.65 8
9 -2 -12 9167.62 1170.52 7
9 2 -12 7759.17 1117.63 8
9 -2 -12 8323.13 1126.42 8
-2 -9 -12 7549.36 1068.14 8
2 -9 -13 3738.5 775.309 8
9 -2 -13 4876.99 897.925 7
9 -2 -13 3774.57 818.163 8
2 -9 -14 407.4 594.742 7
9 -2 -14 1646.07 635.862 8
2 -9 -14 770.12 514.47 8
2 -9 -15 1069.29 482.503 7
-2 -9 -15 202.305 411.825 7
3 9 0 78285.4 1855.14 3
9 3 0 79185.4 1810.78 3
9 3 0 74368.7 1822.16 4
9 -3 0 76366.6 1899.55 4
3 9 1 66340.3 1750.58 3
3 9 -1 62226 1445.31 4
3 9 -1 64276 1694.24 3
9 3 1 63518.6 1577.83 3
9 3 -1 62282.2 1635.13 3
9 3 -1 62844.2 1709.19 4
9 3 1 61557.9 1687.27 4
9 -3 1 63316.9 1813.73 4
9 -3 -1 62209.6 1684.41 4
3 9 2 44655.3 1512.51 3
9 3 2 46034.4 1353.47 3
3 9 -2 47098 1408.25 4
3 9 -2 47580.7 1532.33 3
9 -3 2 46382.8 1659.39 4
9 3 -2 48490.7 1537.48 4
9 3 2 44458.5 1478.7 4
9 -3 -2 45227.9 1436.74 4
9 -3 3 4133.35 740.875 4
9 3 3 5051.89 533.239 3
3 9 -3 4855.29 636.235 3
3 9 -3 4684.39 596.972 4
9 3 -3 4780.73 635.2 4
9 3 3 4517.4 638.251 4
3 9 3 4740.9 656.427 3
9 -3 -3 4725.39 586.821 4
3 9 -4 342.373 482.712 4
9 3 -4 601.74 454.431 4
9 -3 -4 121.12 385.335 4
-3 9 4 341.931 404.861 3
9 3 4 -5.8816 472.581 4
9 -3 4 210.162 589.058 4
3 9 4 267.905 454.189 3
3 9 -5 5169.22 745.465 4
-3 9 5 5570.38 711.079 3
9 3 5 4465.31 753.345 4
3 9 5 4712.18 803.216 3
9 -3 5 4913.36 856.108 4
9 3 -5 4838.9 690.798 4
3 9 6 8078.37 903.289 3
3 9 -6 9084.95 917.264 4
9 3 -6 9016.99 873.343 4
9 -3 6 8914.23 1067.98 4
-3 9 6 8099.28 822.28 3
-9 3 7 3377.78 674.362 3
3 9 -7 4925.1 847.824 4
9 3 -7 4376.04 705.434 4
-3 9 7 4514.02 758.631 3
3 9 7 4924.94 848.659 3
9 -3 7 4182.54 910.756 4
-9 -3 7 3625.63 790.996 3
-9 3 8 978.397 587.13 3
3 9 -8 1945.08 741.442 4
9 3 -8 1024.29 530.301 4
-9 -3 8 2528.06 819.535 3
-3 9 8 1103.77 633.889 3
3 9 8 2061.08 724.863 3
-3 -9 8 1314.41 627.469 3
9 -3 -9 303.716 862.935 8
-3 9 9 -69.285 651.29 3
-3 9 -9 1266.76 848.163 4
9 3 -9 -59.1517 726.728 7
-9 3 9 686.196 675.155 3
3 9 -9 296.665 690.183 4
9 3 -9 1180.51 936.233 8
9 3 -9 -256.125 531.942 4
3 9 9 131.174 654.781 3
-3 -9 9 260.845 706.017 3
-9 -3 9 -441.834 850.481 3
9 -3 -10 591.282 763.115 8
9 3 -10 1657.97 846.822 8
3 -9 -10 917.373 825.979 8
9 3 -10 2787.05 986.813 7
-3 9 -10 1385.28 766.304 4
9 -3 -10 -620.63 846.998 7
3 9 -10 667.221 555.946 4
-9 3 10 1588.47 646.536 3
-3 9 10 2910.37 724.217 3
3 9 10 969.525 684.746 3
-9 -3 10 -131.556 682.775 3
9 3 -11 235.907 765.467 8
9 -3 -11 82.6474 765.569 8
9 -3 -11 319.674 770.798 7
3 -9 -11 -138.847 777.536 8
3 -9 -12 528.742 728.445 8
9 -3 -12 1494.99 859.211 7
9 -3 -12 3191.96 976.423 8
3 -9 -13 3783.7 754.759 8
9 -3 -13 1332.42 748.378 7
3 -9 -13 4221.17 887.342 7
9 -3 -13 2524.8 775.357 8
9 -3 -14 2465.4 645.22 7
3 -9 -14 2175.84 659.862 7
3 -9 -14 3240.46 656.736 8
9 -3 -14 4150.42 713.277 8
3 -9 -15 2079.09 509.521 7
-3 -9 -15 382.735 424.11 7
9 4 0 -25.4676 369.967 3
9 4 0 621.742 444.643 4
9 -4 0 67.9443 467.079 4
4 9 0 294.872 434.178 3
4 9 1 13804.8 914.192 3
9 4 1 12850.5 815.013 3
4 9 -1 13399.3 894.927 3
4 9 -1 12339.6 714.006 4
9 4 -1 12169.1 821.721 3
9 4 -1 12227.1 841.114 4
9 -4 -1 11611.6 840.866 4
9 4 1 11724.7 829.477 4
9 -4 1 12742.9 937.137 4
4 9 2 46196.9 1582.94 3
9 4 2 41823.3 1386.47 3
4 9 -2 44709.7 1373.46 4
4 9 -2 43744.5 1531.64 3
9 -4 2 45479.2 1657.47 4
9 4 2 44390.7 1482.86 4
9 4 -2 43315.5 1504.55 4
9 -4 -2 44076.5 1454.07 4
4 9 3 31647.7 1403.16 3
9 4 3 32125.4 1245.73 3
4 9 -3 30733 1242.32 4
9 4 -3 34438.9 1392.04 4
4 9 -3 31485.1 1362.33 3
9 4 3 31224.5 1306.67 4
9 -4 3 32576.3 1522.99 4
9 -4 -3 32912.1 1244.41 4
4 9 4 12507.6 981.462 3
9 4 4 11571.3 836.011 3
4 9 -4 11769.9 882.143 4
9 4 -4 11060.7 908.071 4
9 4 4 12034.4 912.255 4
9 -4 4 10310.5 1021 4
4 9 5 19576.6 1243.95 3
9 4 5 18406.1 1072.15 3
4 9 -5 18630.4 1141.44 4
9 4 -5 17539.8 1104.18 4
9 -4 5 19702.6 1397.85 4
9 -4 6 1085.97 707.223 4
4 9 -6 1031.21 588.742 4
9 4 -6 1076.95 523.239 4
-4 9 6 359.988 462.009 3
4 9 6 1420.81 606.996 3
-9 -4 7 295.553 685.006 3
4 9 -7 246.492 657.462 4
9 4 -7 521.841 512.619 4
-4 9 7 336.818 558.498 3
4 9 7 533.362 635.152 3
4 9 8 8782.41 1074.55 3
4 9 -8 9130.48 1047.62 4
9 4 -8 8230.33 918.699 4
-4 -9 8 9485.38 1097.99 3
-9 -4 8 9104.05 1175.16 3
-4 9 8 9134.65 987.525 3
-4 -9 9 1212.17 768.766 3
4 -9 -9 50.9269 847.154 8
4 9 -9 829.829 690.542 4
-9 4 9 224.328 635.763 3
9 4 -9 20.6897 637.053 4
-4 9 9 -285.212 635.217 3
4 9 9 1244.38 593.527 3
-9 -4 9 155.487 824.435 3
9 -4 -9 1056.83 856.031 8
9 4 -9 915.976 810.624 8
9 -4 -10 1171.28 946.138 8
4 -9 -10 1369.4 943.212 8
9 -4 -10 2339.65 897.305 7
9 4 -10 570.617 810.97 8
4 -9 -11 11474.9 1381.21 8
9 -4 -11 9114.87 1263.06 8
9 -4 -11 11136.4 1286.78 7
9 -4 -12 2926.96 912.573 8
4 -9 -12 1876.4 754.96 8
9 -4 -12 1439.56 789.837 7
9 -4 -13 1021.91 698.303 7
4 -9 -13 -929.615 716.451 7
4 -9 -13 488.711 628.607 8
9 -4 -13 1116.13 712.397 8
4 -9 -14 338.119 488.221 8
9 -4 -14 237.431 505.116 7
4 -9 -14 -91.6642 491.2 7
9 -4 -14 1368.61 620.529 8
5 9 0 57006.1 1736.64 3
9 5 0 53554.4 1642.32 3
9 5 0 55595 1624.78 4
9 -5 0 56303 1728.91 4
5 9 1 65071.1 1866.5 3
9 5 1 63197.2 1749.42 3
5 9 -1 66070.9 1879.17 3
5 9 -1 65086.3 1581.95 4
9 5 -1 65046.9 1839.59 3
9 5 -1 63817.6 1807.26 4
9 -5 -1 63930.1 1788.38 4
9 -5 1 63904.2 1914.59 4
9 5 1 61933.4 1711.73 4
5 9 2 47390.6 1649.36 3
9 5 2 44389.5 1488.75 3
5 9 -2 44127.1 1429.09 4
5 9 -2 45534.3 1617.41 3
9 5 -2 46211.5 1568.48 4
9 5 2 44038.8 1467.33 4
9 -5 -2 47932.1 1512.39 4
9 -5 2 44897.8 1701.83 4
9 -5 3 10381.8 1010.08 4
5 9 3 9997.16 883.632 3
9 5 3 10136.9 809.741 3
5 9 -3 9082.54 764.044 4
9 5 -3 10475.6 857.763 4
5 9 -3 9965.29 882.275 3
9 5 3 8992.36 771.549 4
5 9 4 19986 1235.4 3
9 5 4 19109.6 1084.36 3
5 9 -4 20531.6 1138.17 4
9 5 -4 20515.8 1162.18 4
9 -5 4 20737.6 1337.88 4
5 9 5 42980.4 1815.8 3
9 5 5 43708.3 1665.25 3
5 9 -5 45090.6 1718.35 4
9 5 -5 44618.3 1708.52 4
9 -5 5 40089 1892.74 4
5 9 6 43745.6 1913.08 3
9 5 6 42764.8 1724.56 3
5 9 -6 41990.1 1778.46 4
9 5 -6 42090 1724.81 4
9 -5 6 41782.3 2039.09 4
5 9 7 31826 1709.26 3
5 9 -7 35192.4 1738.75 4
9 5 -7 32890.3 1586.03 4
-9 -5 7 32864.6 1844.99 3
5 9 8 24663.6 1629.14 3
5 9 -8 25256.8 1568.23 4
9 5 -8 24739.2 1456.13 4
-5 -9 8 22399 1614.36 3
-9 -5 8 22781.9 1657.21 3
-5 9 8 22577.3 1437.64 3
5 9 9 17754 1456.26 3
5 9 -9 18948.8 1406.58 4
9 5 -9 18036.2 1323.93 4
9 5 -9 17303.1 1610.57 8
9 -5 -9 17548.2 1601.81 8
5 -9 -9 18804 1666.45 8
-5 -9 9 16979.6 1490.99 3
-9 -5 9 18478.9 1582.05 3
-5 9 9 17738.8 1391.09 3
5 -9 -10 395.406 697.416 8
9 -5 -10 144.246 754.774 8
5 -9 -11 -665.578 895.299 8
9 -5 -11 393.224 685.949 7
9 -5 -11 408.067 836.375 8
9 -5 -12 2559.45 913.048 8
9 -5 -12 3406.85 880.073 7
5 -9 -12 4078.28 885.321 7
5 -9 -12 2974.39 863.389 8
9 -5 -13 6484.63 881.811 7
5 -9 -13 6292.05 908.01 7
5 -9 -13 7367.29 957.481 8
9 -5 -13 5026.47 865.48 8
9 -5 -14 4967.89 752.068 8
9 -5 -14 3069.04 613.944 7
5 -9 -14 4116.88 687.181 7
5 -9 -14 3748.67 671.068 8
9 6 0 106.484 437.255 3
9 6 0 27.0844 382.661 4
9 -6 0 857.583 517.333 4
6 9 0 414.383 491.195 3
6 9 -1 -93.3461 477.709 3
9 6 -1 21.8275 438.581 3
6 9 -1 319.516 345.292 4
9 6 1 148.102 392.42 4
9 6 -1 282.874 437.71 4
9 -6 -1 793.704 474.288 4
9 -6 1 846.359 578.03 4
6 9 1 369.22 475.125 3
9 6 1 -15.2224 411.629 3
6 9 -2 543.567 512.505 3
9 6 -2 63.8123 456.802 3
6 9 -2 -232.15 381.809 4
9 6 -2 -209.669 438.866 4
9 6 2 539.933 381.726 4
9 -6 2 261.688 529.685 4
6 9 2 -198.75 451.248 3
9 6 2 422.23 423.074 3
6 9 -3 493.519 580.552 3
6 9 -3 367.57 443.146 4
9 6 -3 -378.276 484.818 4
9 -6 3 414.464 576.916 4
6 9 3 -393.412 535.454 3
9 6 3 436.798 411.553 3
9 6 -4 3247.81 643.821 4
6 9 -4 2877.16 600.632 4
9 -6 4 3978.56 832.875 4
6 9 4 2927.12 665.846 3
9 6 4 3800.8 672.932 3
6 9 -5 1244.16 598.133 4
9 6 -5 1800.04 640.421 4
6 9 5 2165.54 671.43 3
9 -6 5 2291.42 790.601 4
9 6 5 677.553 526.745 3
6 9 -6 1062.75 595.602 4
9 6 -6 276.581 568.347 4
6 9 6 99.8977 543.195 3
9 6 6 -132.64 504.674 3
6 9 7 -1.36338 564.841 3
6 9 -7 663.391 630.122 4
9 6 -7 606.852 566.504 4
9 6 7 941.417 590.406 3
-9 -6 8 -488.545 782.277 3
9 -6 -8 468.036 823.413 8
6 9 -8 604.134 651.359 4
9 6 -8 -225.24 588.582 4
-6 -9 8 1110.52 788.922 3
6 9 8 470.688 609.799 3
6 -9 -8 174.76 723.602 8
6 9 -9 -1443.77 764.958 4
9 -6 -9 875.727 788.721 8
6 -9 -9 -340.712 934.933 8
-9 -6 9 -82.3428 667.617 3
9 6 -9 974.349 570.15 4
6 9 9 15.5325 570.716 3
-6 -9 9 -364.523 707.578 3
6 -9 -10 1275.63 900.566 8
9 -6 -10 1421.67 899.653 8
9 -6 -11 1384.16 762.483 8
6 -9 -11 188.74 712.569 8
6 -9 -11 -270.795 740.797 7
9 -6 -12 -247.905 707.088 8
9 -6 -12 157.014 609.374 7
6 -9 -12 1331 746.583 7
6 -9 -12 822.085 674.406 8
9 -6 -13 444.035 639.297 8
6 -9 -13 -603.914 598.992 8
9 -6 -13 602.069 578.028 7
6 -9 -13 -34.2228 529.94 7
9 -6 -14 -839.276 472.779 7
6 -9 -14 655.042 468.681 7
6 -9 -14 805.709 540.437 8
9 -6 -14 -326.066 482.929 8
9 7 0 149115 2744.39 4
7 9 0 160086 3093.62 3
9 7 0 151322 2971.76 3
9 -7 0 162739 3074.94 4
7 9 1 104287 2543.99 3
9 7 1 99698.7 2402.93 3
7 9 -1 105793 2561.21 3
7 9 -1 101877 2211.87 4
9 7 -1 104415 2539.99 3
9 7 1 103932 2253.48 4
9 7 -1 103891 2344.69 4
7 -9 1 107271 2499.51 4
9 -7 1 106440 2587.06 4
7 9 2 25481.8 1352.5 3
9 7 2 24558.2 1271.39 3
7 9 -2 26666.5 1226.2 4
9 7 -2 25768.9 1258.14 4
7 9 -2 24603.3 1349.07 3
7 -9 2 25916.9 1370.36 4
9 7 -2 25703.2 1355.29 3
9 -7 2 25520.9 1399.15 4
7 9 3 13013.8 1055.13 3
9 7 3 11421.1 953.11 3
7 9 -3 11788.6 906.833 4
9 7 -3 10200.2 890.546 4
9 -7 3 11829.4 1061.97 4
9 7 -4 2286.94 609.182 4
7 9 -4 1378.95 526.09 4
9 -7 4 3154.92 765.083 4
7 9 4 1585.59 585.513 3
9 7 4 2385.85 594.797 3
7 9 5 32808 1672.52 3
9 7 5 30135.5 1536.54 3
7 9 -5 30477.5 1513.11 4
9 7 -5 32962.1 1570.43 4
9 -7 5 31459 1787.16 4
7 9 6 69279.8 2481.22 3
9 7 6 69515.7 2371.69 3
7 9 -6 70514.6 2321.74 4
9 7 -6 71635 2329.51 4
7 9 7 72255.6 2602.64 3
9 7 7 68093.4 2473.18 3
7 9 -7 72053 2451.53 4
9 7 -7 70039.7 2385.24 4
7 9 8 39295.1 2041.85 3
9 7 8 34318.9 1801.36 3
7 9 -8 36102.7 1848.92 4
9 7 -8 37571.9 1860.02 4
9 -7 -8 37662.7 2189.31 8
7 -9 -8 35950.9 2106.58 8
-9 -7 8 36798.6 2118.94 3
-7 -9 8 31770 1969.18 3
-7 -9 9 -30.0295 655.585 3
9 -7 -9 -425.295 748.952 8
7 -9 -9 -268.418 835.576 8
7 9 -9 -252.417 505.88 4
9 7 -9 494.527 508.624 4
-9 -7 9 262.933 697.912 3
7 9 9 829.235 588.409 3
7 -9 -10 9054.59 1210.19 8
9 -7 -10 8636.82 1221.41 8
9 -7 -11 2300.05 876.546 8
7 -9 -11 2454.48 906.82 8
7 -9 -12 5858.48 937.536 8
7 -9 -12 4860.59 829.942 7
9 -7 -12 6978.6 1031.07 8
7 -9 -13 7739.58 915.694 8
9 -7 -13 9030.51 1005.32 8
7 -9 -14 5919.61 708.488 8
9 -7 -14 4844.41 701.786 8
8 9 0 -23.6055 506.826 3
9 8 0 -7.80258 487.403 3
9 8 0 -217.395 397.138 4
9 -8 0 -373.002 526.771 4
8 9 -1 3957.62 709.089 3
9 8 -1 3252.12 656.768 3
8 9 -1 2246.06 557.179 4
9 8 -1 3624.96 566.533 4
9 -8 1 3606.75 706.683 4
8 -9 1 3769.55 703.506 4
8 9 1 3109.85 648.9 3
9 8 1 3421.6 653.54 3
8 9 -2 5596.22 811.903 3
9 8 -2 5177.42 754.982 3
9 8 -2 6189.29 763.047 4
9 -8 2 6033.57 873.567 4
8 9 -2 5532.96 709.561 4
8 -9 2 5767.22 805.814 4
8 9 2 6435.69 805.793 3
9 8 2 6188.85 787.531 3
8 9 -3 6787.37 742.609 4
9 8 -3 6469.48 775.637 4
9 -8 3 6346.25 874.664 4
8 9 3 6970.55 851.661 3
9 8 3 5323.87 777.852 3
8 9 -4 1176.34 535.371 4
9 8 -4 706.338 576.429 4
9 -8 4 630.878 656.146 4
8 9 4 953.829 564.411 3
9 8 4 1167.91 551.275 3
8 9 -5 485.87 522.74 4
9 8 -5 -392.358 535.893 4
8 9 5 -7.50974 575.454 3
9 8 5 258.832 574.817 3
8 9 -6 6394.76 899.894 4
9 8 -6 6168.12 884.692 4
8 9 6 6788.96 972.82 3
9 8 6 5966.04 888.346 3
8 9 -7 963.632 670.285 4
9 8 -7 868.071 692.208 4
8 9 7 2055.8 780.33 3
9 8 7 2226.96 735.319 3
9 -8 -8 3062.85 1033.25 8
8 -9 -8 1705.31 939.816 8
8 9 -8 2980.56 731.619 4
9 8 -8 2369.76 718.505 4
8 9 8 1876.66 740.102 3
-8 -9 8 3957.54 943.394 3
9 8 8 2179.78 797.58 3
8 -9 8 2279.09 992.643 5
-9 -8 8 844.121 816.656 3
9 -8 -9 8296.67 1197.85 8
8 -9 -9 7395.31 1212.43 8
9 -8 -10 2130.99 883.444 8
8 -9 -10 2528 872.118 8
9 -8 -11 454.121 693.423 8
8 -9 -11 218.251 665.709 8
8 -9 -12 -475.247 739.916 8
9 -8 -12 -647.526 698.177 8
9 -8 -13 629.744 573.379 8
8 -9 -13 1351.55 637.111 8
8 -9 -14 1806.87 498.092 8
9 -8 -14 1104.71 469.4 8
9 9 0 91391.2 2569.77 3
9 9 1 77444.1 2369.13 3
9 9 -1 74919.4 2360.1 3
9 -9 1 78821.9 2389.67 4
9 9 -1 76617.6 2134.04 4
9 -9 2 50677.7 2006.79 4
9 9 2 54334.3 2022.29 3
9 9 -2 50403.6 1808.63 4
9 9 -2 51096.5 1992.07 3
9 9 3 16086.6 1209.51 3
9 9 -3 16961.5 1158.27 4
9 -9 3 16741.6 1291.38 4
9 9 4 18046 1285.25 3
9 9 -4 18478.9 1249.56 4
9 9 5 20558.7 1419.56 3
9 9 -5 20792.8 1375.98 4
9 9 6 9804.68 1084.63 3
9 9 -6 8121.44 945.922 4
9 9 -7 3502.89 766.217 4
9 -9 -7 2642.96 900.808 8
9 9 7 3316.19 794.683 3
9 -9 7 4245.95 1085.3 5
9 9 -8 2497.9 687.28 4
9 9 8 986.338 546.003 3
9 -9 8 3126.53 918.863 5
-9 -9 8 2277.37 823.778 3
9 -9 -8 1400.99 815.514 8
9 -9 -9 8543.59 1245.85 8
9 -9 -10 389.236 729.624 8
9 -9 -11 -32.6462 717.694 8
9 -9 -12 943.675 701.952 8
9 -9 -13 5070.66 759.674 8
0 10 0 95452.2 1947.43 3
10 0 0 92255.6 2182.35 4
0 10 1 23256.7 1039.96 3
0 10 -1 22936.9 991.23 3
10 0 -1 22256.5 1114.81 4
10 0 1 22543.6 1172.99 4
0 10 2 8635.72 744.483 3
0 10 -2 8594.02 713.1 4
10 0 2 10076.2 876.026 4
10 0 -2 10376.2 826.059 4
0 10 -3 2401.16 554.467 4
10 0 -3 2553.3 520.885 4
10 0 3 3130.83 651.75 4
0 10 3 2307.6 504.692 3
0 10 4 34824.3 1453.56 3
-10 0 4 35022.6 1446.13 3
0 10 -4 36113.2 1533.1 4
10 0 4 33524.1 1539.82 4
10 0 -4 36223.8 1447.78 4
0 10 5 62867.5 2022.94 3
0 10 -5 61907 2079.51 4
10 0 -5 60199.6 1849.26 4
10 0 5 60527.8 2196.42 4
-10 0 5 58339.7 1951.99 3
0 10 6 56048.7 2051.16 3
0 10 -6 59334.4 2201.24 4
10 0 -6 59512.5 1903.45 4
-10 0 6 60462.7 2119.25 3
10 0 6 56382.9 2224.39 4
0 10 -7 2091.25 776.322 4
10 0 -7 2668.78 594.388 4
0 10 7 2255.83 670.655 3
10 0 7 3251.26 829.205 4
-10 0 7 3038.8 760.898 3
0 10 -8 -262.263 742.738 4
0 10 8 -436.542 607.92 3
-10 0 8 980.82 630.718 3
-10 0 9 2228.07 790.398 3
10 0 -9 1250.48 959.324 7
0 10 -9 1703.62 846.84 4
0 10 9 1554.36 754.485 3
10 0 -9 1922.94 954.146 8
10 0 -10 17121.5 1568.46 7
10 0 -10 15319.6 1556.05 8
0 -10 -11 5672.33 960.347 8
10 0 -11 4980.1 1001.15 7
10 0 -11 6346.25 1111.9 8
10 0 -12 1306.91 832.682 8
10 0 -12 452.757 735.515 7
0 -10 -12 1730.74 746.019 8
0 -10 -13 2040.11 704.179 8
10 0 -13 645.308 628.358 8
0 -10 -14 139.029 528.538 7
0 -10 -15 -402.185 437.104 7
10 1 0 280.38 486.092 4
10 -1 0 -27.4969 451.844 4
1 10 0 -401.71 365.913 3
-1 10 1 13785.1 807.566 3
1 10 1 12875.5 819.368 3
1 10 -1 12857.5 813.315 3
10 1 1 12810.3 903.726 4
10 1 -1 12637.9 905.701 4
10 -1 -1 14220.3 939.227 4
10 -1 1 13016.6 955.535 4
1 10 -2 3751.98 577.265 3
1 10 -2 3566.09 498.888 4
10 1 -2 3072.02 604.407 4
10 -1 -2 3830.71 597.737 4
10 1 2 2448.08 571.65 4
10 -1 2 4041 674.271 4
-1 10 2 4378 568.674 3
1 10 2 3292.24 641.632 3
1 10 -3 82.6882 454.989 4
10 -1 -3 720.299 424.251 4
10 1 -3 1681.03 521.288 4
10 1 3 673.959 544.807 4
10 -1 3 949.092 580.033 4
-1 10 3 1086.26 457.235 3
1 10 3 763.421 440.227 3
1 10 -4 -68.0895 516.447 4
10 1 -4 103.605 456.259 4
10 -1 -4 402.128 453.215 4
10 1 4 277.927 517.935 4
-1 10 4 38.779 435.979 3
10 -1 4 288.166 560.858 4
1 10 4 136.604 477.905 3
-1 10 5 13732.4 1021.94 3
10 -1 5 14670.3 1196.93 4
1 10 5 14348.8 1070.78 3
-1 10 -5 14172.7 1098.79 4
1 10 -5 15979.8 1149.74 4
10 1 -5 13617.7 983.658 4
10 1 5 16647.8 1252.2 4
10 -1 -5 14107.5 963.548 4
-10 -1 5 15377.7 1119.44 3
-1 10 -6 2883.57 730.889 4
1 10 -6 2966.08 737.353 4
-10 1 6 2697.48 621.219 3
10 1 -6 3604.86 648.615 4
10 -1 -6 3235.84 602.621 4
-1 10 6 3741.01 736.967 3
1 10 6 3672.77 725.338 3
10 1 6 4053.64 828.878 4
10 -1 6 3637.22 789.885 4
-10 -1 6 2405.75 663.994 3
-10 -1 7 -960.51 646.013 3
-1 10 -7 -1001.34 782.428 4
1 10 -7 -349.238 737.806 4
10 1 -7 506.99 531.963 4
-1 10 7 865.279 600.457 3
1 10 7 100.767 571.802 3
-10 1 7 -1168.81 664.899 3
10 -1 7 -212.599 678.124 4
-10 1 8 564.59 656.95 3
-1 10 -8 1601.32 697.158 4
1 10 -8 -245.093 726.425 4
-1 10 8 726.324 610.261 3
-10 -1 8 967.144 690.512 3
1 10 8 412.734 590.987 3
10 -1 -9 4777.94 992.227 8
10 1 -9 5628.92 1178.51 7
-10 1 9 3649.32 894.637 3
-1 10 -9 4193.84 881.447 4
10 -1 -9 5863.76 1168.78 7
1 10 -9 5281.3 994.418 4
10 1 -9 3533.6 1028.98 8
-1 10 9 4938.08 922.007 3
1 10 9 6112.92 978.137 3
-10 -1 9 5064.01 959.514 3
10 1 -10 3289.46 963.502 8
10 1 -10 2906.87 981.898 7
10 -1 -10 2646.19 923.459 7
10 -1 -10 1190.55 848.053 8
10 1 -11 620.184 783.78 8
10 1 -11 619.015 881.079 7
10 -1 -11 414.132 718.106 7
10 -1 -11 754.186 818.466 8
1 -10 -11 -9.96787 723.011 8
10 1 -12 1611.28 808.418 8
1 -10 -12 1381.69 783.369 8
10 -1 -12 2288.96 824.82 7
-1 -10 -12 138.811 719.862 8
10 -1 -12 715.871 791.186 8
10 -1 -13 55.3656 615.953 8
1 -10 -13 -85.9055 602.119 8
-1 -10 -13 712.413 561.581 8
10 1 -13 -669.398 606.026 8
10 -1 -14 1259.54 567.322 8
1 -10 -14 441.561 507.086 8
1 -10 -14 120.671 521.359 7
-1 -10 -14 983.145 504.505 7
1 -10 -15 592.279 433.865 7
-1 -10 -15 488.743 414.46 7
2 10 0 20606.3 1026.63 3
10 2 0 21311.8 1113.45 4
10 -2 0 22784 1164.8 4
2 10 1 29870.2 1239.31 3
2 10 -1 27072.3 1171.68 3
10 -2 -1 28104.6 1251.88 4
10 2 1 29345 1298.63 4
10 -2 1 28697.7 1338.74 4
10 2 -1 28260.7 1256.22 4
2 10 2 8247.42 766.604 3
2 10 -2 6976.55 630.048 4
2 10 -2 6259.61 687.796 3
10 -2 -2 7051.19 707.319 4
10 2 2 6800.99 735.594 4
10 -2 2 7749.92 831.099 4
10 2 -2 7712.29 768.309 4
2 10 -3 -311.689 467.92 4
10 2 -3 232.002 466.573 4
10 -2 -3 168.577 416.227 4
10 2 3 588.209 493.585 4
-2 10 3 580.859 376.68 3
2 10 3 188.389 430.104 3
10 -2 3 -100.635 601.851 4
2 10 -4 3888.41 618.019 4
10 2 -4 6087.49 813.85 4
10 -2 -4 6328.54 705.981 4
10 2 4 4501.59 703.092 4
-2 10 4 5614.68 694.268 3
10 -2 4 5049.75 845.889 4
2 10 4 6144.85 765.146 3
-2 10 5 19436.5 1150.66 3
2 10 5 18923.5 1246.37 3
2 10 -5 18359.8 1198.21 4
10 2 5 19731.8 1279 4
10 -2 5 18002 1317.49 4
10 2 -5 18999.1 1150.65 4
10 -2 -5 20410.4 1097.55 4
-2 10 6 17996.5 1217.51 3
2 10 6 18279.6 1280.52 3
2 10 -6 18455.8 1271.71 4
10 2 -6 17368.5 1132.07 4
10 -2 6 18600.7 1376.01 4
10 2 6 16821.7 1222.79 4
-10 -2 6 16794.3 1248.4 3
-2 10 7 23987.8 1432.54 3
2 10 7 23099 1513.88 3
-2 10 -7 25045.2 1569.48 4
2 10 -7 23653.3 1493.49 4
10 2 -7 24431.1 1355.3 4
10 -2 7 24084.4 1642.28 4
-10 -2 7 24256.7 1540.06 3
-10 2 7 22632.7 1392.81 3
-2 10 8 14628.4 1234.27 3
2 10 8 14659.3 1285.85 3
-2 10 -8 13277.2 1307.47 4
2 10 -8 15145.8 1309.76 4
10 2 -8 15184 1158.89 4
-10 -2 8 13735.3 1277.34 3
-10 2 8 11724.4 1102.1 3
10 2 -9 5323.74 1107.58 8
10 2 -9 7807.12 1185.9 7
-2 10 -9 4824.17 939.885 4
10 -2 -9 4804.81 1049.44 7
-10 2 9 3734.3 890.846 3
2 10 -9 5091.41 875.641 4
-2 10 9 4863.57 903.834 3
10 -2 -9 5450.66 1124.76 8
2 10 9 6535.94 1032.97 3
-10 -2 9 6848.94 1014.81 3
10 -2 -10 -160.037 801.083 8
2 -10 -10 -671.562 806.669 8
10 -2 -10 9.95679 727.05 7
10 2 -10 -92.4805 862.408 8
10 2 -11 -1098.69 781.64 8
2 -10 -11 257.671 773.529 8
10 -2 -11 -134.388 797.539 7
10 -2 -11 -28.5844 681.368 8
-2 -10 -12 -56.4257 685.761 8
2 -10 -12 555.464 702.824 8
10 -2 -12 954.69 824.799 7
10 2 -12 -296.517 769.835 8
10 -2 -12 -236.344 714.642 8
10 -2 -13 1260.72 705.154 8
2 -10 -13 606.916 592.029 8
2 -10 -14 926.902 521.37 8
2 -10 -14 508.91 519.871 7
10 -2 -14 1061.22 526.111 8
10 3 0 245.944 371.079 3
10 3 0 39.2946 433.643 4
10 -3 0 451.397 496.91 4
3 10 0 368.824 420.186 3
3 10 1 6854.76 718.21 3
3 10 -1 7956.85 746.648 3
10 3 1 7987.81 657.202 3
10 3 1 7354.01 755.592 4
10 -3 1 8411.11 839.753 4
10 3 -1 7708.87 785.513 4
10 -3 -1 7467.43 762.933 4
3 10 -2 1333.11 495.344 3
3 10 -2 1235.37 400.26 4
10 -3 -2 979.594 457.478 4
10 3 2 1277.84 536.014 4
10 -3 2 1214.03 596.443 4
10 3 -2 1003.31 487.587 4
3 10 2 642.797 459.137 3
10 3 3 11602.9 928.911 4
3 10 3 9591.15 859.381 3
3 10 -3 10991.3 829.528 4
10 -3 3 11782.4 1031.35 4
10 3 -3 11072 890.436 4
3 10 -3 11507.2 907.481 3
10 -3 -3 11524.5 839.595 4
10 -3 4 24102.4 1452.41 4
3 10 4 22482.7 1278.45 3
3 10 -4 24018.1 1226.61 4
10 3 4 21007.2 1246.35 4
10 3 -4 23063.9 1230.34 4
10 -3 -4 22721.4 1135.49 4
-3 10 5 13691.3 1007.86 3
3 10 5 13779.6 1116.23 3
3 10 -5 13357.9 1027.29 4
10 3 -5 14145.1 1032.98 4
10 3 5 12421.9 1034.38 4
10 -3 5 13285 1208.43 4
-3 10 6 295.703 486.71 3
3 10 -6 1127.88 570.537 4
10 3 -6 696.48 498.788 4
-10 -3 6 450.094 586.191 3
3 10 6 633.682 602.349 3
10 -3 6 1324.48 729.893 4
3 10 -7 469.734 609.417 4
-10 -3 7 619.482 726.938 3
-3 10 7 377.292 541.418 3
3 10 7 -58.2586 571.201 3
10 -3 7 476.583 761.718 4
10 3 -7 351.433 566.101 4
-3 10 -8 1496.39 771.375 4
-3 -10 8 2229.67 822.245 3
3 10 -8 1752.93 686.424 4
10 3 -8 793.906 536.86 4
-3 10 8 397.864 555.935 3
3 10 8 228.365 622.031 3
-10 -3 8 1221.08 776.303 3
10 3 -9 147.65 820.889 8
-10 -3 9 29.5221 783.347 3
-3 10 -9 -197.532 715.597 4
3 10 -9 -216.176 702.253 4
10 3 -9 -188.208 576.427 4
10 -3 -9 -1123.66 917.453 8
-3 10 9 -303.644 637.323 3
3 10 9 -711.786 667.45 3
10 -3 -10 1347.28 882.185 8
10 -3 -10 569.495 825.838 7
3 -10 -10 -227.398 831.651 8
10 3 -10 982.722 946.428 8
10 -3 -11 11814 1391.58 8
10 -3 -11 10987.8 1296.39 7
3 -10 -11 9998.94 1294.05 8
10 3 -11 8572.14 1202.95 8
10 -3 -12 2766.24 893.007 8
3 -10 -12 4215.56 932.543 8
-3 -10 -12 2255.17 762.512 8
10 -3 -12 4023.64 902.596 7
3 -10 -13 965.646 575.813 8
10 -3 -13 1282.18 618.063 7
3 -10 -13 855.492 631.615 7
10 -3 -13 190.302 618.568 8
3 -10 -14 -24.3457 462.848 8
3 -10 -14 326.244 494.65 7
10 -3 -14 -1179.6 601.745 8
4 10 0 28073.2 1281.37 3
10 4 0 25694.8 1158.98 3
10 -4 0 25832.6 1283.08 4
10 4 0 24902.7 1193.13 4
4 10 1 38226.1 1490.22 3
4 10 -1 37716.7 1475.92 3
10 4 1 39132.2 1403.21 3
10 4 -1 38476.2 1451.34 3
10 4 1 36103.9 1427.77 4
10 -4 -1 39110 1505.31 4
10 -4 1 38319.1 1585.32 4
10 4 -1 37032.1 1459.61 4
4 10 -2 4460.94 634.533 3
4 10 -2 4551.7 542.599 4
10 4 2 4206.75 622.5 4
10 -4 2 4090.13 739.34 4
10 4 -2 4258.4 694.25 4
4 10 2 4193.34 666.821 3
10 -4 -2 5217.48 678.569 4
10 4 2 3873.68 546.686 3
4 10 -3 834.956 522.466 3
4 10 -3 594.042 411.074 4
10 4 -3 -154.096 525.411 4
10 -4 -3 783.666 443.574 4
10 4 3 55.771 435.193 4
10 -4 3 687.035 579.285 4
4 10 3 705.662 505.978 3
10 4 3 543.764 419.361 3
4 10 -4 2326.84 573.905 4
10 4 -4 2187.63 599.443 4
10 4 4 1630.9 554.389 4
10 -4 4 2130.65 738.172 4
4 10 4 2894.38 657.898 3
4 10 5 868.655 572.708 3
4 10 -5 1035.4 605.788 4
10 4 -5 1364.22 583.152 4
10 -4 5 688.209 661.361 4
4 10 -6 1801.72 662.603 4
10 4 -6 1843.8 638.764 4
4 10 6 2000.2 672.594 3
10 -4 6 1342.42 778.981 4
10 4 -7 6468.54 852.828 4
-10 -4 7 4125.86 909.749 3
4 10 -7 5608.5 879.481 4
-4 10 7 5600.56 790.602 3
4 10 7 6516.98 950.537 3
10 -4 -8 4344.2 1036.47 8
4 10 -8 3661.47 784.639 4
10 4 -8 4914.74 853.849 4
-4 -10 8 3541.14 918.616 3
-4 10 8 3603.7 743.077 3
-10 -4 8 4415.51 1000.92 3
4 10 8 4460.33 862.557 3
-4 -10 9 968.752 803.603 3
10 -4 -9 314.705 838.024 8
4 -10 -9 -1164.78 936.923 8
-4 10 -9 -1328.74 744.017 4
4 10 -9 652.85 598.189 4
10 4 -9 -392.59 568.078 4
-4 10 9 -272.428 626.022 3
-10 -4 9 822.181 743.2 3
4 10 9 722.034 667.271 3
10 4 -9 2068.63 990.258 8
10 4 -10 879.833 868.471 8
10 -4 -10 -93.4437 817.587 8
4 -10 -10 1420.9 920.857 8
10 -4 -11 809.746 867.78 8
4 -10 -11 71.5651 775.399 8
10 -4 -11 555.988 718.021 7
10 -4 -12 2.95792 719.426 8
10 -4 -12 -355.868 671.238 7
4 -10 -12 -260.808 647.32 7
4 -10 -12 376.306 762.919 8
10 -4 -13 -1141.13 699.063 7
4 -10 -13 -737.914 620.61 7
4 -10 -13 -843.012 608.614 8
10 -4 -13 508.633 613.328 8
10 -4 -14 203.372 509.124 8
4 -10 -14 661.293 527.163 7
4 -10 -14 1376.08 536.94 8
10 5 0 504.873 457.349 3
10 5 0 500.908 485.761 4
10 -5 0 203.591 553.866 4
5 10 0 307.741 497.798 3
10 5 1 132.191 388.323 3
5 10 -1 193.433 463.731 3
10 5 -1 278.261 424.146 3
10 5 -1 -113.883 453.899 4
10 5 1 393.565 412.029 4
10 -5 -1 307.369 478.681 4
10 -5 1 -418.57 520.6 4
5 10 1 37.5999 471.88 3
5 10 -2 6477.05 774.502 3
10 5 2 6738.37 695.817 3
5 10 -2 6489.99 659.425 4
10 5 2 7333.17 757.105 4
10 -5 -2 7397.14 746.858 4
10 5 -2 7246.93 791.361 4
10 -5 2 6566.22 841.727 4
5 10 2 6255.06 761.327 3
5 10 3 36720.3 1615.55 3
10 5 3 37238.1 1469.36 3
5 10 -3 34992.5 1389.5 4
10 5 -3 39262.7 1591.94 4
5 10 -3 37033.5 1607.69 3
10 5 3 35745.7 1483.42 4
10 -5 3 37356.4 1732.47 4
10 -5 4 33501.7 1748.56 4
5 10 4 32226.3 1582.64 3
10 5 4 30907.2 1397 3
5 10 -4 32359.6 1441.47 4
10 5 -4 31901.2 1506.27 4
5 10 5 16079 1227.33 3
10 5 5 12309.6 967.221 3
5 10 -5 15544.1 1134.68 4
10 5 -5 14044.3 1097.12 4
10 -5 5 12728.2 1251.61 4
5 10 -6 3047.62 687.895 4
10 5 -6 3952.35 744.75 4
5 10 6 4163.15 810.406 3
10 -5 6 3001.52 893.887 4
5 10 -7 -174.859 581.256 4
10 5 -7 -58.3083 552.25 4
-10 -5 7 206.796 665.202 3
5 10 7 506.902 604.502 3
10 5 -8 683.271 889.384 8
-10 -5 8 -626.348 766.409 3
10 -5 -8 886.419 971.411 8
5 10 -8 1310.89 706.189 4
10 5 -8 829.646 631.977 4
-5 -10 8 759.304 693.746 3
5 10 8 -504.739 582.578 3
5 -10 8 1567.87 1037.08 5
5 -10 -8 -1814.38 977.509 8
5 -10 -9 633.376 831.416 8
10 5 -9 3182.49 708.101 4
10 -5 -9 1307.93 895.764 8
-10 -5 9 2392.66 763.479 3
5 10 -9 723.543 585.212 4
5 10 9 1500.55 640.909 3
-5 -10 9 1070.04 684.694 3
10 -5 -10 4099.82 1018.76 8
5 -10 -10 3967.2 1078.05 8
5 -10 -11 6950.48 1170.54 8
10 -5 -11 6557.96 1012.12 8
10 -5 -12 4318.66 902.714 8
10 -5 -12 2943.29 809.364 7
5 -10 -12 3041.39 790.241 7
5 -10 -12 4135.6 916.728 8
10 -5 -13 144.897 576.776 8
10 -5 -13 413.701 521.113 7
5 -10 -13 320.744 600.463 7
5 -10 -13 585.915 554.134 8
5 -10 -14 152.283 478.404 8
5 -10 -14 527.761 499.37 7
10 -5 -14 441.41 468.452 8
10 6 0 2421.38 555.665 3
10 -6 0 3142.05 669.411 4
10 6 0 1952.47 507.904 4
6 10 0 2157.73 611.023 3
6 10 -1 34.9842 500.638 3
10 6 -1 323.551 428.368 3
10 6 1 168.8 408.485 4
10 6 -1 -542.487 468.189 4
10 -6 -1 1480.84 564.423 4
10 -6 1 65.5683 531.747 4
6 10 1 69.4241 514.472 3
10 6 1 27.2459 414.634 3
6 10 -2 416.261 473.961 3
6 10 -2 432.159 423.59 4
10 6 2 1186.11 502.303 4
10 6 -2 966.413 525.998 4
10 -6 2 872.598 595.668 4
6 10 2 206.903 493.348 3
10 6 2 -55.951 410.443 3
6 10 -3 3721.96 620.339 4
10 6 -3 4088.74 704.116 4
10 -6 3 4214.33 814.926 4
6 10 3 3756.62 721.149 3
10 6 3 2846.54 546.983 3
6 10 -4 1149.87 497.8 4
10 -6 4 1432.21 639.904 4
6 10 4 438.265 563.781 3
10 6 4 -20.4943 482.828 3
10 6 -4 444.252 513.777 4
6 10 -5 315.451 528.285 4
10 6 -5 373.254 514.506 4
10 -6 5 92.5354 751.703 4
6 10 5 -105.554 526.639 3
10 6 5 586.21 467.68 3
6 10 -6 -64.0989 548.237 4
6 10 6 -535.097 627.862 3
10 6 -6 105.417 536.181 4
10 -6 6 764.869 773.687 4
10 6 6 386.787 474.279 3
6 10 -7 2213.69 740.985 4
10 6 -7 2095.57 649.637 4
-10 -6 7 1576.26 874.951 3
6 10 7 1873.85 716.691 3
6 10 -8 2837.09 770.146 4
-6 -10 8 1326.68 1072.58 5
-10 -6 8 2219.08 930.441 3
10 -6 -8 1920.24 861.452 8
10 6 -8 2641.91 762.656 4
6 -10 -8 969.559 840.901 8
6 10 8 2456.66 788.845 3
6 -10 8 5199.64 1068.53 5
-6 -10 8 1467.89 756.364 3
10 -6 -9 6619.91 1125.98 8
6 -10 -9 6061.46 1102.93 8
6 -10 -10 4343.03 1026.28 8
10 -6 -10 2178.58 881.543 8
10 -6 -11 -1531.2 876.934 8
6 -10 -11 2164.68 899.726 8
10 -6 -12 335.491 691.115 8
6 -10 -12 336.374 669.201 8
6 -10 -12 76.0783 596.33 7
6 -10 -13 -440.104 558.906 8
6 -10 -13 201.28 536.725 7
10 -6 -13 -384.176 590.858 8
10 -6 -14 457.655 503.668 8
6 -10 -14 -132.147 448.911 8
10 7 0 -38.2481 450.083 3
10 7 0 62.8581 430.313 4
10 -7 0 19.623 568.316 4
7 10 0 751.905 518.091 3
7 10 -1 2282 680.626 3
10 7 -1 886.763 517.503 3
10 7 -1 989.89 457.761 4
10 7 1 854.695 501.141 4
10 -7 1 1471.29 632.049 4
7 10 1 621.041 492.354 3
10 7 1 867.051 539.87 3
7 10 -2 6681.32 857.241 3
10 7 2 6739.65 785.368 3
7 10 -2 6024.96 689.556 4
10 7 -2 6929.15 801.716 4
10 -7 2 7211.01 934.287 4
7 10 2 7242.18 842.936 3
10 7 -3 7698.13 883.632 4
10 -7 3 5550.87 894.573 4
7 10 -3 6464.09 755.342 4
7 10 3 5894.91 834.06 3
10 7 3 6067.79 778.939 3
7 10 4 14656.4 1216.75 3
10 7 4 13141.2 1064.16 3
7 10 -4 14699.8 1085.58 4
10 7 -4 13707.6 1104.22 4
10 -7 4 12709.1 1241.53 4
7 10 -5 6016.99 809.913 4
10 7 -5 6606.25 874.276 4
10 -7 5 7085.45 1071.51 4
7 10 5 6392.28 905.294 3
10 7 5 5768.05 834.004 3
7 10 6 20013.3 1487.77 3
10 7 6 21177.4 1373.99 3
7 10 -6 20202.2 1355.1 4
10 7 -6 20808.5 1386.79 4
7 -10 -7 5214.96 1020.36 8
-7 -10 7 5073.21 1283.54 5
7 10 -7 5643.91 909.765 4
10 7 -7 6250.86 940.865 4
7 10 7 5901.96 1006.01 3
10 7 7 6729.72 923.948 3
7 -10 7 5656.17 1144.23 5
10 -7 -7 4281.11 961.881 8
-7 -10 8 -813.267 1039.68 5
10 -7 -8 -572.559 791.251 8
7 10 -8 -37.8391 613.888 4
10 7 -8 206.879 564.814 4
-7 -10 8 -55.4101 685.518 3
7 -10 -8 889.086 883.537 8
7 10 8 775.261 703.88 3
-10 -7 8 146.144 690.8 3
7 -10 8 -585.053 777.3 5
7 -10 -9 9644.15 1238.83 8
10 -7 -9 9528.49 1244.44 8
7 -10 -10 5945 1067.35 8
10 -7 -10 6532.11 1085.91 8
10 -7 -11 2533.72 903.268 8
7 -10 -11 2057.47 729.671 8
7 -10 -12 1668.7 684.319 8
10 -7 -12 1170.46 673.162 8
7 -10 -13 288.47 520.072 8
10 -7 -13 1147.93 595.811 8
10 -7 -14 2141.18 544.556 8
7 -10 -14 1831.3 477.939 8
8 10 0 16287.7 1185.79 3
10 8 0 18071.2 1216.11 3
10 8 0 16584.3 1044.99 4
10 -8 0 15395 1141.3 4
8 10 1 14271.4 1120.32 3
10 8 1 14585.7 1109.62 3
8 10 -1 13433.4 1109.4 3
10 8 -1 12596.9 964.544 4
10 -8 1 12525 1081.11 4
10 8 -1 15478.9 1153.97 3
8 10 2 14483.3 1155.66 3
10 8 2 13994.4 1106.42 3
8 10 -2 13908.9 1031.07 4
10 8 -2 11315.1 976.013 4
8 10 -2 13166 1143.59 3
10 -8 2 12558.3 1142.94 4
8 10 3 9149.54 980.09 3
10 8 3 7273.6 893.382 3
8 10 -3 8005.93 832.987 4
10 8 -3 9262.9 926.857 4
10 -8 3 7363.63 957.801 4
10 8 4 7030.06 908.634 3
8 10 -4 8706.36 895.834 4
10 8 -4 8968.84 946.234 4
10 -8 4 8121.15 1045.72 4
8 10 4 7140.79 937.274 3
8 10 5 11663.6 1143.36 3
10 8 5 10137 1042.85 3
8 10 -5 9831.63 1018.94 4
10 8 -5 11426 1076.84 4
10 8 -6 592.604 591.832 4
8 10 -6 438.164 575.502 4
8 10 6 156.079 585.294 3
10 8 6 777.395 635.019 3
-8 -10 7 1435.06 1066.39 5
10 -8 -7 3443.21 934.502 8
8 -10 -7 2218.85 947.153 8
8 10 -7 4920.47 842.877 4
10 8 -7 4972.16 817.483 4
8 10 7 3228.8 748.795 3
10 -8 7 4707.76 1081.09 5
10 8 7 3646.2 808.537 3
8 -10 7 3790.92 1014.29 5
-8 -10 8 1858.55 998.529 5
10 -8 -8 3568.29 916.949 8
8 -10 -8 3638.95 987.167 8
8 10 8 4411.25 876.587 3
10 -8 8 3117.04 988.361 5
8 -10 8 5132.24 1077.75 5
10 -8 -9 56.1114 818.572 8
8 -10 -9 1098.19 805.648 8
8 -10 -10 2034.93 875.103 8
10 -8 -10 2409.34 877.727 8
10 -8 -11 -753.483 662.477 8
8 -10 -11 548.969 716.493 8
8 -10 -12 -997.074 710.745 8
10 -8 -12 719.452 680.727 8
10 -8 -13 -183.507 510.502 8
8 -10 -13 -386.771 552.685 8
9 10 0 299.604 569.04 3
10 9 0 -179.447 541.643 3
9 10 1 9468.2 1011.92 3
10 9 1 9652.71 977.766 3
9 10 -1 9717.73 1016.28 3
10 9 -1 9099.12 885.539 4
10 -9 1 9630.62 1060.03 4
10 9 -1 8685.44 983.294 3
9 10 2 28658.8 1563.21 3
10 9 2 27535.4 1524.45 3
9 10 -2 28372.9 1433.19 4
9 10 -2 27989.8 1605.87 3
10 9 -2 30138.3 1512.29 4
10 -9 2 29959.8 1679.59 4
9 10 3 24287.2 1494.84 3
10 9 3 23396.7 1453.64 3
9 10 -3 24276.3 1374.55 4
10 9 -3 25057.3 1436.76 4
10 -9 3 23570.2 1553.11 4
9 10 -4 8975.45 968.711 4
10 9 -4 8796.56 963.549 4
9 10 4 7770.53 943.794 3
10 9 4 7410.65 945.483 3
9 10 -5 6910.31 900.918 4
10 9 -5 5574.54 794.796 4
9 10 5 5509.61 913.516 3
10 9 5 5607.9 874.266 3
10 -9 -6 -288.695 871.45 8
9 -10 -6 1142.92 821.712 8
9 10 -6 1125.01 701.305 4
10 9 -6 1051.86 626.779 4
10 -9 6 1433.99 951.602 5
9 10 6 621.011 673.698 3
9 -10 6 752.376 963.916 5
10 9 6 2040.31 749.549 3
10 -9 -7 784.961 865.196 8
9 -10 -7 -217.812 758.06 8
9 10 -7 -861.629 660.27 4
10 9 -7 453.279 573.285 4
10 -9 7 -854.261 795.34 5
9 10 7 495.784 656.156 3
9 -10 7 12.8072 868.857 5
10 9 7 -250.803 545.614 3
-9 -10 8 1632.58 1128.13 5
10 -9 -8 3336.82 1034.53 8
9 -10 -8 4318.73 1024.67 8
10 -9 8 2838.44 873.01 5
9 -10 8 1183.09 900.185 5
10 -9 -9 1521 820.04 8
9 -10 -9 411.039 810.415 8
10 -9 -10 833.584 652.971 8
9 -10 -10 2685.21 897.034 8
10 -9 -11 2311.34 816.957 8
9 -10 -11 2132.26 757.525 8
10 -9 -12 1557.25 678.389 8
9 -10 -12 -6.91616 598.374 8
10 -9 -13 1006.35 506.952 8
9 -10 -13 860.803 551.719 8
10 10 0 18721.1 1365.58 3
10 10 -1 21672.8 1462.66 3
10 10 1 19534.2 1379.85 3
10 10 -2 4739.19 778.029 4
10 -10 2 6410.97 972.645 4
10 10 2 3838.87 791.772 3
10 10 -3 1421.17 574.304 4
10 10 3 844.277 646.369 3
10 10 -4 -632.706 621.561 4
10 10 4 -938.586 633.365 3
10 10 -5 -815.718 650.628 4
10 -10 5 -490.274 859.674 5
10 10 5 501.832 607.321 3
10 -10 -6 891.972 720.715 8
10 10 -6 760.936 614.915 4
10 -10 6 -354.436 815.191 5
10 10 6 2281.18 716.721 3
10 -10 -7 1980.77 844.201 8
10 -10 7 4210.3 1130.18 5
-10 -10 8 865.288 1016.51 5
10 -10 -8 857.286 823.006 8
10 -10 8 2429.32 872.637 5
10 -10 -9 -18.7589 700.713 8
10 -10 9 -707.531 747.543 5
10 -10 -10 -13.1188 649.896 8
10 -10 -11 1088.03 638.606 8
10 -10 -12 88.9751 571.032 8
10 -10 -13 -1230.01 489.975 8
11 0 0 708.23 553.849 4
0 11 0 47.7355 370.437 3
0 11 1 87229.5 2032.24 3
11 0 1 83178.5 2268.92 4
11 0 -1 79212.3 2150.03 4
0 11 2 66864 1873.93 3
11 0 2 65072.1 2074.15 4
11 0 -2 60977.7 1898.39 4
0 11 3 123822 2639.83 3
0 11 -3 117903 2559.28 4
11 0 -3 115127 2626.73 4
11 0 3 120808 2891.14 4
0 11 4 37271.7 1573.62 3
0 11 -4 36203.1 1586.31 4
11 0 -4 36969.2 1540.09 4
11 0 4 34408.6 1709.03 4
0 11 5 26754.6 1426.77 3
0 11 -5 25620.8 1442.69 4
11 0 5 23933.6 1535.66 4
11 0 -5 26394.2 1354.53 4
0 11 -6 3455.15 757.703 4
11 0 -6 3541.78 717.402 4
-11 0 6 3065.53 716.835 3
0 11 6 2370.25 636.497 3
11 0 6 3873.43 856.516 4
0 11 7 20744.5 1413.88 3
0 11 -7 22150 1525.64 4
11 0 7 18896.7 1507.04 4
11 0 -7 22697 1324.01 4
-11 0 7 20315.1 1415.74 3
0 11 8 15205.1 1345.49 3
0 11 -8 15813.5 1358.74 4
11 0 -8 14310.5 1420.57 8
-11 0 8 13105.8 1265.76 3
0 -11 8 17157.4 1671.99 5
0 11 -9 9190.69 1150.27 4
11 0 -9 8287.86 1284.43 8
-11 0 9 8414.3 1031.5 3
11 0 -9 10668.3 1335.74 7
0 11 9 9804.44 1086.7 3
11 0 -10 9618.96 1312.85 8
11 0 -10 12113 1385.87 7
0 -11 -11 9064.55 1156.99 8
11 0 -11 11334.2 1346.89 8
0 -11 -12 6099.34 1001.93 8
11 0 -12 7945.27 1110.09 8
11 0 -13 484.442 640.859 8
0 -11 -13 868.1 617.471 8
0 -11 -14 1188.75 550.301 7
1 11 0 5682.5 619.536 3
11 -1 0 5558.83 747.201 4
11 1 0 5375.84 719.59 4
1 11 -1 -314.556 371.427 3
11 -1 -1 -38.0473 516.963 4
11 1 -1 623.474 539.813 4
11 1 1 825.729 534.946 4
11 -1 1 244.469 524.792 4
1 11 1 138.407 419.642 3
1 11 -2 2085.75 542.351 3
11 1 -2 1151.88 548.531 4
11 -1 -2 1824.21 534.386 4
11 1 2 1575.71 570.262 4
11 -1 2 1719.38 595.099 4
-1 11 2 1606.74 506.453 3
1 11 2 1524.6 497.208 3
-1 11 3 7230.69 763.21 3
1 11 3 6530.85 766.828 3
-1 11 -3 6267.31 789.195 4
1 11 -3 5292.06 681.24 4
11 1 -3 6461.08 773.77 4
11 1 3 6354.91 822.532 4
11 -1 3 6707.83 891.862 4
11 -1 -3 5034.8 718.34 4
11 1 4 2494.21 713.084 4
-1 11 -4 2283.78 674.063 4
1 11 -4 2660.41 606 4
11 1 -4 2802.24 641.332 4
11 -1 -4 2421.17 596.434 4
11 -1 4 2304.14 718.382 4
-1 11 4 3218.11 617.902 3
1 11 4 2629.55 615.439 3
-1 11 -5 1565.6 653.188 4
1 11 -5 1032.76 635.431 4
-11 -1 5 1272 598.875 3
11 1 -5 1958.53 610.374 4
11 -1 -5 1345.89 561.531 4
-1 11 5 2253.47 575.283 3
11 1 5 1607.23 651.449 4
11 -1 5 1826.91 730.942 4
1 11 5 1341.7 595.436 3
-11 -1 6 294.964 615.063 3
-1 11 -6 -487.876 648.904 4
1 11 -6 -7.37748 628.205 4
11 1 -6 640.657 574.424 4
11 -1 -6 374.93 476.319 4
-1 11 6 208.961 508.37 3
1 11 6 381.182 516.593 3
11 1 6 -208.94 651.428 4
11 -1 6 54.1805 668.391 4
-11 -1 7 3184.04 733.888 3
-1 11 -7 4746.11 923.393 4
1 11 -7 4247.94 849.113 4
11 1 -7 3877.59 687.091 4
-1 11 7 3830.29 765.992 3
1 11 7 3994.7 778.645 3
11 -1 7 3217.69 873.404 4
11 1 -8 678.187 836.438 8
11 -1 -8 2382.08 925.139 8
-11 -1 8 1180.81 735.283 3
-1 11 -8 1277.72 728.673 4
1 11 -8 -444.886 761.44 4
-1 11 8 705.029 716.812 3
1 11 8 613.385 636.187 3
1 -11 8 35.3766 940.225 5
-1 -11 8 -88.0456 1053.55 5
11 -1 -9 299.035 782.256 7
-1 11 -9 263.741 716.292 4
1 11 -9 -100.97 658.35 4
-1 11 9 -183.841 578.048 3
1 11 9 -31.9386 573.066 3
-11 -1 9 1324.91 725.511 3
11 -1 -9 -35.8874 895.553 8
11 1 -9 1905.22 971.996 8
11 -1 -10 -161.469 804.917 7
11 -1 -10 280.197 772.398 8
11 1 -10 228.263 764.764 8
1 -11 -11 140.178 839.671 8
11 -1 -11 1148.03 807.325 7
11 1 -11 -231.86 728.053 8
11 -1 -11 758.528 741.438 8
11 1 -12 1375.16 772.382 8
1 -11 -12 606.555 695.532 8
-1 -11 -12 -733.208 675.04 8
11 -1 -12 268.148 728.021 8
1 -11 -13 1039.1 628.649 8
-1 -11 -13 430.508 550.624 8
1 -11 -14 -258.414 462.405 7
-1 -11 -14 -50.3559 440.177 7
11 2 0 105.312 483.22 4
11 -2 0 8.98288 544.195 4
2 11 0 164.059 386.49 3
2 11 -1 1004.64 463.637 3
11 2 -1 705.815 489.534 4
11 2 1 419.876 512.514 4
11 -2 -1 1272.77 513.724 4
11 -2 1 870.689 573.251 4
2 11 1 887.357 486.51 3
2 11 2 51594.3 1737.96 3
2 11 -2 54203.4 1745.8 3
11 2 2 49427.3 1781.84 4
11 2 -2 50390.3 1777.07 4
11 -2 2 53905.2 1956.43 4
11 -2 -2 48969.7 1706.99 4
2 11 3 48216 1762.6 3
2 11 -3 45678.6 1612.89 4
11 2 -3 46142.6 1734.77 4
11 -2 -3 45524.3 1662.05 4
11 -2 3 46374.4 1900.5 4
11 2 3 44421.6 1776.17 4
-2 11 4 43158.9 1622.82 3
2 11 4 40697.7 1704.42 3
2 11 -4 39845.1 1617.82 4
11 2 -4 44013.4 1743.37 4
11 2 4 39541 1773.46 4
11 -2 4 40695 1897.02 4
11 -2 -4 42256.7 1605.17 4
2 11 -5 1635.53 589.884 4
11 2 -5 2884.57 657.993 4
11 -2 -5 3028.69 604.916 4
-2 11 5 2838.13 641.45 3
11 2 5 2536.64 705.75 4
11 -2 5 2004.46 707.438 4
2 11 5 2843.23 702.488 3
-11 -2 5 979.448 612.357 3
-2 11 -6 919.733 700.842 4
2 11 -6 -284.173 618.692 4
11 2 -6 103.869 517.697 4
-2 11 6 59.498 501.508 3
-11 -2 6 25.1923 574.344 3
2 11 6 550.569 589.132 3
11 2 6 484.95 666.929 4
11 -2 6 783.548 681.535 4
-11 -2 7 1529 696.36 3
-2 11 -7 1988.28 726.682 4
2 11 -7 1678.24 614.4 4
11 2 -7 1972.54 684.986 4
-2 11 7 1679.49 639.298 3
2 11 7 1405.73 719.59 3
11 -2 7 -23.5451 761.656 4
-2 -11 8 3223.21 1175.81 5
11 2 -8 3680.53 1065.17 8
-11 -2 8 3212.39 850.698 3
-2 11 -8 4717.35 933.139 4
2 11 -8 4568.15 886.368 4
11 2 -8 3325.85 734.767 4
-2 11 8 4872.27 883.502 3
2 11 8 4156.49 853.953 3
11 -2 -8 6258.13 1105.02 8
2 -11 8 3019.48 1123.22 5
11 2 -9 3909.69 1054.55 8
-11 -2 9 4131.13 826.741 3
-2 11 -9 4749.2 894.705 4
2 11 -9 5314.52 915.212 4
-2 11 9 3449.32 800.686 3
2 11 9 4255.55 755.686 3
11 -2 -9 6543.7 1112.22 8
11 2 -10 6720.75 1213.49 8
11 -2 -10 6546.93 1203.89 8
2 -11 -10 5528.85 1184.34 8
11 -2 -10 5726.23 1067.21 7
11 -2 -11 8663.34 1212.44 8
11 -2 -11 11708.3 1292.65 7
2 -11 -11 10931.2 1322.61 8
11 2 -11 8232.98 1185.2 8
11 -2 -12 1569.56 771.068 8
-2 -11 -12 1953.52 757.952 8
2 -11 -12 2413.94 794.662 8
11 -2 -13 486.452 619.231 8
2 -11 -13 -301.03 578.855 8
2 -11 -13 -965.493 569.091 7
-2 -11 -13 332.924 529.231 8
2 -11 -14 811.063 496.142 8
2 -11 -14 -214.807 485.408 7
-2 -11 -14 224.562 440.136 7
3 11 0 59190.7 1843.12 3
11 3 0 54688.9 1819.01 4
11 -3 0 54016.2 1857.64 4
3 11 1 26900.9 1280.6 3
3 11 -1 26176.6 1272.92 3
11 -3 -1 24743.2 1276.13 4
11 -3 1 27586.9 1405.54 4
11 3 -1 26172.5 1308.52 4
11 3 1 24273 1256.85 4
3 11 2 21598.7 1232.66 3
3 11 -2 18330.1 1085.74 3
11 3 -2 21233.3 1228.59 4
11 -3 -2 18744.5 1113.93 4
11 3 2 19022.1 1165.83 4
11 -3 2 21643.7 1344.4 4
3 11 3 8243.68 856.762 3
3 11 -3 5362.17 633.725 4
11 3 -3 7131.33 849.287 4
11 -3 -3 4952.56 678.665 4
11 3 3 6900.01 807.75 4
11 -3 3 6868.73 950.133 4
3 11 -4 29.5263 464.387 4
11 3 -4 640.888 508.413 4
11 -3 -4 1131.53 505.44 4
11 3 4 1636.75 612.138 4
11 -3 4 704.008 695.176 4
3 11 4 550.185 525.59 3
3 11 -5 2436.55 651.399 4
11 3 -5 726.641 503.08 4
11 3 5 2124.4 679.752 4
11 -3 5 1390.6 727.491 4
3 11 5 2082.62 644.681 3
-11 -3 6 2717.49 736.145 3
3 11 -6 2613.07 685.374 4
11 3 -6 3311.75 734.051 4
3 11 6 3338.21 787.011 3
11 -3 6 2675.22 878.379 4
-3 11 -7 1462.61 774.376 4
-11 -3 7 609.46 738.099 3
3 11 -7 1179.27 673.468 4
-3 11 7 1616.31 610.288 3
11 3 -7 1134.86 572.802 4
3 11 7 101.531 577.611 3
11 -3 7 1063.71 745.744 4
-3 -11 8 -2033.08 1139.59 5
11 -3 -8 -485.737 822.11 8
-11 -3 8 -682.546 714.05 3
-3 11 -8 1048.58 712.406 4
3 11 -8 324.298 616.064 4
11 3 -8 -336.159 636.658 4
11 3 -8 -703.489 929.997 8
-3 11 8 15.931 594.604 3
3 11 8 507.073 668.671 3
3 -11 8 -920.867 1013.85 5
11 -3 -9 -509.69 892.629 8
-11 -3 9 236.222 631.374 3
-3 11 -9 754.531 735.865 4
3 11 -9 653.11 590.58 4
11 3 -9 -478.075 867.952 8
3 11 9 183.955 574.746 3
3 -11 -10 -152.058 840.378 8
11 3 -10 65.293 732.941 8
11 -3 -10 -231.527 756.52 8
11 -3 -11 2650 900.51 8
11 -3 -11 2230.88 777.575 7
3 -11 -11 2813.61 957.778 8
-3 -11 -12 2299.06 692.516 8
11 -3 -12 2901.23 825.162 8
3 -11 -12 3257.02 858.444 8
3 -11 -13 1919.59 639.899 7
11 -3 -13 2890.25 690.185 8
3 -11 -14 -671.565 483.603 8
3 -11 -14 167.982 463.782 7
11 4 0 392.309 417.226 3
11 4 0 473.53 515.957 4
11 -4 0 599.252 527.423 4
4 11 0 341.705 495.84 3
4 11 -1 4470.59 681.3 3
11 4 -1 4555.34 710.689 4
11 4 1 10585 838.93 3
11 4 1 9401.53 983.402 4
11 -4 -1 4707.05 729.765 4
11 -4 1 5701.19 846.624 4
4 11 1 4669.36 723.412 3
4 11 2 14104.7 1054.27 3
4 11 -2 12821.7 1000.77 3
11 4 -2 15514.9 1085.01 4
11 -4 -2 13507.3 999.018 4
11 -4 2 12131.1 1103.85 4
11 4 2 12455.2 962.475 4
4 11 3 18059.9 1205.29 3
4 11 -3 17799.9 1051.85 4
11 4 -3 18615 1195.32 4
11 -4 -3 18139.9 1120.73 4
11 -4 3 18164 1338.38 4
11 4 3 15008.2 1074.28 4
4 11 4 9844.82 962.785 3
4 11 -4 9725.65 909.015 4
11 4 -4 8939.52 926.05 4
11 -4 4 9722.75 1088.39 4
11 4 4 8359.44 907.544 4
4 11 -5 2814.35 639.581 4
11 4 -5 3355.99 695.634 4
11 -4 5 3298.88 865.695 4
4 11 5 2547.71 702.425 3
4 11 -6 911.537 622.042 4
11 4 -6 710.892 638.266 4
4 11 6 234.222 567.645 3
11 -4 6 614.032 797.95 4
4 11 -7 1048.33 678.575 4
4 11 7 501.72 612.973 3
11 -4 7 764.326 808.431 4
11 4 -7 -147.535 549.871 4
-11 -4 7 984.317 634.93 3
-4 -11 8 825.79 1056.91 5
-4 11 -8 2608.05 795.964 4
11 4 -8 3253.33 1082.07 8
-4 -11 8 2636.5 800.479 3
11 -4 -8 2905.79 959.387 8
4 11 -8 3178.58 883.503 4
11 4 -8 1626.77 598.876 4
-11 -4 8 3277.66 969.768 3
4 11 8 2637.88 824.936 3
4 -11 8 821.471 951.772 5
4 -11 -9 1477.9 773.479 8
11 4 -9 1729.76 912.381 8
11 -4 -9 3051.57 1022.47 8
4 -11 -10 1934.21 925.128 8
11 -4 -10 3134.21 915.895 8
11 -4 -11 1181.68 826.698 8
4 -11 -11 1068.23 827.116 8
11 -4 -12 492.711 707.171 8
4 -11 -12 -41.1228 606.725 8
-4 -11 -12 1126.19 625.953 8
4 -11 -12 -59.4816 576.265 7
11 -4 -13 890.568 620.906 8
4 -11 -13 -1021.15 588.249 8
4 -11 -13 -484.06 576.184 7
4 -11 -14 434.797 449.474 7
4 -11 -14 861.015 475.128 8
5 11 0 30461.1 1455.81 3
11 5 0 25215.3 1285.33 3
11 5 0 28845 1395.04 4
11 -5 0 29363 1470.46 4
5 11 1 41144.7 1682.8 3
5 11 -1 41306.9 1675.94 3
11 5 1 35616.5 1457.26 3
11 5 -1 39558.6 1619.72 4
11 5 1 37726.7 1555.35 4
11 -5 -1 39032.9 1616.32 4
11 5 -1 40534.8 1622.25 3
11 -5 1 41623.6 1786.05 4
5 11 2 12058.6 1007.24 3
11 5 2 11182.6 915.951 3
5 11 -2 12517.7 1035.47 3
11 5 -2 11433.2 989.216 4
11 -5 -2 13500.7 1018.74 4
11 -5 2 11155.8 1080.47 4
11 5 2 11264.1 935.433 4
5 11 -3 -545.909 445.788 4
11 5 -3 -444.631 559.002 4
11 5 3 -110.672 489.493 4
11 -5 3 1241.14 735.507 4
5 11 3 360.123 580.807 3
5 11 4 10008.2 995.181 3
5 11 -4 9552.6 878.725 4
11 5 -4 9557.37 971.869 4
11 -5 4 9555.97 1140.72 4
5 11 5 21242.7 1424.7 3
5 11 -5 21884.1 1322.21 4
11 -5 5 24289.8 1640.84 4
11 5 -5 22300 1377.17 4
5 11 6 14273.7 1246.6 3
5 11 -6 15014.4 1216.17 4
11 5 -6 16648.9 1248.18 4
11 -5 6 14640.4 1411.67 4
5 11 7 10016.6 1114.61 3
5 11 -7 10423.2 1124.89 4
11 5 -7 11146.9 1106.02 4
11 -5 -7 11266.1 1361.47 8
-11 -5 7 9611.06 1167.04 3
-5 -11 8 3123.78 1129.44 5
-11 -5 8 4226.18 963.012 3
11 -5 -8 4098.7 950.899 8
5 -11 -8 3182.5 980.427 8
5 11 -8 4435.01 885.795 4
-5 -11 8 4541.4 922.579 3
11 5 -8 4419.82 769.766 4
5 11 8 5135.2 947.566 3
5 -11 8 4819.49 1047.67 5
11 -5 -9 813.079 815.265 8
5 -11 -9 2018.28 906.404 8
5 -11 9 1445.6 838.377 5
11 -5 -10 405.106 867.377 8
5 -11 -10 421.496 811.757 8
5 -11 -11 725.073 784.901 8
11 -5 -11 609.569 779.546 8
11 -5 -12 3082.66 837.462 8
5 -11 -12 2867.77 770.048 8
5 -11 -12 3386.23 779.905 7
11 -5 -13 1146.21 601.089 8
5 -11 -13 623.486 552.299 8
5 -11 -13 271.661 513.981 7
5 -11 -14 2153.44 523.895 8
11 -5 -14 504.231 418.542 8
11 6 0 338.548 556.884 3
11 6 0 471.784 466.164 4
11 -6 0 3.15544 554.308 4
6 11 0 760.57 569.457 3
11 6 1 1953.36 580.991 3
6 11 -1 1849.51 613.444 3
11 6 -1 1340.39 645.382 3
11 6 -1 1758.18 604.521 4
11 6 1 1927.56 557.858 4
11 -6 -1 2425.37 666.44 4
11 -6 1 1966.7 700.114 4
6 11 1 1693.55 648.633 3
6 11 -2 3014.18 684.608 3
6 11 -2 2389.67 530.197 4
11 6 -2 2870.79 643.027 4
11 6 2 2525.24 554.916 4
11 -6 2 2567.33 741.248 4
6 11 2 2349.44 677.42 3
11 6 2 1895.66 554.959 3
6 11 -3 -54.7781 458.054 4
11 -6 3 -137.231 634.475 4
6 11 3 -494.326 578.509 3
11 6 3 118.831 470.897 3
11 6 -3 477.696 519.637 4
6 11 -4 1254.57 539.419 4
11 6 -4 745.037 544.716 4
11 -6 4 1504.95 783.124 4
6 11 4 1912.52 697.73 3
11 6 4 1374.79 550.319 3
6 11 -5 71.019 516.209 4
11 6 -5 -622.578 633.429 4
11 -6 5 -116.629 737.724 4
6 11 5 -178.639 641.982 3
6 11 -6 2040.03 653.999 4
11 -6 6 2960.16 930.918 4
6 11 6 2174.5 782.502 3
11 6 -6 1522.57 608.243 4
-6 -11 7 -26.8199 1081.05 5
-11 -6 7 982.656 780.787 3
11 -6 -7 -263.234 719.765 8
6 -11 -7 -394.189 831.372 8
6 11 -7 832.27 653.675 4
11 6 -7 -724.062 708.058 4
6 11 7 -162.276 624.375 3
6 -11 7 648.732 770.965 5
11 6 -8 235.481 569.601 4
-11 -6 8 174.697 656.464 3
11 -6 -8 1279.5 878.066 8
6 -11 -8 477.672 807.774 8
6 11 -8 -399.007 586.289 4
-6 -11 8 450.223 700.72 3
6 11 8 1879.14 733.682 3
6 -11 8 -293.79 795.53 5
11 -6 -9 4667.95 1104 8
6 -11 -9 3359.06 985.106 8
6 -11 9 3428.8 1032.34 5
11 -6 -10 858.237 749.248 8
6 -11 -10 1821.63 883.482 8
6 -11 -11 316.413 703.223 8
11 -6 -11 3868.16 1043.64 8
11 -6 -12 -121.447 672.926 8
6 -11 -12 78.0977 613.12 8
11 -6 -13 159.663 523.708 8
6 -11 -13 -1324.57 578.004 8
7 11 0 92566.4 2623.16 3
11 7 0 85767.9 2470.87 3
11 -7 0 95261 2656.16 4
11 7 0 90820 2437.91 4
7 11 1 44244 1855.61 3
11 7 1 42877.9 1766.58 3
7 11 -1 43661.2 1860.1 3
11 7 -1 43640.2 1808.59 3
11 7 -1 42352.9 1739.74 4
11 -7 1 43543.8 1907.78 4
11 7 1 41010 1643.66 4
7 11 -2 7161.57 767.158 4
11 7 -2 5403.23 756.68 4
7 11 -2 8542.32 1023.45 3
11 -7 2 4849.62 862.964 4
7 11 2 7119.26 894.809 3
11 7 2 5466.39 781.998 3
7 11 -3 499.501 476.733 4
11 7 -3 637.559 514.651 4
11 -7 3 -291.706 673.067 4
7 11 3 695.461 534.676 3
11 7 3 870.147 526.206 3
7 11 4 12023.4 1124.93 3
11 7 4 8471.56 908.713 3
7 11 -4 9259.69 943.023 4
11 7 -4 9023.48 964.522 4
11 -7 4 8806.4 1110.58 4
7 11 5 27752.5 1665.33 3
11 7 5 28106.8 1530.17 3
7 11 -5 26826.3 1502.81 4
11 7 -5 28192.9 1594.1 4
11 -7 5 26131 1754.25 4
7 11 6 31068.8 1795.14 3
7 11 -6 31181.9 1675.48 4
11 7 -6 32070.2 1727.71 4
7 11 7 23789.9 1650.07 3
7 11 -7 21717.3 1481.97 4
11 7 -7 23205.6 1531.08 4
11 -7 -7 20716.6 1638.13 8
11 -7 7 19714.3 1696.12 5
7 -11 -7 18897.3 1600.03 8
7 -11 7 21850.6 1840.99 5
-7 -11 7 16045 1779.45 5
-11 -7 7 21770 1701.68 3
7 -11 8 16916.9 1666.42 5
7 -11 -8 15717.7 1467.96 8
11 -7 -8 15046.2 1502.58 8
-7 -11 8 17440.7 1851.15 5
11 -7 -9 10425 1351.2 8
7 -11 -9 9613.47 1275.12 8
7 -11 9 8693.94 1201.38 5
11 -7 -10 4038.78 901.328 8
7 -11 -10 4072.4 912.607 8
11 -7 -11 3889.33 960.937 8
7 -11 -11 4999.35 967.665 8
11 -7 -12 1901.11 695.569 8
7 -11 -12 2804.03 768.615 8
11 -7 -13 3940.81 706.418 8
7 -11 -13 2542.3 622.134 8
8 11 0 -296.538 550.108 3
11 8 0 -224.995 502.939 3
11 8 0 769.411 496.296 4
11 -8 0 582.153 579.117 4
11 8 1 889.192 589.473 3
8 11 -1 1291.68 640.272 3
11 8 -1 202.808 545.744 3
11 8 -1 91.5769 504.058 4
11 -8 1 117.096 616.243 4
8 11 1 -903.406 593.646 3
8 11 -2 -514.418 569.795 3
11 8 -2 -644.269 604.923 4
11 -8 2 -310.268 595.233 4
8 11 2 145.554 570.857 3
11 8 2 105.199 490.586 3
11 8 -3 -230.188 534.42 4
11 -8 3 -557.997 635.619 4
8 11 3 251.893 587.505 3
8 11 -3 668.319 527.332 4
11 8 3 676.175 602.252 3
8 11 -4 -201.313 579.473 4
11 8 -4 498.557 549.377 4
11 -8 4 604.728 741.319 4
8 11 4 232.126 619.872 3
11 8 4 285.34 549.81 3
8 11 -5 5355.18 855.687 4
11 8 -5 6628.46 975.384 4
8 11 5 5989.87 933.031 3
11 8 5 3150.45 711.603 3
11 -8 -6 965.512 835.151 8
8 -11 -6 -307.07 794.319 8
8 11 -6 -113.693 618.623 4
11 -8 6 272.289 954.217 5
8 11 6 -72.6223 619.767 3
8 -11 6 288.945 824.223 5
11 8 6 -99.0488 597.471 3
11 8 -6 -344.332 607.752 4
-8 -11 7 69.7163 1144.73 5
11 -8 -7 1086.14 716.197 8
8 -11 -7 830.091 831.051 8
11 8 -7 953.438 604.18 4
8 11 -7 -403.208 608.563 4
11 -8 7 252.899 924.654 5
8 11 7 9.26067 578.843 3
8 -11 7 -247.038 849.861 5
-8 -11 8 11215.2 1498 5
11 -8 -8 10388.4 1307.35 8
8 -11 -8 10417.5 1311.3 8
11 -8 8 11305.6 1413.32 5
8 -11 8 8661.55 1250.9 5
11 -8 -9 1137.41 882.247 8
8 -11 -9 351.613 788.469 8
8 -11 9 78.3245 740.577 5
11 -8 -10 72.7375 742.206 8
8 -11 -10 -505.58 646.02 8
11 -8 -11 1015.08 635.144 8
8 -11 -11 1917.37 633.935 8
11 -8 -12 -444.153 637.802 8
8 -11 -12 -91.4818 548.596 8
11 -8 -13 -139.298 456.066 8
8 -11 -13 344.13 505.429 8
9 11 0 68461.3 2443.03 3
11 9 0 64607.7 2335.36 3
9 11 1 54106.1 2173.98 3
11 9 1 51535.8 2091.84 3
9 11 -1 50397.1 2134.65 3
11 9 -1 52273 2136.14 3
11 9 -1 54918.6 2013.79 4
11 -9 1 52452.5 2159.2 4
9 11 2 14634.3 1242.8 3
11 9 2 13888.7 1173.06 3
11 9 -2 14771.6 1182.33 4
11 -9 2 15432.6 1288.63 4
9 11 -2 15342.9 1279.12 3
11 -9 3 422.142 715.316 4
9 11 -3 1002.08 616.637 4
11 9 -3 590.552 543.354 4
9 11 3 592.942 637.761 3
11 9 3 1451.32 678.211 3
9 11 -4 -170.741 614.49 4
11 9 -4 1405.22 666.665 4
9 11 4 216.963 577.136 3
11 9 4 -429.741 681.397 3
11 9 -5 2059.78 717.995 4
9 11 -5 1483.28 685.626 4
11 -9 5 1527.11 943.251 5
9 -11 5 819.925 781.259 5
9 11 5 1541.65 730.703 3
11 9 5 1793.36 639.022 3
11 -9 -6 1639.93 739.423 8
9 -11 -6 1886.41 829.219 8
9 11 -6 3415.66 802.817 4
11 9 -6 4193.82 822.914 4
11 -9 6 3771.53 1121.06 5
9 -11 6 1661.11 975.585 5
9 11 6 2854.39 793.603 3
11 9 6 3399.97 813.134 3
-9 -11 7 2870.83 1139.33 5
11 -9 -7 4199.3 981.112 8
9 -11 -7 3034.97 911.564 8
11 -9 7 4009.64 1073.62 5
9 -11 7 602.806 918.436 5
-9 -11 8 796.224 1061.82 5
-11 -9 8 882.75 945.982 5
11 -9 -8 209.454 680.778 8
9 -11 -8 419.37 710.912 8
11 -9 8 -317.59 881.807 5
9 -11 8 -567.444 847.472 5
11 -9 -9 1311 788.116 8
9 -11 -9 1751.89 776.826 8
9 -11 9 1391.22 818.427 5
11 -9 -10 -729.683 718.236 8
9 -11 -10 265.611 644.517 8
11 -9 -11 268.176 565.117 8
9 -11 -11 355.891 588.114 8
11 -9 -12 1395.15 618.112 8
9 -11 -12 2249.17 600.251 8
9 -11 -13 1775.7 528.308 8
11 -9 -13 919.507 456.855 8
10 11 0 427.532 611.282 3
11 10 0 -234.165 580.246 3
10 11 1 5692.08 944.585 3
11 10 1 4306.4 840.243 3
10 11 -1 4924.56 892.613 3
11 10 -1 6237.31 959.645 3
10 11 2 9538.32 1086.38 3
11 10 2 8728.61 1047.71 3
11 10 -2 9556.21 1000.47 4
11 -10 2 9522.81 1121.56 4
11 10 -3 3332.01 738.243 4
10 11 -3 3347.63 732.133 4
10 11 3 4311.58 823.694 3
11 10 3 2593.94 692.968 3
10 -11 -4 -1039.62 1059.8 6
11 10 -4 213.169 620.033 4
11 -10 -4 -1003.96 909.784 6
11 -10 4 -7.45396 788.511 5
10 -11 4 268.66 812.261 5
10 11 -4 516.515 577.177 4
10 11 4 -786.208 619.486 3
11 10 4 893.3 585.609 3
10 11 -5 2313.13 679.016 4
11 10 -5 643.021 606.85 4
11 -10 5 952.773 930.127 5
10 -11 5 652.883 848.783 5
10 11 5 903.469 630.291 3
11 10 5 376.936 548.446 3
11 -10 6 757.405 840.726 5
10 -11 6 1578.2 915.778 5
-10 -11 7 -1471.18 1173.74 5
11 -10 -7 935.195 796.183 8
10 -11 -7 71.3124 762.779 8
11 -10 7 552.958 784.083 5
10 -11 7 -1028.59 875.524 5
-10 -11 8 2203.83 1035.71 5
-11 -10 8 4176.64 1091.31 5
11 -10 -8 1166.64 658.818 8
10 -11 -8 2927.72 898.507 8
11 -10 8 1507.79 906.253 5
10 -11 8 -279.357 757.177 5
11 -10 -9 1915.2 786.643 8
10 -11 -9 109.59 689.714 8
11 -10 9 711.768 692.62 5
10 -11 9 1149.22 757.972 5
11 -10 -10 -174.378 659.893 8
10 -11 -10 182.213 678.713 8
11 -10 -11 -201.699 561.196 8
10 -11 -11 -406.926 656.596 8
11 -10 -12 779.498 489.379 8
10 -11 -12 178.526 507.33 8
11 11 0 37199.1 1960.36 3
11 -11 0 35753.5 2157.42 6
11 11 1 14330.9 1304.72 3
11 11 -1 14265.4 1300.87 3
11 -11 -1 14288.9 1544.35 6
11 -11 1 15317.3 1532.5 6
11 -11 1 16027.4 1570.37 5
11 11 2 10022.6 1143.99 3
11 -11 -2 9030.83 1380.72 6
11 -11 2 7762.09 1198.58 6
11 -11 2 9354.3 1333.22 5
11 11 -3 8639.3 1027.28 4
11 -11 -3 6942.56 1344.56 6
11 -11 3 8720.69 1312.48 6
11 -11 3 7457.84 1202.85 5
11 11 3 6366.39 918.187 3
11 11 -4 537.303 624.058 4
11 -11 -4 1224.2 980.17 6
11 -11 4 1735.81 948.431 5
11 11 4 900.727 650.717 3
11 -11 5 -85.436 907.29 5
11 -11 6 4570.3 1144.18 5
-11 -11 7 -14.27 980.465 5
11 -11 -7 817.733 657.567 8
11 -11 7 1188.12 887.031 5
-11 -11 8 -743.819 942.742 5
11 -11 -8 -939.355 778.622 8
11 -11 8 241.054 733.045 5
11 -11 -9 -435.581 624.835 8
11 -11 9 782.867 687.13 5
11 -11 -10 955.976 549.383 8
11 -11 -11 2279.08 606.904 8
11 -11 -12 1286.75 491.244 8
12 0 0 47313.2 1846.56 4
12 0 -1 130128 2919.13 4
12 0 1 131478 3031.12 4
0 12 2 78749.1 2137.87 3
12 0 -2 75938.3 2254.09 4
12 0 2 79912.5 2432.22 4
12 0 3 6808.34 910.578 4
0 12 3 5976.19 752.394 3
12 0 -3 6451.64 807.685 4
0 12 4 7685.96 830.171 3
0 12 -4 9319.71 919.05 4
12 0 4 8792.8 1034.21 4
12 0 -4 7815.68 842.535 4
0 12 5 39775.4 1751.59 3
0 12 -5 40290.3 1820.2 4
12 0 5 40231 1988.31 4
12 0 -5 38083.7 1682.06 4
0 12 6 18994.2 1341.2 3
0 12 -6 19238.7 1386.17 4
12 0 6 21004.7 1578.06 4
12 0 -6 21300.1 1329.73 4
0 12 7 19454.8 1432.14 3
0 12 -7 17375.1 1411.58 4
12 0 -7 19050.4 1648.73 8
12 0 7 17151.7 1498.75 4
12 0 -8 2341 1036.36 8
0 12 -8 2642.41 835.959 4
0 12 8 3794.37 853.533 3
0 -12 8 4876.69 1200.21 5
12 0 -9 2853.21 970.029 8
0 -12 9 1290.27 1000.71 5
12 0 -10 4588.06 1053.6 8
12 0 -11 327.912 691.836 8
0 -12 -11 133.683 808.144 8
0 -12 -12 3823.75 833.558 8
12 0 -12 1807.05 804.362 8
0 -12 -13 4541.12 745.731 8
0 -12 -14 2102.18 535.449 7
12 1 0 858.523 707.095 4
12 -1 0 616.221 588.755 4
1 12 0 726.968 457.005 3
1 12 -1 4302.46 675.605 3
12 1 -1 5360.67 837.986 4
12 -1 -1 4486.84 770.244 4
12 1 1 3709.17 785.147 4
12 -1 1 4175.3 818.161 4
1 12 1 5228.38 677.469 3
12 1 2 2099.77 683.018 4
12 1 -2 3037.82 666.923 4
12 -1 -2 2721.82 655.666 4
12 -1 2 2632.88 751.106 4
1 12 2 2710.5 602.56 3
12 1 -3 319.069 501.429 4
12 -1 -3 1141.46 594.85 4
12 1 3 942.076 609.814 4
12 -1 3 513.16 644.911 4
1 12 3 327.028 469.288 3
-1 12 -4 4086.5 780.318 4
1 12 -4 3340.26 721.031 4
12 1 -4 3692.17 720.278 4
12 -1 -4 3845.29 689.013 4
12 1 4 3351.35 753.728 4
12 -1 4 4531.16 883.688 4
-1 12 4 3382.66 622.018 3
1 12 4 4018.03 721.582 3
-1 12 -5 566.905 628.758 4
1 12 -5 686.829 648.436 4
12 1 -5 485.318 503.442 4
12 -1 -5 229.353 517.283 4
12 1 5 115.076 654.741 4
12 -1 5 1315.99 751.857 4
-1 12 5 1716.41 619.973 3
1 12 5 1023 541.808 3
-1 12 -6 6509.97 948.513 4
1 12 -6 5044.19 889.702 4
12 1 -6 5746.26 843.992 4
-1 12 6 6200.01 876.345 3
12 1 6 6284.28 999.307 4
1 12 6 6202.71 886.633 3
12 -1 6 5768.6 1019.74 4
12 -1 -6 5072.98 758.264 4
12 1 -7 1242.03 779.574 8
-1 12 -7 410.113 692.509 4
1 12 -7 2.79807 703.372 4
12 1 -7 952.734 578.316 4
12 -1 -7 755.666 745.152 8
-1 12 7 1382.9 618.469 3
1 12 7 1846.64 688.946 3
12 -1 7 850.038 783.195 4
12 -1 -8 1001.37 856.933 8
-12 -1 8 1942.75 823.599 3
-1 12 -8 -754.691 797.072 4
1 12 -8 -918.899 760.161 4
12 1 -8 2191.81 1000.87 8
-1 12 8 759.485 664.468 3
1 12 8 678.954 591.255 3
1 -12 8 82.3077 852.596 5
-1 -12 8 2344.55 1019.25 5
12 1 -9 5032.39 1068.94 8
1 -12 9 5282.21 1108.22 5
12 -1 -9 3165.94 938.966 8
-1 -12 9 4856.79 1237.66 5
12 -1 -10 5077.93 1153.3 8
12 1 -10 3763.82 933.504 8
12 1 -11 1849 812.387 8
12 -1 -11 3025.21 926.826 8
1 -12 -11 1972.16 775.118 8
-1 -12 -11 2016.52 874.326 8
12 1 -12 351.917 705.06 8
12 -1 -12 49.2916 657.771 8
1 -12 -12 -716.006 575.763 8
-1 -12 -12 -676.227 707.031 8
12 -1 -13 125.055 571.333 8
1 -12 -13 -890.851 603.105 8
-1 -12 -13 -242.643 515.875 8
1 -12 -14 115.762 410.055 7
-1 -12 -14 424.921 435.731 7
2 12 0 151953 2964.26 3
12 2 0 149591 3154.69 4
12 -2 0 148347 3205.24 4
2 12 1 89691.1 2316.28 3
2 12 -1 87714.5 2272.87 3
12 2 -1 91572.4 2504.39 4
12 2 1 89618.9 2477.87 4
12 -2 -1 88944.9 2446.71 4
12 -2 1 87322.4 2542.11 4
2 12 2 44671.8 1726.64 3
2 12 -2 48242.9 1723.02 3
12 2 -2 45988.8 1823.59 4
12 2 2 45262.2 1836.07 4
12 -2 2 44926.5 1900.51 4
12 -2 -2 46222.1 1793.01 4
2 12 3 16067.8 1108.83 3
12 2 -3 14605.6 1113.1 4
12 -2 -3 16103.8 1126.65 4
12 2 3 14282.7 1136.02 4
12 -2 3 16796.4 1317.26 4
-2 12 -4 506.006 571.649 4
2 12 -4 586.021 500.915 4
12 2 -4 660.299 541.773 4
12 -2 -4 1491.83 602.637 4
12 2 4 1145.99 600.494 4
12 -2 4 1032.62 735.797 4
2 12 4 434.665 523.74 3
12 -2 5 12309.9 1263.59 4
2 12 5 9156.7 980.21 3
12 2 -5 8509.86 917.863 4
-12 -2 5 8677.36 959.41 3
12 -2 -5 11229.1 985.084 4
12 2 5 10828.2 1107.14 4
-2 12 -5 8576.76 999.763 4
2 12 -5 8582.93 950.297 4
-2 12 6 27835.2 1525.54 3
2 12 6 26481.1 1586.48 3
-2 12 -6 24250.8 1596.87 4
2 12 -6 23715.3 1504.81 4
12 2 -6 25527 1469.53 4
12 -2 6 25692.7 1768.26 4
-12 -2 6 23999.1 1519.02 3
-2 -12 7 10801 1511.17 5
-2 12 7 11741.8 1091.33 3
2 12 7 13054.8 1235.6 3
-2 12 -7 13121.5 1289.23 4
2 12 -7 13518 1234.85 4
12 2 -7 12885.3 1148.13 4
12 2 -7 12541.6 1490.52 8
12 -2 -7 11875.9 1371.89 8
12 -2 7 10759.3 1298.93 4
-12 -2 7 11683.9 1212.67 3
2 -12 7 12144.2 1533.38 5
-2 -12 8 11420.2 1524.57 5
12 2 -8 7640.57 988.871 4
-2 12 -8 10540.8 1199.94 4
12 -2 -8 10865.9 1349.72 8
12 2 -8 9943.24 1331.72 8
-12 -2 8 7557.01 1060.06 3
2 12 -8 8157.88 1030.72 4
-2 12 8 8245.62 1006 3
2 12 8 8959.12 1074.11 3
2 -12 8 7923.54 1265.84 5
12 2 -9 3344.04 994.663 8
12 -2 -9 5116.51 1143.98 8
2 -12 9 4049.46 1106.25 5
-2 -12 9 5394.86 1238.07 5
12 2 -10 118.123 862.374 8
12 -2 -10 1.75963 722.415 8
2 -12 -10 -1752.04 850.258 8
12 2 -11 751.432 675.503 8
12 -2 -11 459.54 692.14 8
2 -12 -11 779.289 829.227 8
12 -2 -12 2490.72 809.205 8
2 -12 -12 2722.53 793.978 8
-2 -12 -12 3909.46 773.361 8
12 -2 -13 6026.97 772.573 8
2 -12 -13 5036.91 766.914 8
-2 -12 -13 4923.16 690.753 8
2 -12 -13 3391.42 691.745 7
-2 -12 -14 2089.86 537.66 7
12 3 0 111.479 526.237 4
12 -3 0 1160.78 668.499 4
3 12 0 916.533 547.384 3
3 12 -1 1239.12 556.797 3
12 3 -1 230.598 515.171 4
12 3 1 650.665 566.888 4
12 -3 -1 456.019 559.814 4
12 -3 1 987.187 619.165 4
3 12 1 1192.05 573.044 3
3 12 -2 1026.31 509.167 3
12 3 -2 1745.66 624.555 4
12 -3 -2 1656.51 597.033 4
12 3 2 1338.59 615.583 4
12 -3 2 1799.09 710.546 4
3 12 2 1577.16 577.622 3
3 12 3 12626.6 1060.02 3
3 12 -3 14929.6 996.306 4
12 -3 -3 12820.7 1040.19 4
12 3 3 14003.2 1143.9 4
12 -3 3 14809.6 1251.14 4
12 3 -3 14102.4 1138.27 4
3 12 4 30256.9 1582.75 3
12 -3 4 30811.2 1799.83 4
3 12 -4 31216.1 1466.47 4
12 3 -4 30705.2 1570.74 4
12 -3 -4 30311.1 1476.75 4
12 3 4 30267.7 1620.05 4
3 12 5 18720.3 1319.92 3
3 12 -5 20838.9 1324.35 4
12 3 -5 18436.9 1286.89 4
12 3 5 17047.4 1318.56 4
12 -3 5 18886.6 1566.11 4
-12 -3 6 1032.45 718.911 3
3 12 -6 2614.43 768.072 4
12 3 -6 910.901 556.509 4
-3 12 -6 2971.01 866.83 4
12 -3 6 2068.72 782.188 4
3 12 6 2059.04 722.722 3
-3 -12 7 -277.045 1000.84 5
12 3 -7 800.509 750.09 8
12 -3 -7 1162.78 872.679 8
-12 -3 7 1367.49 750.201 3
-3 12 -7 1544.1 761.81 4
3 12 -7 -352.396 615.918 4
12 3 -7 -306.187 597.406 4
3 12 7 -717.918 643.096 3
12 -3 7 311.306 822.575 4
3 -12 7 24.7734 997.398 5
-3 -12 8 1117.65 1082.92 5
12 -3 -8 -257.653 735.317 8
-12 -3 8 -701.836 695.702 3
-3 12 -8 1894.57 766.522 4
3 12 -8 698.931 611.158 4
12 3 -8 892.54 658.41 4
3 12 8 818.49 553.798 3
12 3 -8 1225.49 976.19 8
3 -12 8 -445.701 798.327 5
12 -3 -9 2348.94 971.322 8
3 -12 9 3845.47 1058.88 5
12 3 -9 2709.78 1026.71 8
-3 -12 9 4347.71 1085.62 5
12 3 -10 5832.76 1122.59 8
12 -3 -10 8015.97 1262.74 8
3 -12 -10 7127.85 1157.98 8
3 -12 -11 9048.03 1152.59 8
12 -3 -11 8082.81 1078.43 8
12 -3 -12 5891.69 983.277 8
-3 -12 -12 3513.61 760.45 8
3 -12 -12 6344.56 929.937 8
12 -3 -13 240.377 543.167 8
3 -12 -13 1939.48 643.331 8
3 -12 -13 452.447 535.661 7
-3 -12 -14 -531.152 405.719 7
4 12 0 44806.6 1765.04 3
12 4 0 45268.2 1801.14 4
12 -4 0 45719.2 1867.57 4
4 12 1 38453.1 1660.33 3
4 12 -1 41404 1708.66 3
12 4 -1 36979.5 1667.11 4
12 4 1 38097.4 1668.82 4
12 -4 -1 39272.9 1702.03 4
12 -4 1 38907.4 1805.83 4
4 12 2 23125.5 1344.32 3
4 12 -2 22348.9 1307.51 3
12 4 2 23090.1 1337.93 4
12 -4 -2 22876.9 1328.31 4
12 -4 2 23833 1499.29 4
12 4 -2 25745.3 1420.83 4
4 12 -3 6125.61 756.402 4
12 -4 -3 6392.68 802.37 4
12 4 3 6297.03 847.597 4
12 4 -3 7413.15 918.753 4
12 -4 3 5390.93 932.349 4
4 12 3 6601.92 882.256 3
4 12 -4 3973.34 702.972 4
12 4 -4 4287.69 787.772 4
12 4 4 3560.53 764.197 4
12 -4 4 3044.03 820.067 4
4 12 4 3240.21 729.953 3
4 12 -5 661.429 582.953 4
12 4 -5 -258.657 571.477 4
12 -4 5 342.863 737.949 4
4 12 5 75.0938 537.971 3
-12 -4 6 5259.18 935.868 3
4 12 -6 6898.99 978.742 4
12 4 -6 5550.58 878.491 4
12 -4 6 6108.48 1085.89 4
4 12 6 6978.48 937.62 3
-4 -12 7 11229.8 1650.57 5
4 12 7 10442.5 1180.18 3
-4 12 -7 8566.03 1097.88 4
4 12 -7 11945.7 1177.13 4
12 4 -7 7901.76 1323.83 8
12 4 -7 10067.7 1111.82 4
-12 -4 7 8719.73 1171.71 3
12 -4 -7 9218.99 1233.93 8
12 -4 7 10749.5 1343.08 4
4 -12 7 9374.95 1373.45 5
-4 -12 8 4834.89 1214.97 5
12 -4 -8 5159.95 1092.01 8
-12 -4 8 6106.99 948.611 3
-4 12 -8 4049.92 823.926 4
4 12 -8 6603.11 1000.98 4
12 4 -8 5310.36 802.676 4
4 12 8 6517.39 976.964 3
4 -12 8 4415.4 1034.88 5
-4 -12 9 2831.83 1112.23 5
12 -4 -9 -475.715 933.151 8
4 -12 -9 572.181 851.767 8
4 -12 9 434.095 790.329 5
12 -4 -10 160.817 707.834 8
4 -12 -10 841.426 754.043 8
12 -4 -11 2654.89 811.297 8
4 -12 -11 2163.92 783.59 8
4 -12 -12 3974.43 842.896 8
-4 -12 -12 3621.72 725.066 8
4 -12 -12 2808.79 779.36 7
12 -4 -12 3739.7 824.419 8
12 -4 -13 5624.7 797.206 8
4 -12 -13 5282.25 757.043 8
12 5 0 560.181 525.85 3
12 5 0 509.404 570.795 4
12 -5 0 -39.5796 524.659 4
5 12 0 315.909 549.297 3
5 12 -1 5480.08 831.246 3
12 5 -1 5430.88 803.099 4
12 5 1 4062.53 740.1 4
12 -5 -1 5356.48 880.374 4
12 -5 1 4580.49 834.702 4
5 12 1 3941.99 728.506 3
5 12 2 9720.07 1000.77 3
12 5 -2 9703.83 981.384 4
12 5 2 8570.44 910.849 4
12 -5 -2 8749.92 907.003 4
5 12 -2 8736.24 955.981 3
12 -5 2 8562.28 1038.85 4
5 12 3 32463.4 1627.4 3
5 12 -3 33006.9 1487.92 4
12 5 -3 31105.1 1615.93 4
12 5 3 32828.9 1610.23 4
12 -5 3 34287.8 1857.81 4
5 12 4 50352.5 2088.08 3
5 12 -4 51062.1 1903.64 4
12 -5 4 47859.4 2221.82 4
12 5 -4 47761.1 2005.86 4
5 12 5 25552.1 1589.64 3
5 12 -5 25972 1492.58 4
12 5 -5 26019.9 1552.25 4
12 -5 5 24967.1 1727.34 4
5 12 -6 8245.19 1014.59 4
12 5 -6 7258.88 953.124 4
12 -5 6 6261.41 1101.74 4
5 12 6 8536.69 1075.36 3
-5 -12 7 -77.6611 1121.65 5
-12 -5 7 730.48 728.19 3
12 -5 -7 1473.89 798.793 8
5 12 -7 939.499 642.485 4
12 5 -7 202.876 605.3 4
5 12 7 -317.318 596.474 3
5 -12 7 866.295 818.484 5
-5 -12 8 -1392.78 1145.53 5
12 -5 -8 -386.215 762.827 8
5 -12 -8 -114.464 770.463 8
5 -12 8 1447.13 966.069 5
-5 -12 9 9492.53 1300 5
12 -5 -9 8476.15 1167.24 8
5 -12 -9 8783.92 1170.32 8
12 -5 -10 16543.3 1524.23 8
5 -12 -10 16558.3 1562.26 8
12 -5 -11 10680.1 1244.08 8
5 -12 -11 11135.6 1200.7 8
12 -5 -12 6681.76 992.908 8
5 -12 -12 6679.9 967.07 8
5 -12 -13 1318.99 549.054 8
12 -5 -13 337.339 550.817 8
6 12 0 11272.5 1045.04 3
12 6 0 12303 1038.84 3
12 -6 0 12237.2 1102.47 4
12 6 0 11717.8 1032.91 4
6 12 1 12825.9 1120.65 3
6 12 -1 13317.9 1107.42 3
12 6 1 13149.1 1075.81 3
12 6 -1 12989.9 1099.35 4
12 6 1 13188.9 1067.75 4
12 -6 -1 13744.2 1122.05 4
12 -6 1 12601.3 1154.87 4
6 12 2 7675.78 926.873 3
12 6 2 7292.67 848.559 3
12 6 2 8123.42 892.169 4
12 6 -2 6991.82 881.433 4
6 12 -2 8575.83 969.958 3
12 -6 2 8816.34 1043.8 4
6 12 -3 1129.24 559.104 4
12 6 -3 1289.69 724.146 4
12 -6 3 1394.31 686.15 4
6 12 3 1095.54 611.536 3
6 12 -4 -232.459 555.118 4
12 6 -4 243.1 592.633 4
12 -6 4 338.636 717.624 4
6 12 4 1198.51 702.889 3
6 12 -5 138.38 568.014 4
12 6 -5 79.3156 591.997 4
12 -6 5 2006.71 873.487 4
6 12 5 1143.39 697.584 3
-6 -12 6 -1434.88 1048.19 5
12 -6 -6 172.423 747.958 8
6 12 -6 817.144 643.723 4
12 6 -6 166.071 638.04 4
6 -12 -6 721.598 828.292 8
12 -6 6 493.228 784.024 4
12 -6 6 -628.696 948.765 5
6 12 6 -999.51 668.946 3
6 -12 6 -340.486 728.715 5
-6 -12 7 1574.28 1184.32 5
12 -6 -7 -170.01 779.868 8
6 -12 -7 1067.95 715.076 8
-12 -6 7 -408.21 742.47 3
12 6 -7 349.845 579.01 4
6 12 -7 -128.19 598.886 4
12 -6 7 -681.927 948.238 5
6 12 7 666.585 702.312 3
6 -12 7 1663.62 1025.57 5
-6 -12 8 -1802.8 1099.62 5
12 -6 -8 745.411 755.719 8
6 -12 -8 -703.387 826.118 8
6 -12 8 988.566 826.361 5
-6 -12 9 672.615 985.993 5
12 -6 -9 -219.21 814.022 8
6 -12 -9 78.4125 762.472 8
6 -12 9 -512.371 858.289 5
12 -6 -10 286.097 757.083 8
6 -12 -10 -1002.83 765.586 8
12 -6 -11 2013.87 833.076 8
6 -12 -11 1478.64 773.592 8
12 -6 -12 2082 698.034 8
6 -12 -12 705.476 595.15 8
12 -6 -13 1197.7 486.476 8
6 -12 -13 -395.083 490.77 8
7 12 0 -480.895 570.407 3
12 7 0 480.383 565.305 3
12 7 0 303.854 522.62 4
12 -7 0 -468.691 651.929 4
7 12 1 10368.9 1037.13 3
12 7 1 12555.9 1092.28 3
7 12 -1 10201.1 1074.07 3
12 7 -1 11577.8 1052.92 4
12 7 1 11014.8 1028.92 4
12 -7 1 9945.94 1060.06 4
7 12 2 21587.6 1419 3
12 7 2 20661.4 1335.85 3
7 12 -2 22200.8 1444.74 3
12 7 -2 20471.9 1352.92 4
12 -7 2 21142.6 1533.69 4
7 12 3 14262.6 1192.08 3
12 7 3 13830 1123.77 3
12 7 -3 15232 1208.56 4
12 -7 3 14557 1298.62 4
7 12 4 18694.5 1407.18 3
7 12 -4 18985.3 1284.45 4
12 7 -4 18512.7 1339.69 4
12 -7 4 18661.5 1525.02 4
7 12 5 47883.3 2186.76 3
7 12 -5 50771.3 2063 4
12 7 -5 45190.3 2085 4
12 -7 5 44895.3 2308.88 4
12 -7 5 48276.5 2548.7 5
7 -12 5 49242.2 2544.42 5
-7 -12 5 43151.5 2570.17 5
7 12 6 20876.6 1525.18 3
7 12 -6 22055 1503.25 4
12 7 -6 19804.9 1448.62 4
12 -7 -6 16820 1479.92 8
7 -12 -6 17244.4 1539.98 8
12 -7 6 17898.9 1707.13 5
-7 -12 6 17233.4 1771.73 5
7 -12 6 18798.4 1760.6 5
-7 -12 7 4449.09 1311.55 5
12 -7 -7 3510.59 1026.3 8
7 -12 -7 4374.6 1033.11 8
7 12 -7 4890.99 870.335 4
12 -7 7 4606.51 1136.23 5
7 -12 7 5149.69 1083.23 5
-7 -12 8 8499.37 1470.02 5
12 -7 -8 7662.12 1192.43 8
7 -12 -8 8985.04 1268.7 8
7 -12 8 7991 1192.29 5
-7 -12 9 8913.1 1395.13 5
12 -7 -9 8076.11 1159.9 8
7 -12 -9 10575.5 1272.17 8
7 -12 9 9608.86 1239.82 5
12 -7 -10 15393.8 1403 8
7 -12 -10 13108.4 1346.12 8
12 -7 -11 17000.9 1362.32 8
7 -12 -11 15662.2 1303.95 8
12 -7 -12 1982.51 608.432 8
7 -12 -12 3514.09 747.859 8
7 -12 -13 1071.83 461.055 8
12 -7 -13 1191.48 504.468 8
8 12 0 7109.83 909.424 3
12 8 0 8246.39 984.959 3
12 8 0 7209.33 851.197 4
8 12 -1 5613.47 939.619 3
12 8 1 7119.94 956.452 3
12 8 -1 6103.6 869.211 4
12 -8 1 5114.49 897.432 4
8 12 1 5643.06 928.637 3
12 8 2 4450.44 809.385 3
8 12 -2 2456.13 766.821 3
12 8 -2 3212.49 736.195 4
12 -8 2 2797.33 818.923 4
8 12 2 2340.73 718.922 3
12 8 -3 3080.05 729.749 4
12 -8 3 1644.3 786.527 4
8 12 3 1601.85 657.063 3
12 8 3 2461.49 690.822 3
12 8 -4 8043.42 1030.32 4
8 12 -4 6705.29 915.438 4
12 -8 4 7477.75 1178.8 4
8 12 4 8143.57 1030.73 3
12 8 4 7258.74 946.309 3
8 12 5 12239.5 1245.77 3
8 12 -5 12592 1165.28 4
12 8 -5 12874.8 1166.58 4
12 -8 5 12438.9 1488.83 5
8 -12 5 10677.8 1468.18 5
-8 -12 6 3077.41 1247.19 5
12 -8 -6 1338.44 826.489 8
8 -12 -6 2889.53 925.505 8
8 12 -6 2940.17 754.894 4
12 8 -6 2965.33 706.518 4
12 -8 6 2640.91 897.035 5
8 12 6 2084.49 769.803 3
8 -12 6 2140.19 958.638 5
-8 -12 7 1796.23 1105.75 5
12 -8 -7 802.894 696.627 8
8 -12 -7 990.15 815.619 8
12 -8 7 21.9663 846.127 5
8 -12 7 973.673 922.903 5
-8 -12 8 1249.96 969.077 5
12 -8 -8 552.225 743.413 8
8 -12 -8 72.0389 703.049 8
12 -8 8 1143.89 838.717 5
8 -12 8 951.931 851.283 5
-8 -12 9 1042.42 905.058 5
12 -8 -9 1565.4 769.622 8
8 -12 -9 2051.63 815.278 8
8 -12 9 1093.91 730.616 5
12 -8 -10 3999.89 839.718 8
8 -12 -10 5613.55 1007.15 8
12 -8 -11 294.017 644.367 8
8 -12 -11 1487.52 639.316 8
12 -8 -12 785.156 525.876 8
8 -12 -12 -186.747 478.916 8
12 -8 -13 676.281 415.571 8
8 -12 -13 407.453 391.354 8
9 12 0 -211.614 639.271 3
12 9 0 -350.526 642.687 3
9 12 1 11631.7 1176.22 3
12 9 1 12388.3 1177.67 3
9 12 -1 12116 1198.21 3
12 9 -1 13106.3 1148.32 4
9 12 2 28960.8 1705.47 3
12 9 2 27936.4 1640 3
12 9 -2 32421.2 1691.93 4
12 -9 2 27971.4 1733.75 4
9 12 3 37710.7 1936.28 3
12 9 3 40262.7 1934.14 3
12 9 -3 44421.9 2018.54 4
12 -9 -3 41779.8 2355.37 6
12 -9 3 38284.1 2346.01 5
9 -12 3 38423.3 2296.41 5
12 -9 3 39042.7 2073.76 4
9 12 4 36108.6 1940.81 3
12 9 4 32021.5 1760.84 3
9 12 -4 34204 1729.38 4
12 9 -4 36528.6 1903.24 4
12 -9 -4 34475.1 2214.13 6
9 -12 -4 36563.3 2189.43 6
12 -9 4 36244.8 2324.24 5
9 -12 4 35330 2265.45 5
9 12 -5 5377.33 884.09 4
12 9 -5 5149.67 852.732 4
12 -9 5 4454.06 1094.21 5
9 -12 5 4383.4 1155.57 5
9 12 5 4519.25 827.561 3
12 9 5 5274.92 916.209 3
-9 -12 6 599.057 915.5 5
12 -9 6 273.08 695.356 5
9 -12 6 1602.48 918.893 5
-9 -12 7 -243.033 1025.23 5
12 -9 -7 955.235 782.578 8
9 -12 -7 472.051 719.93 8
12 -9 7 131.613 838.456 5
9 -12 7 1388.08 873.591 5
-9 -12 8 1480.84 1015.35 5
-12 -9 8 300.679 952.126 5
12 -9 -8 -80.5102 670.719 8
9 -12 -8 296.973 694.948 8
12 -9 8 788.882 736.613 5
9 -12 8 -403.112 829.483 5
-9 -12 9 9759.36 1379.75 5
12 -9 -9 6897.69 1024.54 8
9 -12 -9 8702.02 1136.61 8
9 -12 9 8284.55 1159.58 5
12 -9 -10 10527.7 1109.7 8
9 -12 -10 10201.8 1113.37 8
12 -9 -11 3697.89 796.876 8
9 -12 -11 3097.36 715.617 8
9 -12 -12 3486.91 646.697 8
12 -9 -12 2877.1 635.887 8
10 12 0 18430.7 1426.51 3
12 10 0 21033.3 1480.67 3
10 -12 0 19684.4 1706.05 6
12 -10 0 19008.9 1729.44 6
10 12 1 7215.09 1049.42 3
12 10 1 7086.82 997.611 3
10 12 -1 6555.88 952.154 3
12 -10 1 8719.09 1326.12 6
10 -12 -1 7797.95 1297.61 6
10 -12 1 8507.78 1263.06 6
12 -10 -1 5907.72 1178.04 6
12 -10 1 7794.59 1400.28 5
10 -12 1 7326.69 1200.78 5
10 12 2 1517.33 739.774 3
12 10 2 985.104 664.496 3
10 -12 2 1725.9 838.443 6
12 -10 -2 60.4213 994.139 6
12 -10 2 798.262 892.383 6
12 10 -2 669.519 600.367 4
10 -12 -2 1484.21 1028.01 6
12 -10 2 1290.76 895.022 5
10 -12 2 895.463 1031.57 5
12 10 3 296.57 604.919 3
12 -10 -3 1376.37 1033.55 6
12 -10 3 494.459 853.293 6
12 10 -3 -882.586 654.297 4
10 -12 -3 -763.486 947.566 6
10 -12 3 -255.895 818.813 6
12 -10 3 175.632 784.296 5
10 -12 3 244.216 984.367 5
10 12 3 -867.86 659.416 3
10 -12 -4 655.387 960.147 6
10 12 -4 -178.191 593.56 4
12 -10 -4 -735.501 985.123 6
12 10 -4 204.851 579.732 4
10 -12 4 259.406 776.33 6
12 -10 4 994.512 915.18 5
10 -12 4 -644.303 881.657 5
10 12 4 692 587.475 3
12 10 4 -980.793 624.822 3
12 -10 -5 -714.06 878.292 6
12 -10 5 883.747 861.144 5
10 -12 5 388.183 731.839 5
-10 -12 6 4168.43 1202.61 5
12 -10 6 5066.56 1159.99 5
10 -12 6 5090.13 1224.25 5
-10 -12 7 7521.45 1353.41 5
12 -10 -7 8320.63 1104.54 8
10 -12 -7 9183.65 1119.46 8
12 -10 7 7503.27 1226.08 5
10 -12 7 6865.95 1183.32 5
-10 -12 8 7347.12 1277.27 5
-12 -10 8 5828.17 1178.6 5
12 -10 -8 6502.6 941.321 8
10 -12 -8 4640.94 929.144 8
12 -10 8 7579.63 1205.13 5
10 -12 8 7629.63 1132.85 5
-10 -12 9 3337.71 993.067 5
12 -10 -9 3589.86 846.078 8
10 -12 -9 4043.24 831.753 8
12 -10 9 2083.22 784.717 5
10 -12 9 3788.51 880.169 5
12 -10 -10 -28.9599 591.57 8
10 -12 -10 -13.2243 581.83 8
12 -10 -11 34.6771 512.216 8
10 -12 -11 -1065.41 615.849 8
12 -10 -12 564.182 444.337 8
10 -12 -12 -338.031 415.434 8
11 12 0 -466.926 667.453 3
12 11 0 -411.598 635.785 3
12 -11 0 51.4814 801.463 6
11 -12 0 -367.93 823.386 6
12 -11 0 -502.932 913.908 5
11 -12 0 -2133.55 1006.54 5
11 12 1 3571.02 810.9 3
12 11 1 4318.61 886.649 3
11 12 -1 4618.52 951.898 3
12 -11 -1 1205.58 907.177 6
12 -11 1 2871.51 931.444 6
11 -12 -1 6078.54 1244.05 6
11 -12 1 5348.96 1084 6
12 -11 1 1609.73 1013.21 5
11 -12 1 5084.24 1005.83 5
11 12 2 8691.38 1081.51 3
12 11 2 9095.56 1090.92 3
12 -11 -2 11827.3 1429.9 6
12 -11 2 9051.05 1305.2 6
11 -12 -2 10245.4 1416.04 6
11 -12 2 9964.2 1308.8 6
12 -11 2 9579.06 1389.07 5
11 -12 2 10680.9 1414.65 5
11 12 3 7857.63 1022.84 3
12 11 3 7964.57 1034.34 3
12 -11 -3 8149.45 1277.44 6
12 -11 3 7507.42 1271.63 6
12 11 -3 7588.83 1004.32 4
11 -12 -3 7785.47 1280.35 6
11 -12 3 6871.95 1173.99 6
12 -11 3 8203.95 1284.6 5
11 -12 3 7108.05 1223.53 5
12 -11 -4 8285.27 1293.33 6
12 -11 4 6709.25 1176.62 6
11 -12 -4 10271.3 1329.64 6
11 -12 4 7813.43 1201.94 6
12 -11 4 7345.21 1324.46 5
11 -12 4 8661.01 1254.42 5
12 -11 -5 3877.32 1061.39 6
11 -12 -5 4955.61 1041.98 6
12 -11 5 4613.1 1075.92 5
11 -12 5 1801.8 971.041 5
-11 -12 6 -1163.42 1079.76 5
12 -11 6 -12.9518 813.277 5
11 -12 6 -145.499 785.72 5
-11 -12 7 415.745 854.765 5
-12 -11 7 885.217 954.197 5
12 -11 7 883.766 738.189 5
11 -12 7 887.519 821.526 5
-11 -12 8 4063.66 1111.35 5
-12 -11 8 1946 947.179 5
12 -11 -8 3639.6 818.738 8
11 -12 -8 3942.86 863.802 8
12 -11 8 2868.7 857.914 5
11 -12 8 2885.76 861.682 5
-11 -12 9 1880.36 825.718 5
12 -11 -9 2877.15 712.383 8
11 -12 -9 3020.15 699.265 8
12 -11 9 2201.54 736.521 5
11 -12 9 2565.93 755.785 5
12 -11 -10 2152.87 627.661 8
11 -12 -10 1189.45 568.913 8
12 -11 -11 2126.3 559.859 8
11 -12 -11 1860.24 555.559 8
12 12 0 15318.4 1346.89 3
12 -12 0 14695.2 1570.72 6
12 -12 0 17217 1616.87 5
12 -12 -1 9529.18 1288.57 6
12 -12 1 10669.8 1397.27 6
12 -12 1 9633.81 1394.1 5
12 -12 -2 4534.1 1155.08 6
12 -12 2 5247.66 1119.03 6
12 -12 2 3628.41 983.867 5
12 -12 -3 707.795 927.853 6
12 -12 3 1487.38 909.471 6
12 -12 3 1817.86 809.338 5
12 -12 -4 1669.64 950.728 6
12 -12 4 1792.84 868.144 6
12 -12 4 1145.23 952.387 5
12 -12 -5 2797.01 998.961 6
12 -12 5 3883.39 1040.72 5
-12 -12 6 7873.18 1333.36 5
12 -12 6 8520.6 1264.04 5
-12 -12 7 7286.14 1233.17 5
12 -12 7 9387.81 1285.3 5
-12 -12 8 7338.31 1181.61 5
12 -12 -8 7023.75 905.948 8
12 -12 8 9451.3 1159.69 5
-12 -12 9 4466.43 881.036 5
12 -12 -9 3721.96 733.106 8
12 -12 9 5323.4 811.147 5
12 -12 -10 28.2991 514.958 8
12 -12 -11 422.118 435.208 8
13 0 0 -304.175 572.682 4
13 0 -1 5789.98 866.094 4
13 0 1 6037.8 878.055 4
13 0 2 31020.3 1663.85 4
13 0 -2 31574.5 1612.42 4
0 13 3 19477.6 1219.66 3
13 0 -3 20958.7 1365.12 4
13 0 3 19887 1426.17 4
0 13 4 9995.49 986.884 3
13 0 4 9236.3 1113.96 4
13 0 -4 7387.03 888.695 4
0 13 -5 217.621 629.589 4
13 0 -5 104.784 529.759 4
13 0 5 -734.341 739.957 4
0 13 5 202.861 543.302 3
0 13 -6 573.205 686.214 4
13 0 -6 -185.454 567.464 4
13 0 6 1189 763.178 4
0 13 6 628.705 604.996 3
13 0 -7 864.654 943.79 8
0 13 -7 383.328 712.846 4
0 13 7 277.437 583.091 3
13 0 7 1323.3 838.565 4
0 -13 7 874.44 1089.19 5
13 0 -8 5723.27 1201.49 8
0 -13 8 6925.03 1374.85 5
13 0 -9 11533.4 1415.66 8
0 -13 9 11973.4 1417.48 5
13 0 -10 8971.87 1303.69 8
13 0 -11 3400.51 944.919 8
0 -13 -11 489.639 735.5 8
0 -13 -12 1012 582.732 8
0 -13 -13 -1008.72 458.598 8
13 1 0 16609.6 1244.04 4
13 -1 0 17347.4 1288.08 4
13 1 -1 4770.91 822.483 4
13 -1 -1 4081.8 761.164 4
13 1 1 4547.23 779.132 4
13 -1 1 5306.25 847.31 4
1 13 1 5824.3 736.031 3
1 13 2 7504.08 855.597 3
13 1 -2 7843.12 991.731 4
13 -1 -2 6498.08 864.419 4
13 1 2 6334.31 918.027 4
13 -1 2 7587.3 1003.05 4
13 1 -3 2502.3 696.872 4
13 -1 -3 1545.75 639.868 4
13 1 3 2461.77 723.21 4
13 -1 3 2142.84 816.019 4
1 13 3 2141.61 651.541 3
13 1 -4 623.504 547.31 4
13 -1 -4 866.067 571.897 4
13 1 4 358.008 636.921 4
13 -1 4 1265.68 759.093 4
1 13 4 146.459 528.846 3
-1 13 -5 -316.706 614.023 4
1 13 -5 -144.282 586.73 4
13 1 -5 -134.222 556.207 4
13 -1 -5 -42.863 567.323 4
13 1 5 -788.786 754.457 4
13 -1 5 34.2328 732.863 4
1 13 5 -335.208 593.479 3
-1 13 -6 5141.99 876.56 4
1 13 -6 3643.04 739.007 4
13 1 -6 4744.18 1138.77 8
13 1 -6 5283.1 854.287 4
13 1 6 4059.37 962.072 4
13 -1 6 5315.17 1039.62 4
-1 13 6 3688.4 739.777 3
1 13 6 4070.79 760.056 3
-1 -13 7 751.929 933.525 5
13 -1 -7 -129.962 773.439 8
-1 13 -7 412.286 645.623 4
1 13 -7 249.361 637.597 4
13 1 -7 394.016 617.693 4
13 1 -7 462.484 900.668 8
-1 13 7 491.21 596.752 3
1 13 7 -819.303 742.948 3
13 -1 7 18.6572 819.19 4
1 -13 7 345.449 937.156 5
13 1 -8 2820.29 900.651 8
13 -1 -8 2538.39 1013.48 8
1 -13 8 489.709 969.046 5
-1 -13 8 3254.36 1109.65 5
13 1 -9 550.818 938.953 8
13 -1 -9 889.842 789.574 8
1 -13 9 -575.598 1029.51 5
-1 -13 9 -720.252 845.538 5
13 1 -10 34.3515 804.75 8
13 -1 -10 -785.907 741.261 8
13 1 -11 -410.83 778.786 8
1 -13 -11 1021.28 744.851 8
-1 -13 -11 411.444 746.457 8
13 -1 -11 762.383 716.101 8
1 -13 -12 136.795 542.669 8
-1 -13 -12 -352.605 612.649 8
1 -13 -13 -138.459 465.514 8
1 -13 -13 363.856 465.119 7
13 2 0 -253.066 544.147 4
13 -2 0 -443.656 600.595 4
2 13 0 580.047 503.411 3
2 13 -1 5421.52 722.132 3
13 2 -1 5037.61 829.738 4
13 2 1 4615.64 778.535 4
13 -2 -1 4745.32 781.892 4
13 -2 1 5450.17 911.113 4
2 13 1 6300.37 754.876 3
13 2 -2 7066.65 904.207 4
13 -2 -2 6236.95 845.445 4
13 2 2 5325.85 854.813 4
13 -2 2 6507.86 963.216 4
2 13 2 6038.99 818.255 3
2 13 3 8285.21 891.152 3
13 2 -3 8951.13 975.779 4
13 2 3 8962 1019.62 4
13 -2 -3 6900.62 869.006 4
13 -2 3 9098.73 1051.8 4
13 2 -4 7452.82 942.911 4
13 -2 -4 7183.74 880.568 4
13 2 4 6107.81 920.045 4
13 -2 4 6685.4 1040.69 4
2 13 4 7009.01 878.92 3
-2 13 -5 1461.82 748.063 4
2 13 -5 386.005 555.731 4
13 2 -5 1338.9 682.048 4
13 -2 -5 1095.05 567.04 4
13 2 5 828.97 651.82 4
13 -2 5 -194.18 760.731 4
2 13 5 936.898 640.096 3
-2 -13 6 -961.457 1159.3 5
13 2 -6 167.176 754.319 8
13 -2 -6 1000.03 904.512 8
-2 13 -6 -441.089 657.021 4
2 13 -6 670.173 591.489 4
13 2 -6 234.94 597.194 4
13 -2 6 -67.0464 786.939 4
2 13 6 960.869 645.118 3
2 -13 6 493.82 790.716 5
-2 -13 7 2369.67 1119.75 5
13 2 -7 2039.42 1098.07 8
13 -2 -7 -1013.65 972.256 8
-2 13 -7 280.692 714.146 4
2 13 -7 605.607 605.831 4
13 2 -7 2180.26 706.62 4
2 13 7 102.031 648.309 3
13 -2 7 50.3724 776.288 4
2 -13 7 208.802 855.716 5
13 -2 -8 630.794 787.22 8
13 2 -8 1024.34 794.427 8
2 -13 8 186.16 966.815 5
-2 -13 8 1438.73 1004.03 5
13 -2 -9 1250.27 963.79 8
13 2 -9 1538.19 930.441 8
2 -13 9 585.62 831.049 5
-2 -13 9 868.29 806.296 5
13 2 -10 1505.48 901.825 8
2 -13 -10 205.972 828.316 8
13 -2 -10 1748.71 881.858 8
13 -2 -11 -113.86 739.187 8
2 -13 -11 1140.92 724.187 8
2 -13 -12 988.505 643.301 8
-2 -13 -12 241.978 605.649 8
13 -2 -12 -198.793 657.074 8
2 -13 -13 1583.77 539.074 8
-2 -13 -13 1098.67 503.715 8
2 -13 -13 -259.982 466.552 7
3 13 0 23735.8 1354.27 3
13 3 0 19928 1330.9 4
13 -3 0 21305.2 1420.89 4
3 13 -1 4465.49 699.23 3
13 3 -1 4722.41 817.389 4
13 3 1 4299.53 814.913 4
13 -3 -1 3496.59 738.087 4
13 -3 1 3919.56 840.122 4
3 13 1 4222.18 718.36 3
3 13 -2 2180.77 650.265 3
13 3 -2 1446.83 675.284 4
13 -3 -2 1505.54 612.951 4
13 3 2 1831.32 664.753 4
13 -3 2 847.657 658.333 4
3 13 2 1281.92 581.49 3
13 3 -3 9.67521 572.875 4
13 -3 -3 -270.067 552.907 4
13 3 3 -796.048 662.139 4
13 -3 3 -999.281 814.488 4
3 13 3 242.854 548.777 3
13 3 -4 423.923 606.009 4
13 -3 -4 1086.79 553.618 4
13 3 4 2714.28 733.672 4
13 -3 4 1363.47 828.67 4
3 13 4 1711.5 639.863 3
-3 13 -5 869.318 669.231 4
3 13 -5 433.892 571.212 4
13 3 -5 898.265 608.456 4
13 3 5 2672.43 753.899 4
13 -3 5 648.388 724.468 4
3 13 5 750.512 564.418 3
-3 -13 6 33.5329 1003.36 5
13 3 -6 1605.15 1021.58 8
13 -3 -6 -63.7919 783.414 8
-3 13 -6 481.302 667.392 4
3 13 -6 572.003 606.913 4
13 3 -6 1270.14 630.106 4
13 -3 6 1410.53 850.314 4
3 13 6 756.31 613.117 3
3 -13 6 2156.43 1084.4 5
-3 -13 7 744.118 997.558 5
13 3 -7 310.633 771.405 8
13 -3 -7 86.293 769.631 8
-13 -3 7 513.549 700.133 3
-3 13 -7 2562.76 844.297 4
3 13 -7 366.835 584.743 4
13 3 -7 58.5507 636.573 4
13 -3 7 1529.37 827.6 4
3 13 7 134.043 603.685 3
3 -13 7 439.335 933.128 5
-3 -13 8 1515.85 943.191 5
13 -3 -8 546.174 774.69 8
13 3 -8 767.971 920.986 8
3 -13 8 1049.75 1020.46 5
13 -3 -9 587.89 839.914 8
3 -13 -9 -92.1969 789.16 8
3 -13 9 654.302 864.892 5
-3 -13 9 870.632 901.735 5
13 -3 -10 1263.66 870.173 8
3 -13 -10 1679.28 883.642 8
13 -3 -11 16.3863 698.049 8
3 -13 -11 685.319 607.543 8
13 -3 -12 1141.38 699.098 8
3 -13 -12 557.376 641.578 8
-3 -13 -12 617.301 534.283 8
3 -13 -12 164.538 541.259 7
13 -3 -13 753.565 510.98 8
3 -13 -13 370.799 438.6 8
-3 -13 -13 1085.76 443.726 8
3 -13 -13 808.394 504.458 7
4 13 0 165.342 493.555 3
13 4 0 133.08 553.043 4
13 -4 0 -854.428 584.841 4
4 13 -1 2998.08 654.243 3
13 4 -1 4646.71 821.881 4
13 4 1 5157.03 832.481 4
13 -4 -1 4680.35 803.76 4
13 -4 1 4429.87 844.178 4
4 13 1 3894.69 703.046 3
4 13 -2 1844.49 668.724 3
13 4 -2 2788.03 754.996 4
13 4 2 2029.19 668.478 4
13 -4 -2 2071.43 623.559 4
13 -4 2 1455.26 739.226 4
4 13 2 3156.1 709.051 3
13 4 -3 3229.62 755.314 4
13 -4 -3 4355.15 759.897 4
13 4 3 3157.26 784.08 4
13 -4 3 4014.73 941.801 4
4 13 3 3711.93 740.834 3
13 4 -4 1093.22 629.106 4
13 4 4 1393.11 693.904 4
13 -4 4 1426.87 760.582 4
4 13 4 819.942 549.348 3
-4 13 -5 672.483 639.037 4
4 13 -5 946.228 582.557 4
13 4 -5 -603.947 619.381 4
13 -4 5 263.566 738.779 4
4 13 5 1081.3 620.052 3
-4 -13 6 -681.928 1072.35 5
-13 -4 6 -266.39 804.274 3
13 -4 -6 -349.256 790.978 8
-4 13 -6 -494.636 733.417 4
4 13 -6 1023.68 670.354 4
13 4 -6 207.996 606.896 4
13 -4 6 -697.146 906.598 5
13 -4 6 119.829 787.489 4
4 13 6 -486.019 671.193 3
4 -13 6 -1001.07 1061.84 5
-4 -13 7 -52.971 1030.06 5
13 -4 -7 675.836 822.166 8
-13 -4 7 -1.54664 667.484 3
-4 13 -7 -172.302 605.338 4
4 13 -7 472.903 569.868 4
13 4 -7 398.682 578.037 4
13 -4 7 1115.51 813.811 4
4 13 7 846.636 608.412 3
4 -13 7 -1015.71 1022.73 5
-4 -13 8 -588.473 1029.48 5
13 -4 -8 -604.795 893.498 8
4 -13 -8 870.614 790.397 8
4 -13 8 -475.433 822.661 5
13 -4 -9 1734.5 883.184 8
4 -13 -9 240.008 784.482 8
4 -13 9 1496.13 838.309 5
-4 -13 9 1295.82 1050.05 5
13 -4 -10 908.649 681.169 8
4 -13 -10 -255.478 731.941 8
13 -4 -11 530.338 685.746 8
4 -13 -11 813.865 627.733 8
13 -4 -12 -669.424 592.464 8
4 -13 -12 -575.501 635.489 8
-4 -13 -12 -984.781 584.676 8
13 -4 -13 900.371 552.533 8
4 -13 -13 -493.59 478.697 8
5 13 0 3246.92 712.713 3
13 5 0 3236.68 723.021 4
13 -5 0 4384.64 828.073 4
5 13 -1 3987.87 720.317 3
13 5 -1 5398.69 825.346 4
13 5 1 3891.25 732.605 4
13 -5 -1 4919.8 883.271 4
13 -5 1 3523.8 860.264 4
5 13 1 5259.38 801.03 3
5 13 -2 167.464 617.46 3
13 5 -2 -1.24213 599.881 4
13 5 2 -361.651 555.459 4
13 -5 -2 644.683 659.871 4
13 -5 2 568.634 683.939 4
5 13 2 667.579 592.345 3
13 5 -3 3406.81 767.651 4
13 5 3 2874.16 715.23 4
13 -5 3 2324.48 801.504 4
5 13 3 3238.16 730.172 3
13 5 -4 7428.44 974.345 4
13 -5 4 6786.85 1131.7 4
5 13 4 7174.59 955.399 3
-5 -13 5 4907.28 1338.89 5
5 13 -5 5157.69 834.686 4
13 5 -5 6543.51 964.33 4
13 -5 5 5498.85 1045.15 4
13 -5 5 5791.44 1212.85 5
5 13 5 5491.21 957.219 3
5 -13 5 4556.06 1066.36 5
-5 -13 6 5683.91 1369.15 5
-13 -5 6 4288.83 905.751 3
13 -5 -6 6027.16 1132.32 8
5 13 -6 4379.01 830.916 4
13 5 -6 5115.35 823.551 4
13 -5 6 5072.08 1045.69 5
13 -5 6 4681.73 1014.7 4
5 13 6 6140.34 997.659 3
5 -13 6 5295.09 1212.75 5
-5 -13 7 9090.82 1494.8 5
13 -5 -7 9440.33 1286.88 8
5 -13 -7 9516.17 1272.54 8
-5 13 -7 7454.81 1008.82 4
5 13 -7 8392.67 984.199 4
13 -5 7 8220.38 1272.07 5
5 -13 7 10294 1410.26 5
-5 -13 8 2019.28 1011.38 5
13 -5 -8 1342.61 859.522 8
5 -13 -8 2868.9 956.902 8
5 -13 8 3156.69 1057.31 5
-5 -13 9 2363.33 1085.97 5
13 -5 -9 938.549 851.732 8
5 -13 -9 -444.035 707.458 8
5 -13 9 1338.9 856.342 5
13 -5 -10 -45.7031 753.481 8
5 -13 -10 1254.27 770.287 8
13 -5 -11 505.227 627.937 8
5 -13 -11 -368.077 642.837 8
13 -5 -12 602.24 551.348 8
5 -13 -12 117.041 561.314 8
-5 -13 -12 -584.134 513.574 8
13 -5 -13 -14.749 486.762 8
5 -13 -13 -303.925 432.831 8
6 13 0 57.4378 599.078 3
13 6 0 634.912 592.588 4
13 -6 0 26.2279 631.84 4
6 13 -1 811.156 617.579 3
13 6 -1 534.927 545.336 4
13 6 1 634.484 562.229 4
13 -6 -1 719.093 588.069 4
13 -6 1 -82.1513 682.459 4
6 13 1 268.91 611.133 3
6 13 -2 2701.17 759.909 3
13 6 -2 1496.71 665.347 4
13 6 2 2710.41 681.852 4
13 -6 2 2825.57 745.205 4
6 13 2 2426.57 713.014 3
13 6 -3 198.964 598.692 4
13 -6 3 291.912 713.081 4
13 6 -4 415.753 641.205 4
13 -6 4 -954.134 780.107 4
6 13 4 674.883 628.265 3
-6 -13 5 287.476 1024.28 5
6 13 -5 75.8831 626.439 4
13 6 -5 -126.944 650.866 4
13 -6 5 474.393 768.255 4
13 -6 5 1035.63 952.484 5
6 13 5 -412.006 659.106 3
6 -13 5 989.779 869.947 5
13 -6 -6 1353.89 765.892 8
6 -13 -6 512.675 812.613 8
6 13 -6 961.269 578.125 4
13 6 -6 469.275 588.857 4
13 -6 6 325.799 824.902 5
13 -6 6 373.863 705.959 4
6 13 6 2246.03 755.417 3
6 -13 6 335.922 811.386 5
-6 -13 7 2511.94 1098.28 5
13 -6 -7 1423.81 898.069 8
6 -13 -7 385.53 702.554 8
13 -6 7 911.202 742.411 5
6 -13 7 -183.934 856.126 5
-6 -13 8 463.164 972.139 5
13 -6 -8 1952.76 893.132 8
6 -13 -8 2855.78 871.258 8
6 -13 8 1836.05 903.084 5
-6 -13 9 127.236 961.349 5
13 -6 -9 865.956 725.517 8
6 -13 -9 238.221 743.545 8
6 -13 9 -1405.33 816.37 5
13 -6 -10 -456.214 729.222 8
6 -13 -10 87.8379 680.851 8
6 -13 10 -806.804 714.38 5
13 -6 -11 574.421 632.245 8
6 -13 -11 551.754 675.939 8
13 -6 -12 -156.281 492.601 8
6 -13 -12 -453.935 534.577 8
13 -6 -13 585.037 445.909 8
6 -13 -13 -823.059 415.344 8
7 13 0 17295.7 1343.15 3
13 7 0 18266.1 1316.47 4
13 -7 0 18206.4 1396.54 4
13 7 0 17802.8 1287.16 3
7 13 -1 6709.7 957.895 3
13 7 1 5671.82 816.784 3
13 7 -1 5246.31 837.072 4
13 7 1 5889.96 877.501 4
13 -7 1 5061.15 939.484 4
7 13 1 5829.54 934.936 3
7 13 -2 1371.15 681.898 3
13 7 -2 2041.76 678.673 4
13 -7 2 871.407 702.921 4
7 13 2 678.488 611.288 3
7 13 3 7874.11 1045.03 3
13 7 -3 6458.37 941.888 4
13 -7 3 6856.53 1110.44 4
-7 -13 4 10697.6 1552.5 5
7 13 4 11677.5 1199.52 3
13 7 -4 13735.9 1260.45 4
13 -7 4 11375.1 1343.31 4
13 -7 -4 10073.5 1342 6
7 -13 -4 13405.2 1482.36 6
7 -13 4 13901.6 1499.08 5
13 -7 4 13483.4 1609.04 5
7 13 5 22767 1584.45 3
7 13 -5 23765.6 1497.49 4
13 7 -5 24757.3 1624.72 4
13 -7 5 23591.1 1797.23 4
13 -7 -5 22966.2 1792.27 6
13 -7 5 24993.7 2016.23 5
7 -13 5 22424.2 1886.37 5
-7 -13 5 18050.9 1850.75 5
7 13 -6 22287.1 1490.76 4
13 -7 -6 19563 1585.31 8
7 -13 -6 20284.4 1634.64 8
13 -7 6 22145.5 1843.44 5
7 -13 6 26740.5 2010.63 5
-7 -13 6 21486.7 1969.98 5
-7 -13 7 7122.24 1428.31 5
13 -7 -7 7639.76 1170.78 8
7 -13 -7 6447.25 1111.61 8
13 -7 7 7301.13 1214.8 5
7 -13 7 7667.2 1255.59 5
-7 -13 8 2010.78 1081.59 5
13 -7 -8 966.273 735.498 8
7 -13 -8 2385.4 866.251 8
13 -7 8 2733.65 920.654 5
7 -13 8 395.482 820.268 5
-7 -13 9 -51.4477 875.696 5
13 -7 -9 927.518 757.93 8
7 -13 -9 -98.2328 719.285 8
7 -13 9 157.542 772.164 5
13 -7 -10 206.015 661.004 8
7 -13 -10 2090.92 837.382 8
7 -13 10 995.767 709.987 5
13 -7 -11 737.557 653.463 8
7 -13 -11 874.114 620.188 8
13 -7 -12 1180.96 597.001 8
7 -13 -12 839.066 522.703 8
8 13 0 -347.709 588.571 3
13 8 0 633.083 678.931 3
13 8 0 -111.398 619.489 4
8 13 1 -318.346 674.93 3
13 8 1 -1.28842 546.47 3
8 13 -1 -386.083 655.376 3
13 8 -1 -503.75 565.726 4
13 -8 1 -770.858 673.457 4
13 8 2 896.352 711.183 3
13 -8 -2 71.8108 941.365 6
13 8 -2 509.828 597.742 4
13 -8 2 -154.382 702.498 4
13 -8 2 1508.07 945.636 5
8 13 2 -235.069 618.039 3
13 -8 -3 5327.08 1213.36 6
13 -8 3 4900.32 1103.41 6
13 8 -3 4362.45 805.971 4
8 -13 -3 7262.63 1295.7 6
8 -13 3 3448.57 1014.65 6
13 -8 3 2775.15 886.399 4
13 -8 3 4076.33 1152.59 5
8 -13 3 6069.42 1213.38 5
8 13 3 6249.95 1002.74 3
-8 -13 4 10690.4 1651.99 5
8 13 4 10563.5 1204.42 3
13 8 -4 12277.7 1182.69 4
8 -13 -4 13899.5 1483.84 6
13 -8 -4 11502.2 1484.44 6
8 -13 4 10781.4 1399.53 6
13 -8 4 8899.67 1197.84 4
13 -8 4 9523.05 1354.66 5
8 -13 4 10072.1 1411.93 5
-8 -13 5 -1732.8 1270.47 5
8 13 -5 328.016 631.366 4
13 -8 -5 -279.991 900.306 6
13 8 -5 301.619 573.739 4
13 -8 5 -946.831 966.702 5
8 -13 5 202.269 920.442 5
8 13 5 -392.714 579.688 3
-8 -13 6 -268.313 1002.94 5
13 -8 6 1007.82 872.159 5
8 -13 6 1819.94 949.01 5
-8 -13 7 1541.16 946.047 5
13 -8 -7 2315.56 812.984 8
8 -13 -7 3388.43 939.402 8
13 -8 7 3222.53 1028.65 5
8 -13 7 1634.82 935.194 5
-8 -13 8 817.831 929.475 5
13 -8 -8 136.193 649.291 8
8 -13 -8 -150.62 636.805 8
13 -8 8 -11.4595 755.706 5
8 -13 8 1120.48 761.138 5
-8 -13 9 2065.09 958.342 5
13 -8 -9 1662.2 761.105 8
8 -13 -9 994.056 727.36 8
8 -13 9 1896.78 747.128 5
13 -8 -10 2105.73 752.581 8
8 -13 -10 1397.43 717.408 8
8 -13 10 2982.47 749.638 5
13 -8 -11 460.511 528.377 8
8 -13 -11 402.587 532.532 8
13 -8 -12 301.563 440.921 8
8 -13 -12 929.851 474.62 8
9 13 0 2875.31 851.723 3
13 9 0 3947.81 836.914 3
13 -9 0 3386.34 1074.17 6
9 -13 0 3425.99 1017.68 6
13 -9 0 2460.15 1049.85 5
9 13 1 3366.06 859.635 3
13 9 1 3741.1 806.708 3
9 13 -1 3521.81 845.055 3
13 -9 -1 3282.88 1012.45 6
13 -9 1 3401.37 1180.14 6
13 9 -1 3591.7 769.952 4
9 -13 -1 4456.07 1137.18 6
9 -13 1 2801.35 1000.73 6
13 -9 -1 3443.24 1079.96 5
13 -9 1 4720.49 1131.57 5
9 -13 1 4418.37 996.621 5
9 13 2 971.17 617.519 3
9 -13 2 493.702 884.605 6
13 9 2 832.428 605.877 3
13 -9 -2 110.171 851.877 6
13 -9 2 3116.58 1030.8 6
13 9 -2 120.406 582.707 4
9 -13 -2 1751.77 917.821 6
13 -9 2 1444.04 806.006 4
13 -9 2 520.79 959.442 5
9 -13 2 661.377 947.573 5
13 9 3 -483.019 653.095 3
13 -9 -3 240.219 858.823 6
13 -9 3 2724.77 1000.47 6
13 9 -3 262.478 599.006 4
9 -13 -3 -568.11 812.845 6
9 -13 3 677.559 887.199 6
13 -9 3 -530.341 829.495 4
13 -9 3 419.442 1001.54 5
9 -13 3 106.664 864.159 5
9 13 3 -603.514 771.425 3
13 -9 -4 2792.67 1026.25 6
13 9 -4 1722.8 628.241 4
9 -13 -4 1302.52 890.039 6
9 -13 4 3202.41 1001.58 6
13 -9 4 227.511 769.303 5
9 -13 4 1446.48 920.431 5
9 13 4 1472.59 687.354 3
-9 -13 5 -713.748 1146.58 5
13 -9 -5 1157.56 851.95 6
13 -9 5 -655.271 989.351 5
9 -13 5 516.834 823.308 5
-9 -13 6 836.253 988.366 5
13 -9 6 -324.075 877.357 5
9 -13 6 156.189 832.169 5
-9 -13 7 2738.81 1026.17 5
13 -9 -7 1924.43 842.828 8
9 -13 -7 2751.79 839.33 8
13 -9 7 2031.29 909.428 5
9 -13 7 3573.48 996.788 5
-9 -13 8 522.068 905.321 5
-13 -9 8 2293.07 987.106 5
13 -9 -8 1524.02 655.658 8
9 -13 -8 1632.45 763.399 8
13 -9 8 928.713 780.589 5
9 -13 8 1480.93 793.441 5
-9 -13 9 1628.06 921.594 5
13 -9 -9 684.534 601.749 8
9 -13 -9 1343.64 720.233 8
9 -13 9 1789.03 734.438 5
13 -9 -10 1074.32 625.97 8
9 -13 -10 1541.85 597.678 8
9 -13 10 1972.28 675.298 5
13 -9 -11 790.369 571.878 8
9 -13 -11 518.97 540.308 8
9 -13 -12 627.557 460.934 8
13 -9 -12 -108.483 453.264 8
10 13 0 -722.653 694.687 3
13 10 0 1415.57 645.329 3
13 -10 0 -261.698 842.778 6
10 -13 0 256.048 832.557 6
13 -10 0 -614.983 920.898 5
10 13 1 1750.04 723.432 3
13 10 1 1127.14 562.218 3
10 13 -1 1564.44 736.432 3
13 -10 -1 590.128 948.444 6
13 -10 1 857.493 931.836 6
10 -13 -1 236.872 792.329 6
10 -13 1 915.285 902.736 6
13 -10 -1 2068.57 1027.63 5
13 -10 1 1622.09 1033.51 5
10 -13 1 1790.78 910.429 5
10 13 2 841.31 615.783 3
13 10 2 645.356 641.688 3
13 -10 -2 26.2643 840.481 6
13 -10 2 -404.329 865.473 6
13 10 -2 -670.163 630.056 4
10 -13 -2 -832.637 890.99 6
10 -13 2 635.566 857.693 6
13 -10 2 131.373 974.855 5
10 -13 2 1089.97 849.371 5
13 10 3 364.278 656.38 3
13 -10 -3 1549.76 974.261 6
13 -10 3 -100.135 756.647 6
13 10 -3 -212.633 655.687 4
10 -13 -3 481.571 965.061 6
10 -13 3 184.067 790.157 6
13 -10 3 221.378 917.058 5
10 -13 3 202.892 772.575 5
10 13 3 1645.59 718.666 3
13 -10 -4 225.222 914.604 6
10 -13 -4 839.558 910.072 6
10 -13 4 71.622 786.483 6
13 -10 4 1960.96 1009.27 5
10 -13 4 1291.07 805.718 5
-10 -13 5 -989.556 1095.2 5
13 -10 -5 845.834 814.572 6
13 -10 5 -211.894 771.92 5
10 -13 5 -1506.09 1015.04 5
-10 -13 6 -1223.07 1023.21 5
13 -10 6 -140.42 764.744 5
10 -13 6 554.589 771.004 5
-10 -13 7 1205.79 992.168 5
13 -10 7 -210.806 733.35 5
10 -13 7 818.888 752.479 5
-10 -13 8 927.255 919.926 5
-13 -10 8 683.401 878.875 5
13 -10 -8 -375.69 633.312 8
10 -13 -8 212.357 616.641 8
13 -10 8 -869.846 703.376 5
10 -13 8 -649.968 692.831 5
-10 -13 9 770.962 804.272 5
13 -10 -9 -610.496 626.407 8
10 -13 -9 701.126 604.329 8
13 -10 9 1095.23 682.687 5
10 -13 9 306.797 596.44 5
13 -10 -10 -554.386 581.811 8
10 -13 -10 711.528 512.694 8
13 -10 -11 -265.673 473.422 8
10 -13 -11 89.6869 464.938 8
13 -11 0 4019.86 1090.51 6
11 -13 0 2051.76 930.042 6
13 -11 0 3059.78 965.075 5
11 -13 0 1662.56 939.804 5
13 -11 -1 2835.8 917.037 6
13 -11 1 2955.14 1078.12 6
11 -13 -1 1092.44 867.918 6
11 -13 1 1744.24 881.038 6
13 -11 1 2457.26 976.644 5
11 -13 1 674.613 899.675 5
13 -11 -2 1555.43 960.198 6
13 -11 2 2865.26 988.777 6
11 -13 -2 2652.49 961.39 6
11 -13 2 2228.86 888.147 6
13 -11 2 4067.49 1185.12 5
11 -13 2 3955.18 1020.15 5
13 -11 -3 733.706 951.429 6
13 -11 3 1013.12 847.906 6
11 -13 -3 1829.67 893 6
11 -13 3 2888.59 1023.7 6
13 -11 3 1386.61 943.092 5
11 -13 3 1789.81 1014.46 5
13 -11 -4 1509.59 940.172 6
13 -11 4 1888.8 892.414 6
11 -13 -4 2274.47 919.572 6
11 -13 4 1012.83 787.98 6
13 -11 4 1123.28 906.804 5
11 -13 4 979.073 953.189 5
-11 -13 5 788.454 1022.64 5
13 -11 -5 1036.35 808.452 6
11 -13 -5 2329.8 901.503 6
13 -11 5 1804.69 936.227 5
11 -13 5 1324.69 835.295 5
-11 -13 6 234.283 983.837 5
13 -11 6 -659.868 742.691 5
11 -13 6 1296.46 862.484 5
-11 -13 7 69.2263 865.674 5
-13 -11 7 937.577 897.436 5
13 -11 7 -206.151 691.397 5
11 -13 7 204.59 811.02 5
-11 -13 8 1648.45 856.372 5
-13 -11 8 -698.609 813.543 5
13 -11 -8 556.991 599.406 8
11 -13 -8 -1019.55 624.044 8
13 -11 8 -919.349 679.076 5
11 -13 8 336.667 677.933 5
-11 -13 9 595.714 798.336 5
13 -11 -9 262.072 569.345 8
11 -13 -9 -791.231 596.951 8
13 -11 9 -284.926 616.43 5
11 -13 9 1854.9 704.306 5
13 -11 -10 977.699 579.315 8
11 -13 -10 -107.272 523.785 8
13 -11 -11 972.287 465.442 8
11 -13 -11 714.949 457.79 8
13 -12 0 9.17529 831.291 6
12 -13 0 388.191 859.526 6
13 -12 0 1455.43 942.391 5
12 -13 0 59.8029 798.888 5
13 -12 -1 859.885 876.165 6
13 -12 1 -267.127 874.131 6
12 -13 -1 357.008 838.508 6
12 -13 1 -180.051 786.091 6
13 -12 1 -416.966 899.48 5
12 -13 1 927.503 914.241 5
13 -12 -2 2162.19 894.862 6
13 -12 2 1467.86 918.636 6
12 -13 -2 3865.1 1054.41 6
12 -13 2 843.69 824.495 6
13 -12 2 2498.52 975.798 5
12 -13 2 711.026 851.657 5
13 -12 -3 998.405 865.477 6
13 -12 3 1888.98 884.807 6
12 -13 -3 391.409 855.983 6
12 -13 3 1265.29 825.302 6
13 -12 3 1800.68 1032.65 5
12 -13 3 2413.82 978.171 5
13 -12 -4 1771.02 886.457 6
13 -12 4 1525.29 871.462 6
12 -13 -4 2175.93 977.049 6
12 -13 4 3112.82 897.596 6
13 -12 4 1576.58 918.681 5
12 -13 4 2165.83 916.411 5
-12 -13 5 -556.253 1035.35 5
13 -12 -5 -743.936 791.711 6
12 -13 -5 1174.47 840.811 6
13 -12 5 970.651 720.874 5
12 -13 5 376.98 830.202 5
-12 -13 6 -397.143 916.612 5
-13 -12 6 -1117.01 1082.21 5
13 -12 6 -346.16 780.271 5
12 -13 6 72.2693 755.563 5
-12 -13 7 969.144 896.503 5
-13 -12 7 1176.89 910.804 5
13 -12 7 -169.52 701.041 5
12 -13 7 481.078 642.013 5
-12 -13 8 515.955 757.035 5
-13 -12 8 1140.53 811.211 5
13 -12 8 115.317 642.999 5
12 -13 8 327.257 621.372 5
-12 -13 9 -347.144 691.278 5
13 -12 -9 -224.177 495.233 8
12 -13 -9 -78.8169 469.094 8
13 -12 9 47.6695 516.871 5
12 -13 9 -9.52899 529.616 5
13 -12 -10 -65.8757 419.367 8
12 -13 -10 142.393 450.823 8
13 -13 0 2369.82 974.59 6
13 -13 0 1840.42 878.566 5
13 -13 -1 -147.036 803.751 6
13 -13 1 548.09 822.403 6
13 -13 1 336.662 787.029 5
13 -13 -2 -232.106 853.088 6
13 -13 2 1989.23 961.696 6
13 -13 2 1427.28 814.259 5
13 -13 -3 202.841 797.181 6
13 -13 3 -531.297 821.32 6
13 -13 3 139.575 751.301 5
13 -13 -4 172.313 766.16 6
13 -13 4 826.253 759.752 6
13 -13 4 1296.25 829.456 5
-13 -13 5 662.113 860.122 5
13 -13 -5 1233.37 764.704 6
13 -13 5 2324.82 928.796 5
-13 -13 6 407.346 971.996 5
13 -13 6 2146.48 878.041 5
-13 -13 7 2900.47 949.622 5
13 -13 7 2034.51 759.508 5
-13 -13 8 393.862 686.401 5
13 -13 8 -333.462 547.891 5
-13 -13 9 168.32 579.145 5
13 -13 9 21.379 450.47 5
14 0 0 314227 5124.68 4
14 0 -1 79522 2603.13 4
14 0 1 82700.5 2708.89 4
14 0 -2 19187.8 1467.64 4
14 0 2 18828.2 1439.66 4
14 0 -3 678.398 599.748 4
14 0 3 -270.07 658.326 4
14 0 -4 3339.83 749.942 4
14 0 4 4211.24 955.829 4
14 0 -5 14939.3 1493.83 8
14 0 -5 18636.5 1381.34 4
14 0 5 18447.3 1559.73 4
0 -14 5 15808.9 1829.53 5
0 14 6 44761 2053.98 3
0 14 -6 40928.5 1941.55 4
14 0 -6 42774.1 2006.22 4
14 0 6 42638 2275.52 4
14 0 -6 47125 2500.11 8
0 -14 6 47602.7 2628.57 5
14 0 -7 17537.8 1675.11 8
0 -14 7 17227.9 1752.98 5
14 0 -8 17046.5 1606.26 8
0 -14 8 13598.3 1609.19 5
14 0 -9 3449.51 983.136 8
0 -14 9 2059.98 897.245 5
14 0 -10 1003.95 815.92 8
0 -14 10 -822.856 729.041 5
0 -14 -11 -369.607 662.952 8
0 -14 -12 268.409 530.972 8
0 -14 -13 5498.1 597.085 8
0 -14 -13 2730.32 533.734 7
14 1 0 1961.87 803.2 4
14 -1 0 3264.87 857.564 4
14 1 -1 411.611 661.041 4
14 -1 -1 1006.6 713.783 4
14 1 1 1239.67 743.866 4
14 -1 1 2005.71 785.834 4
14 1 -2 -115.133 615.502 4
14 -1 -2 1048.21 663.283 4
14 1 2 -497.695 646.931 4
14 -1 2 72.3339 673.9 4
14 1 -3 203.48 579.244 4
14 -1 -3 138.522 579.393 4
14 1 3 -52.2001 596.757 4
14 -1 3 307.988 691.468 4
1 14 3 -18.472 482.219 3
14 1 -4 1857.45 699.799 4
14 -1 -4 2115.46 665.978 4
14 1 4 1524.39 716.445 4
14 -1 4 2049.13 844.419 4
1 14 4 2626.42 674.779 3
-1 -14 5 1925.48 1254.92 5
14 1 -5 2036.92 889.453 8
14 -1 -5 2958.99 1033.77 8
14 1 -5 3787.12 842.805 4
14 -1 -5 4046.58 827.286 4
14 1 5 2455.65 833.954 4
14 -1 5 3073.31 873.883 4
1 14 5 3283.07 790.542 3
1 -14 5 3766.78 1201.49 5
-1 -14 6 929.268 1047.91 5
14 1 -6 2925.13 1036.1 8
14 -1 -6 3999.79 1006.71 8
-1 14 -6 2104.51 800.026 4
1 14 -6 2217.92 742.016 4
14 1 -6 3315.13 827.861 4
14 1 6 2793.87 885.669 4
14 -1 6 3459.19 956.163 4
1 14 6 3166.21 800.203 3
1 -14 6 2687.82 1124.4 5
14 1 -7 874.484 830.173 8
14 -1 -7 -93.7499 729.274 8
1 -14 7 -2130.07 1110.17 5
-1 -14 7 -1266.36 1042.19 5
14 1 -8 -105.044 897.96 8
14 -1 -8 715.38 927.153 8
1 -14 8 -627.629 1043.08 5
-1 -14 8 -646.416 1133.91 5
14 1 -9 2993 935.571 8
14 -1 -9 4204.34 1074.83 8
1 -14 9 2188.31 941.702 5
-1 -14 9 2737.68 919.927 5
14 1 -10 1858.65 815.614 8
14 -1 -10 3039.2 933.891 8
1 -14 -10 2484.76 893.812 8
1 -14 10 1294.47 792.254 5
-1 -14 10 2344.87 791.526 5
14 -1 -11 1798.32 810.745 8
1 -14 -11 968.313 666.589 8
-1 -14 -11 2024.52 704.411 8
1 -14 -12 191.05 535.598 8
-1 -14 -12 878.919 570.031 8
1 -14 -13 792.774 442.248 8
-1 -14 -13 -689.183 443.849 8
2 14 0 29946 1508.26 3
14 2 0 29557.6 1666.67 4
14 -2 0 33003.5 1787.35 4
2 14 1 88864.3 2549.84 3
14 2 -1 81390.9 2653.65 4
14 2 1 87422.3 2787.5 4
14 -2 -1 86880.3 2744.85 4
14 -2 1 86502.8 2819.78 4
2 14 2 38136.7 1752.71 3
14 2 -2 35887.1 1820.88 4
14 -2 -2 32206.2 1709.73 4
14 2 2 35476.1 1845.93 4
14 -2 2 33449.3 1870.46 4
14 2 -3 4379.46 814.442 4
14 -2 -3 4356.44 809.373 4
14 2 3 4153.88 817.346 4
14 -2 3 3479.54 941.667 4
2 14 3 3517.64 702.688 3
14 2 -4 2866.69 813.005 4
14 -2 -4 3181.97 752.558 4
14 2 4 2618.35 823.599 4
14 -2 4 2632.43 836.65 4
2 14 4 4694.33 828.316 3
2 14 5 18540 1382.18 3
14 -2 -5 16970 1537.44 8
14 2 -5 19290.2 1434.52 4
14 2 5 15898.8 1458.29 4
14 -2 5 17188.1 1572.69 4
2 -14 5 17729.5 1741.01 5
-2 -14 5 18693.6 1933.08 5
2 14 6 17661.5 1369.49 3
-2 14 -6 16917.9 1375.09 4
2 14 -6 16932.9 1330.03 4
14 2 -6 18701.6 1706.07 8
14 -2 -6 17839.2 1677.97 8
14 2 -6 16458.5 1298.42 4
14 -2 6 17708.1 1558.09 4
2 -14 6 17662.3 1714.49 5
-2 -14 6 19626.9 1834.61 5
14 2 -7 36306.5 2277.18 8
14 -2 -7 35517.9 2151.73 8
2 -14 7 37712.6 2321.5 5
-2 -14 7 36719.2 2418.16 5
14 2 -8 18084.1 1719.86 8
14 -2 -8 18983.4 1648.1 8
2 -14 8 17419.3 1720.15 5
-2 -14 8 18147.6 1775.44 5
14 -2 -9 5773.87 1136.37 8
2 -14 9 6272.68 1145.64 5
-2 -14 9 6795.68 1126.98 5
14 -2 -10 398.309 792.659 8
2 -14 -10 925.733 723.506 8
2 -14 10 -1769.75 743.245 5
-2 -14 10 -1111.49 748.938 5
14 -2 -11 1407.95 756.199 8
2 -14 -11 3725.12 883.658 8
-2 -14 -11 3699.2 832.536 8
14 -2 -12 8008.11 944.58 8
2 -14 -12 9937.98 944.553 8
-2 -14 -12 8081.87 873.086 8
2 -14 -13 2812.53 506.74 8
3 14 0 912.628 584.701 3
14 3 0 1005.99 672.478 4
14 -3 0 -31.5119 634.547 4
3 14 -1 5598.57 818.137 3
14 3 -1 4742.4 853.277 4
14 3 1 5309.93 948.649 4
14 -3 -1 5150.47 889.388 4
14 -3 1 4050.34 832.743 4
3 14 1 5169.44 807.615 3
3 14 -2 7397.86 894.344 3
14 3 -2 5624.73 908.459 4
14 -3 -2 7437.16 980.682 4
14 3 2 7217.68 1018.52 4
14 -3 2 6255.67 1041.72 4
3 14 2 7202.64 892.914 3
3 14 3 13161.2 1158.01 3
14 3 -3 13836.1 1218.86 4
14 -3 -3 12909.6 1194.72 4
14 3 3 12929.7 1231.1 4
14 -3 3 12911.7 1316.21 4
3 14 4 9053.61 1059.29 3
14 3 -4 8298.75 1040.66 4
14 -3 -4 6569.79 922.514 4
14 3 4 8787 1138.53 4
14 -3 4 7344.41 1145.49 4
-3 -14 5 15438.3 1768.13 5
3 14 5 17077.7 1378.03 3
14 -3 -5 14705.3 1493.13 8
14 3 -5 16763.3 1364.56 4
14 -3 5 14688.8 1497.41 4
3 -14 5 17452.5 1676.58 5
-3 -14 6 5567.34 1342.56 5
14 -3 -6 5542.47 1054.93 8
-3 14 -6 4743.65 893.931 4
3 14 -6 5461.48 908.553 4
14 3 -6 5365.77 889.183 4
14 -3 6 3790.18 965.146 4
3 14 6 4774.62 838.06 3
3 -14 6 4386.56 1075.74 5
-3 -14 7 237.047 991.327 5
14 -3 -7 1134.55 868.64 8
3 -14 7 -438.488 1034.87 5
14 -3 -8 3106.05 1026.02 8
3 -14 8 2246.19 943.689 5
-3 -14 8 2496.56 1122.57 5
14 -3 -9 6441.54 1108.12 8
3 -14 -9 8396.08 1189.55 8
3 -14 9 7011.96 1127.44 5
-3 -14 9 7449.09 1274.27 5
14 -3 -10 6742.5 1020.71 8
3 -14 -10 8621.17 1127.92 8
3 -14 10 7119.53 1012.04 5
-3 -14 10 5213.21 990.75 5
3 -14 -11 3798.55 822.258 8
14 -3 -11 4484.88 878.81 8
14 -3 -12 2268.8 646.961 8
3 -14 -12 1347.97 613.938 8
-3 -14 -12 1660.78 572.787 8
3 -14 -13 945.954 422.189 8
4 14 0 64014 2301.68 3
14 4 0 56755.1 2237.89 4
14 -4 0 58795.4 2358.49 4
4 14 1 24542.5 1477.49 3
4 14 -1 22977.4 1443.23 3
14 4 -1 23745.4 1535.47 4
14 4 1 21716.2 1474.81 4
14 -4 -1 25215.7 1558.54 4
14 -4 1 22890.9 1607.46 4
4 14 2 16200.8 1257.99 3
4 14 -2 16340.2 1234.75 3
14 4 -2 15762.4 1299.57 4
14 4 2 14429.9 1249.23 4
14 -4 -2 16455.7 1315.48 4
14 -4 2 16570.7 1466.02 4
14 4 -3 4337.22 880.83 4
14 -4 -3 1825.12 653.948 4
14 4 3 4871.65 910.376 4
14 -4 3 4330.62 993.068 4
4 14 3 4766.27 832.515 3
-4 -14 4 640.425 1030.04 5
14 4 -4 1031.09 693.122 4
14 4 4 1103.56 724.598 4
14 -4 4 1254.68 847.173 4
14 -4 4 2356.5 988.348 5
4 14 4 155.711 578.639 3
4 -14 4 -715.177 817.256 5
-4 -14 5 8946.72 1583.92 5
4 14 5 9340.54 1097.11 3
14 4 -5 10055.6 1136.2 4
14 -4 -5 7978.3 1151.38 8
14 -4 5 7632.08 1213.1 4
14 -4 5 9451.93 1389.47 5
4 -14 5 8403.61 1365.02 5
-4 -14 6 11841.4 1622.38 5
4 14 6 13398.7 1263.74 3
4 14 -6 14174.6 1266.54 4
14 -4 -6 14648.6 1441.02 8
14 4 -6 14063.9 1279.19 4
14 -4 6 13361 1410.71 4
14 -4 6 14908.1 1585.26 5
4 -14 6 11951.6 1400.22 5
-4 -14 7 6303.21 1296.93 5
14 -4 -7 6270.49 1085.4 8
4 -14 7 6673.74 1298.65 5
-4 -14 8 6878.45 1270.13 5
14 -4 -8 6071.18 1124.23 8
4 -14 -8 6648.67 1127.93 8
4 -14 8 7376.12 1269.8 5
14 -4 -9 1028.7 776.297 8
4 -14 -9 1480.98 890.515 8
4 -14 9 2758.15 892.648 5
-4 -14 9 3294.48 1006.87 5
14 -4 -10 481.299 758.15 8
4 -14 -10 195.624 649.326 8
4 -14 10 1406.66 684.506 5
-4 -14 10 -972.754 738.367 5
14 -4 -11 1584.68 732.769 8
4 -14 -11 2008.11 719.452 8
14 -4 -12 2205.17 678.598 8
4 -14 -12 2641 664.85 8
-4 -14 -12 1285.85 558.457 8
4 -14 -13 4126.89 571.214 8
5 14 0 1143.85 680.239 3
14 5 0 170.002 593.06 4
14 -5 0 1354.18 762.894 4
5 14 -1 1266.92 629.29 3
14 5 -1 855.63 661.636 4
14 5 1 1830.35 692.698 4
14 -5 -1 720.854 614.267 4
14 -5 1 2616.62 802.392 4
5 14 1 2585.76 771.491 3
5 14 2 31292.1 1719.74 3
5 14 -2 35169 1821.46 3
14 5 -2 31641.2 1764.48 4
14 5 2 33928.4 1817.88 4
14 -5 -2 34508.3 1777.16 4
14 -5 2 33924.8 1970.74 4
5 14 3 33016.1 1790.49 3
14 5 -3 35876.3 1880.98 4
14 5 3 32073.5 1752.98 4
14 -5 3 32492.8 1983.16 4
5 14 4 36900.9 1932.23 3
14 5 -4 37376.1 1942.68 4
14 -5 4 36465.9 2111.48 4
14 -5 -4 35850.5 2217.76 6
5 -14 -4 41422.4 2279.25 6
5 -14 4 33887.3 2039.29 6
14 -5 4 37728.1 2391.09 5
5 -14 4 36005.7 2300.1 5
-5 -14 4 35918.3 2438.37 5
5 14 5 18738 1425.06 3
14 5 -5 15490.4 1314.41 4
14 -5 5 17669.8 1593.55 4
14 -5 -5 15531.7 1592.99 6
14 -5 5 16241.7 1704.82 5
5 -14 5 17660.5 1747.99 5
-5 -14 5 17640.7 1779.11 5
-5 -14 6 10640.9 1510.85 5
14 -5 -6 11428.3 1365.48 8
14 -5 6 9955.94 1365.49 5
5 -14 6 10358.9 1393.66 5
-5 -14 7 31.6695 967.852 5
14 -5 -7 148.769 786.688 8
5 -14 -7 384.293 740.628 8
14 -5 7 335.07 877.039 5
5 -14 7 973.735 854.267 5
-5 -14 8 4825.27 1149.84 5
14 -5 -8 2804.84 854.945 8
5 -14 -8 1985.31 826.673 8
5 -14 8 3444.13 1073.37 5
14 -5 -9 10304 1260.56 8
5 -14 -9 11260.4 1265.65 8
5 -14 9 9679.31 1203.61 5
-5 -14 9 12490.6 1431.06 5
14 -5 -10 13716.2 1306.96 8
5 -14 -10 12285 1266.6 8
5 -14 10 13159.1 1240.79 5
-5 -14 10 14025.1 1341.74 5
14 -5 -11 8359.17 1046.31 8
5 -14 -11 11151.6 1099.04 8
14 -5 -12 669.178 549.588 8
-5 -14 -12 42.8888 467.71 8
6 14 0 1033.46 600.815 3
14 6 0 557.284 602.799 4
14 -6 0 1549.1 669.828 4
6 14 1 8793.21 1032.46 3
6 14 -1 8149.72 1038.32 3
14 6 -1 8679.51 1060.51 4
14 6 1 11151.8 1152.39 4
14 -6 -1 9751.66 1124.11 4
14 -6 1 9252.82 1196.28 4
6 14 -2 7348.96 1024.42 3
14 6 -2 4744.82 921.576 4
14 6 2 3985.91 838.319 4
14 -6 2 4395.77 954.124 4
14 -6 2 3361.26 1181.6 5
6 14 2 5235.79 893.988 3
-6 -14 3 5890.65 1405.27 5
14 -6 -3 6928.7 1268.59 6
14 -6 3 3899.56 1098.61 6
14 6 -3 4267.01 880.782 4
6 -14 -3 5289.28 1189.97 6
6 -14 3 4853.32 1069.75 6
14 -6 3 5296.13 1011.29 4
14 -6 3 4182.56 1148.44 5
6 -14 3 4906.76 1191.83 5
6 14 3 6299.36 974.659 3
-6 -14 4 781.085 1168.14 5
14 -6 -4 -809.135 972.677 6
14 6 -4 883.463 689.528 4
6 -14 -4 1801.28 1015.26 6
6 -14 4 2122.58 901.679 6
14 -6 4 1363.08 911.651 4
14 -6 4 -302.197 1006.15 5
6 14 4 2284.51 816.477 3
6 -14 4 170.112 834.931 5
-6 -14 5 1010.29 1033.71 5
14 -6 -5 2084.43 887.087 6
14 6 -5 2739.46 739.073 4
14 -6 5 2339.57 1006.36 5
14 -6 5 3185.21 882.71 4
6 14 5 3742.15 771.96 3
6 -14 5 1221.2 924.521 5
-6 -14 6 3134.05 1072.73 5
14 -6 -6 1402.6 842.062 8
6 -14 -6 642.368 730.191 8
14 -6 6 671.806 963.555 5
6 -14 6 2782.93 1095.79 5
-6 -14 7 664.224 1163.44 5
14 -6 -7 3014.87 959.707 8
6 -14 -7 2337.82 878.388 8
14 -6 7 2595.19 936.381 5
6 -14 7 2481.52 965.309 5
-6 -14 8 936.259 860.216 5
14 -6 -8 241.348 708.707 8
6 -14 -8 553.679 771.785 8
6 -14 8 65.2613 783.517 5
-6 -14 9 2748.08 1039.57 5
14 -6 -9 806.694 673.786 8
6 -14 -9 958.404 738.483 8
6 -14 9 2292.67 834.199 5
14 -6 -10 2774.35 826.64 8
6 -14 -10 1625.09 710.991 8
6 -14 10 2256.02 684.951 5
14 -6 -11 1726.56 697.93 8
6 -14 -11 1218.27 592.574 8
14 -6 -12 1709.72 542.621 8
6 -14 -12 1868.28 504.993 8
7 14 0 790.226 616.975 3
14 -7 0 499.407 843.719 6
14 7 0 39.1618 604.63 4
7 -14 0 230.583 839.02 6
14 -7 0 -661.855 775.334 4
14 -7 0 80.3994 1019.11 5
7 14 1 5986.33 1024.38 3
7 14 -1 6583.21 1003.4 3
-7 -14 1 6536.88 1384.33 5
14 -7 -1 6506.4 1271.98 6
14 -7 1 5769.9 1193.12 6
14 7 -1 6209.88 932.256 4
7 -14 -1 7075.5 1192.74 6
7 -14 1 4979.48 1056.99 6
14 7 1 7556.77 1012.35 4
14 -7 1 5406.37 1004.34 4
14 -7 -1 5757.23 1246.03 5
14 -7 1 4181.02 1286.3 5
7 -14 1 8754.14 1311.72 5
-7 -14 2 6323.22 1243.83 5
14 -7 -2 9095.79 1432.25 6
14 -7 2 8200.3 1291.39 6
14 7 -2 8258.66 1043.98 4
7 -14 -2 6531.58 1237.98 6
7 -14 2 8735.16 1251.24 6
14 -7 2 7324.09 1059.7 4
14 -7 2 8297.4 1371.69 5
7 -14 2 7370.67 1221.88 5
7 14 2 8779.35 1021.37 3
14 -7 3 44438.7 2315.99 4
7 14 3 41580 2072.56 3
14 7 -3 46173 2144.59 4
14 -7 -3 46410.5 2511.52 6
14 -7 3 39249.8 2263.8 6
7 -14 -3 45613.4 2380.2 6
7 -14 3 43813.1 2336.74 6
14 -7 3 44756.4 2539.99 5
7 -14 3 42938 2419.68 5
-7 -14 3 40519 2570.44 5
7 14 4 52151.9 2282.39 3
14 7 -4 51799 2272.12 4
14 -7 4 52726.3 2510.62 4
14 -7 -4 55481.8 2670.53 6
7 -14 -4 53769.9 2546.48 6
7 -14 4 49996.8 2412.49 6
14 -7 4 49537.3 2751.09 5
7 -14 4 51676.2 2653.72 5
-7 -14 4 43652.9 2666 5
14 -7 -5 25478.1 1872.72 6
14 -7 5 24756.7 1940.49 5
7 -14 5 25446.1 1915.98 5
-7 -14 5 25543.3 2108.78 5
-7 -14 6 9556.89 1443.16 5
14 -7 6 7708.17 1277.3 5
7 -14 6 6343.97 1240.54 5
-7 -14 7 -186.851 901.41 5
14 -7 -7 -382.782 704.386 8
7 -14 -7 -426.533 718.631 8
14 -7 7 1071.58 735.776 5
7 -14 7 234.607 757.355 5
-7 -14 8 -498.49 1007.03 5
14 -7 -8 1116.75 763.152 8
7 -14 -8 1405.75 774.056 8
14 -7 8 597.52 748.552 5
7 -14 8 665.597 709.617 5
14 -7 -9 14976.8 1338.05 8
7 -14 -9 16839.9 1359.49 8
7 -14 9 13592.2 1306.11 5
-7 -14 9 16333.6 1531.01 5
14 -7 -10 19304.9 1384.97 8
7 -14 -10 18095.6 1325.33 8
7 -14 10 18046.7 1274.71 5
14 -7 -11 6830.8 847.03 8
7 -14 -11 6404.66 818.149 8
7 -14 -12 6390.46 707.346 8
14 -7 -12 5840.79 684.01 8
8 14 0 320.906 612.841 3
-8 -14 0 1476.63 1174.03 5
14 -8 0 -247.069 916.698 6
8 -14 0 -424.524 912.184 6
14 8 0 178.984 579.762 4
14 -8 0 -3.7519 850.534 5
8 14 1 4100.63 900.668 3
8 14 -1 3434.09 802.469 3
-8 -14 1 4145.55 1245.87 5
14 -8 -1 1970.86 952.335 6
14 -8 1 2136.59 1009.59 6
14 8 -1 5049.41 909.917 4
8 -14 -1 2498.39 999.418 6
8 -14 1 3223.89 1028.49 6
14 -8 1 2464.98 838.109 4
14 -8 -1 2858.96 1205.71 5
14 -8 1 3884.62 1165.53 5
8 -14 1 2551.36 1120.02 5
8 14 2 -307.457 592.741 3
-8 -14 2 36.3931 1028.14 5
14 -8 -2 75.9985 906.996 6
14 -8 2 724.909 886.041 6
14 8 -2 573.262 752.87 4
8 -14 -2 865.312 901.563 6
8 -14 2 -580.803 911.617 6
14 -8 2 617.741 815.512 4
14 -8 2 -1.95887 920.791 5
8 -14 2 701.685 928.593 5
-8 -14 3 2021.2 1171.39 5
14 -8 -3 720.963 892.832 6
14 -8 3 -531.33 824.963 6
14 8 -3 1669.82 739.07 4
8 -14 -3 570.331 941.483 6
8 -14 3 -166.745 817.872 6
14 -8 3 584.827 786.35 4
14 -8 3 975.465 922.669 5
8 -14 3 -688.629 798.925 5
8 14 3 -208.363 636.447 3
-8 -14 4 4063.19 1319.82 5
14 -8 -4 5655.8 1241.39 6
8 -14 -4 7874.19 1299.22 6
8 -14 4 5114 1112.29 6
14 -8 4 7680.52 1334.22 5
8 -14 4 5422.92 1130.47 5
-8 -14 5 1552.19 1129.84 5
14 -8 -5 517.341 891.861 6
14 -8 5 663.116 807.066 5
8 -14 5 2067.61 1086.5 5
-8 -14 6 1305.9 1026.49 5
14 -8 6 477.613 808.078 5
8 -14 6 786.606 796.083 5
-8 -14 7 -653.344 995.05 5
14 -8 -7 -1099.87 750.548 8
8 -14 -7 -16.9596 681.245 8
14 -8 7 -658.789 860.249 5
8 -14 7 28.1343 780.126 5
-8 -14 8 -453.449 954.966 5
14 -8 -8 -20.9244 658.11 8
8 -14 -8 425.83 669.816 8
14 -8 8 -1540.56 796.792 5
8 -14 8 202.483 695.968 5
-8 -14 9 3033.3 856.528 5
14 -8 -9 2944.61 791.042 8
8 -14 -9 2488.73 741.594 8
8 -14 9 1467.37 688.678 5
14 -8 -10 299.372 577.119 8
8 -14 -10 492.962 584.076 8
8 -14 10 -4.29791 507.942 5
14 -8 -11 194.914 508.942 8
8 -14 -11 1039.57 516.863 8
14 -8 -12 296.863 400.703 8
8 -14 -12 212.567 387.358 8
9 14 0 -301.631 608.668 3
14 -9 0 661.485 886.648 6
9 -14 0 480.698 800.454 6
14 -9 0 -1900.81 964.287 5
9 14 1 2968.25 732.986 3
9 14 -1 3450.34 794.142 3
14 -9 -1 4104.5 1071.41 6
14 -9 1 4112.18 1057.7 6
9 -14 -1 2869.62 957.27 6
9 -14 1 3949.32 1073.97 6
14 9 -1 4293.78 871.214 4
14 -9 -1 6413.9 1211.27 5
14 -9 1 4511.4 1142.34 5
9 -14 1 4143.98 1062.45 5
9 14 2 42535.3 2097.97 3
14 9 -2 36991.4 1940.63 4
14 -9 -2 45421.7 2530.44 6
14 -9 2 39593 2290.32 6
9 -14 -2 43884.4 2424.16 6
9 -14 2 41197.8 2281.76 6
14 -9 2 41659.3 2493.81 5
9 -14 2 40556.1 2310.35 5
14 -9 -3 40678.6 2361.18 6
14 -9 3 36625.5 2191.96 6
9 -14 -3 37065 2255.16 6
9 -14 3 39128.9 2233.66 6
14 -9 3 34870.6 2300.29 5
9 -14 3 38258 2265.4 5
-9 -14 3 30315.1 2290.79 5
14 -9 -4 27716.2 1993.96 6
9 -14 -4 26501 1914.72 6
9 -14 4 29305.3 1907.3 6
14 -9 4 25048.3 1997.88 5
9 -14 4 26047.9 1920.1 5
-9 -14 4 24737.4 2137.94 5
-9 -14 5 7759.6 1418.12 5
14 -9 -5 9813.4 1235.01 6
14 -9 5 10653.5 1392.04 5
9 -14 5 9116.87 1227.71 5
-9 -14 6 2737.86 1171.68 5
14 -9 6 838.608 876.298 5
9 -14 6 1554.9 905.751 5
-9 -14 7 1473.58 1109.11 5
14 -9 7 979.18 776.445 5
9 -14 7 546.762 828.482 5
-9 -14 8 10196.4 1379.82 5
-14 -9 8 8297.28 1217.86 5
14 -9 -8 9576.83 1078.64 8
9 -14 -8 9423.72 1041.21 8
14 -9 8 6868.44 1060.24 5
9 -14 8 8763.47 1180.98 5
-9 -14 9 4940.43 945.907 5
14 -9 -9 4392.47 799.521 8
9 -14 -9 3811.02 742.3 8
9 -14 9 5506.39 897.544 5
14 -9 -10 4499.31 763.802 8
9 -14 -10 4245.43 713.247 8
9 -14 10 4966.69 732.029 5
14 -9 -11 8125.43 790.36 8
9 -14 -11 8598.24 773.467 8
14 -10 0 10290.1 1464.94 6
10 -14 0 12730.9 1454.21 6
14 -10 0 10517.4 1410.08 5
14 -10 -1 3069 1096.82 6
14 -10 1 2792.58 917.963 6
10 -14 -1 2434.37 1052.3 6
10 -14 1 3557.83 1024.94 6
14 -10 -1 3145.88 1049.41 5
14 -10 1 1375.88 739.291 5
10 -14 1 1892.23 840.006 5
14 -10 -2 1456.81 939.598 6
14 -10 2 384.642 810.2 6
10 -14 -2 2170.13 980.103 6
10 -14 2 3035.34 1013.65 6
14 -10 2 2197.68 1050.34 5
10 -14 2 2256.2 931.144 5
-10 -14 3 -366.014 1101.79 5
14 -10 -3 -356.731 888.938 6
14 -10 3 255.923 809.627 6
10 -14 -3 1326.37 819.086 6
10 -14 3 644.788 798.426 6
14 -10 3 1628.03 1017.39 5
10 -14 3 287.814 757.314 5
-10 -14 4 -1007.96 1170.04 5
14 -10 -4 1130.96 914.308 6
14 -10 4 1784.28 822.587 6
10 -14 -4 1684.3 900.192 6
10 -14 4 1675.61 869.913 6
14 -10 4 630.295 860.875 5
10 -14 4 555.743 843.796 5
-10 -14 5 -196.51 1141.03 5
14 -10 -5 200.8 784.51 6
14 -10 5 1310.57 1015.74 5
10 -14 5 -383.927 869.169 5
-10 -14 6 2355.6 1092.98 5
14 -10 6 4828.59 1094.27 5
10 -14 6 4173.24 1045.19 5
-10 -14 7 3351.14 1106.36 5
14 -10 7 727.192 759.524 5
10 -14 7 3073.93 927.006 5
-10 -14 8 2256.66 893.736 5
-14 -10 8 2877.33 888.527 5
14 -10 -8 2237.03 694.979 8
10 -14 -8 1334.15 632.44 8
14 -10 8 2910.22 772.618 5
10 -14 8 2001.7 749.523 5
-10 -14 9 426.711 681.435 5
14 -10 -9 1009.34 608.22 8
10 -14 -9 462.855 515.073 8
10 -14 9 834.397 652.696 5
14 -10 -10 2888.63 620.665 8
10 -14 -10 2362.48 574.465 8
10 -14 10 2924.85 556.44 5
14 -10 -11 635.624 405.501 8
10 -14 -11 445.847 395.857 8
14 -11 0 -732.107 842.817 6
11 -14 0 287.962 814.362 6
14 -11 0 1017.55 899.339 5
14 -11 -1 6774.65 1254.61 6
14 -11 1 5483.84 1163.89 6
11 -14 -1 7410.35 1206.06 6
11 -14 1 5920.21 1180.45 6
14 -11 1 7138.03 1165.52 5
11 -14 1 4640.38 1058.16 5
14 -11 -2 5321.93 1097.83 6
14 -11 2 6019.02 1165.8 6
11 -14 -2 6882.72 1202.53 6
11 -14 2 6033.03 1156.06 6
14 -11 2 6852.43 1215.48 5
11 -14 2 8301.84 1205.18 5
14 -11 -3 16709.9 1563.21 6
14 -11 3 15663.7 1512.29 6
11 -14 -3 17105.2 1614 6
11 -14 3 18797.7 1645.27 6
14 -11 3 15669.8 1574.75 5
11 -14 3 17598 1633.22 5
-11 -14 4 8552.91 1378.21 5
11 -14 4 11537.5 1319.29 6
14 -11 -4 9543.05 1263.48 6
14 -11 4 9204.47 1190.35 6
11 -14 -4 9242.74 1274.73 6
14 -11 4 10342 1364.69 5
11 -14 4 10195.8 1326.41 5
-11 -14 5 5017.99 1185.07 5
14 -11 -5 6489.32 1095.59 6
11 -14 -5 7265.39 1106.39 6
14 -11 5 6021.01 1258.58 5
11 -14 5 9395 1227.38 5
-11 -14 6 -719.119 974.085 5
14 -11 6 462.118 829.597 5
11 -14 6 639.449 794.98 5
-11 -14 7 219.618 880.558 5
-14 -11 7 908.535 898.398 5
14 -11 7 -242.13 654.925 5
11 -14 7 1965.1 842.07 5
-11 -14 8 3410.22 911.387 5
-14 -11 8 2675.23 872.335 5
14 -11 8 2832.55 689.561 5
11 -14 8 2503.76 787.705 5
-11 -14 9 2854.1 777.947 5
14 -11 -9 3727.02 641.153 8
11 -14 -9 2760.79 584.227 8
11 -14 9 3097.69 712.299 5
14 -11 -10 2331.32 537.691 8
11 -14 -10 1853.79 517.278 8
14 -12 0 3028.41 949.887 6
12 -14 0 4929.63 1041.24 6
14 -12 0 3168.91 965.333 5
14 -12 1 11535.6 1367.59 6
14 -12 -1 9776.88 1370.98 6
12 -14 -1 10931 1380.75 6
12 -14 1 10017.6 1319.38 6
14 -12 1 9995.9 1359.41 5
12 -14 1 8501.03 1248.33 5
14 -12 -2 6012.28 1204.16 6
14 -12 2 5777.69 1045.86 6
12 -14 -2 6663.95 1144.84 6
12 -14 2 6140.51 1075.35 6
14 -12 2 8090.99 1243.93 5
12 -14 2 8332.61 1248.55 5
14 -12 -3 1145.68 812.19 6
14 -12 3 1281.44 776.474 6
12 -14 -3 295.665 793.358 6
12 -14 3 2081.6 901.806 6
14 -12 3 949.459 934.48 5
12 -14 3 1963.32 961.547 5
-12 -14 4 299.24 939.386 5
14 -12 4 603.293 724.075 6
12 -14 -4 -441.941 801.503 6
12 -14 4 1512.59 832.968 6
14 -12 4 480.374 710.599 5
12 -14 4 243.696 739.253 5
14 -12 -4 859.608 832.775 6
-12 -14 5 2954.01 1038.31 5
14 -12 -5 5480.39 1072.3 6
12 -14 -5 6001.88 1059.34 6
14 -12 5 4647.46 1071.15 5
12 -14 5 5176.88 1091.59 5
-12 -14 6 4366.11 1091.52 5
-14 -12 6 7167.19 1215.75 5
14 -12 6 6068.74 1040.18 5
12 -14 6 6836.51 1043.07 5
-12 -14 7 9943.8 1210.3 5
-14 -12 7 7746.61 1147.77 5
14 -12 7 10830 1155.69 5
12 -14 7 10611.7 1200.11 5
-12 -14 8 3981.37 887.179 5
-14 -12 8 5403.76 925.998 5
14 -12 8 5750.34 876.373 5
12 -14 8 6535.14 904.942 5
-12 -14 9 2571.31 634.763 5
12 -14 9 3538.96 637.654 5
14 -13 0 1425.55 874.062 6
13 -14 0 434.869 749.468 6
14 -13 0 -15.7845 790.151 5
14 -13 -1 1925.63 934.168 6
14 -13 1 58.4683 841.436 6
13 -14 -1 1509.38 902.333 6
13 -14 1 518.397 724.636 6
14 -13 1 -1247.81 728.53 5
13 -14 1 784.989 775.933 5
14 -13 -2 3736.86 954.432 6
14 -13 2 3604.88 931.069 6
13 -14 -2 3907.24 1025.57 6
13 -14 2 4483.26 1001.05 6
14 -13 2 5194.88 1049.8 5
13 -14 2 4817.88 1039.26 5
14 -13 -3 4889.03 1015.6 6
14 -13 3 5011.96 1004.93 6
13 -14 -3 4042.67 1026.56 6
13 -14 3 4016.35 947.274 6
14 -13 3 4995.94 1032.07 5
13 -14 3 4563.76 1031.33 5
-13 -14 4 2050.39 920.714 5
14 -13 -4 1734.84 778.572 6
14 -13 4 2442.98 806.374 6
13 -14 -4 1943.4 845.906 6
13 -14 4 3025.4 825.161 6
14 -13 4 1867.17 890.354 5
13 -14 4 1994.92 841.92 5
-13 -14 5 -87.1297 772.444 5
-14 -13 5 -32.7574 878.211 5
14 -13 -5 342.895 689.479 6
13 -14 -5 -253.216 739.169 6
14 -13 5 1404.03 833.464 5
13 -14 5 311.333 758.026 5
-13 -14 6 1207.98 763.496 5
-14 -13 6 599.141 797.469 5
14 -13 6 -14.1179 724.756 5
13 -14 6 261.611 664.329 5
-13 -14 7 1584.45 813.531 5
-14 -13 7 1495.58 770.027 5
14 -13 7 188.243 647.13 5
13 -14 7 1614.87 629.227 5
-13 -14 8 1557.73 693.276 5
-14 -13 8 1644.4 702.872 5
14 -13 8 558.386 605.757 5
13 -14 8 332.297 572.021 5
13 -14 9 1805.13 491.057 5
14 -14 0 30344.8 1906.34 6
14 -14 -1 5642.89 1027.48 6
14 -14 1 6191.01 1038.72 6
14 -14 1 5693.67 1004.27 5
14 -14 -2 4190.7 1007.15 6
14 -14 2 3825.1 889.373 6
14 -14 2 4265.71 901.789 5
-14 -14 3 941.145 942.516 5
14 -14 -3 747.697 784.342 6
14 -14 3 294.49 691.215 6
14 -14 3 159.557 653.822 5
-14 -14 4 722.099 862.123 5
14 -14 -4 -650.106 701.749 6
14 -14 4 -76.2304 656.924 6
14 -14 4 78.1492 661.909 5
-14 -14 5 2671.03 868.393 5
14 -14 -5 5265.63 903.286 6
14 -14 5 4062.68 915.144 5
-14 -14 6 9681.24 1175.77 5
14 -14 6 11779 1141.21 5
-14 -14 7 5855.31 938.276 5
14 -14 7 7112.16 895.042 5
-14 -14 8 5464.46 768.795 5
14 -14 8 7380.44 764.806 5
15 0 0 -299.007 669.689 4
15 0 -1 11788.1 1214.2 4
15 0 1 11456.7 1241.93 4
15 0 -2 14525.6 1322.24 4
15 0 2 11476.1 1265.65 4
15 0 -3 2685.05 777.045 4
15 0 3 2587.97 893.805 4
0 -15 3 2486.24 938.479 6
0 -15 3 1101.59 1035.38 5
15 0 -4 -535.764 708.9 4
0 -15 4 1609.13 959.102 6
15 0 4 389.327 725.741 4
0 -15 4 635.785 1052.07 5
15 0 -5 -1320.37 856.313 8
15 0 -5 1407.18 718.02 4
15 0 5 -667.546 726.695 4
0 -15 5 621.563 810.789 5
15 0 -6 -1176.28 868.419 8
0 -15 6 931.579 1073.99 5
15 0 -7 1556.45 875.775 8
0 -15 7 366.997 945.188 5
15 0 -8 6349.74 1078.39 8
0 -15 8 7330.66 1224.46 5
15 0 -9 6243.41 1048.91 8
0 -15 9 7505.68 1214.1 5
0 -15 -10 488.193 682.817 8
0 -15 10 2071.33 741.342 5
0 -15 -11 -122.149 585.774 8
0 -15 -12 1757.2 509.387 8
15 1 0 31274.8 1784.07 4
15 -1 0 29699.8 1776.89 4
15 1 -1 1756.23 801.32 4
15 -1 -1 471.482 625.508 4
15 1 1 1018.84 654.393 4
15 -1 1 -167.026 658.124 4
15 1 -2 780.575 666.475 4
15 -1 -2 752.343 670.266 4
15 1 2 2414.35 810.113 4
15 -1 2 745.732 682.756 4
-1 -15 3 248.379 982.785 5
15 1 -3 770.243 729.635 4
15 -1 -3 574.709 651.878 4
15 1 3 511.453 657.58 4
1 -15 3 1206.32 914.076 6
15 -1 3 898.646 736.28 4
-1 -15 3 374.962 893.165 6
1 -15 3 2809.21 1115.56 5
-1 -15 4 1134.69 1093.89 5
15 -1 -4 -792.632 924.288 8
15 1 -4 374.309 651.377 4
15 -1 -4 322.551 646.824 4
1 -15 4 138.649 883.741 6
15 1 4 -960.768 757.159 4
-1 -15 4 -579.8 926.474 6
15 -1 4 550.96 813.866 4
1 -15 4 125.408 900.234 5
-1 -15 5 -427.881 995.423 5
15 -1 -5 41.9095 822.24 8
15 1 -5 -2.79242 572.218 4
15 -1 -5 66.1585 626.451 4
15 1 5 -886.077 788.715 4
15 -1 5 688.721 671.074 4
1 -15 5 1266.07 1127.26 5
15 -1 -6 16.2177 815.043 8
1 -15 6 689.066 986.119 5
-1 -15 6 -444.814 899.998 5
15 -1 -7 3446.51 936.507 8
1 -15 7 2997.62 1130.76 5
-1 -15 7 5581.76 1223.78 5
15 -1 -8 1622.78 933.275 8
1 -15 8 1716.96 834.042 5
-1 -15 8 1330.56 956.741 5
15 -1 -9 1767.9 763.186 8
1 -15 9 859.179 848.772 5
-1 -15 9 206.94 874.223 5
15 -1 -10 866.555 709.325 8
1 -15 -10 -644.217 679.011 8
1 -15 10 -417.302 637.799 5
-1 -15 10 -977.827 760.308 5
1 -15 -11 402.935 604.884 8
-1 -15 -11 -919.698 600.669 8
1 -15 -12 2485.28 576.442 8
-1 -15 -12 -414.685 467.394 8
15 2 0 -58.1512 633.249 4
15 -2 0 1132.13 715.395 4
15 2 -1 2877.62 794.208 4
15 2 1 2328.44 709.726 4
15 -2 -1 4810.3 902.322 4
15 -2 1 2495.57 824.937 4
15 2 -2 2317.77 739.643 4
15 -2 -2 2404.49 776.918 4
15 2 2 2401.05 676.852 4
15 -2 2 2481.56 843.63 4
-2 -15 3 1564.4 1191.89 5
15 2 -3 2924.46 843.883 4
15 -2 -3 1643.73 681.165 4
2 -15 -3 2310.99 917.247 6
2 -15 3 1479.61 871.581 6
15 2 3 2277.98 846.575 4
15 -2 3 2675.21 933.62 4
-2 -15 -3 -111.845 1027.9 6
-2 -15 3 1258.86 892.493 6
2 15 3 2882.66 771.688 3
2 -15 3 4588.56 1223.06 5
-2 -15 4 -718.592 1174.43 5
15 2 -4 -37.1099 623.358 4
15 -2 -4 -1044.05 681.614 4
2 -15 -4 -1617.14 1153.8 6
2 -15 4 -1120.5 897.077 6
15 2 4 -372.345 687.637 4
-2 -15 4 -1978.43 1055.32 6
15 -2 4 -335.69 769.868 4
2 15 4 1171.31 650.478 3
2 -15 4 -176.256 892.874 5
-2 -15 5 -1708.4 1148.57 5
15 -2 -5 -784.161 799.255 8
15 2 -5 238.813 552.927 4
15 2 5 -1056.3 665.333 4
15 -2 5 -144.426 777.482 4
2 15 5 -475.299 586.999 3
2 -15 5 -55.8033 910.376 5
-2 -15 6 886.061 948.037 5
15 -2 -6 2642.77 942.658 8
2 -15 6 1035.38 972.217 5
15 -2 -7 1457.02 834.289 8
2 -15 7 1474.1 877.224 5
-2 -15 7 1812.64 1086.24 5
15 -2 -8 2452.63 967.712 8
2 -15 8 2063.71 1031.91 5
-2 -15 8 1703.04 924.711 5
15 -2 -9 317.955 682.163 8
2 -15 -9 -582.199 779.733 8
2 -15 9 1448.58 864.885 5
-2 -15 9 -202.803 832.896 5
15 -2 -10 -633.328 740.009 8
2 -15 -10 1591.48 730.42 8
2 -15 10 -226.194 629.665 5
-2 -15 10 -886.291 652.837 5
2 -15 -11 69.9354 619.524 8
-2 -15 -11 -352.459 580.031 8
2 -15 -12 -202.424 451.499 8
-2 -15 -12 41.6558 471.16 8
3 15 0 189.629 573.361 3
15 3 0 345.56 644.879 4
15 -3 0 969.691 730.642 4
3 15 1 5479.08 862.365 3
15 3 -1 5220.31 942.33 4
15 3 1 5125.74 923.194 4
15 -3 -1 5095.04 935.086 4
15 -3 1 5495.58 1001.84 4
15 -3 -2 122.542 958.871 6
15 3 -2 1297.76 654.534 4
15 -3 -2 962.017 699.37 4
15 3 2 -189.818 664.981 4
3 -15 -2 424.429 943.975 6
3 -15 2 1139.95 810.442 6
15 -3 2 1327.55 803 4
3 15 2 863.536 603.107 3
-3 -15 3 3075.26 1280.75 5
15 3 -3 2996.72 840.201 4
15 -3 -3 3403.35 819.409 4
3 -15 -3 3152.12 1008.64 6
3 -15 3 2441.94 956.969 6
15 3 3 2997.99 817.443 4
15 -3 3 2740.3 920.085 4
-3 -15 -3 963.315 987.286 6
-3 -15 3 2027.65 912.671 6
3 15 3 3243.41 792.823 3
3 -15 3 4838.28 1208.17 5
-3 -15 4 287.961 1167.15 5
15 3 -4 1522.09 756.162 4
3 -15 -4 -1731.38 1053.29 6
3 -15 4 63.048 817.322 6
15 3 4 696.886 727.905 4
-3 -15 4 185.122 848.713 6
15 -3 4 -490.721 732.688 4
3 15 4 468.558 592.848 3
3 -15 4 1713.78 1025.61 5
-3 -15 5 -693.508 1159.24 5
15 -3 -5 -112.842 762.953 8
15 3 -5 471.683 541.92 4
15 -3 5 135.383 696.854 4
3 15 5 -591.128 538.25 3
3 -15 5 792.08 861.959 5
-3 -15 6 1545.06 1003.37 5
15 -3 -6 1678.91 965.54 8
3 -15 6 771.422 828.924 5
-3 -15 7 1866.31 1108.78 5
15 -3 -7 614.641 826.719 8
3 -15 7 967.36 950.027 5
15 -3 -8 1605.99 843.196 8
3 -15 8 542.233 742.539 5
-3 -15 8 -467.885 903.452 5
15 -3 -9 2660.83 838.682 8
3 -15 -9 3613.17 865.292 8
3 -15 9 2614.07 883.975 5
-3 -15 9 2998.84 1036.55 5
15 -3 -10 3675.48 876.359 8
3 -15 -10 3172.06 823.954 8
3 -15 10 4623.06 881.957 5
-3 -15 10 4251.73 894.702 5
15 -3 -11 1129.11 669.66 8
3 -15 -11 1703.08 641.994 8
-3 -15 -11 1108.59 567.464 8
3 -15 -12 -87.4156 425.801 8
-3 -15 -12 42.353 446.863 8
4 15 0 -133.747 674.342 3
15 -4 0 136.723 820.98 6
15 4 0 -29.9627 628.534 4
4 -15 0 -122.289 830.746 6
15 -4 0 -1246.73 752.831 4
4 15 1 551.239 618.898 3
4 15 -1 1839.19 727.953 3
15 -4 1 3237.85 1076.8 6
15 -4 -1 2076.67 1098.59 6
15 4 -1 1575.78 744.895 4
15 4 1 2718.26 817.355 4
4 -15 -1 1626.09 899.967 6
4 -15 1 1296.37 818.11 6
15 -4 -1 1173.82 674.329 4
15 -4 1 332.457 710.276 4
-4 -15 2 1345.32 1137.35 5
15 -4 -2 3574.97 1151.03 6
15 -4 2 5645.52 1200.37 6
15 4 -2 3198.72 814.738 4
4 -15 -2 2725.37 1067.35 6
4 -15 2 5862.3 1162.1 6
15 4 2 4579.2 920.744 4
15 -4 -2 2809.2 786.541 4
15 -4 2 4487.33 1017.56 4
4 -15 2 6042.05 1154.07 5
4 15 2 3632.32 840.82 3
-4 -15 3 4236.54 1349.17 5
15 -4 3 4364.27 1065.42 6
15 -4 -3 4074.6 1162.33 6
15 4 -3 2454.05 757.346 4
4 -15 -3 2120.3 880.611 6
4 -15 3 3940.81 958.834 6
15 -4 -3 2326.41 751.521 4
15 4 3 2423.35 736.016 4
15 -4 3 4011.84 963.69 4
-4 -15 -3 4511.26 1246.99 6
4 15 3 3221.54 780.183 3
4 -15 3 4273.33 1130.36 5
-4 -15 4 1828.26 1144.42 5
15 4 -4 3550.18 842.16 4
4 -15 -4 2026.74 947.312 6
4 -15 4 3520.9 1035.05 6
15 -4 4 3081.88 947.011 4
4 15 4 3645.14 745.832 3
4 -15 4 2474.12 905.808 5
-4 -15 5 2464.97 1113.13 5
-4 -15 5 -351.457 895.816 6
4 -15 5 2319.02 1002.07 5
-4 -15 6 1241.54 1052.87 5
15 -4 -6 466.199 754.601 8
4 -15 6 11.5048 827.787 5
-4 -15 7 1542.99 975.516 5
15 -4 -7 1369.45 741.272 8
4 -15 7 941.748 982.936 5
15 -4 -8 583.16 828.747 8
4 -15 -8 -632.475 805.26 8
4 -15 8 565.158 834.476 5
-4 -15 8 -160.946 888.872 5
15 -4 -9 -113.369 728.23 8
4 -15 -9 -1445.36 816.168 8
4 -15 9 191.404 708.754 5
-4 -15 9 812.708 814.111 5
15 -4 -10 486.743 612.175 8
4 -15 -10 -986.194 702.123 8
4 -15 10 -912.353 679.846 5
-4 -15 10 -1293.11 708.908 5
15 -4 -11 72.5745 525.132 8
4 -15 -11 952.732 574.969 8
-4 -15 -11 -715.485 595.514 8
4 -15 -12 490.112 450.533 8
-4 -15 -12 2110.68 496.83 8
5 15 0 11715.4 1160.74 3
15 5 0 10258.4 1151.74 4
15 -5 0 10982.4 1271.89 4
15 -5 0 11969 1462.47 6
5 -15 0 12470.6 1416 6
5 15 1 -526.171 681.534 3
-5 -15 1 -1121.11 1164.72 5
5 15 -1 506.517 602.258 3
15 -5 1 1211.88 923.553 6
15 -5 -1 839.983 885.273 6
15 5 -1 250.893 635.856 4
15 5 1 -118.535 689.581 4
5 -15 -1 -844.812 923.083 6
5 -15 1 77.9222 878.65 6
15 -5 -1 1237.5 780.893 4
15 -5 1 -275.637 741.071 4
5 -15 1 609.126 951.678 5
-5 -15 2 2759.47 1127.85 5
15 -5 2 4786.84 1081.15 6
15 -5 -2 4036.46 1136.49 6
15 5 -2 1971.48 756.193 4
5 -15 -2 2707.15 941.404 6
5 -15 2 2620.31 955.594 6
15 5 2 1222.41 738.148 4
15 -5 -2 2832.58 846.299 4
15 -5 2 3657.94 890.839 4
15 -5 2 3788.55 1201.01 5
5 -15 2 3934.37 1126.67 5
5 15 2 3177.97 791.732 3
-5 -15 3 10416.5 1546.91 5
5 15 3 12960.4 1260.89 3
15 5 -3 11187.1 1168.74 4
15 -5 3 12532.5 1364.09 4
15 -5 3 9637.26 1264.34 6
15 -5 -3 12003.4 1473.26 6
5 -15 -3 11559.1 1422.73 6
5 -15 3 11017.4 1367.03 6
15 -5 3 13547.4 1496.19 5
5 -15 3 14309.2 1527.75 5
-5 -15 4 5384.93 1326.21 5
15 -5 -4 7202.02 1317.92 6
15 5 -4 7356.52 1008.79 4
5 -15 -4 7021.17 1176.3 6
5 -15 4 6906.12 1201.43 6
15 -5 4 7372.01 1175.84 4
15 -5 4 6607.84 1285.89 5
5 -15 4 7359.51 1220.08 5
5 15 4 6813.73 934.721 3
-5 -15 5 3477.18 1228.45 5
-5 -15 5 4371.62 1087.84 6
15 -5 5 3997.39 1172.06 5
5 -15 5 5415.38 1147.31 5
-5 -15 6 4408.99 1290.07 5
15 -5 -6 4859.42 1017.85 8
5 -15 -6 4120.02 897.167 8
5 -15 6 4985.02 1104.62 5
-5 -15 7 996.327 1004.33 5
15 -5 -7 -329.775 780.148 8
5 -15 -7 -781.107 735.136 8
5 -15 7 -180.452 811.566 5
-5 -15 8 -11.0946 890.117 5
15 -5 -8 303.379 717.042 8
5 -15 -8 -563.66 682.486 8
5 -15 8 2060.9 932.764 5
15 -5 -9 1343.83 783.393 8
5 -15 -9 3051 809.065 8
5 -15 9 1587.44 784.288 5
-5 -15 9 3737.64 970.386 5
15 -5 -10 410.933 647.519 8
5 -15 -10 495.008 662.406 8
5 -15 10 -778.526 603.519 5
-5 -15 10 -1109.17 695.02 5
15 -5 -11 -466.907 571.46 8
5 -15 -11 -1181.5 599.274 8
-5 -15 -11 -857.137 578.021 8
5 -15 -12 -168.964 420.68 8
6 15 0 -1241.24 789.303 3
15 -6 0 -1323.29 976.527 6
15 6 0 172.103 677.844 4
6 -15 0 916.883 953.352 6
15 -6 0 -79.5367 723.563 4
6 15 1 1259.45 688.162 3
-6 -15 1 2152.6 994.684 5
6 15 -1 2533.7 754.119 3
15 -6 -1 1210.24 990.149 6
15 -6 1 -218.337 971.985 6
15 6 -1 2763.01 823.243 4
6 -15 -1 2386.53 994.001 6
6 -15 1 1425.45 905.006 6
15 6 1 2286.71 753.819 4
15 -6 -1 2464.66 832.911 4
15 -6 1 1193.67 890.35 4
15 -6 1 2206.32 1106.67 5
6 -15 1 436.331 855.196 5
-6 -15 2 2851.29 1203.87 5
15 -6 2 112.601 881.106 6
15 6 -2 972.859 636.392 4
6 -15 -2 1945.57 918.045 6
6 -15 2 540.796 899.481 6
15 6 2 542.583 664.937 4
15 -6 2 -646.498 829.73 4
15 -6 -2 103.169 895.498 6
15 -6 2 436.178 873.734 5
6 -15 2 1278.28 858.286 5
6 15 2 423.938 607.122 3
-6 -15 3 2975.89 1267.55 5
15 -6 3 1438.12 867.411 6
15 -6 -3 2218.89 1062.48 6
15 6 -3 1695.54 666.664 4
6 -15 -3 1986.32 1003.02 6
6 -15 3 1344.3 926.533 6
15 -6 3 102.646 684.553 4
15 -6 3 1965.02 868.262 5
6 -15 3 1.81239 940.686 5
6 15 3 -210.665 621.518 3
-6 -15 4 1886.02 1139.33 5
15 -6 -4 642.737 947.404 6
6 -15 -4 2047.04 997.455 6
6 -15 4 2185.04 924.609 6
15 -6 4 1014.17 940.4 5
6 -15 4 2789.23 1042.43 5
-6 -15 5 5465.45 1399.01 5
15 -6 5 2853.28 1117.89 5
-6 -15 6 1459.98 1143.76 5
15 -6 -6 135.408 698.889 8
6 -15 -6 1256.53 756.888 8
15 -6 6 1499.88 880.919 5
6 -15 6 936.186 763.875 5
-6 -15 7 1266.57 1006.21 5
15 -6 -7 2240.37 877.728 8
6 -15 -7 -77.5983 733.99 8
6 -15 7 854.705 875.324 5
-6 -15 8 -1667.95 983.659 5
15 -6 -8 240.26 669.202 8
6 -15 -8 -375.395 683.462 8
6 -15 8 -543.862 853.16 5
15 -6 -9 358.09 636.746 8
6 -15 -9 1161.76 651.389 8
6 -15 9 -491.885 729.727 5
-6 -15 9 451.675 741.799 5
15 -6 -10 408.372 632.138 8
6 -15 -10 589.501 617.324 8
6 -15 10 246.045 540.275 5
-6 -15 10 411.218 634.378 5
15 -6 -11 -193.689 504.171 8
6 -15 -11 986.298 573.408 8
-6 -15 -11 -163.693 544.625 8
6 -15 -12 836.756 442.571 8
7 15 0 1351.52 635.012 3
15 -7 0 835.617 865.985 6
7 -15 0 829.778 905.932 6
15 7 0 193.826 644.009 4
15 -7 0 -510.836 808.505 4
7 15 1 1762.21 668.698 3
-7 -15 1 663.156 1067.23 5
7 15 -1 627.255 603.717 3
15 -7 -1 1705.64 957.009 6
15 -7 1 1086.02 904.429 6
15 7 -1 1056.92 632.986 4
7 -15 -1 676.691 785.491 6
7 -15 1 919.541 871.565 6
15 7 1 2027.02 808.608 4
15 -7 1 2536.03 926.051 4
15 -7 1 597.185 799.125 5
7 -15 1 697.317 866.418 5
-7 -15 2 357.318 1098.16 5
15 -7 -2 -758.531 862.464 6
15 -7 2 146.156 885.238 6
15 7 -2 316.152 575.594 4
7 -15 -2 1384.65 956.296 6
7 -15 2 549.449 787.008 6
15 -7 2 574.531 701.036 4
15 -7 2 475.292 994.225 5
7 -15 2 480.716 920.519 5
-7 -15 3 1207.75 1098.61 5
15 -7 -3 -331.543 968.975 6
15 -7 3 -211.74 892.672 6
7 -15 -3 -117.074 872.238 6
7 -15 3 151.243 852.548 6
15 -7 3 2754.97 1061.96 5
7 -15 3 588.56 777.221 5
15 -7 -4 22753.7 1839.71 6
7 -15 -4 26818.5 1910.45 6
7 -15 4 24359.3 1795.85 6
15 -7 4 23887.4 1970.2 5
7 -15 4 23984.2 1808.56 5
-7 -15 4 21331.2 2000.13 5
15 -7 -5 27439.3 1888.91 6
15 -7 5 23782 1978.33 5
7 -15 5 26914.1 2009.3 5
-7 -15 5 24753.9 2080.74 5
-7 -15 6 3558.15 1176.16 5
15 -7 6 4742.9 1007.03 5
7 -15 6 5325.27 1055.79 5
-7 -15 7 623.848 1052.78 5
15 -7 -7 539.616 657.373 8
7 -15 -7 953.849 732.747 8
15 -7 7 -1003.66 766.475 5
7 -15 7 -759.328 823.124 5
-7 -15 8 1437.94 899.909 5
15 -7 -8 459.693 624.136 8
7 -15 -8 1184.56 683.446 8
7 -15 8 74.0476 796.513 5
15 -7 -9 1352.95 695.713 8
7 -15 -9 774.068 630.165 8
7 -15 9 888.579 686.854 5
-7 -15 9 1281.2 812.906 5
15 -7 -10 1621.54 611.559 8
7 -15 -10 1471.95 636.962 8
-7 -15 10 195.067 585.688 5
15 -7 -11 175.086 454.143 8
7 -15 -11 824.341 513.587 8
-7 -15 -11 -670.832 442.475 8
15 -8 0 399.555 906.452 6
8 -15 0 -253.977 807.51 6
15 -8 0 917.223 914.967 5
-8 -15 1 80.3783 1018.88 5
15 -8 -1 -53.89 833.645 6
15 -8 1 279.991 826.323 6
8 -15 -1 -198.883 906.701 6
8 -15 1 784.344 794.602 6
15 -8 1 2316.38 975.804 5
8 -15 1 -802.337 783.804 5
-8 -15 2 9015.67 1495.46 5
15 -8 -2 8250.27 1304.17 6
15 -8 2 10478.5 1335.39 6
8 -15 -2 9751.66 1290.82 6
8 -15 2 9034.37 1252.86 6
15 -8 2 12311.9 1523.01 5
8 -15 2 10000.6 1407.11 5
-8 -15 3 6453.44 1287.09 5
15 -8 -3 8013.35 1259.87 6
15 -8 3 6427.24 1205.47 6
8 -15 -3 8021.9 1256.17 6
8 -15 3 6343.32 1152.87 6
15 -8 3 6991.78 1293.87 5
8 -15 3 8439.36 1310.25 5
-8 -15 4 3509.48 1141.53 5
15 -8 -4 3961.05 1056.18 6
8 -15 -4 4665.9 1109.79 6
8 -15 4 3762.31 993.755 6
15 -8 4 3484.14 970.003 5
8 -15 4 1933.68 948.207 5
-8 -15 5 912.01 1094.62 5
15 -8 -5 -550.89 856.492 6
15 -8 5 521.307 872.952 5
8 -15 5 -541.789 760.282 5
-8 -15 6 -435.7 1019.22 5
15 -8 6 -379.398 695.424 5
8 -15 6 -852.458 875.595 5
-8 -15 7 982.283 967.617 5
15 -8 7 -61.3313 757.626 5
8 -15 7 -220.162 841.925 5
-8 -15 8 3550.63 885.477 5
15 -8 -8 4490.72 813.394 8
8 -15 -8 2637.31 729.472 8
8 -15 8 3710.24 937.621 5
15 -8 -9 608.368 588.007 8
8 -15 -9 -210.417 577.221 8
8 -15 9 573.48 627.434 5
-8 -15 9 658.112 704.83 5
15 -8 -10 691.049 548.966 8
8 -15 -10 272.784 483.17 8
8 -15 10 1517.76 552.503 5
15 -8 -11 1657.25 534.226 8
8 -15 -11 3182.86 572.656 8
-9 -15 0 1301.35 1009.41 5
15 -9 0 4478.94 1113.15 6
9 -15 0 2857.1 1047.98 6
15 -9 0 3649.63 1131.43 5
-9 -15 1 -711.708 1072.25 5
15 -9 -1 1616.3 973.314 6
15 -9 1 -575.089 939.138 6
9 -15 -1 -728.956 833.873 6
9 -15 1 -198.017 834.561 6
15 -9 1 -432.047 788.539 5
9 -15 1 -604.648 860.73 5
-9 -15 2 -194.058 1172.55 5
15 -9 -2 -1418.37 899.408 6
15 -9 2 -567.378 805.732 6
9 -15 -2 40.5186 924.704 6
9 -15 2 -132.6 770.438 6
15 -9 2 152.778 891.494 5
9 -15 2 -690.482 804.814 5
-9 -15 3 1642.52 1032.72 5
15 -9 -3 2606.03 980.114 6
15 -9 3 1393.46 919.539 6
9 -15 -3 2414.39 978.966 6
9 -15 3 2676.47 955.57 6
15 -9 3 859.368 957.093 5
9 -15 3 1258.6 811.485 5
-9 -15 4 -598.035 1165.78 5
15 -9 -4 -733.98 874.593 6
9 -15 -4 36.6653 810.383 6
9 -15 4 -171.423 709.973 6
15 -9 4 271.708 880.797 5
9 -15 4 -643.543 817.188 5
-9 -15 5 2809.75 1199.69 5
15 -9 -5 748.426 867.782 6
15 -9 5 247.465 785.35 5
9 -15 5 381.743 799.422 5
-9 -15 6 2728.23 1087.97 5
15 -9 6 1152.07 750.672 5
9 -15 6 1645.87 893.403 5
-9 -15 7 -400.15 909.62 5
15 -9 7 1169.3 806.246 5
9 -15 7 32.8539 739.707 5
-9 -15 8 1096.41 849.412 5
15 -9 -8 -639.12 618.016 8
9 -15 -8 201.536 564.566 8
9 -15 8 -479.59 629.333 5
-9 -15 9 2065.26 738.093 5
15 -9 -9 1331.67 545.185 8
9 -15 -9 1328.63 594.568 8
9 -15 9 2355.41 660.06 5
15 -9 -10 819.928 511.118 8
9 -15 -10 623.751 431.412 8
9 -15 10 1230.06 485.48 5
-10 -15 0 -650.304 979.428 5
15 -10 0 -135.071 890.923 6
10 -15 0 -1022.09 808.154 6
15 -10 0 1337.23 876.998 5
-10 -15 1 4641.96 1224.72 5
15 -10 -1 4264.49 1071.38 6
15 -10 1 5039.72 1085.91 6
10 -15 -1 5507.74 1107.87 6
10 -15 1 5189.05 1061.48 6
15 -10 1 4717.71 1078.51 5
10 -15 1 6217.46 1189.88 5
-10 -15 2 458.641 1079.46 5
15 -10 -2 -590.351 806.483 6
15 -10 2 -340.84 775.432 6
10 -15 -2 843.02 816.238 6
10 -15 2 -209.918 793.672 6
15 -10 2 -214.912 811.713 5
10 -15 2 -498.038 931.497 5
-10 -15 3 -1414.92 1035.16 5
15 -10 -3 838.838 835.977 6
15 -10 3 502.542 723.5 6
10 -15 -3 149.403 755.477 6
10 -15 3 -24.8685 765.261 6
15 -10 3 -495.414 870.868 5
10 -15 3 906.891 884.021 5
-10 -15 4 -60.3482 936.07 5
15 -10 -4 589.842 760.029 6
15 -10 4 -50.6544 756.198 6
10 -15 -4 416.455 769.721 6
10 -15 4 142.714 790.562 6
15 -10 4 314.146 831.519 5
10 -15 4 -1179.3 940.668 5
-10 -15 5 2798.53 1173.03 5
15 -10 -5 2464.7 909.499 6
10 -15 -5 2784.51 910.155 6
15 -10 5 1362.48 881.858 5
10 -15 5 2398.9 933.613 5
-10 -15 6 2495.98 973.539 5
15 -10 6 2099.45 881.966 5
10 -15 6 1037.64 741.438 5
-10 -15 7 1155.19 911.18 5
15 -10 7 1362.86 719.999 5
10 -15 7 1972.92 847.049 5
-10 -15 8 -1215.94 767.881 5
-15 -10 8 -301.392 769.967 5
10 -15 8 -132.15 649.614 5
15 -10 -9 1781.29 548.197 8
10 -15 -9 1504.11 573.185 8
10 -15 9 1026.7 606.752 5
15 -10 -10 273.94 407.69 8
10 -15 -10 1955.16 485.282 8
-11 -15 0 612.141 1029.36 5
15 -11 0 274.61 777.4 6
11 -15 0 -175.374 803.169 6
15 -11 0 -892.857 927.494 5
-11 -15 1 -476.53 1115.55 5
15 -11 -1 855.851 868.78 6
15 -11 1 781.655 793.434 6
11 -15 -1 732.527 785.592 6
11 -15 1 1161.93 868.284 6
15 -11 1 -411.79 870.668 5
11 -15 1 39.1897 772.024 5
-11 -15 2 787.637 970.664 5
15 -11 -2 242.169 878.308 6
15 -11 2 768.432 797.079 6
11 -15 -2 -707.989 846.264 6
11 -15 2 811.63 864.328 6
15 -11 2 -1255.26 823.634 5
11 -15 2 428.634 750.15 5
-11 -15 3 -197.88 1076.9 5
15 -11 -3 -495.555 877.336 6
15 -11 3 -40.1018 723.099 6
11 -15 -3 4.91638 865.789 6
11 -15 3 -237.95 723.814 6
15 -11 3 664.755 769.536 5
11 -15 3 616.97 746.783 5
-11 -15 4 -134.725 1086.83 5
15 -11 -4 33.2205 786.984 6
15 -11 4 -258.933 728.485 6
11 -15 -4 -1201.28 850.49 6
11 -15 4 366.418 687.808 6
15 -11 4 165.789 812.8 5
11 -15 4 741.788 804.303 5
-11 -15 5 1271.6 934.986 5
15 -11 -5 2442.82 915.626 6
11 -15 -5 -697.444 869.052 6
15 -11 5 1366.53 842.935 5
11 -15 5 1023.19 814.836 5
-11 -15 6 1179.6 942.317 5
15 -11 6 -161.447 739.466 5
11 -15 6 -675.434 735.296 5
-11 -15 7 768.739 790.524 5
-15 -11 7 -271.135 830.726 5
15 -11 7 1009.14 660.645 5
11 -15 7 546.236 578.306 5
-11 -15 8 -980.28 688.562 5
11 -15 8 113.243 538.852 5
11 -15 9 220.035 449.284 5
-11 -15 9 1612.94 567.819 5
-12 -15 0 636.896 940.67 5
15 -12 0 -96.2188 777.794 6
12 -15 0 419.361 746.071 6
15 -12 0 328.144 776.013 5
-12 -15 1 -411.76 921.888 5
15 -12 -1 673.354 783.432 6
15 -12 1 896.562 725.091 6
12 -15 -1 678.619 848.832 6
12 -15 1 1280.11 807.363 6
15 -12 1 871.068 816.142 5
12 -15 1 -743.517 785.64 5
-12 -15 2 -810.663 925.324 5
15 -12 -2 1546.91 924.539 6
15 -12 2 1444.99 808.333 6
12 -15 -2 932.327 790.156 6
12 -15 2 25.4195 700.792 6
15 -12 2 -561.14 832.661 5
12 -15 2 1041.66 690.329 5
-12 -15 3 -1069.44 1053.07 5
15 -12 -3 -86.8472 776.378 6
15 -12 3 318.954 661.33 6
12 -15 -3 -77.578 752.527 6
12 -15 3 309.679 713.936 6
15 -12 3 380.39 741.021 5
12 -15 3 132.704 695.359 5
-12 -15 4 46.213 990.52 5
15 -12 -4 -343.857 749.144 6
15 -12 4 -874.001 674.776 6
12 -15 -4 -675.204 805.403 6
12 -15 4 422.486 640.764 6
15 -12 4 -99.2697 713.558 5
12 -15 4 -653.558 822.965 5
-12 -15 5 833.543 858.084 5
15 -12 -5 -849.873 731.94 6
12 -15 -5 300.894 721.365 6
15 -12 5 -402.186 757.984 5
12 -15 5 -653.983 631.994 5
-12 -15 6 2738.47 926.752 5
-15 -12 6 1427.93 817.995 5
15 -12 6 3075.77 818.39 5
12 -15 6 3463.38 893.25 5
-12 -15 7 533.533 665.084 5
-15 -12 7 872.163 768.859 5
15 -12 7 2050.18 722.062 5
12 -15 7 768.615 631.035 5
-12 -15 8 22.5756 585.055 5
-15 -12 8 397.594 600.797 5
12 -15 8 -323.128 518.794 5
12 -15 9 385.064 417.582 5
-13 -15 0 3231.34 1013.09 5
15 -13 0 4041.29 885.567 6
13 -15 0 3865.31 987.03 6
15 -13 0 6895.2 1050.99 5
-13 -15 1 -880.259 1037.08 5
15 -13 -1 -317.517 748.244 6
15 -13 1 1089.56 693.606 6
13 -15 -1 653.381 750.786 6
13 -15 1 473.577 750.188 6
15 -13 1 268.36 687.006 5
13 -15 1 617.482 677.034 5
-13 -15 2 -915.61 886.324 5
15 -13 -2 1083.43 776.949 6
15 -13 2 -690.39 718.599 6
13 -15 -2 -327.14 778.709 6
13 -15 2 1360.02 721.678 6
15 -13 2 -33.342 670.76 5
13 -15 2 679.613 787.245 5
-13 -15 3 2580.51 1015.12 5
15 -13 -3 947.438 697.522 6
15 -13 3 638.31 649.888 6
13 -15 -3 530.563 714.921 6
13 -15 3 574.474 690.377 6
15 -13 3 1067.39 714.486 5
13 -15 3 619.642 772.288 5
-13 -15 4 591.455 893.075 5
15 -13 -4 1557.93 749.931 6
15 -13 4 245.733 610.013 6
13 -15 -4 762.093 756.526 6
13 -15 4 -35.4604 624.026 6
15 -13 4 -165.285 747.857 5
13 -15 4 1066.38 776.383 5
-13 -15 5 942.87 822.206 5
-15 -13 5 665.375 816.058 5
15 -13 -5 1809.43 668.554 6
13 -15 -5 -995.841 717.955 6
15 -13 5 -708.668 726.885 5
13 -15 5 1212.03 690.263 5
-13 -15 6 3491.48 902.291 5
-15 -13 6 2827.65 823.506 5
15 -13 6 1787.96 659.817 5
13 -15 6 3466.72 824.846 5
-13 -15 7 959.721 644.905 5
-15 -13 7 2141.73 678.381 5
15 -13 7 1204.83 572.099 5
13 -15 7 754.615 522.758 5
-13 -15 8 660.349 510.397 5
13 -15 8 1300.61 477.872 5
-14 -15 0 21.8015 815.915 5
15 -14 0 1403.24 758.662 6
14 -15 0 40.8363 699.345 6
-14 -15 1 549.214 826.552 5
15 -14 -1 420.102 697.906 6
15 -14 1 669.418 668.807 6
14 -15 -1 -398.807 654.6 6
14 -15 1 1100.49 680.479 6
15 -14 1 134.038 687.768 5
-14 -15 2 -494.209 807.716 5
15 -14 -2 54.4898 694.266 6
15 -14 2 1245.61 695.052 6
14 -15 -2 1206.93 762.853 6
14 -15 2 358.563 668.732 6
15 -14 2 646.784 704.712 5
14 -15 2 463.971 649.476 5
-14 -15 3 329.188 859.703 5
-15 -14 3 -134.847 868.677 5
15 -14 -3 -148.856 669.056 6
15 -14 3 1154.34 616.192 6
14 -15 -3 -1884.94 744.481 6
14 -15 3 1425.44 683.167 6
15 -14 3 -806.987 732.528 5
14 -15 3 -360.601 652.402 5
-14 -15 4 142.08 794.656 5
-15 -14 4 425.906 699.344 5
15 -14 4 -231.344 531.686 6
15 -14 -4 -2.3169 611.859 6
14 -15 -4 -538.524 641.586 6
14 -15 4 1257.67 652.922 6
15 -14 4 -1048.66 604.406 5
14 -15 4 -626.639 744.668 5
-14 -15 5 327.975 734.777 5
-15 -14 5 694.527 643.088 5
15 -14 -5 -848.178 642.448 6
14 -15 -5 959.236 565.953 6
15 -14 5 -499.578 652.518 5
14 -15 5 3.53622 589.489 5
-14 -15 6 -42.3018 660.088 5
-15 -14 6 23.498 643.052 5
15 -14 6 1252.28 568.849 5
14 -15 6 -79.933 542.034 5
-14 -15 7 505.97 595.927 5
-15 -14 7 -573.875 551.568 5
14 -15 7 532.068 490.606 5
-15 -15 0 1218.47 770.4 5
15 -15 0 1107.93 707.702 6
-15 -15 1 1723.13 798.784 5
15 -15 -1 1034.54 615.253 6
15 -15 1 964.32 658.328 6
-15 -15 2 679.758 728.644 5
15 -15 -2 -925.243 702.549 6
15 -15 2 -276.681 619.841 6
15 -15 2 -661.961 567.471 5
-15 -15 3 -427.96 724.422 5
15 -15 -3 346.047 567.435 6
15 -15 3 -39.4126 533.671 6
15 -15 3 851.988 557.959 5
-15 -15 4 569.379 694.76 5
15 -15 -4 -43.9312 571.594 6
15 -15 4 1217.24 601.094 5
-15 -15 5 880.511 622.258 5
15 -15 5 -168.529 574.349 5
-15 -15 6 362 569.492 5
15 -15 6 749.372 501.114 5
16 0 0 1038.14 793.854 4
0 -16 0 410.707 929.787 6
16 0 -1 24588.9 1695.55 4
16 0 1 23168.7 1686.19 4
0 -16 -1 24784.9 1927.27 6
0 -16 1 23875.8 1862.5 6
0 -16 1 24155.5 2095.9 5
16 0 -2 10377.5 1170.51 4
16 0 2 9707.87 1163.8 4
0 -16 -2 8814.79 1374.69 6
0 -16 2 8290.28 1228.12 6
0 -16 2 6888.5 1356.82 5
16 0 -3 -197.877 647.344 4
0 -16 -3 1793.78 1027.43 6
0 -16 3 2023.75 1034.88 6
16 0 3 636.246 679.252 4
0 -16 3 1016.62 1097.15 5
16 0 -4 2656.11 695.162 4
0 -16 -4 2872.59 990.87 6
0 -16 4 4160.22 1060.33 6
16 0 4 2672.65 836.017 4
0 -16 4 1705.94 1059.41 5
0 -16 5 7606.64 1362.41 5
0 -16 6 7634.04 1307.74 5
0 -16 7 37267.1 2263.03 5
0 -16 8 20273 1713.47 5
0 -16 9 7990.32 1055.69 5
0 -16 -10 1572.05 646.109 8
0 -16 10 1289.07 591.106 5
0 -16 -11 648.039 512.799 8
0 -16 -12 5082.07 603.012 8
16 1 0 707.855 782.062 4
16 -1 0 -600.631 681.311 4
1 -16 0 280.698 891.406 6
-1 -16 0 681.237 951.501 6
16 1 -1 602.457 634.769 4
16 -1 -1 1440.34 741.429 4
16 1 1 -211.419 703.447 4
16 -1 1 1283.39 778.552 4
1 -16 -1 1852.94 1043.31 6
1 -16 1 1421.79 809.33 6
-1 -16 -1 418.56 894.396 6
-1 -16 1 1304.38 914.618 6
1 -16 1 594.156 1107.23 5
-1 -16 1 -1316.64 1302.31 5
-1 -16 2 -104.848 994.086 5
16 1 -2 1176.82 736.241 4
16 -1 -2 801.497 664.949 4
16 1 2 1058.85 782.995 4
1 -16 -2 829.551 869.67 6
1 -16 2 -1067.02 952.371 6
16 -1 2 1012.68 751.273 4
-1 -16 -2 929.97 948.118 6
-1 -16 2 2707.68 1008.07 6
1 -16 2 916.365 1021.25 5
-1 -16 3 600.055 952.524 5
16 1 -3 489.017 640.097 4
16 -1 -3 1824.92 709.891 4
1 -16 -3 1712.1 981.019 6
1 -16 3 -197.039 887.648 6
-1 -16 -3 434.942 974.739 6
16 1 3 557.453 719.076 4
-1 -16 3 -1211.57 879.631 6
16 -1 3 -828.291 652.899 4
1 -16 3 437.685 991.311 5
16 -1 -4 1305.1 611.057 4
1 -16 -4 4313.58 1116.44 6
1 -16 4 2265.69 938.256 6
-1 -16 -4 2161.83 978.604 6
-1 -16 4 2595.71 970.737 6
16 1 4 2266.34 744.747 4
1 -16 4 4019.3 1076.08 5
-1 -16 4 1663.62 945.084 5
-1 -16 5 960.657 859.39 6
1 -16 5 614.259 1038.89 5
-1 -16 5 623.594 1026.35 5
16 -1 -6 1447.67 912.892 8
1 -16 6 -2195.97 1133.01 5
-1 -16 6 -977.667 977.134 5
16 -1 -7 1300.72 935.051 8
1 -16 7 16.6544 873.911 5
-1 -16 7 294.74 855.172 5
1 -16 8 -667.466 982.193 5
-1 -16 8 -1354.67 1002.36 5
1 -16 -9 -56.1012 638.697 8
1 -16 9 -645.457 687.222 5
-1 -16 9 -1900.94 883.388 5
1 -16 -10 1722.67 755.071 8
-1 -16 -10 656.138 632.436 8
1 -16 10 346.331 562.08 5
1 -16 -11 -10.8588 528.569 8
-1 -16 -11 663.695 533.156 8
1 -16 -12 -577.584 422.299 8
-1 -16 -12 1296.97 440.419 8
16 2 0 16636.7 1478.34 4
16 -2 0 14832.2 1412.65 4
2 -16 0 16364 1616.31 6
-2 -16 0 14787.6 1551.43 6
-2 -16 1 -757.587 1017.93 5
16 2 -1 778.27 674.992 4
16 2 1 373.645 654.554 4
16 -2 -1 655.416 689.967 4
2 -16 -1 202.153 857.404 6
2 -16 1 1827.49 908.305 6
16 -2 1 -53.064 758.323 4
-2 -16 -1 -1005.82 1024.23 6
-2 -16 1 170.033 933.752 6
2 -16 1 310.675 999.447 5
-2 -16 2 3669.08 1137 5
16 2 -2 3821.18 901.506 4
16 -2 -2 5635.99 948.898 4
2 -16 -2 2829.5 1049.53 6
16 2 2 4547.09 944.39 4
2 -16 2 6100.22 1209.61 6
16 -2 2 3984.16 919.011 4
-2 -16 -2 4435.94 1167.27 6
-2 -16 2 551.599 870.64 6
2 -16 2 6731.33 1316.5 5
-2 -16 3 3030.9 1066.26 5
16 2 -3 2337.57 777.14 4
16 -2 -3 1931.78 698.867 4
2 -16 -3 1756.63 855.161 6
2 -16 3 3762.51 1001.48 6
16 2 3 2137.64 728.826 4
-2 -16 -3 1952.45 991.61 6
-2 -16 3 2979.03 1048.69 6
16 -2 3 3432.92 943.317 4
2 -16 3 2476.39 984.781 5
-2 -16 4 181.659 888.098 5
2 -16 -4 -157.762 912.484 6
2 -16 4 197.726 813.845 6
-2 -16 -4 1445.14 961.869 6
-2 -16 4 -230.613 867.425 6
2 -16 4 -81.9312 991.851 5
-2 -16 5 6888.21 1402.35 5
16 -2 -5 6500.26 1108.76 8
-2 -16 5 5500.26 1129.83 6
2 -16 5 5486.47 1183.02 5
16 -2 -6 24365.4 1784.72 8
2 -16 6 29596.3 2095.67 5
-2 -16 6 25294.2 2045.22 5
16 -2 -7 14009.8 1443.94 8
-2 -16 7 14414.1 1613.63 5
2 -16 7 13964.2 1543.01 5
16 -2 -8 12710.9 1334.08 8
2 -16 8 12443.7 1380.46 5
-2 -16 8 12563.4 1427.76 5
16 -2 -9 10098.1 1225.61 8
2 -16 -9 8356.55 1064.4 8
2 -16 9 7194.8 989.887 5
-2 -16 9 5678.33 934.625 5
2 -16 -10 1450.95 663.218 8
2 -16 10 1662.86 632.468 5
-2 -16 10 746.005 602.39 5
2 -16 -11 -820.602 505.641 8
-2 -16 -11 -384.44 528.136 8
2 -16 -12 1756.97 457.434 8
16 3 0 -624.596 669.178 4
3 -16 0 606.535 899.744 6
16 -3 0 -299.134 742.71 4
-3 -16 0 -1249.61 987.417 6
-3 -16 1 629.647 1044.48 5
16 3 -1 1130.46 665.286 4
16 3 1 1487.95 684.271 4
3 -16 -1 2100.67 968.396 6
3 -16 1 -510.601 810.606 6
16 -3 -1 563.479 680.412 4
16 -3 1 1120.26 776.27 4
-3 -16 -1 -102.81 945.152 6
-3 -16 1 632.696 882.859 6
3 -16 1 2016.56 1002.02 5
-3 -16 2 922.21 1089.61 5
16 3 -2 292.76 636.072 4
3 -16 -2 -412.685 962.207 6
3 -16 2 1761.8 982.952 6
16 -3 -2 577.242 603.845 4
16 3 2 -93.2726 641.29 4
16 -3 2 198.637 730.51 4
-3 -16 -2 618.544 967.846 6
-3 -16 2 -483.425 857.088 6
3 -16 2 -726.206 1050.04 5
-3 -16 3 1975.64 1104.9 5
16 3 -3 3089.24 761.815 4
3 -16 -3 3608.31 1100.68 6
3 -16 3 2554.14 960.65 6
16 -3 -3 3764.96 895.706 4
16 3 3 2734.72 839.678 4
-3 -16 -3 2860.78 1079.7 6
-3 -16 3 2415.96 1042.92 6
16 -3 3 3192.68 872.098 4
3 -16 3 2801.06 945.811 5
-3 -16 4 10537.5 1535.51 5
3 -16 -4 11481.8 1376.25 6
3 -16 4 12083 1351.52 6
-3 -16 4 9501.49 1299.68 6
3 -16 4 9410.65 1442.14 5
-3 -16 5 4876.64 1127.88 5
16 -3 -5 1926.67 846.346 8
-3 -16 5 2750.43 895.716 6
3 -16 5 3828.63 1259.39 5
-3 -16 6 5605.1 1304.33 5
16 -3 -6 3367.3 915.956 8
3 -16 6 3423.26 1158.87 5
16 -3 -7 546.2 706.922 8
3 -16 7 445.918 751.648 5
-3 -16 7 2087.19 1098.12 5
16 -3 -8 1806.5 844.449 8
3 -16 -8 1648.49 769.714 8
3 -16 8 1524.34 850.023 5
-3 -16 8 329.097 899.368 5
16 -3 -9 4358.29 890.392 8
3 -16 -9 4524.4 877.304 8
3 -16 9 3716.71 853.275 5
-3 -16 9 4730.96 987.427 5
3 -16 -10 6699.71 904.52 8
3 -16 10 6284.69 825.681 5
-3 -16 10 6393.13 868.726 5
3 -16 -11 3943.99 658.157 8
-3 -16 -11 3248.92 648.663 8
16 -4 0 -816.029 848.368 6
16 4 0 -384.636 593.175 4
4 -16 0 828.974 893.916 6
16 -4 0 -648.212 719.078 4
-4 -16 0 -1172.35 1056.42 6
4 16 1 1747.28 705.212 3
-4 -16 1 1601.5 1140.58 5
16 -4 1 3670.4 1148.92 6
16 -4 -1 3053.12 1136.53 6
16 4 -1 1905.73 750.758 4
4 -16 -1 2549.4 932.011 6
4 -16 1 2406.33 920.814 6
16 4 1 869.13 646.9 4
16 -4 -1 1722.23 710.535 4
16 -4 1 1064.79 691.214 4
-4 -16 -1 1708.28 991.498 6
4 -16 1 957.77 931.091 5
-4 -16 2 -972.835 1054.6 5
16 4 -2 -335.183 592.872 4
4 -16 -2 99.9816 896.536 6
4 -16 2 245.428 923.837 6
16 4 2 -1127.81 708.066 4
16 -4 -2 332.71 745.636 4
16 -4 2 253.959 690.411 4
-4 -16 -2 -82.0441 911.292 6
-4 -16 2 1818.74 1033.69 6
4 -16 2 62.919 916.278 5
4 16 2 638.273 633.962 3
-4 -16 3 -1141.73 988.774 5
4 -16 -3 -10.6067 892.185 6
4 -16 3 -817.229 798.802 6
-4 -16 -3 -2441.37 1059.86 6
-4 -16 3 794.341 909.376 6
4 -16 3 -1282.61 887.622 5
-4 -16 4 222.059 1015.28 5
4 -16 -4 1286.28 944.884 6
4 -16 4 125.893 837.812 6
-4 -16 4 1928.27 897.797 6
4 -16 4 219.864 952.135 5
-4 -16 5 2557.45 1253.59 5
-4 -16 5 1064.42 905.43 6
4 -16 5 977.231 992.275 5
-4 -16 6 4495 1224.26 5
16 -4 -6 6242.25 1037.55 8
4 -16 6 6695.76 1192.33 5
16 -4 -7 17549.8 1483.12 8
4 -16 -7 18728 1516.61 8
4 -16 7 20278.5 1706.47 5
-4 -16 7 17404.9 1745.64 5
4 -16 -8 12240.4 1270.98 8
16 -4 -8 10613.1 1197.24 8
4 -16 8 11068.7 1287.43 5
-4 -16 8 10752.4 1391.52 5
16 -4 -9 2834.17 766.139 8
4 -16 -9 3128.88 826.123 8
4 -16 9 3964.79 805.508 5
-4 -16 9 2894.72 859.494 5
16 -4 -10 1365.57 654.743 8
4 -16 -10 306.07 576.878 8
4 -16 10 -63.0223 566.535 5
-4 -16 10 -960.907 690.372 5
4 -16 -11 964.997 523.768 8
-4 -16 -11 421.48 474.002 8
5 16 0 -777.4 684.256 3
16 -5 0 -726.934 902.651 6
16 5 0 209.329 644.553 4
5 -16 0 -1532.13 1019.74 6
16 -5 0 -499.861 728.547 4
5 16 1 7250.12 1016.89 3
-5 -16 1 4420.02 1124.51 5
5 16 -1 6597.35 1018.54 3
16 -5 1 5012.25 1139.11 6
16 -5 -1 3187.93 1033.19 6
16 5 -1 5737.65 966.252 4
5 -16 -1 5676.9 1131.53 6
5 -16 1 5772.71 1150.48 6
16 5 1 5201.54 902.737 4
16 -5 -1 7975.01 1071.44 4
16 -5 1 6225.35 998.283 4
5 -16 1 7432.44 1216.47 5
-5 -16 2 -520.318 1087.3 5
16 -5 2 742.899 791.724 6
16 -5 -2 567.244 805.275 6
5 -16 -2 42.6899 911.684 6
5 -16 2 1292.36 803.327 6
16 5 2 104.431 669.777 4
-5 -16 -2 290.76 957.109 6
5 -16 2 930.221 761.842 5
-5 -16 3 5617.33 1282.14 5
16 -5 -3 5396.81 1180.21 6
5 -16 -3 8757.8 1273.68 6
5 -16 3 6266.3 1130.78 6
-5 -16 -3 6628.23 1158.48 6
5 -16 3 5393.5 1174.55 5
-5 -16 4 9810.31 1535.69 5
5 -16 -4 13515.8 1517.29 6
5 -16 4 11392.5 1362.47 6
-5 -16 4 11323 1428.55 6
5 -16 4 13765.8 1513.55 5
-5 -16 5 24641.5 1772.65 6
5 -16 5 23715.8 1907.92 5
-5 -16 5 25990.4 2142.28 5
5 -16 -6 11627.5 1222.26 8
16 -5 -6 9903.96 1167.15 8
-5 -16 6 12607.8 1572.88 5
5 -16 6 9795.84 1314.37 5
-5 -16 7 1474.62 1052.78 5
16 -5 -7 639.306 693.277 8
5 -16 -7 1969.5 775.602 8
5 -16 7 1752.52 932.455 5
16 -5 -8 1261.44 693.581 8
5 -16 -8 603.535 711.672 8
5 -16 8 1005.34 791.004 5
-5 -16 8 -576.182 843.813 5
16 -5 -9 9832.6 1078.4 8
5 -16 -9 9369.55 1066.91 8
5 -16 9 10594.6 1092.99 5
-5 -16 9 10070.8 1177.26 5
16 -5 -10 9356.74 964.643 8
5 -16 -10 9280.02 943.402 8
5 -16 10 9855.79 931.004 5
-5 -16 10 9155.01 931.555 5
5 -16 -11 2801.71 598.797 8
-5 -16 -11 2882.74 582.164 8
16 -6 0 7170.07 1309.79 6
6 -16 0 8036.04 1291.23 6
-6 -16 1 1048.81 1093 5
16 -6 1 713.417 904.182 6
16 -6 -1 -777.904 996.279 6
6 -16 -1 1299.17 912.927 6
6 -16 1 1780.1 997.483 6
6 -16 1 -128.884 827.017 5
-6 -16 2 2461.08 1090.76 5
16 -6 2 1480.06 885.738 6
16 -6 -2 1076.65 915.28 6
6 -16 -2 457.066 779.214 6
6 -16 2 1412.66 951.882 6
6 -16 2 1364.34 921.787 5
-6 -16 3 2676.38 1231.47 5
16 -6 3 2136.67 964.207 6
16 -6 -3 4565.46 1130.94 6
6 -16 -3 4795.08 1095.68 6
6 -16 3 2911.94 1041.93 6
-6 -16 -3 3173.26 1040.72 6
6 -16 3 3516.32 1121.78 5
-6 -16 4 634.771 1084.14 5
6 -16 -4 -411.253 848.023 6
6 -16 4 -357.679 869.268 6
6 -16 4 1314.77 971.536 5
-6 -16 5 743.845 1087.09 5
-6 -16 5 975.725 800.928 6
6 -16 5 1432.05 967.915 5
-6 -16 6 3295.46 1178.85 5
6 -16 6 2535.12 917.234 5
-6 -16 7 3967.8 1117.59 5
16 -6 -7 3047.8 781.309 8
6 -16 -7 3479.43 849.426 8
6 -16 7 3402.13 947.146 5
16 -6 -8 1657.58 731.085 8
6 -16 -8 2868.11 803.505 8
6 -16 8 977.107 707.561 5
-6 -16 8 3407.05 960.956 5
16 -6 -9 -106.184 564.774 8
6 -16 -9 608.152 634.977 8
6 -16 9 -515.829 677.993 5
-6 -16 9 -28.9986 711.125 5
16 -6 -10 -250.175 505.227 8
6 -16 -10 -440.895 521.149 8
6 -16 10 10.0318 460.415 5
-6 -16 10 -827.388 564.708 5
6 -16 -11 -313.91 468.064 8
-6 -16 -11 -178.384 390.545 8
16 -7 0 -1074.92 964.763 6
7 -16 0 -718.234 880.428 6
-7 -16 1 -1827.09 1107.22 5
16 -7 1 101.06 745.977 6
16 -7 -1 -176.853 816.552 6
7 -16 -1 79.639 861.541 6
7 -16 1 505.019 792.571 6
7 -16 1 394.883 816.285 5
-7 -16 2 7366.02 1367.08 5
16 -7 2 8796.36 1304.42 6
16 -7 -2 8106.91 1289.75 6
7 -16 -2 7066.51 1167.59 6
7 -16 2 7392.98 1212.91 6
7 -16 2 7527.13 1211.09 5
-7 -16 3 9071.02 1386.31 5
16 -7 3 8408.39 1213.59 6
16 -7 -3 8875.5 1310.51 6
7 -16 -3 11356.2 1406.97 6
7 -16 3 8416.73 1191.61 6
7 -16 3 10022.7 1367.25 5
16 -7 -4 15758.8 1604.91 6
7 -16 -4 17423.4 1578.46 6
7 -16 4 15482.5 1458.23 6
16 -7 4 14180.8 1616.39 5
7 -16 4 15150.6 1562.52 5
-7 -16 4 17239.7 1822.1 5
-7 -16 5 19185 1587.48 6
7 -16 5 21160 1750.55 5
-7 -16 5 20569.2 1936.94 5
7 -16 6 14124 1423.03 5
-7 -16 6 14798 1671.04 5
-7 -16 7 4755.12 1192.39 5
7 -16 7 2436.3 861.078 5
-7 -16 8 4057.13 949.553 5
16 -7 -8 3141.75 752.036 8
7 -16 -8 4464.45 797.052 8
7 -16 8 2613.37 845.65 5
16 -7 -9 5015.55 759.752 8
7 -16 -9 7334.78 852.409 8
7 -16 9 5945.32 850.368 5
-7 -16 9 7566.84 1027.52 5
16 -7 -10 7533.81 794.6 8
7 -16 -10 8531.95 811.542 8
7 -16 10 9131.79 793.775 5
-7 -16 10 7366.55 778.281 5
16 -8 0 13817.6 1506.44 6
8 -16 0 14065.9 1505.08 6
-8 -16 1 -505.418 1049.32 5
16 -8 -1 533.288 887.086 6
16 -8 1 715.623 855.389 6
8 -16 -1 -187.521 782.987 6
8 -16 1 383.514 810.601 6
8 -16 1 856.312 812.16 5
-8 -16 2 1580.63 1103.51 5
16 -8 2 535.859 798.528 6
16 -8 -2 151.576 946.985 6
8 -16 -2 -260.636 846.929 6
8 -16 2 317.313 805.932 6
16 -8 2 204.982 974.439 5
8 -16 2 27.2037 746.459 5
-8 -16 3 1639.7 1123.97 5
16 -8 3 3322.27 933.364 6
16 -8 -3 386.314 909.313 6
8 -16 -3 884.833 817.203 6
8 -16 3 701.399 828.207 6
16 -8 3 1530.49 948.574 5
8 -16 3 1918.64 945.997 5
-8 -16 4 1556.61 1049.13 5
16 -8 -4 1430.91 869.636 6
8 -16 -4 564.207 780.42 6
8 -16 4 875.781 820.049 6
16 -8 4 854.078 927.654 5
8 -16 4 1191.66 839.931 5
-8 -16 5 1166.19 1071.26 5
16 -8 5 1547.22 957.983 5
8 -16 5 853.524 720.323 5
-8 -16 6 638.446 1038.04 5
8 -16 6 61.3669 739.276 5
-8 -16 7 -813.268 818.909 5
8 -16 7 -1057.37 777.233 5
-8 -16 8 562.93 759.454 5
16 -8 -8 82.7688 557.328 8
8 -16 -8 34.5605 523.97 8
8 -16 8 1295.11 659.646 5
16 -8 -9 -310.787 501.368 8
8 -16 -9 1025.08 547.365 8
8 -16 9 1395.54 608.769 5
-8 -16 9 1378.45 675.858 5
16 -8 -10 93.3792 422.568 8
8 -16 -10 972.564 468.539 8
8 -16 10 493.323 444.993 5
16 -9 0 285.81 786.622 6
9 -16 0 -1044.02 911.556 6
-9 -16 1 11279.2 1579.69 5
9 -16 -1 13793.4 1489.97 6
9 -16 1 13319.5 1427.56 6
16 -9 -1 12106.8 1452.13 6
16 -9 1 11373.4 1361.37 6
9 -16 1 16050 1518.93 5
-9 -16 2 5298.27 1271.05 5
16 -9 -2 3833.17 1133.71 6
16 -9 2 4290.8 1039.75 6
9 -16 -2 4707.23 1074.92 6
9 -16 2 4748.13 1017.71 6
16 -9 2 2679.73 879.247 5
9 -16 2 3524.59 992.568 5
-9 -16 3 6160.99 1363.13 5
16 -9 3 8188.33 1196.03 6
16 -9 -3 5686.83 1175.98 6
9 -16 -3 8199.83 1193.31 6
9 -16 3 7922.81 1146.49 6
16 -9 3 7608.27 1197.84 5
9 -16 3 8351.08 1267.47 5
-9 -16 4 6281.84 1244.42 5
16 -9 -4 7805.19 1157.08 6
9 -16 -4 6050.79 1116.07 6
9 -16 4 6596.23 1059.47 6
16 -9 4 5280.17 1057.48 5
9 -16 4 7004.45 1199.07 5
-9 -16 5 10570.7 1499.85 5
16 -9 5 8286.3 1278.45 5
9 -16 5 7079.52 1113.57 5
-9 -16 6 1876.78 1010.66 5
9 -16 6 5201.53 1038.14 5
-9 -16 7 541.691 884.126 5
9 -16 7 -645.077 733.469 5
-9 -16 8 2347.47 848.028 5
9 -16 8 1634.38 667.724 5
9 -16 -9 6718.31 703.023 8
16 -9 -9 6517.02 687.741 8
9 -16 9 8052.88 860.88 5
16 -10 0 670.661 725.319 6
10 -16 0 357.694 705.768 6
-10 -16 1 3282.37 1096.68 5
16 -10 -1 2530.03 977.056 6
16 -10 1 2654.7 931.093 6
10 -16 -1 3021.39 982.244 6
10 -16 1 3393.06 968.447 6
10 -16 1 2861.66 972.998 5
-10 -16 2 3380.17 1205.71 5
16 -10 -2 1949.32 945.437 6
16 -10 2 2738.09 908.889 6
10 -16 -2 1768.92 813.619 6
10 -16 2 3168.38 962.828 6
16 -10 2 2035.62 979.545 5
10 -16 2 2041.58 911.795 5
-10 -16 3 2381.59 1123.02 5
16 -10 3 3235.01 927.843 6
16 -10 -3 2690.45 973.914 6
10 -16 -3 2888.25 979.291 6
10 -16 3 2896.9 862.814 6
16 -10 3 2659.69 963.818 5
10 -16 3 3156.14 994.034 5
-10 -16 4 742.6 1004.72 5
16 -10 4 808.195 735.448 6
16 -10 -4 653.627 773.609 6
10 -16 -4 1330.33 849.73 6
10 -16 4 1013.47 669.002 6
16 -10 4 1041.67 885.214 5
10 -16 4 -738.188 683.143 5
-10 -16 5 379.555 861.606 5
16 -10 -5 -872.976 751.462 6
16 -10 5 -451.341 777.811 5
10 -16 5 -611.393 795.88 5
-10 -16 6 -59.7245 737.916 5
16 -10 6 -240.914 718.857 5
10 -16 6 566.432 684.644 5
-10 -16 7 5610.78 998.327 5
-16 -10 7 4473.24 934.662 5
10 -16 7 4351.54 829.449 5
-10 -16 8 4464.5 852.223 5
-16 -10 8 5331.44 856.47 5
10 -16 8 5077.2 824.249 5
10 -16 9 2908.49 594.392 5
-10 -16 9 1895.3 597.402 5
16 -11 0 -192.977 829.946 6
11 -16 0 1407.36 874.479 6
-11 -16 1 1783.53 1073.54 5
16 -11 -1 654.315 763.72 6
16 -11 1 236.969 701.094 6
11 -16 -1 1189.67 821.914 6
11 -16 1 1395.87 823.874 6
11 -16 1 157.402 750.7 5
-11 -16 2 5094.43 1150.42 5
16 -11 -2 3924.59 985.4 6
16 -11 2 3428.46 908.263 6
11 -16 -2 3470.24 977.122 6
11 -16 2 3128.27 956.984 6
16 -11 2 1629.62 879.064 5
11 -16 2 3412.46 886.934 5
-11 -16 3 5194.73 1183.78 5
16 -11 3 4943.32 993.047 6
16 -11 -3 4708.24 1041.58 6
11 -16 -3 5478.18 1019.45 6
11 -16 3 4328.14 928.181 6
16 -11 3 5158.54 1091.16 5
11 -16 3 5234.03 984.219 5
-11 -16 4 4504.42 1081.77 5
16 -11 4 4875.05 878.94 6
16 -11 -4 5630.91 977.081 6
11 -16 -4 7598.47 1075.93 6
11 -16 4 6246.1 929.156 6
16 -11 4 7631.92 1133.85 5
11 -16 4 6016.24 1080.39 5
-11 -16 5 1117.74 870.817 5
16 -11 -5 933.814 686.988 6
16 -11 5 990.762 702.494 5
11 -16 5 -511.467 728.026 5
-11 -16 6 52.7699 725.133 5
16 -11 6 -475.471 692.647 5
11 -16 6 789.75 641.531 5
-11 -16 7 -1127.58 746.083 5
-16 -11 7 137.249 671.748 5
11 -16 7 553.116 579.686 5
-11 -16 8 1272.71 647.335 5
-16 -11 8 -587.573 611.926 5
11 -16 8 627.66 550.829 5
16 -12 0 12739.4 1360.62 6
12 -16 0 14308 1364.12 6
-12 -16 1 2547.17 1028.08 5
16 -12 -1 3017.05 876.953 6
16 -12 1 4796.13 930.876 6
12 -16 -1 2695.64 858.913 6
12 -16 1 3843.31 935.867 6
12 -16 1 5691.02 1034.49 5
-12 -16 2 2350.52 925.383 5
16 -12 -2 1348.24 802.498 6
16 -12 2 2229.27 821.233 6
12 -16 -2 2487.75 864.204 6
12 -16 2 2892.59 828.498 6
16 -12 2 3992.43 951.785 5
12 -16 2 3150.28 865.154 5
-12 -16 3 968.402 898.038 5
16 -12 3 1849.44 692.832 6
16 -12 -3 916.156 741.325 6
12 -16 -3 2489.02 848.934 6
12 -16 3 2665.44 776.761 6
16 -12 3 710.402 675.455 5
12 -16 3 2221.1 808.754 5
-12 -16 4 1010.73 879.667 5
16 -12 4 -1431.74 650.332 6
16 -12 -4 1216.73 733.789 6
12 -16 -4 -21.7804 691.453 6
12 -16 4 497.497 605.035 6
16 -12 4 37.0906 594.691 5
12 -16 4 1122.27 712.559 5
-12 -16 5 614.871 785.866 5
16 -12 -5 -586.552 618.816 6
16 -12 5 440.612 662.957 5
12 -16 5 1159.06 661.108 5
-12 -16 6 6271.51 994.146 5
-16 -12 6 5287.32 911.171 5
12 -16 6 6544.17 967.675 5
-12 -16 7 5919.04 883.23 5
-16 -12 7 5534.01 918.409 5
12 -16 7 6532.8 819.113 5
-12 -16 8 4914.31 720.879 5
12 -16 8 4460.05 651.034 5
16 -13 0 -145.316 643.616 6
13 -16 0 -165.897 713.389 6
-13 -16 1 -357.886 865.308 5
16 -13 -1 -380.333 729.175 6
16 -13 1 748.746 667.608 6
13 -16 -1 -469.501 751.727 6
13 -16 1 166.018 680.687 6
13 -16 1 -236.563 621.295 5
-13 -16 2 838.471 873.732 5
16 -13 -2 -1103.94 720.091 6
16 -13 2 570.37 701.795 6
13 -16 -2 221.284 640.938 6
13 -16 2 -466.158 699.823 6
13 -16 2 501.729 698.571 5
-13 -16 3 181.907 770.238 5
16 -13 3 667.675 580.051 6
16 -13 -3 1964.19 729.856 6
13 -16 -3 2619.75 821.722 6
13 -16 3 977.004 652.509 6
16 -13 3 2165.67 726.899 5
13 -16 3 3328.5 850.853 5
-13 -16 4 1200.32 840.864 5
-16 -13 4 1847.62 814.175 5
16 -13 -4 870.218 651.902 6
13 -16 -4 1358.28 652.058 6
13 -16 4 1530.61 658.368 6
16 -13 4 702.605 589.099 5
13 -16 4 2550.8 784.117 5
-13 -16 5 748.647 732.913 5
-16 -13 5 120.242 681.625 5
16 -13 5 -532.991 637.719 5
13 -16 5 -275.661 586.962 5
-13 -16 6 64.0498 629.701 5
-16 -13 6 700.769 663.636 5
13 -16 6 -29.5977 543.543 5
-13 -16 7 -188.223 523.442 5
-16 -13 7 1358.7 620.103 5
13 -16 7 796.902 496.594 5
-16 -14 0 -119.049 777.02 5
16 -14 0 20.9472 606.05 6
14 -16 0 279.926 613.011 6
-14 -16 1 3861.62 913.587 5
-16 -14 1 4267.58 982.493 5
16 -14 -1 6530.1 923.914 6
16 -14 1 6335.28 940.613 6
14 -16 -1 7182.93 995.699 6
14 -16 1 6216.72 919.15 6
14 -16 1 6829.8 894.572 5
-14 -16 2 3278.88 936.539 5
-16 -14 2 4208.88 928.43 5
16 -14 -2 3705.04 787.546 6
16 -14 2 4210.08 808.6 6
14 -16 -2 2675.18 709.82 6
14 -16 2 4099.38 791.489 6
14 -16 2 3663.63 756.697 5
-14 -16 3 2083.01 769.07 5
-16 -14 3 6.8502 678.822 5
16 -14 3 1225.95 601.724 6
16 -14 -3 400.284 602.627 6
14 -16 -3 890.956 609.743 6
14 -16 3 1374 612.295 6
14 -16 3 186.899 586.64 5
-14 -16 4 -802.097 647.06 5
-16 -14 4 -727.773 751.035 5
16 -14 -4 -26.0133 522.247 6
14 -16 -4 -150.424 554.811 6
14 -16 4 -374.166 565.634 5
-14 -16 5 1022.61 595.128 5
-16 -14 5 2224.5 665.5 5
14 -16 5 2026.86 604.02 5
-14 -16 6 3297.56 677.972 5
-16 -14 6 3383.5 716.764 5
14 -16 6 2002.23 529.057 5
-16 -15 0 1493.52 672.178 5
16 -15 0 205.886 543.611 6
15 -16 0 1051.85 615.632 6
-15 -16 1 1203.58 714.989 5
-16 -15 1 733.755 659.525 5
16 -15 -1 -555.632 583.177 6
16 -15 1 365.254 549.284 6
15 -16 -1 418.537 527.834 6
15 -16 1 513.023 513.617 6
-15 -16 2 1859.73 716.625 5
-16 -15 2 747.331 640.958 5
16 -15 2 436.337 503.531 6
16 -15 -2 329.294 543.636 6
15 -16 -2 -516.919 579.079 6
15 -16 2 461.2 507.134 6
-15 -16 3 -293.482 644.863 5
-16 -15 3 599.616 636.815 5
16 -15 3 33.9494 459.935 6
16 -15 -3 543.757 539.904 6
15 -16 3 -74.1335 454.958 6
15 -16 -3 -480.002 496.743 6
15 -16 3 -548.434 515.406 5
-15 -16 4 -627.022 603.67 5
-16 -15 4 -143.116 589.43 5
16 -15 -4 -23.1595 464.022 6
15 -16 -4 -30.88 478.316 6
15 -16 4 255.746 510.88 5
-15 -16 5 1414.08 592.18 5
-16 -15 5 344.907 571.718 5
16 -16 0 4108.74 653.101 6
-16 -16 1 1441.24 553.319 5
16 -16 1 633.449 450.983 6
16 -16 -1 -372.739 478.395 6
-16 -16 2 1559.44 588.535 5
16 -16 2 967.354 477.751 6
16 -16 -2 1320.33 515.084 6
-16 -16 3 339.928 515.139 5
16 -16 -3 2727.51 538.23 6
0 -17 0 -331.623 888.609 6
0 -17 -1 15956.9 1626.17 6
0 -17 1 12572.1 1463.7 6
0 -17 1 13953 1477.25 5
0 -17 -2 13433.6 1557.32 6
0 -17 2 13129.8 1439.9 6
0 -17 2 14029.2 1593.75 5
0 -17 -3 8198.82 1254.46 6
0 -17 3 6222.47 1126.94 6
0 -17 3 6848.5 1251.14 5
0 -17 -4 749.863 854.71 6
0 -17 4 -876.231 852.728 6
0 -17 4 532.978 988.141 5
0 -17 5 480.11 764.145 6
0 -17 5 369.115 884.352 5
0 -17 6 -1868.43 1047.82 5
0 -17 7 441.556 801.53 5
0 -17 8 -27.3516 772.997 5
0 -17 -9 -32.1131 663.925 8
0 -17 9 267.27 573.975 5
0 -17 -10 127.965 511.262 8
0 -17 10 -241.784 517.297 5
0 -17 -11 -696.919 478.535 8
1 -17 0 8207.03 1299.97 6
-1 -17 0 7732.63 1317.22 6
1 -17 -1 1368.92 903.744 6
1 -17 1 -332.706 790.291 6
-1 -17 -1 511.174 953.991 6
-1 -17 1 679.129 954.15 6
1 -17 1 -134.223 910.36 5
-1 -17 1 -193.135 1011.15 5
1 -17 -2 323.198 855.359 6
1 -17 2 608.527 847.628 6
-1 -17 -2 20.7884 872.297 6
-1 -17 2 92.9032 775.177 6
1 -17 2 277.723 992.886 5
-1 -17 2 -62.48 1078.81 5
1 -17 -3 1307.98 962.683 6
1 -17 3 799.001 782.854 6
-1 -17 -3 2357.29 1036.06 6
-1 -17 3 578.861 811.659 6
-1 -17 3 -486.571 1094.3 5
1 -17 -4 426.375 867.525 6
1 -17 4 87.5306 771.117 6
-1 -17 -4 233.778 835.864 6
-1 -17 4 -97.4109 821.238 6
1 -17 4 486.811 929.115 5
-1 -17 4 -1223.14 1081.41 5
1 -17 5 661.515 813.113 6
-1 -17 5 1389.44 857.745 6
1 -17 5 1719.4 1119.03 5
-1 -17 5 1604.93 975.011 5
1 -17 6 4226.11 1136.84 5
-1 -17 6 4905.9 1208.88 5
1 -17 7 121.821 765.136 5
-1 -17 7 469.024 872.161 5
1 -17 8 1293.1 801.103 5
-1 -17 8 764.159 719.566 5
1 -17 -9 476.78 616.648 8
1 -17 9 716.821 600.531 5
-1 -17 9 -504.392 676.682 5
1 -17 -10 -845.124 595.132 8
-1 -17 -10 -209.412 545.225 8
1 -17 10 478.372 543.002 5
-1 -17 10 -366.855 520.253 5
1 -17 -11 219.031 404.045 8
-1 -17 -11 280.324 455.353 8
2 -17 0 460.595 796.076 6
-2 -17 0 -1902.53 1072.71 6
2 -17 -1 4745.91 1152.51 6
2 -17 1 2507.77 986.192 6
-2 -17 -1 2429.03 1101.13 6
-2 -17 1 3325.15 1080.35 6
2 -17 1 5771.5 1224.24 5
-2 -17 1 2389.6 986.19 5
2 -17 -2 13756.1 1506.34 6
2 -17 2 11982.2 1438.65 6
-2 -17 -2 9510.47 1371.85 6
-2 -17 2 7325.15 1238.65 6
2 -17 2 8897.92 1415.77 5
-2 -17 2 8996.17 1480.43 5
2 -17 -3 10485.4 1398.53 6
2 -17 3 11435.9 1351.36 6
-2 -17 -3 9922.16 1401.28 6
-2 -17 3 9112.82 1303.11 6
2 -17 3 9592.12 1330.1 5
-2 -17 3 10380.6 1495.03 5
2 -17 -4 3635.97 1077.21 6
2 -17 4 4931.66 1012.29 6
-2 -17 -4 4841.99 1077.19 6
-2 -17 4 4230.44 1043.52 6
2 -17 4 3229.47 1103.54 5
-2 -17 4 4954.73 1202.4 5
-2 -17 5 -394.458 786.144 6
2 -17 5 1645.15 912.978 5
-2 -17 5 2284.99 1160.53 5
2 -17 6 -89.3288 905.59 5
-2 -17 6 1243.05 1024.2 5
2 -17 7 -101.066 865.249 5
-2 -17 7 -593.175 864.056 5
2 -17 -8 -494.444 702.637 8
2 -17 8 713.675 761.572 5
-2 -17 8 -605.15 876.336 5
2 -17 -9 8.71053 623.951 8
2 -17 9 -229.015 542.605 5
-2 -17 9 -262.302 610.726 5
2 -17 -10 -170.21 534.89 8
-2 -17 -10 214.862 480.61 8
2 -17 10 -486.105 507.155 5
-2 -17 10 347.535 501.368 5
2 -17 -11 1024.1 494.603 8
-2 -17 -11 888.141 447.679 8
3 -17 0 1027.73 907.693 6
-3 -17 0 -841.54 1039.94 6
-3 -17 1 -307.443 902.68 5
3 -17 -1 1616.01 989.133 6
3 -17 1 3961.99 1073.56 6
-3 -17 -1 2022.26 988.713 6
-3 -17 1 2908.53 1020.79 6
3 -17 1 2378.99 915.618 5
-3 -17 2 -628.416 1157.69 5
3 -17 -2 447.807 871.089 6
3 -17 2 385.965 831.785 6
-3 -17 -2 320.688 939.56 6
-3 -17 2 483.786 787.717 6
3 -17 2 -1049.3 973.138 5
-3 -17 3 1231.04 929.196 5
3 -17 -3 -1244.13 1030.02 6
3 -17 3 1734.39 849.573 6
-3 -17 -3 1297.18 989.756 6
-3 -17 3 1875.86 934.516 6
3 -17 3 945.461 826.317 5
-3 -17 4 1113.03 951.934 5
3 -17 -4 864.28 885.974 6
3 -17 4 1667.93 880.978 6
-3 -17 -4 42.9102 863.815 6
-3 -17 4 363.841 846.211 6
3 -17 4 1482.95 912.069 5
-3 -17 5 -226.592 780.462 6
3 -17 5 -534.32 929.273 5
-3 -17 5 306.965 962.268 5
3 -17 6 10.4687 735.459 5
-3 -17 6 1064.41 909.049 5
3 -17 -7 7522.05 1024.96 8
3 -17 7 7283.65 1183.93 5
-3 -17 7 5581.62 1216.49 5
3 -17 -8 5162.79 934.523 8
3 -17 8 4580.52 874.796 5
-3 -17 8 5703.72 1040.03 5
3 -17 -9 1607.29 618.595 8
3 -17 9 1672.89 677.889 5
-3 -17 9 1237.51 651.964 5
3 -17 -10 719.856 519.089 8
-3 -17 -10 343.355 536.006 8
3 -17 10 428.956 472.046 5
3 -17 -11 817.656 448.979 8
-3 -17 -11 314.255 373.796 8
4 -17 0 -1511.79 939.089 6
-4 -17 0 -804.416 871.829 6
-4 -17 1 -766.868 1024.04 5
4 -17 -1 -1189.18 927.267 6
4 -17 1 -1035.5 863.67 6
-4 -17 -1 434.188 849.827 6
-4 -17 1 -321.407 842.834 6
4 -17 1 85.0921 850.922 5
-4 -17 2 3361.95 1116.78 5
4 -17 -2 4976.44 1074.89 6
4 -17 2 4830.04 1088.59 6
-4 -17 -2 5145.57 1170.5 6
-4 -17 2 3234.98 1067 6
4 -17 2 4104.5 1125.23 5
-4 -17 3 4601.62 1264.6 5
4 -17 -3 6980.24 1240.96 6
4 -17 3 6091.02 1121.54 6
-4 -17 -3 4438.6 1110.46 6
-4 -17 3 3487.94 961.422 6
4 -17 3 7110.79 1192.23 5
-4 -17 4 6009.26 1345.24 5
4 -17 -4 1745.24 907.084 6
4 -17 4 3115.92 941.062 6
-4 -17 -4 3333.46 1064.95 6
-4 -17 4 3495.87 995.985 6
4 -17 4 3367.89 979.168 5
-4 -17 5 215.257 990.696 5
-4 -17 5 1116.23 793.559 6
4 -17 5 270.932 729.143 5
4 -17 -6 698.952 665.388 8
4 -17 6 992.609 880.957 5
-4 -17 6 -305.885 866.093 5
4 -17 -7 235.902 653.133 8
4 -17 7 550.25 680.306 5
-4 -17 7 318.346 743.873 5
4 -17 -8 762.125 663.436 8
4 -17 8 -241.568 672.767 5
-4 -17 8 135.814 672.074 5
4 -17 -9 -163.531 571.283 8
4 -17 9 -232.341 562.091 5
-4 -17 9 -347.359 611.36 5
4 -17 -10 1012.69 517.663 8
4 -17 10 259.1 436.496 5
-4 -17 10 1662.34 552.874 5
5 -17 0 17980.6 1632.13 6
-5 -17 0 16792 1665.9 6
-5 -17 1 8147.75 1385.33 5
5 -17 -1 8291.42 1266.23 6
5 -17 1 7139.47 1196.4 6
-5 -17 -1 6481.32 1217.55 6
-5 -17 1 7044.73 1304.47 6
5 -17 1 6887.54 1156.68 5
-5 -17 2 118.597 995.81 5
5 -17 -2 1799.03 893.902 6
5 -17 2 487.513 767.567 6
-5 -17 -2 -1145.16 1088.77 6
-5 -17 2 741.064 875.232 6
5 -17 2 1453.05 913.543 5
-5 -17 3 1215.48 1002.26 5
5 -17 -3 1112.59 944.761 6
5 -17 3 581.638 820.316 6
-5 -17 -3 -1952.22 962.019 6
-5 -17 3 -788.655 863.712 6
5 -17 3 239.711 717.975 5
-5 -17 4 324.771 1014.28 5
5 -17 -4 951.532 861.279 6
5 -17 4 1015.77 816.09 6
-5 -17 -4 -370.487 822.92 6
-5 -17 4 -913.955 879.28 6
5 -17 4 -362.694 818.561 5
-5 -17 5 43.5338 1004.26 5
-5 -17 5 749.534 811.584 6
5 -17 5 86.0242 706.42 5
-5 -17 6 2161.15 912.808 5
5 -17 6 1276.99 941.716 5
17 -5 -7 -260.424 633.533 8
5 -17 -7 1579.12 694.095 8
5 -17 7 1293.5 774.028 5
-5 -17 7 798.809 944.732 5
5 -17 -8 1152.12 636.428 8
5 -17 8 302.307 617.202 5
-5 -17 8 1817.12 841.956 5
5 -17 -9 371.284 574.409 8
5 -17 9 -22.7716 554.549 5
-5 -17 9 287.106 591.553 5
5 -17 -10 436.585 467.448 8
5 -17 10 -162.049 467.782 5
-5 -17 10 -590.737 517.957 5
17 -6 0 -156.061 856.343 6
6 -17 0 346.233 874.991 6
-6 -17 1 777.148 987.806 5
17 -6 1 1992.08 839.746 6
17 -6 -1 1020.21 855.679 6
6 -17 -1 991.14 866.787 6
6 -17 1 214.888 832.165 6
-6 -17 -1 -116.908 911.748 6
6 -17 1 1153.49 896.586 5
6 -17 -2 116.42 774.438 6
6 -17 2 -666.358 820.895 6
-6 -17 -2 -1653.19 1027.76 6
-6 -17 2 -160.194 863.703 6
6 -17 2 -293.125 737.503 5
-6 -17 3 1546.11 1076.37 5
6 -17 -3 1828.13 944.856 6
6 -17 3 1026.27 802.489 6
-6 -17 -3 2707.47 1038.48 6
-6 -17 3 623.209 931.578 6
6 -17 3 1102.73 797.199 5
-6 -17 4 121.359 1033.44 5
6 -17 -4 1978.27 906.311 6
6 -17 4 781.021 708.895 6
-6 -17 4 -669.479 851.727 6
6 -17 4 1216.18 821.982 5
-6 -17 5 -1092.41 1062.96 5
-6 -17 5 -39.4867 771.588 6
6 -17 5 -602.983 745.089 5
-6 -17 6 238.338 911.631 5
6 -17 6 99.8131 778.518 5
6 -17 7 1.45045 708.488 5
-6 -17 7 1702.64 922.889 5
17 -6 -8 391.541 551.111 8
6 -17 -8 -1158.45 563.938 8
6 -17 8 11.3522 606.267 5
-6 -17 8 203.497 649.667 5
6 -17 -9 450.301 524.945 8
6 -17 9 358.313 611.904 5
-6 -17 9 460.031 601.803 5
6 -17 -10 -120.864 464.497 8
6 -17 10 -483.963 434.589 5
17 -7 0 497.765 784.246 6
7 -17 0 275.182 853.352 6
-7 -17 1 4042.88 1118.54 5
17 -7 1 2749.96 1010.79 6
17 -7 -1 2257.94 993.858 6
7 -17 -1 2828.07 980.362 6
7 -17 1 3113.16 995.558 6
7 -17 1 2812.36 803.684 5
-7 -17 2 4011.97 1125.89 5
17 -7 2 3493.19 973.398 6
17 -7 -2 4314.94 1079.29 6
7 -17 -2 3478.64 989.214 6
7 -17 2 3552.59 998.602 6
-7 -17 -2 3368.62 1041.61 6
7 -17 2 3997.27 976.911 5
-7 -17 3 2617.87 1155.85 5
7 -17 -3 1789.97 888.164 6
7 -17 3 3397.94 937.059 6
-7 -17 -3 778.661 845.378 6
7 -17 3 3575.86 957.052 5
-7 -17 4 -1925.9 1007.02 5
7 -17 4 235.474 776.089 6
-7 -17 4 -242.47 752.655 6
7 -17 4 -1139.53 766.455 5
-7 -17 5 521.149 846.97 5
-7 -17 5 690.531 719.168 6
7 -17 5 718.661 755.52 5
-7 -17 6 273.218 814.139 5
7 -17 6 1038.72 764.238 5
-7 -17 7 -258.172 804.788 5
7 -17 7 74.3906 687.596 5
7 -17 -8 18.5463 493.507 8
7 -17 8 856.691 617.704 5
-7 -17 8 527.458 726.929 5
7 -17 -9 3486.26 607.244 8
7 -17 9 3381.45 717.062 5
-7 -17 9 3102.57 703.647 5
17 -8 0 965.705 849.542 6
8 -17 0 -384.487 747.31 6
-8 -17 1 5525.62 1243.3 5
17 -8 1 4802.19 993.728 6
17 -8 -1 4868.72 1058.9 6
8 -17 -1 6594.01 1109.16 6
8 -17 1 4017.88 942.986 6
8 -17 1 5652.38 1039.71 5
-8 -17 2 3584.6 1245.62 5
17 -8 2 3336.92 947.158 6
17 -8 -2 3313.62 974.493 6
8 -17 -2 5154.71 1098.58 6
8 -17 2 3284.94 948.784 6
8 -17 2 3268.88 1002.53 5
-8 -17 3 3011.35 963.298 5
17 -8 3 4605.69 972.391 6
17 -8 -3 4335.52 1018.32 6
8 -17 -3 5798.66 1089.14 6
8 -17 3 5431.83 1045.59 6
-8 -17 -3 3928.99 981.929 6
8 -17 3 4794.01 1015.81 5
-8 -17 4 559.747 936.66 5
8 -17 -4 2913.78 912.609 6
8 -17 4 3296.27 900.159 6
-8 -17 4 343.394 763.369 6
8 -17 4 385.124 798.554 5
-8 -17 5 -29.0528 840.615 5
-8 -17 5 1368.69 751.517 6
8 -17 5 182.283 695.715 5
-8 -17 6 -365.94 770.897 5
8 -17 6 476.97 730.853 5
-8 -17 7 1378.01 852.332 5
8 -17 7 715.786 659.904 5
8 -17 8 -221.265 540.469 5
-8 -17 8 -90.8084 620.53 5
8 -17 9 1366.48 527.915 5
-8 -17 9 240.395 562.031 5
17 -9 0 14213.5 1490.19 6
9 -17 0 14725.1 1438.43 6
-9 -17 1 4847.65 1194.01 5
17 -9 1 5585.73 1069.4 6
17 -9 -1 4219.31 1031.42 6
9 -17 -1 4119.51 930.175 6
9 -17 1 5026.9 1050.53 6
9 -17 1 3824.4 916.148 5
-9 -17 2 1864.29 1016.66 5
17 -9 2 -134.605 701.68 6
17 -9 -2 534.794 735.992 6
9 -17 -2 876.948 889.862 6
9 -17 2 715.689 712.225 6
9 -17 2 1035.19 770.012 5
-9 -17 3 1340.13 994.262 5
17 -9 3 1039.08 742.603 6
17 -9 -3 3.21281 727.881 6
9 -17 -3 924.195 767.169 6
9 -17 3 2123.65 832.357 6
-9 -17 -3 -507.381 821.444 6
9 -17 3 599.621 767.817 5
-9 -17 4 2216.29 962.495 5
9 -17 -4 584.704 759.145 6
9 -17 4 814.481 690.531 6
9 -17 4 2607.77 833.771 5
-9 -17 5 2795.49 847.427 5
-9 -17 5 3358.65 793.779 6
9 -17 5 5624.58 1049.46 5
-9 -17 6 4645.56 978.731 5
9 -17 6 3828.63 849.563 5
-9 -17 7 1267.93 742.647 5
-17 -9 7 620.83 742.57 5
9 -17 7 1243.58 617.836 5
9 -17 8 12.8891 516.545 5
-9 -17 8 322.771 576.693 5
9 -17 9 184.059 434.766 5
17 -10 0 647.324 705.23 6
10 -17 0 -251.364 741.539 6
-10 -17 1 1526.39 994.178 5
17 -10 1 1220.03 839.482 6
17 -10 -1 962.954 797.532 6
10 -17 -1 -153.052 792.496 6
10 -17 1 -473.485 686.825 6
10 -17 1 -552.324 764.917 5
-10 -17 2 751.276 905.453 5
17 -10 2 1066.47 725.922 6
17 -10 -2 2273.06 923.628 6
10 -17 -2 2068.36 801.351 6
10 -17 2 2637.89 869.936 6
10 -17 2 1111.53 735.773 5
-10 -17 3 3193.17 1096.89 5
17 -10 3 894.352 688.345 6
17 -10 -3 2522.3 892.101 6
10 -17 -3 2392.01 790.07 6
10 -17 3 3400.64 904.337 6
-10 -17 -3 816.626 780.097 6
10 -17 3 743.174 737.036 5
-10 -17 4 2471.62 1014.96 5
10 -17 -4 2684.35 865.243 6
10 -17 4 2763.44 775.74 6
10 -17 4 3025.46 856.299 5
-10 -17 5 554.867 862.531 5
-10 -17 5 -87.9316 661.858 6
10 -17 5 161.093 648.98 5
-10 -17 6 273.733 720.482 5
10 -17 6 1078.66 668.485 5
-10 -17 7 -102.435 604.612 5
-17 -10 7 -1156.22 684.462 5
10 -17 7 357.796 568.876 5
10 -17 8 422.425 496.296 5
-10 -17 8 726.755 520.28 5
17 -11 0 -1100.18 776.656 6
11 -17 0 421.988 725.454 6
-11 -17 1 1166.28 882.825 5
17 -11 1 1097.74 695.615 6
17 -11 -1 432.03 684.314 6
11 -17 -1 269.318 669.154 6
11 -17 1 628.137 705.659 6
-11 -17 2 254.65 890.108 5
17 -11 2 -1144.76 687.432 6
17 -11 -2 724.112 658.838 6
11 -17 -2 83.4163 734.609 6
11 -17 2 89.6736 689.708 6
11 -17 2 -305.302 760.16 5
-11 -17 3 270.035 872.237 5
17 -11 3 -136.277 613.972 6
17 -11 -3 -129.781 647.582 6
11 -17 -3 -141.125 698.215 6
11 -17 3 -331.156 672.991 6
-11 -17 -3 -239.469 727.461 6
11 -17 3 398.592 667.32 5
-11 -17 4 661.435 764.425 5
11 -17 -4 411.703 650.703 6
11 -17 4 1153.36 666.828 6
11 -17 4 2213.06 755.478 5
-11 -17 5 359.492 815.696 5
-11 -17 5 905.047 624.3 6
11 -17 5 1546.69 682.828 5
-17 -11 6 -444.842 647.541 5
11 -17 6 632.926 527.817 5
-11 -17 7 968.931 572.342 5
-17 -11 7 613.908 575.361 5
11 -17 7 1347.48 609.303 5
11 -17 8 695.705 465.337 5
17 -12 0 113.838 672.748 6
12 -17 0 -101.428 658.075 6
-12 -17 1 1330.34 884.488 5
17 -12 1 2506.36 794.971 6
17 -12 -1 980.869 706.181 6
12 -17 -1 432.812 688.806 6
12 -17 1 779.141 692.66 6
-12 -17 2 2285.07 926.349 5
17 -12 2 979.368 675.304 6
17 -12 -2 1076.39 728.807 6
12 -17 -2 1660.4 697.597 6
12 -17 2 1311.32 660.404 6
12 -17 2 2092.12 741.591 5
-12 -17 3 4359.53 1008.56 5
17 -12 3 1925.84 716.135 6
17 -12 -3 1584.98 753.011 6
12 -17 -3 1186.49 688.211 6
12 -17 3 1220.41 619.005 6
-12 -17 -3 1780.18 675.413 6
12 -17 3 2279.01 740.72 5
-12 -17 4 1638.25 860.771 5
12 -17 -4 405.246 610.265 6
12 -17 4 1665.72 611.674 6
12 -17 4 1133.02 628.568 5
-12 -17 5 295.808 630.546 5
-17 -12 5 1303.74 686.259 5
-12 -17 5 261.784 539.465 6
12 -17 5 1132.55 624.719 5
-12 -17 6 87.2965 600.298 5
-17 -12 6 940.021 628.517 5
12 -17 6 1451.97 565.716 5
-12 -17 7 -221.014 521.292 5
12 -17 7 -849.762 500.147 5
17 -13 0 942.761 598.241 6
13 -17 0 2867.58 717.262 6
-13 -17 1 902.17 694.984 5
17 -13 1 -97.0955 579.25 6
17 -13 -1 700.043 622.665 6
13 -17 -1 735.234 673.468 6
13 -17 1 -402.256 581.741 6
-13 -17 2 511.831 704.752 5
17 -13 2 119.768 542.528 6
17 -13 -2 336.003 602.884 6
13 -17 -2 674.31 625.398 6
13 -17 2 -213.806 572.864 6
13 -17 2 -915.394 652.952 5
-13 -17 3 291.142 711.286 5
-17 -13 3 306.116 712.774 5
17 -13 3 -1141.12 564.183 6
17 -13 -3 793.384 566.619 6
13 -17 -3 1394.24 645.897 6
13 -17 3 -148.748 505.54 6
-13 -17 -3 699.958 585.189 6
13 -17 3 113.692 577.902 5
-13 -17 4 -569.606 679.024 5
-17 -13 4 -978.027 671.34 5
13 -17 -4 -779.526 567.15 6
13 -17 4 -264.712 429.607 6
13 -17 4 -117.733 544.364 5
-13 -17 5 845.011 607.087 5
-17 -13 5 348.203 618.832 5
-13 -17 5 -768.666 506.595 6
13 -17 5 10.1479 486.61 5
-13 -17 6 -117.639 504.847 5
-17 -13 6 973.606 628.71 5
13 -17 6 663.379 464.078 5
-17 -14 0 -750.484 689.167 5
17 -14 0 -608.23 526.964 6
14 -17 0 763.711 571.877 6
-14 -17 1 1009.65 687.255 5
-17 -14 1 377.827 640.928 5
17 -14 1 798.55 559.467 6
17 -14 -1 1221.36 597.234 6
14 -17 -1 -391.954 539.735 6
14 -17 1 1505.92 615.37 6
-14 -17 2 559.132 637.126 5
-17 -14 2 1153.74 705.352 5
17 -14 2 -84.988 520.772 6
17 -14 -2 502.307 538.65 6
14 -17 -2 535.459 527.949 6
14 -17 2 1048.21 544.396 6
-14 -17 -2 728.271 576.17 6
14 -17 2 1206.19 545.711 5
-14 -17 3 1312.59 697.103 5
-17 -14 3 578.359 634.171 5
17 -14 -3 592.616 534.255 6
14 -17 -3 327.586 494.193 6
14 -17 3 2065.12 563.448 6
14 -17 3 -210.118 460.443 5
-14 -17 4 -1222.74 611.504 5
-17 -14 4 416.917 535.547 5
14 -17 -4 626.65 441.16 6
-14 -17 4 -1298.19 541.193 6
14 -17 4 -277.643 467.959 5
-14 -17 5 -371.474 486.385 5
14 -17 5 201.845 422.215 5
17 -15 0 1294.98 491.107 6
15 -17 0 1644.97 541.601 6
-17 -15 1 422.595 508.803 5
17 -15 1 -276.551 433.087 6
17 -15 -1 -467.876 499.585 6
15 -17 -1 -442.389 509.609 6
15 -17 1 -37.3895 441.168 6
-15 -17 2 751.295 520.2 5
-17 -15 2 331.583 524.272 5
17 -15 2 -665.269 499.574 6
17 -15 -2 -186.524 452.572 6
15 -17 2 -84.808 449.401 6
15 -17 -2 885.496 482.671 6
-15 -17 -2 392.704 481.788 6
-17 -15 3 -302.937 547.72 5
15 -17 -3 520.213 419.193 6
-15 -17 3 -218.486 454.947 6
0 -18 0 51233.8 2561.1 6
0 -18 -1 8942.77 1320.32 6
0 -18 1 6999.56 1167.03 6
0 -18 2 -115.541 873.264 6
0 -18 2 -1105.33 926.126 5
0 -18 -3 -641.828 865.443 6
0 -18 3 -749.985 811.592 6
0 -18 3 -1534.43 917.384 5
0 -18 -4 -165.898 826.937 6
0 -18 4 -370.855 708.68 6
0 -18 4 482.091 893.196 5
0 -18 5 3128.53 910.906 6
0 -18 5 4536.82 1145.02 5
0 -18 6 11150.1 1363.08 5
0 -18 7 7722.7 1185.48 5
0 -18 8 4264.81 850.37 5
0 -18 -9 1175.95 621.681 8
0 -18 9 550.908 544.16 5
0 -18 -10 113.746 467.536 8
0 -18 10 958.895 499.913 5
1 -18 0 1796.86 963.733 6
-1 -18 0 375.231 859.444 6
1 -18 -1 901.308 972.461 6
1 -18 1 1580.08 920.894 6
-1 -18 -1 2429.84 979.058 6
-1 -18 1 510.774 818.026 6
1 -18 -2 -246.586 790.196 6
1 -18 2 462.633 849.128 6
-1 -18 -2 488.99 854.389 6
-1 -18 2 741.974 935.349 6
1 -18 2 1219.44 971.179 5
-1 -18 2 375.484 1039.52 5
1 -18 -3 -797.62 944.826 6
1 -18 3 -108.025 739.076 6
-1 -18 -3 306.044 810.188 6
-1 -18 3 -72.7093 743.749 6
1 -18 3 1366.5 863.583 5
-1 -18 3 753.588 907.848 5
1 -18 -4 -1262.65 924.788 6
1 -18 4 636.716 770.843 6
-1 -18 -4 -251.27 798.54 6
-1 -18 4 681.793 716.164 6
1 -18 4 -188.036 900.605 5
-1 -18 4 -279.853 940.598 5
1 -18 5 1556.01 883.03 6
-1 -18 5 1056.37 761.537 6
1 -18 5 271.115 873.135 5
-1 -18 5 625.854 876.48 5
1 -18 6 -936.919 957.885 5
-1 -18 6 -321.748 905.422 5
1 -18 7 -366.982 797.325 5
-1 -18 7 -904.326 807.269 5
1 -18 -8 395.664 643.86 8
1 -18 8 -225.451 587.805 5
-1 -18 8 -945.826 728.105 5
1 -18 -9 86.0338 529.274 8
-1 -18 -9 -310.583 568.556 8
1 -18 9 -375.691 545.723 5
1 -18 -10 -64.1675 436.193 8
-1 -18 -10 465.625 451.066 8
1 -18 10 -543.556 441.499 5
-1 -18 10 1025.87 464.162 5
2 -18 0 2084.85 977.181 6
-2 -18 0 2591.38 970.642 6
2 -18 -1 8176.25 1324.54 6
2 -18 1 5306.31 1143.72 6
-2 -18 -1 5498.77 1245.19 6
-2 -18 1 6059.1 1158.71 6
2 -18 -2 2590.68 998.076 6
2 -18 2 2578.33 969.993 6
-2 -18 -2 3322.87 1022.46 6
-2 -18 2 3330.04 1031.31 6
2 -18 2 5319.87 1123.92 5
-2 -18 2 2797.59 1020.86 5
2 -18 -3 132.734 805.673 6
2 -18 3 1894.88 931.927 6
-2 -18 -3 802.227 964.884 6
-2 -18 3 -124.14 740.854 6
2 -18 3 -588.888 980.08 5
-2 -18 3 1055.15 952.372 5
2 -18 -4 56.3977 844.402 6
2 -18 4 1641.06 788.878 6
-2 -18 -4 672.862 815.671 6
-2 -18 4 198.464 747.401 6
2 -18 4 796.448 759.322 5
-2 -18 4 612.745 966.625 5
2 -18 5 5024.19 1004.64 6
-2 -18 5 5694.5 1006.81 6
2 -18 5 4063.51 989.95 5
-2 -18 5 2620.52 930.626 5
2 -18 6 5793.17 1107.31 5
-2 -18 6 4108.74 1025.55 5
2 -18 -7 11302.9 1150.78 8
2 -18 7 12228.1 1313.99 5
-2 -18 7 9937.24 1217.56 5
2 -18 -8 4363.45 827.196 8
2 -18 8 4218.6 831.635 5
-2 -18 8 4554.62 895.829 5
2 -18 -9 732.821 541.16 8
2 -18 9 1718.75 651.922 5
-2 -18 9 1568.66 631.667 5
2 -18 -10 293.714 429.738 8
-2 -18 -10 -88.444 414.485 8
2 -18 10 -16.9865 402.931 5
-2 -18 10 320.204 415.597 5
3 -18 0 -408.414 840.024 6
-3 -18 0 -468.58 959.407 6
3 -18 -1 1916.96 978.172 6
3 -18 1 400.823 833.051 6
-3 -18 -1 1376.21 978.19 6
-3 -18 1 1460.45 905.768 6
3 -18 -2 1546.18 865.776 6
3 -18 2 1693.14 828.665 6
-3 -18 -2 1969.27 983.936 6
-3 -18 2 1423.44 860.399 6
3 -18 2 1342.37 841.662 5
-3 -18 2 2513.6 1042.21 5
3 -18 -3 1737.69 907.49 6
3 -18 3 1501.35 833.48 6
-3 -18 -3 294.253 874.834 6
-3 -18 3 814.904 855.579 6
3 -18 3 -166.721 832.044 5
-3 -18 3 1587.48 954.36 5
3 -18 -4 469.667 789.431 6
3 -18 4 749.377 745.403 6
-3 -18 -4 325.266 819.815 6
-3 -18 4 690.317 783.814 6
3 -18 4 822.552 884.06 5
-3 -18 4 1050.55 890.411 5
3 -18 5 837.704 765.019 6
-3 -18 5 1085.14 778.115 6
3 -18 5 2302.46 963.825 5
-3 -18 5 2665.08 1040.67 5
3 -18 -6 -547.538 618.663 8
3 -18 6 1200.46 842.45 5
-3 -18 6 1386.25 850.217 5
3 -18 -7 881.488 641.959 8
3 -18 7 -577.812 674.109 5
-3 -18 7 246.309 684.307 5
3 -18 -8 1156.03 581.999 8
3 -18 8 2836.39 723.139 5
-3 -18 8 2382.54 709.482 5
3 -18 -9 3084.03 674.382 8
3 -18 9 1118.07 522.35 5
-3 -18 9 2476.58 629.934 5
3 -18 -10 446.315 436.129 8
-3 -18 -10 332.547 422.623 8
4 -18 0 962.163 748.967 6
-4 -18 0 1545.97 899.042 6
-4 -18 1 749.176 882.838 5
4 -18 -1 1711.64 839.954 6
4 -18 1 1321.57 834.572 6
-4 -18 -1 757.648 861.92 6
-4 -18 1 685.457 829.585 6
-4 -18 2 1395.44 1090.15 5
4 -18 -2 1135.24 903.568 6
4 -18 2 1152.59 886.278 6
-4 -18 -2 600.879 861.082 6
-4 -18 2 84.1213 877.036 6
4 -18 2 648.041 861.005 5
-4 -18 3 1650.47 997.266 5
4 -18 -3 730.108 838.195 6
4 -18 3 92.4551 704.962 6
-4 -18 -3 11.9987 818.983 6
-4 -18 3 -229.723 735.773 6
4 -18 3 33.4361 724.909 5
4 -18 -4 3782.83 1034.85 6
4 -18 4 3390.01 880.912 6
-4 -18 -4 2547.02 941.008 6
-4 -18 4 2129.97 869.517 6
4 -18 4 3187.16 962.413 5
-4 -18 4 2489.95 1005.96 5
-4 -18 5 6341.16 1027.56 6
4 -18 5 7338.11 1082.4 5
-4 -18 5 6735.77 1262.11 5
4 -18 6 4810.77 990.943 5
-4 -18 6 4159.62 994.318 5
4 -18 -7 683.232 577.984 8
4 -18 7 1723.07 734.997 5
-4 -18 7 1507.13 810.751 5
4 -18 -8 1311.84 585.684 8
4 -18 8 492.674 592.236 5
-4 -18 8 -726.9 695.326 5
4 -18 -9 1444.98 560.222 8
4 -18 9 1006.91 499.926 5
-4 -18 9 1674.89 648.434 5
-4 -18 -10 270.502 393.038 8
5 -18 0 188.805 765.263 6
-5 -18 0 550.717 836.51 6
-5 -18 1 1350.48 907.56 5
5 -18 -1 -129.628 812.968 6
5 -18 1 275.181 735.318 6
-5 -18 -1 357.797 819.373 6
-5 -18 1 -127.027 813.145 6
-5 -18 2 7044.52 1296.6 5
5 -18 -2 5374.49 1140.41 6
5 -18 2 5694.17 1104.1 6
-5 -18 -2 6370.33 1175.63 6
-5 -18 2 6534.48 1154.22 6
5 -18 2 5099.62 1049.66 5
-5 -18 3 5659.3 1187.65 5
5 -18 -3 6023.56 1062.41 6
5 -18 3 5905.31 1060.94 6
-5 -18 -3 5611.85 1116.18 6
-5 -18 3 4517.86 967.571 6
5 -18 3 6647.57 1112.03 5
-5 -18 4 6850.82 1307.88 5
5 -18 -4 4959.05 1056.43 6
5 -18 4 4088.48 947.344 6
-5 -18 -4 4405.31 973.975 6
-5 -18 4 5153.6 980.961 6
5 -18 4 4720.24 977.891 5
-5 -18 5 3699.21 889.792 6
5 -18 5 4805.06 999.283 5
-5 -18 5 6285.76 1281.06 5
5 -18 6 1837.05 870.71 5
-5 -18 6 1297.3 763.734 5
5 -18 7 1846.75 713.047 5
-5 -18 7 -195.608 769.944 5
5 -18 -8 2385.01 601.364 8
5 -18 8 2533.15 659.126 5
-5 -18 8 1572.72 697.293 5
5 -18 -9 1686.24 512.946 8
5 -18 9 2375.46 556.864 5
-5 -18 9 1462.62 577.61 5
6 -18 0 211.072 736.086 6
-6 -18 0 -751.999 947.495 6
-6 -18 1 -603.653 846.543 5
6 -18 -1 109.85 800.893 6
6 -18 1 1009.94 767.959 6
-6 -18 -1 -10.9298 850.708 6
-6 -18 1 700.994 823.269 6
-6 -18 2 188.608 927.61 5
6 -18 -2 -47.6466 781.031 6
6 -18 2 -270.939 792.085 6
-6 -18 -2 125.854 859.256 6
-6 -18 2 -1583.85 996.239 6
6 -18 2 780.85 775.937 5
-6 -18 3 2736.58 1106.08 5
6 -18 -3 766.544 827.471 6
6 -18 3 -197.07 710.905 6
-6 -18 -3 -1004 892.995 6
-6 -18 3 -98.0207 808.215 6
6 -18 3 -199.086 729.779 5
-6 -18 4 1159.31 867.327 5
6 -18 -4 1175.95 849.189 6
6 -18 4 -351.364 664.861 6
-6 -18 4 784.415 728.121 6
6 -18 4 1410.83 717.563 5
-6 -18 5 2082.12 928.178 5
-6 -18 5 3209.97 820.267 6
6 -18 5 1545.5 841.718 5
6 -18 6 1100.21 657.749 5
-6 -18 6 266.377 848.14 5
6 -18 7 491.555 648.106 5
-6 -18 7 1010.05 714.701 5
6 -18 8 980.508 558.427 5
-6 -18 8 1190.26 694.886 5
6 -18 9 648.468 446.558 5
-6 -18 9 -66.1799 482.039 5
7 -18 0 51.5947 741.664 6
-7 -18 0 -1055.82 1021.91 6
-7 -18 1 -89.9019 837.701 5
7 -18 -1 611.2 778.305 6
7 -18 1 403.861 738.35 6
-7 -18 -1 -655.358 951.646 6
-7 -18 1 171.193 901.336 6
-7 -18 2 3062.72 1043.58 5
7 -18 -2 1996.1 892.785 6
7 -18 2 2228.23 832.117 6
-7 -18 -2 1375.68 870.553 6
-7 -18 2 1815.75 838.699 6
7 -18 2 1925.06 889.654 5
-7 -18 3 13098.7 1515.33 5
7 -18 -3 14811.6 1447.58 6
7 -18 3 12109.9 1292.49 6
-7 -18 -3 12691.8 1344.83 6
-7 -18 3 11144.6 1327.65 6
7 -18 3 14005.9 1360.51 5
7 -18 -4 17347.9 1467.09 6
7 -18 4 16582.2 1350.11 6
-7 -18 4 16266.2 1438.64 6
7 -18 4 15935.8 1387.24 5
-7 -18 4 16428.1 1630.77 5
-7 -18 5 2673.14 965.106 5
-7 -18 5 2669.63 800.858 6
7 -18 5 3226.98 890.515 5
7 -18 6 536.734 640.501 5
-7 -18 6 1357.98 863.492 5
7 -18 7 499.296 623.844 5
-7 -18 7 262.92 590.699 5
7 -18 8 -87.1209 458.504 5
-7 -18 8 -12.4188 537.666 5
7 -18 9 3396.71 554.864 5
-7 -18 9 2637.22 560.809 5
8 -18 0 -681.883 720.447 6
-8 -18 0 -1111.85 973.72 6
-8 -18 1 -1490.65 994.766 5
8 -18 -1 583.973 739.894 6
8 -18 1 -138.972 741.299 6
-8 -18 -1 -420.195 929.985 6
-8 -18 1 -1652.85 953.891 6
-8 -18 2 605.694 885.555 5
8 -18 -2 264.597 751.552 6
8 -18 2 728.303 706.337 6
-8 -18 -2 -1912.98 951.48 6
-8 -18 2 -581.671 852.321 6
8 -18 2 -1277.92 796.023 5
-8 -18 3 218.038 839.959 5
8 -18 -3 223.353 718.924 6
8 -18 3 990.29 736.653 6
-8 -18 -3 624.502 720.59 6
-8 -18 3 -365.076 761.986 6
8 -18 3 -1200.63 731.106 5
-8 -18 4 1592.47 947.543 5
8 -18 -4 193.664 704.143 6
8 -18 4 1235.76 662.348 6
-8 -18 4 1221.64 773.494 6
8 -18 4 -679.054 678.161 5
-8 -18 5 963.378 896.905 5
-8 -18 5 1017.98 626.415 6
8 -18 5 171.882 610.545 5
-8 -18 6 1289.69 833.03 5
8 -18 6 503.414 632.919 5
8 -18 7 -230.833 547.964 5
-8 -18 7 264.207 634.223 5
8 -18 8 -392.866 472.27 5
-8 -18 8 -386.93 539.349 5
18 -9 0 377.815 749.285 6
9 -18 0 396.129 725.176 6
-9 -18 0 -796.37 888.448 6
-9 -18 1 1487.22 903.326 5
18 -9 -1 717.239 774.781 6
9 -18 -1 1559.19 826.523 6
9 -18 1 553.682 745.461 6
-9 -18 -1 -28.9767 862.928 6
-9 -18 1 -841.884 913.742 6
-9 -18 2 8343.76 1265.2 5
9 -18 -2 6212.71 1033.83 6
9 -18 2 6271.93 1007.67 6
-9 -18 -2 6611.02 1111.94 6
-9 -18 2 4449.47 991.989 6
9 -18 2 6968.36 942.99 5
-9 -18 3 6753.43 1189.29 5
9 -18 -3 4914.82 962.772 6
9 -18 3 5282.07 881.685 6
-9 -18 -3 5112.85 899.94 6
-9 -18 3 3952.81 895.323 6
9 -18 3 4564.68 920.364 5
-9 -18 4 3179.17 967.408 5
9 -18 -4 4996 923.376 6
9 -18 4 3188.68 803.479 6
-9 -18 4 3120.45 838.205 6
9 -18 4 2957.86 820.471 5
-9 -18 5 2819.93 797.655 5
-9 -18 5 3577.09 760.539 6
9 -18 5 3055.9 826.548 5
-9 -18 6 234.947 648.642 5
9 -18 6 -1097.04 598.028 5
-18 -9 7 -262.617 582.79 5
9 -18 7 253.074 517.876 5
-9 -18 7 547.862 602.747 5
9 -18 8 2572.94 534.019 5
-9 -18 8 3200.65 604.853 5
18 -10 0 -332.24 666.303 6
10 -18 0 102.114 660.926 6
-10 -18 1 757.697 812.068 5
18 -10 1 389.145 661.405 6
18 -10 -1 148.714 709.573 6
10 -18 -1 919.703 694.491 6
10 -18 1 -17.6258 633.667 6
-10 -18 -1 -284.402 777.219 6
-10 -18 2 598.297 879.121 5
10 -18 -2 1430.63 709.931 6
10 -18 2 899.63 672.562 6
-10 -18 -2 1631.04 800.509 6
-10 -18 2 654.475 763.528 6
10 -18 2 489.799 599.391 5
-10 -18 3 1114.91 828.172 5
10 -18 -3 1057.61 701.049 6
10 -18 3 941.961 651.652 6
-10 -18 -3 852.098 623.757 6
-10 -18 3 -282.49 731.989 6
10 -18 3 -1248.96 713.696 5
-10 -18 4 750.385 774.003 5
10 -18 -4 235.429 629.03 6
10 -18 4 347.176 547.726 6
-10 -18 4 -1326.04 706.253 6
10 -18 4 1568.76 690.481 5
-10 -18 5 -741.037 713.444 5
-10 -18 5 114.453 580.074 6
10 -18 5 -598.544 560.391 5
-10 -18 6 127.14 601.846 5
-18 -10 6 -31.8186 604.209 5
10 -18 6 1081.77 601.232 5
-18 -10 7 -60.3365 548.957 5
10 -18 7 -76.4726 429.684 5
-10 -18 7 114.522 478.963 5
18 -11 0 -228.988 662.475 6
11 -18 0 291.046 667.693 6
-11 -18 1 133.427 733.503 5
18 -11 1 -66.4629 625.518 6
18 -11 -1 887.123 680.365 6
11 -18 -1 1051.26 722.866 6
11 -18 1 891.707 664.074 6
-11 -18 -1 632.139 696.647 6
-11 -18 2 344.734 764.168 5
11 -18 -2 1019.96 658.443 6
11 -18 2 677.534 583.534 6
-11 -18 -2 1677.22 729.146 6
-11 -18 2 116.955 748.892 6
11 -18 2 2289.87 699.426 5
-11 -18 3 2170.28 754.901 5
11 -18 -3 3221.92 724.456 6
11 -18 3 3418.72 725.739 6
-11 -18 -3 1083.29 623.903 6
-11 -18 3 2496.65 684.63 6
11 -18 3 3633.43 768.609 5
-11 -18 4 1436.94 752.336 5
11 -18 -4 2225.4 670.442 6
11 -18 4 2022.85 623.737 6
-11 -18 4 608.765 583.87 6
11 -18 4 2294.49 698.854 5
-11 -18 5 -466.07 602.122 5
-11 -18 5 281.446 489.752 6
11 -18 5 1011.1 530.468 5
-11 -18 6 68.2742 558.145 5
-18 -11 6 1529.11 627.886 5
11 -18 6 229.371 508.579 5
11 -18 7 -46.9501 423.589 5
18 -12 0 555.171 580.748 6
12 -18 0 -451.288 636.175 6
-12 -18 0 217.226 687.114 6
18 -12 1 1777.39 654.051 6
18 -12 -1 1410.8 640.509 6
12 -18 -1 2003.69 688.103 6
12 -18 1 1350.73 664.831 6
-12 -18 -1 254.739 667.505 6
-12 -18 2 2549.54 710.686 5
12 -18 -2 754.563 622.406 6
12 -18 2 1925 610.085 6
-12 -18 -2 1296.61 604.72 6
-12 -18 2 1587.37 675.908 6
12 -18 2 1075.28 614.036 5
-12 -18 3 458.011 699.05 5
12 -18 -3 -343.263 556.369 6
12 -18 3 721.087 566.952 6
-12 -18 -3 -491.238 580.266 6
-12 -18 3 -22.5835 591.762 6
-12 -18 4 -54.1509 584.05 5
-18 -12 4 -348.037 622.244 5
12 -18 -4 -1020.66 550.517 6
12 -18 4 -547.939 467.664 6
-12 -18 4 -113.83 505.87 6
12 -18 4 740.78 541.746 5
-12 -18 5 -261.99 521.735 5
-18 -12 5 1177.65 574.86 5
-12 -18 5 -544.926 463.609 6
12 -18 5 1754.36 530.61 5
12 -18 6 188.871 410.35 5
-12 -18 6 414.076 485.417 5
13 -18 0 617.346 547.814 6
-13 -18 0 -1177.98 586.437 6
13 -18 -1 558.117 533.47 6
13 -18 1 303.031 513.336 6
-13 -18 -1 1444 657.015 6
-13 -18 1 -273.206 603.115 6
-13 -18 2 292.644 641.513 5
-18 -13 2 655.034 596.608 5
13 -18 -2 202.99 507.558 6
13 -18 2 1134.91 521.565 6
-13 -18 -2 578.425 525.772 6
-13 -18 2 663.845 561.883 6
13 -18 2 77.0749 475.822 5
-13 -18 3 1706.85 671.511 5
-18 -13 3 493.13 583.363 5
13 -18 -3 -46.949 525.923 6
13 -18 3 989.388 496.45 6
-13 -18 3 778.111 539.03 6
13 -18 3 95.7076 455.743 5
-13 -18 4 514.097 577.439 5
-18 -13 4 769.355 594.912 5
-13 -18 4 107.369 473.794 6
13 -18 4 -543.833 481.207 5
14 -18 0 7385.74 743.271 6
-14 -18 0 6162.99 768.653 6
-18 -14 1 2168.69 602.071 5
14 -18 -1 1208.44 498.437 6
14 -18 1 2848.54 573.81 6
-14 -18 -1 2296.27 605.241 6
-14 -18 1 1335.99 585.003 6
-18 -14 2 586.462 527.488 5
14 -18 -2 216.53 437.296 6
14 -18 2 537.95 427.419 6
-14 -18 2 289.425 492.108 6
0 -19 0 -270.606 830.343 6
0 -19 -1 2857.04 1004.68 6
0 -19 1 2693.7 940.593 6
0 -19 -2 20945 1715.82 6
0 -19 2 19318.4 1574.49 6
0 -19 2 18917.9 1637.02 5
0 -19 -3 15425.9 1465.06 6
0 -19 3 13710.7 1389.07 6
0 -19 3 11222.1 1298.98 5
0 -19 -4 7722.47 1100.81 6
0 -19 4 7112.8 1012.66 6
0 -19 4 7898.42 1168.68 5
0 -19 5 1012.38 724.772 6
0 -19 5 -573.857 841.367 5
0 -19 6 73.02 732.806 5
0 -19 7 844.732 718.343 5
0 -19 -8 -273.357 550.324 8
0 -19 8 -709.042 525.12 5
0 -19 -9 1180.34 494.767 8
0 -19 9 328.83 441.961 5
1 -19 0 1440.29 948.575 6
-1 -19 0 2348.24 957.276 6
1 -19 -1 316.285 847.725 6
1 -19 1 635.476 875.855 6
-1 -19 -1 618.75 895.277 6
-1 -19 1 1850.88 926.346 6
1 -19 -2 2101.37 958.12 6
1 -19 2 2150.95 950.84 6
-1 -19 -2 3300.24 1042.28 6
-1 -19 2 123.289 790.716 6
1 -19 2 139.96 963.644 5
-1 -19 2 328.064 845.131 5
1 -19 -3 24.0129 798.895 6
1 -19 3 916.912 770.353 6
-1 -19 -3 1036.45 899.162 6
-1 -19 3 871.378 855.893 6
-1 -19 3 -951.369 918.094 5
1 -19 -4 -847.338 793.213 6
1 -19 4 -95.491 709.289 6
-1 -19 -4 -1224.31 823.17 6
-1 -19 4 1117.84 781.526 6
1 -19 4 -1565.25 930.507 5
-1 -19 4 -533.276 915.814 5
1 -19 5 1349.57 732.262 6
-1 -19 5 2687.5 796.109 6
1 -19 5 1435.65 886.333 5
-1 -19 5 -59.5909 788.485 5
1 -19 6 2322.85 830.552 5
-1 -19 6 615.258 677.523 5
1 -19 -7 2181.23 669.047 8
1 -19 7 3002.52 789.287 5
-1 -19 7 1122.18 718.658 5
1 -19 -8 1769.08 603.76 8
1 -19 8 1739.93 627.552 5
-1 -19 8 2736.7 706.448 5
1 -19 -9 -276.307 430.798 8
-1 -19 -9 178.591 436.745 8
1 -19 9 459.149 445.969 5
-1 -19 9 280.705 417.92 5
2 -19 0 522.44 785.862 6
-2 -19 0 495.099 802.51 6
2 -19 -1 4602.22 976.588 6
2 -19 1 5156.58 1080.05 6
-2 -19 -1 5090.59 1060 6
-2 -19 1 5370.94 1067.71 6
2 -19 -2 5498.7 1091 6
2 -19 2 6321.22 1126.13 6
-2 -19 -2 6420.01 1135.93 6
-2 -19 2 4932.43 1097.81 6
2 -19 2 6530.47 1108.97 5
-2 -19 2 4565.13 1122.49 5
2 -19 -3 12313 1337.13 6
2 -19 3 12204.9 1261.38 6
-2 -19 -3 13390.6 1382.84 6
-2 -19 3 13445.4 1378.58 6
2 -19 3 9162.14 1262.84 5
-2 -19 3 9972.84 1285.42 5
2 -19 4 11260.3 1222.77 6
2 -19 -4 8836.44 1153.27 6
-2 -19 -4 10086.9 1160.2 6
-2 -19 4 7638.11 1077.34 6
2 -19 4 11089.1 1323.73 5
-2 -19 4 8611.89 1234.2 5
2 -19 5 5628.33 882.21 6
-2 -19 5 7675.41 999.015 6
2 -19 5 7287.47 1123.18 5
-2 -19 5 4047.74 964.188 5
2 -19 -6 -276.809 609.001 8
2 -19 6 1242.05 739.97 5
-2 -19 6 307.968 777.81 5
2 -19 -7 -521.419 592.698 8
2 -19 7 -25.5978 593.3 5
-2 -19 7 -154.751 711.185 5
2 -19 -8 -221.266 490.909 8
2 -19 8 525.896 540.767 5
-2 -19 8 658.605 616.304 5
2 -19 -9 1254.71 483.826 8
-2 -19 -9 440.45 459.539 8
2 -19 9 1610.73 548.767 5
-2 -19 9 1429.6 515.774 5
3 -19 0 4691.79 1055.96 6
-3 -19 0 4398.39 1059.27 6
3 -19 -1 2304.52 896.94 6
3 -19 1 2403.96 953.43 6
-3 -19 -1 3449.28 1059.52 6
-3 -19 1 1452.24 916.184 6
3 -19 -2 643.415 761.742 6
3 -19 2 1276.58 798.557 6
-3 -19 -2 1462.38 931.538 6
-3 -19 2 347.588 764.588 6
3 -19 2 1854.39 914.09 5
-3 -19 2 1380.87 917.893 5
3 -19 -3 -651.048 801.942 6
3 -19 3 -325.21 739.214 6
-3 -19 -3 685.818 863.135 6
-3 -19 3 -275.998 770.437 6
3 -19 3 -3.07925 714.498 5
-3 -19 3 -729.198 870.738 5
3 -19 -4 2288.92 893.177 6
3 -19 4 2026.02 748.931 6
-3 -19 -4 3708.4 945.537 6
-3 -19 4 1636.57 800.985 6
3 -19 4 2367.44 902.153 5
-3 -19 4 1583.91 881.93 5
3 -19 5 1463.66 686.087 6
-3 -19 5 2611.34 794.773 6
3 -19 5 2344.72 772.066 5
-3 -19 5 3027.78 908.221 5
3 -19 6 4758.82 959.655 5
-3 -19 6 2774.06 804.226 5
3 -19 -7 3644.55 692.804 8
3 -19 7 3069.4 712.818 5
-3 -19 7 2313.37 767.479 5
3 -19 -8 2708.46 577.04 8
3 -19 8 1903.19 572.313 5
-3 -19 8 2108.08 673.172 5
-3 -19 -9 2164.02 506.867 8
3 -19 9 2075.28 522.81 5
-3 -19 9 2640.44 560.597 5
4 -19 0 411.362 801.578 6
-4 -19 0 1048.15 896.199 6
4 -19 -1 2728.77 937.003 6
4 -19 1 1596.47 759.947 6
-4 -19 -1 4092.5 1039.53 6
-4 -19 1 4819.19 1039.57 6
4 -19 -2 5953.83 1103.87 6
4 -19 2 4063.13 948.845 6
-4 -19 -2 3262.55 971.71 6
-4 -19 2 3814.8 990.011 6
4 -19 2 4357.28 1023.13 5
-4 -19 2 2251.38 968.983 5
4 -19 -3 4310.14 979.048 6
4 -19 3 3316.9 840.77 6
-4 -19 -3 5126.93 1023.07 6
-4 -19 3 4633.61 969.812 6
4 -19 3 3011.59 914.359 5
-4 -19 3 4377.15 1106.44 5
4 -19 -4 5920.4 1026.47 6
4 -19 4 4414.33 880.122 6
-4 -19 -4 4442.81 922.997 6
-4 -19 4 4349.27 932.303 6
4 -19 4 3184.94 908.945 5
-4 -19 4 5427.74 1158.71 5
-4 -19 5 879.572 631.376 6
4 -19 5 2223.98 837.798 5
-4 -19 5 3486.45 951.533 5
4 -19 6 1980.08 704.69 5
-4 -19 6 339.869 764.011 5
4 -19 7 -128.171 615.738 5
-4 -19 7 -20.6423 668.919 5
4 -19 -8 -614.609 458.829 8
4 -19 8 -226.526 515.502 5
-4 -19 8 -190.341 532.967 5
-4 -19 -9 606.864 420.521 8
4 -19 9 446.912 434.918 5
5 -19 0 11147.7 1295.01 6
-5 -19 0 12554.1 1397.69 6
5 -19 -1 7285.85 1195.58 6
5 -19 1 6846.77 1066.02 6
-5 -19 -1 7742.53 1227.16 6
-5 -19 1 4865.08 1103.99 6
5 -19 -2 1994.55 857.293 6
5 -19 2 926.809 777.906 6
-5 -19 -2 1890.26 935.423 6
-5 -19 2 2391.62 848.253 6
5 -19 2 2330.28 822.248 5
-5 -19 2 2795.12 1010.8 5
5 -19 -3 -7.37686 737.86 6
5 -19 3 -184.366 682.351 6
-5 -19 -3 1397.49 797.288 6
-5 -19 3 -726.192 830.28 6
5 -19 3 -335.901 790.605 5
-5 -19 3 62.9468 797.949 5
5 -19 -4 278.73 685.958 6
5 -19 4 1614.33 725.039 6
-5 -19 4 -490.307 686.708 6
5 -19 4 286.46 693.467 5
-5 -19 4 3.21659 813.793 5
-5 -19 5 425.114 612.83 6
5 -19 5 1883.13 698.594 5
-5 -19 5 1540.73 789.791 5
5 -19 6 3745.84 842.779 5
-5 -19 6 4372.1 956.167 5
5 -19 7 5356.59 840.533 5
-5 -19 7 5478.91 857.472 5
5 -19 8 3752.88 626.274 5
-5 -19 8 3058.57 663.579 5
6 -19 0 -963.681 786.31 6
-6 -19 0 470.426 783.798 6
6 -19 -1 2766.48 913.879 6
6 -19 1 920.663 785.323 6
-6 -19 -1 909.253 822.66 6
-6 -19 1 1452.78 839.84 6
6 -19 -2 1700.36 871.006 6
6 -19 2 1166.38 760.113 6
-6 -19 -2 688.645 786.51 6
-6 -19 2 1043.06 798.215 6
6 -19 2 2527.92 812.413 5
-6 -19 2 442.031 855.483 5
6 -19 -3 445.053 720.489 6
6 -19 3 -38.8592 705.566 6
-6 -19 -3 -878.004 718.467 6
-6 -19 3 -578.048 729.377 6
6 -19 3 874.716 781.154 5
-6 -19 3 349.446 821.553 5
6 -19 -4 -851.201 722.708 6
6 -19 4 -890.028 648.38 6
-6 -19 4 -81.4423 664.134 6
6 -19 4 -598.697 711.77 5
-6 -19 4 -469.514 748.084 5
-6 -19 5 1427.79 658.605 6
6 -19 5 1301.88 605.25 5
-6 -19 5 2390.31 847.828 5
6 -19 6 583.391 632.956 5
-6 -19 6 1643.16 796.36 5
6 -19 7 214.998 487.624 5
-6 -19 7 692.131 558.581 5
6 -19 8 1169.84 508.47 5
-6 -19 8 994.827 510.696 5
7 -19 0 3319.02 895.91 6
-7 -19 0 4293.34 972.329 6
7 -19 -1 4635 962.26 6
7 -19 1 4263.28 908.456 6
-7 -19 -1 4244.31 986.965 6
-7 -19 1 4754.02 979.997 6
-7 -19 2 3880.14 1070.39 5
7 -19 -2 2913.74 858.984 6
7 -19 2 3760.61 899.47 6
-7 -19 -2 2729.51 871.39 6
-7 -19 2 2522.75 860.223 6
7 -19 2 2805.56 703.631 5
-7 -19 3 -374.963 863.336 5
7 -19 -3 -64.6852 746.768 6
7 -19 3 809.845 705.577 6
-7 -19 -3 1910.07 780.689 6
-7 -19 3 1728.43 839.106 6
7 -19 3 -832.377 761.065 5
7 -19 -4 256.012 668.468 6
7 -19 4 -4.524 623.389 6
-7 -19 4 142.277 660.393 6
7 -19 4 -102.397 655.875 5
-7 -19 4 -996.215 859.783 5
-7 -19 5 972.269 624.202 6
7 -19 5 371.763 592.979 5
-7 -19 5 1848.58 839.324 5
7 -19 6 3664.05 769.236 5
-7 -19 6 2522.34 803.756 5
7 -19 7 1864 560.193 5
-7 -19 7 2651.49 663.401 5
7 -19 8 1865.48 499.855 5
-7 -19 8 2859.76 561.751 5
8 -19 0 643.803 672.16 6
-8 -19 0 -362.006 820.559 6
8 -19 -1 2460.66 837.765 6
-8 -19 -1 1654.95 833.521 6
-8 -19 1 3895.39 941.572 6
-8 -19 2 7944.47 1110.51 5
8 -19 -2 7417.8 1024.59 6
8 -19 2 7304.83 992.299 6
-8 -19 -2 5655.49 964.641 6
-8 -19 2 6475.78 1031.51 6
8 -19 2 6963.51 1006.14 5
-8 -19 3 1706.14 892.674 5
8 -19 -3 1260.31 695.252 6
8 -19 3 1746.98 719.343 6
-8 -19 -3 3144.06 819.905 6
-8 -19 3 1127.33 716.711 6
8 -19 3 2454.15 705.424 5
-8 -19 4 475.356 752.519 5
8 -19 -4 465.307 654.023 6
8 -19 4 431.208 545.686 6
-8 -19 4 -112.947 649.646 6
8 -19 4 99.9838 683.411 5
-8 -19 5 523.169 555.837 6
8 -19 5 479.19 605.672 5
-8 -19 5 -692.343 666.734 5
8 -19 6 301.742 486.092 5
-8 -19 6 126.893 649.977 5
8 -19 7 -231.502 435.729 5
-8 -19 7 -130.671 470.946 5
9 -19 0 10273.8 1112.32 6
-9 -19 0 12067.8 1235.81 6
9 -19 -1 5670.56 901.018 6
9 -19 1 6174.3 929.474 6
-9 -19 -1 4897.12 912.309 6
-9 -19 1 3741.33 917.785 6
-9 -19 2 2241.09 830.718 5
9 -19 -2 1079.62 707.853 6
9 -19 2 454.217 587.328 6
-9 -19 -2 726.129 654.89 6
-9 -19 2 2087.03 762.275 6
9 -19 2 -529.051 682.192 5
-9 -19 3 177.589 692.872 5
9 -19 -3 -143.21 610.897 6
9 -19 3 714.45 578.881 6
-9 -19 -3 -182.022 584.978 6
-9 -19 3 1244.31 730.029 6
9 -19 3 148.25 613.709 5
-9 -19 4 2444.06 753.555 5
9 -19 -4 1458.23 718.594 6
9 -19 4 2101.94 612.18 6
-9 -19 4 1819.99 644.305 6
9 -19 4 3805.22 724.69 5
-9 -19 5 3747.95 659.297 6
9 -19 5 4277.76 724.954 5
-9 -19 5 3081.65 803.335 5
9 -19 6 4312.72 700.07 5
-9 -19 6 5617.17 812.412 5
9 -19 7 3681.89 577.712 5
-9 -19 7 3943.56 621.119 5
10 -19 0 753.042 633.466 6
-10 -19 0 -1067.55 732.967 6
10 -19 -1 49.0615 632.895 6
-10 -19 -1 -1113.51 774.8 6
-10 -19 1 120.766 683.891 6
-10 -19 2 1925.13 767.092 5
10 -19 -2 1177.21 712.481 6
10 -19 2 606.099 570.325 6
-10 -19 -2 -681.298 645.093 6
-10 -19 2 1665.5 710.165 6
10 -19 2 817.677 601.881 5
-10 -19 3 4673.21 897.198 5
10 -19 -3 2305.51 722.519 6
10 -19 3 3178.63 671.419 6
-10 -19 -3 2186.9 660.463 6
-10 -19 3 3162.93 760.893 6
10 -19 3 2668.84 671.878 5
-10 -19 4 3003.37 780.028 5
10 -19 -4 2815.8 660.052 6
10 -19 4 1741.11 527.837 6
-10 -19 4 2470.51 660.865 6
10 -19 4 3371.1 671.602 5
-10 -19 5 177.175 464.113 6
10 -19 5 126.647 483.669 5
-10 -19 5 602.279 584.225 5
10 -19 6 413.92 450.183 5
-10 -19 6 647.512 490.947 5
11 -19 0 850.787 612.091 6
-11 -19 0 307.401 632.854 6
11 -19 -1 1158.6 570.599 6
11 -19 1 1113.81 597.503 6
-11 -19 -1 -293.953 669.845 6
-11 -19 1 1231.24 685.665 6
-11 -19 2 918.599 632.804 5
11 -19 -2 -264.204 602.456 6
11 -19 2 150.569 510.389 6
-11 -19 -2 -599.548 640.699 6
-11 -19 2 242.319 554.179 6
-11 -19 3 83.7888 613.826 5
11 -19 -3 241.037 566.287 6
11 -19 3 -358.464 496.295 6
-11 -19 -3 471.458 465.582 6
-11 -19 3 -546.806 530.89 6
11 -19 3 1222.61 605.466 5
-11 -19 4 1621.81 576.016 5
11 -19 -4 1831.42 552.443 6
-11 -19 4 1285.76 511.077 6
11 -19 4 3069.94 641.245 5
11 -19 5 4385.53 622.596 5
-11 -19 5 3012.09 666.856 5
12 -19 0 -390.354 506.699 6
-12 -19 0 -1155.5 630.017 6
12 -19 -1 828.663 514.653 6
12 -19 1 644.487 496.573 6
-12 -19 -1 -471.271 608.448 6
-12 -19 1 416.342 523.179 6
-12 -19 2 1199.74 642.24 5
12 -19 -2 2243.09 571.24 6
12 -19 2 2584.44 588.822 6
-12 -19 -2 924.316 490.391 6
-12 -19 2 1352.03 559.121 6
-12 -19 3 2740.73 611.754 5
-19 -12 3 2379.69 702.267 5
12 -19 -3 1550.83 506.22 6
12 -19 3 2199.9 521.236 6
-12 -19 3 3081.04 608.111 6
-19 -12 4 1153.19 632.642 5
13 -19 0 -167.968 441.801 6
-13 -19 0 -1550.49 570.857 6
13 -19 -1 -850.898 469.061 6
-13 -19 -1 -968.175 504.503 6
-13 -19 1 -1629.83 619.866 6
13 -19 -2 -992.445 476.352 6
-13 -19 2 -425.992 447.124 6
0 -20 0 1672.61 908.123 6
0 -20 -1 10089.4 1249.29 6
0 -20 1 8092.14 1152.81 6
0 -20 -2 7909.8 1182.23 6
0 -20 2 4448.75 922.547 6
0 -20 2 7858.2 1067.42 5
0 -20 -3 1152.35 731.292 6
0 -20 3 1865.81 814.761 6
0 -20 3 3022.69 815.703 5
0 -20 -4 -699.741 720.023 6
0 -20 4 -40.1545 618.654 6
0 -20 4 1437.51 790.987 5
0 -20 5 215.585 586.242 6
0 -20 5 1074.93 703.479 5
0 -20 6 821.794 598.141 5
0 -20 -7 1546.09 527.785 8
0 -20 7 896.701 572.28 5
0 -20 -8 168.06 421.943 8
0 -20 8 909.033 504.48 5
1 -20 0 677.939 798.386 6
-1 -20 0 912.621 820.859 6
1 -20 -1 -423.248 847.607 6
1 -20 1 270.111 745.203 6
-1 -20 -1 1254.78 838.967 6
-1 -20 1 665.168 807.888 6
1 -20 -2 -125.265 804.592 6
1 -20 2 1998.49 800.216 6
-1 -20 -2 1881.44 868.6 6
-1 -20 2 654.056 743.787 6
1 -20 2 916.063 741.176 5
-1 -20 2 669.579 813.939 5
1 -20 -3 -1180.52 793.647 6
1 -20 3 -81.7013 686.955 6
-1 -20 -3 958.016 728.974 6
-1 -20 3 524.953 694.741 6
1 -20 3 -656.055 685.016 5
-1 -20 3 36.9865 672.785 5
1 -20 -4 223.472 685.324 6
1 -20 4 -351.256 614.513 6
-1 -20 -4 -1149.49 778.719 6
-1 -20 4 180.7 605.734 6
1 -20 4 1400.34 801.034 5
-1 -20 4 51.2516 689.627 5
1 -20 5 -138.391 544.208 6
-1 -20 5 269.078 592.401 6
1 -20 5 -591.062 651.422 5
1 -20 6 535.744 639.94 5
-1 -20 6 34.0362 636.539 5
1 -20 -7 -227.567 462.32 8
-1 -20 -7 -1046.5 544.75 8
1 -20 7 -96.0143 588.225 5
-1 -20 7 -525.663 582.993 5
-1 -20 -8 -329.816 440.068 8
-1 -20 8 -233.837 467.651 5
2 -20 0 8650.54 1171.19 6
-2 -20 0 7677.38 1124.9 6
2 -20 -1 2964.53 904.172 6
2 -20 1 4231.06 959.467 6
-2 -20 -1 5434.66 1058.16 6
-2 -20 1 2723.13 866.457 6
2 -20 -2 1572.21 792.722 6
2 -20 2 1713.77 774.614 6
-2 -20 -2 2170.39 819.899 6
-2 -20 2 294.624 696.088 6
2 -20 2 1767.83 731.958 5
-2 -20 2 740.779 740.572 5
2 -20 -3 117.207 704.299 6
2 -20 3 -423.739 672.772 6
-2 -20 -3 -149.979 702.351 6
-2 -20 3 -727.069 648.828 6
2 -20 3 -91.6426 687.159 5
-2 -20 3 -453.67 694.769 5
2 -20 -4 1049.58 704.066 6
2 -20 4 439.86 620.271 6
-2 -20 -4 149.239 650.212 6
-2 -20 4 659.782 661.673 6
2 -20 4 760.143 665.507 5
-2 -20 4 -228.888 773.79 5
2 -20 5 489.423 527.601 6
-2 -20 5 -88.2819 566.891 6
2 -20 5 1045.56 650.517 5
-2 -20 5 792.702 711.059 5
2 -20 6 900.404 620.713 5
-2 -20 6 330.416 599.36 5
2 -20 7 208.575 577.561 5
-2 -20 7 407.466 524.479 5
-2 -20 -8 964.611 436.899 8
2 -20 8 -450.649 459.167 5
-2 -20 8 529.493 483.748 5
3 -20 0 898.538 748.822 6
-3 -20 0 -277.365 707.703 6
3 -20 -1 800.392 782.321 6
3 -20 1 -343.361 704.333 6
-3 -20 -1 1782.08 863.141 6
-3 -20 1 985.153 721.034 6
3 -20 -2 1.43995 742.118 6
3 -20 2 -685.773 724.163 6
-3 -20 -2 151.429 687.332 6
-3 -20 2 829.023 788.407 6
3 -20 2 -296.867 662.148 5
-3 -20 2 1000.38 709.76 5
3 -20 -3 639.433 674.496 6
3 -20 3 83.433 658.562 6
-3 -20 -3 452.441 728.543 6
-3 -20 3 479.278 687.245 6
3 -20 3 532.793 675.719 5
-3 -20 3 413.974 741.09 5
3 -20 -4 -561.234 677.929 6
3 -20 4 -77.9384 619.849 6
-3 -20 4 86.2597 613.178 6
3 -20 4 -305.192 660.798 5
-3 -20 4 1773.48 754.056 5
-3 -20 5 172.12 572.691 6
3 -20 5 404.679 596.167 5
-3 -20 5 -502.093 713.781 5
3 -20 6 257.977 580.7 5
-3 -20 6 1088.84 653.663 5
3 -20 7 230.913 520.784 5
-3 -20 7 -144.312 559.77 5
-3 -20 -8 -389.014 404.78 8
3 -20 8 1099.12 462.221 5
-3 -20 8 334.701 444.911 5
4 -20 0 2020.75 878.414 6
-4 -20 0 208.966 756.613 6
4 -20 -1 1398.54 740.428 6
4 -20 1 1321.13 792.301 6
-4 -20 -1 1846.43 829.756 6
-4 -20 1 448.394 708.609 6
4 -20 -2 770.476 714.614 6
4 -20 2 230.219 633.639 6
-4 -20 -2 449.778 760.421 6
-4 -20 2 388.539 719.746 6
4 -20 2 1376.76 734.139 5
-4 -20 2 -1200.67 818.035 5
4 -20 -3 1021.2 747.224 6
4 -20 3 -561.145 667.474 6
-4 -20 -3 883.26 684.518 6
-4 -20 3 -405.531 644.791 6
4 -20 3 -336.881 632.475 5
-4 -20 3 -1220.81 821.374 5
4 -20 -4 -717.529 670.993 6
4 -20 4 491.535 607.731 6
-4 -20 4 243.099 601.985 6
4 -20 4 -1524.21 713.725 5
-4 -20 4 -1012.05 776.627 5
-4 -20 5 164.519 543.725 6
4 -20 5 488.123 628.025 5
-4 -20 5 530.165 686.764 5
4 -20 6 42.5005 550.68 5
-4 -20 6 1304.01 655.944 5
4 -20 7 504.825 492.97 5
-4 -20 7 1153.38 525.359 5
4 -20 8 291.396 377.593 5
5 -20 0 363.137 685.94 6
-5 -20 0 26.514 671.186 6
5 -20 -1 1477.97 747.544 6
5 -20 1 188.89 666.14 6
-5 -20 -1 1849.34 792.354 6
-5 -20 1 338.302 706.945 6
5 -20 -2 -340.313 720.409 6
5 -20 2 759.12 645.785 6
-5 -20 -2 1389.31 766.088 6
-5 -20 2 458.696 760.761 6
5 -20 2 1284.96 632.896 5
-5 -20 2 2135.64 761.386 5
5 -20 -3 1593.91 694.687 6
5 -20 3 1212.16 654.637 6
-5 -20 -3 2223.7 736.077 6
-5 -20 3 1107.3 667.233 6
5 -20 3 2592.31 786.643 5
-5 -20 3 1898.52 738.865 5
5 -20 -4 832.161 659.42 6
5 -20 4 2321.4 685.201 6
-5 -20 4 2897.62 733.904 6
5 -20 4 717.12 652.937 5
-5 -20 4 915.41 700.161 5
5 -20 5 19.6276 515.417 5
-5 -20 5 -1153.81 708.826 5
5 -20 6 121.415 513.155 5
-5 -20 6 305.068 563.815 5
5 -20 7 -279.182 499.887 5
-5 -20 7 1010.89 544.949 5
6 -20 0 238.406 627.379 6
-6 -20 0 1408.57 791.852 6
6 -20 -1 227.872 691.501 6
6 -20 1 854.058 711.936 6
-6 -20 -1 905.268 727.087 6
-6 -20 1 1511.75 790.07 6
6 -20 -2 1688.61 769.337 6
6 -20 2 237.413 605.664 6
-6 -20 -2 1751.12 745.946 6
-6 -20 2 828.92 712.395 6
-6 -20 2 1483.77 827.391 5
6 -20 -3 848.992 617.492 6
6 -20 3 -2039.53 685.576 6
-6 -20 -3 905.504 680.292 6
-6 -20 3 -735.727 658.147 6
6 -20 3 -1136.22 671.583 5
-6 -20 3 1733.34 810.595 5
6 -20 -4 6.29889 623.178 6
6 -20 4 654.134 545.999 6
-6 -20 4 -645.78 582.025 6
6 -20 4 344.02 560.791 5
-6 -20 4 715.042 730.438 5
-6 -20 5 162.371 485.501 6
6 -20 5 191.042 553.224 5
-6 -20 5 -663.241 670.014 5
6 -20 6 -61.8884 464.49 5
-6 -20 6 -396.272 563.68 5
6 -20 7 378.527 464.721 5
-6 -20 7 -277.52 482.798 5
7 -20 0 -629.963 673.72 6
-7 -20 0 669.365 720.221 6
7 -20 -1 2506.56 785.518 6
7 -20 1 1461.77 694.953 6
-7 -20 -1 1310.29 751.001 6
-7 -20 1 606.699 706.41 6
7 -20 -2 4358.52 859.793 6
7 -20 2 3462.52 780.842 6
-7 -20 -2 5862.07 931.964 6
-7 -20 2 3501.46 821.907 6
-7 -20 2 3994.7 822.52 5
7 -20 -3 1671.91 688.837 6
7 -20 3 2364.96 633.244 6
-7 -20 -3 4263.96 830.218 6
-7 -20 3 2134.26 714.793 6
7 -20 3 2585.87 732.75 5
-7 -20 3 3262 833.456 5
7 -20 -4 1255.25 588.517 6
7 -20 4 -18.857 503.64 6
-7 -20 4 970.05 604.254 6
7 -20 4 749.972 594.577 5
-7 -20 4 1413.07 762.281 5
-7 -20 5 268.263 447.988 6
7 -20 5 1038.31 521.493 5
-7 -20 5 608.737 584.295 5
7 -20 6 714.129 479.989 5
-7 -20 6 -368.768 482.722 5
8 -20 0 2676.1 714.939 6
-8 -20 0 1972.54 750.928 6
8 -20 -1 461.796 591.073 6
8 -20 1 1519.83 639.36 6
-8 -20 -1 1771.86 682.06 6
-8 -20 1 507.866 688.366 6
8 -20 -2 142.602 612.705 6
8 -20 2 771.22 536.368 6
-8 -20 -2 844.226 594.007 6
-8 -20 2 131.544 599.9 6
-8 -20 2 -1157.36 692.854 5
8 -20 -3 632.4 602.511 6
8 -20 3 1797.16 611.408 6
-8 -20 -3 2479.66 683.842 6
-8 -20 3 -53.0651 537.408 6
8 -20 3 220.014 502.006 5
-8 -20 3 -273.278 629.272 5
8 -20 -4 2039.52 645.235 6
8 -20 4 784.768 460.572 6
-8 -20 4 -204.562 509.677 6
8 -20 4 637.173 539.765 5
-8 -20 4 286.201 600.115 5
8 -20 5 137.903 469.688 5
-8 -20 5 -695.104 522.185 5
8 -20 6 -305.388 455.354 5
-8 -20 6 240.339 457.167 5
9 -20 0 1014.14 616.613 6
-9 -20 0 -733.713 632.981 6
9 -20 -1 847.063 606.149 6
9 -20 1 926.71 613.192 6
-9 -20 -1 351.814 611.975 6
-9 -20 1 157.228 583.039 6
9 -20 -2 2107.24 650.634 6
9 -20 2 693.819 529.643 6
-9 -20 -2 571.621 556.67 6
-9 -20 2 139.9 590.203 6
-9 -20 2 -335.043 542.367 5
9 -20 -3 2403.03 664.782 6
9 -20 3 599.354 481.006 6
-9 -20 -3 3722.92 664.039 6
-9 -20 3 1823.81 619.499 6
9 -20 3 2632.37 640.329 5
-9 -20 3 -13.8019 580.114 5
9 -20 -4 1780.18 573.243 6
-9 -20 4 1560.65 544.423 6
9 -20 4 2132.36 584.91 5
-9 -20 4 1821.48 635.655 5
9 -20 5 -107.42 432.005 5
-9 -20 5 -514.422 505.951 5
10 -20 0 585.062 534.825 6
-10 -20 0 -553.207 556.153 6
10 -20 -1 -117.781 514.728 6
10 -20 1 182.011 514.447 6
-10 -20 -1 939.506 585.237 6
-10 -20 1 -204.061 512.178 6
10 -20 -2 -495.645 539.294 6
10 -20 2 440.443 471.982 6
-10 -20 -2 43.1917 521.429 6
-10 -20 2 -77.3378 500.509 6
10 -20 -3 -883.584 551.721 6
10 -20 3 -482.545 450.228 6
-10 -20 3 437.021 443.315 6
-10 -20 3 -343.046 492.238 5
-10 -20 4 1350.08 536.031 5
11 -20 0 -260.181 455.836 6
-11 -20 0 296.717 493.978 6
11 -20 -1 345.294 462.878 6
11 -20 1 -132.001 470.535 6
-11 -20 -1 54.2741 480.519 6
-11 -20 1 173.883 511.192 6
11 -20 -2 300.774 452.49 6
11 -20 2 620.762 426.932 6
-11 -20 2 592 503.596 6
-20 -11 3 1256.49 615.236 5
0 -21 0 -523.839 675.797 6
0 -21 -1 6818.66 975.028 6
0 -21 1 5513.17 913.563 6
0 -21 -2 3723.93 848.699 6
0 -21 2 4910.28 914.303 6
0 -21 -3 11535.3 1105.25 6
0 -21 3 9696.26 1000.15 6
0 -21 4 5233.29 784.818 6
0 -21 4 4855.86 788.837 5
0 -21 5 1842.66 594.562 5
0 -21 6 492.269 482.889 5
0 -21 7 871.051 476.317 5
1 -21 0 1641.06 738.589 6
-1 -21 0 997.533 733.2 6
1 -21 -1 -313.844 713.648 6
1 -21 1 1227.47 748.179 6
-1 -21 -1 566.193 686.517 6
-1 -21 1 -265.729 654.705 6
1 -21 -2 -182.198 718.813 6
1 -21 2 -218.158 668.488 6
-1 -21 -2 -508.468 688.583 6
-1 -21 2 -127.88 640.517 6
1 -21 -3 1150.83 694.979 6
1 -21 3 -209.651 607.962 6
-1 -21 -3 -811.014 737.775 6
-1 -21 3 1266.31 676.295 6
1 -21 3 669.584 673.074 5
-1 -21 3 53.7897 586.173 5
1 -21 -4 2162.31 686.543 6
1 -21 4 501.054 580.992 6
-1 -21 4 326.39 540.911 6
1 -21 4 1243.42 683.07 5
-1 -21 4 228.473 605.114 5
1 -21 5 444.071 554.734 5
-1 -21 5 -9.07546 547.258 5
1 -21 6 2358.58 589.345 5
-1 -21 6 259.572 478.86 5
1 -21 7 1290.99 472.347 5
-1 -21 7 -698.935 476.439 5
2 -21 0 565.674 693.053 6
-2 -21 0 1274.29 725.573 6
2 -21 -1 204.833 682.471 6
2 -21 1 -46.3892 671.911 6
-2 -21 -1 -828.393 696.818 6
-2 -21 1 982.053 704.1 6
-2 -21 -2 9363.57 1068.11 6
2 -21 -2 7542.88 1020.75 6
2 -21 2 8312.88 992.891 6
-2 -21 2 7868.39 1006.97 6
2 -21 -3 10588.3 1076.67 6
2 -21 3 9169.16 973.351 6
-2 -21 -3 10788.3 1035.15 6
-2 -21 3 11370.9 1064.25 6
2 -21 3 13765.1 1126.32 5
-2 -21 3 12531.2 1122.76 5
-2 -21 4 8276.23 896.198 6
2 -21 -4 6194.35 800.117 6
2 -21 4 7166.04 834.136 6
2 -21 4 7596.22 905.908 5
-2 -21 4 7211.48 931.466 5
-2 -21 5 3709.15 622.662 6
2 -21 5 3969.39 753.976 5
-2 -21 5 3334.95 698.008 5
2 -21 6 919.395 527.286 5
-2 -21 6 731.746 538.665 5
2 -21 7 -347.914 434.383 5
-2 -21 7 1024.58 488.136 5
3 -21 0 1692.04 727.55 6
-3 -21 0 1176.33 732.927 6
3 -21 -1 2267.63 828.011 6
3 -21 1 2873.02 762.162 6
-3 -21 -1 3410.65 872.998 6
-3 -21 1 2577.67 763.938 6
3 -21 -2 2374.01 800.101 6
3 -21 2 1011.56 658.273 6
-3 -21 -2 662.257 647.068 6
-3 -21 2 1761.46 716.006 6
3 -21 -3 -824.262 689.662 6
3 -21 3 -6.30721 583.321 6
-3 -21 -3 778.119 665.242 6
-3 -21 3 1736.12 646.997 6
3 -21 3 2740.59 691.408 5
-3 -21 3 1432.3 709.174 5
3 -21 -4 1208.39 600.697 6
3 -21 4 74.2501 515.601 6
-3 -21 4 -140.201 521.434 6
3 -21 4 1225.16 527.062 5
-3 -21 4 1013.51 667.213 5
-3 -21 5 2032.46 525.57 6
3 -21 5 1605.98 582.225 5
-3 -21 5 1695.12 631.491 5
3 -21 6 2457.41 549.483 5
-3 -21 6 1751.64 555.496 5
4 -21 0 600.741 638.82 6
-4 -21 0 379.565 657.195 6
4 -21 -1 1749.85 719.293 6
4 -21 1 1092.15 671.565 6
-4 -21 -1 1365 657.093 6
-4 -21 1 703.538 687.659 6
4 -21 -2 1706.96 685.034 6
4 -21 2 2651.39 698.712 6
-4 -21 -2 3547.16 769.26 6
-4 -21 2 2364.56 750.327 6
4 -21 -3 4743.01 809.844 6
4 -21 3 4032.31 700.808 6
-4 -21 -3 5052.72 841.248 6
-4 -21 3 4278.77 782.924 6
4 -21 3 4322.48 785.35 5
-4 -21 3 4405.11 835.085 5
4 -21 -4 4330.34 755.673 6
4 -21 4 3754.72 654.242 6
-4 -21 4 4924.79 727.562 6
4 -21 4 4038.84 738.86 5
-4 -21 4 4946.12 807.29 5
4 -21 5 -37.8178 511.28 5
-4 -21 5 2046.78 651.687 5
4 -21 6 -132.967 444.026 5
-4 -21 6 1096.74 510.349 5
5 -21 0 8643.23 964.649 6
-5 -21 0 10347.3 1089.6 6
5 -21 -1 6939.94 922.161 6
5 -21 1 7399.95 902.714 6
-5 -21 -1 7664.6 965.051 6
-5 -21 1 8245.51 982.33 6
5 -21 -2 4558.84 840.27 6
5 -21 2 3464.96 726.609 6
-5 -21 -2 4337.96 791.06 6
-5 -21 2 3821.23 752.944 6
5 -21 -3 1348.69 674.828 6
5 -21 3 -9.48961 511.217 6
-5 -21 -3 -316.058 576.956 6
-5 -21 3 389.096 580.308 6
5 -21 3 -865.736 543.209 5
-5 -21 3 -824.72 608.978 5
5 -21 -4 630.186 528.505 6
5 -21 4 66.2211 464.092 6
-5 -21 4 242.026 499.01 6
5 -21 4 -215.731 564.749 5
-5 -21 4 226.667 584.555 5
5 -21 5 1701.29 541.979 5
-5 -21 5 3501.2 680.783 5
5 -21 6 3318.16 546.416 5
-5 -21 6 4123.32 619.983 5
6 -21 0 776.193 604.125 6
-6 -21 0 879.489 665.306 6
6 -21 -1 952.115 618.841 6
6 -21 1 925.069 578.318 6
-6 -21 -1 2013.24 719.761 6
-6 -21 1 703.174 626.845 6
6 -21 -2 1795.01 644.374 6
6 -21 2 2590.52 648.04 6
-6 -21 -2 1342.13 659.034 6
-6 -21 2 2216.16 666.404 6
6 -21 -3 764.437 583.585 6
6 -21 3 1365.66 534.453 6
-6 -21 -3 264.443 556.886 6
-6 -21 3 421.355 549.731 6
6 -21 3 68.6223 512.609 5
-6 -21 3 974.6 564.734 5
6 -21 -4 299.955 510.381 6
6 -21 4 -343.645 481.939 6
-6 -21 4 294.454 441.525 6
6 -21 4 544.453 531.99 5
-6 -21 4 -635.678 588.741 5
6 -21 5 -454.028 432.292 5
-6 -21 5 159.313 467.571 5
-7 -21 0 7149.19 916.905 6
7 -21 0 4939.49 776.827 6
7 -21 -1 4635.21 773.73 6
7 -21 1 5247.63 770.925 6
-7 -21 -1 5854.61 797.832 6
-7 -21 1 5756.29 836.202 6
7 -21 -2 2296.3 638.956 6
7 -21 2 2792.25 585.791 6
-7 -21 -2 2523.81 657.738 6
-7 -21 2 2757.86 664.298 6
7 -21 -3 1962.91 629.679 6
7 -21 3 3414.36 615.992 6
-7 -21 -3 4285.45 661.597 6
-7 -21 3 2613.25 624.078 6
7 -21 3 1387.05 482.391 5
-7 -21 3 2813.9 616.583 5
-7 -21 4 -51.3893 475.678 6
7 -21 4 408.143 397.877 5
-7 -21 4 -215.398 517.396 5
8 -21 0 -70.2266 517.759 6
-8 -21 0 1293.49 639.07 6
8 -21 -1 835.165 560.944 6
8 -21 1 2032.45 577.486 6
-8 -21 -1 1261.55 599.729 6
-8 -21 1 1849.17 643.391 6
8 -21 -2 1132.06 529.522 6
8 -21 2 1884.77 550.387 6
-8 -21 -2 2405.85 590.868 6
-8 -21 2 1683.13 539.828 6
8 -21 -3 242.995 448.956 6
8 -21 3 902.94 465.983 6
-8 -21 3 1403.59 500.618 6
9 -21 0 11660.6 906.055 6
-9 -21 0 12863.1 967.446 6
9 -21 -1 8487.96 805.197 6
9 -21 1 6760.91 728.364 6
-9 -21 -1 7842.58 792.299 6
-9 -21 1 7980.45 819.662 6
9 -21 -2 1164.23 499.364 6
9 -21 2 1244.57 482.845 6
-9 -21 2 1499.84 537.745 6
10 -21 0 259.302 418.495 6
0 -22 0 3321.83 743.887 6
0 -22 -1 561.125 566.218 6
0 -22 1 408.344 575.126 6
0 -22 -2 761.83 579.016 6
0 -22 2 850.139 584.303 6
0 -22 -3 1474.26 605.392 6
0 -22 3 111.311 501.419 6
0 -22 4 -271.732 495.166 6
0 -22 4 980.674 442.298 5
0 -22 5 -289.082 412.372 5
1 -22 0 223.503 622.515 6
-1 -22 0 -1361.09 636.127 6
1 -22 -1 341.249 563.397 6
1 -22 1 550.961 550.242 6
-1 -22 -1 782.895 582.89 6
-1 -22 1 523.158 543.689 6
1 -22 -2 -482.462 560.925 6
1 -22 2 139.637 505.384 6
-1 -22 -2 1386.66 619.13 6
-1 -22 2 969.823 592.228 6
1 -22 -3 498.48 526.925 6
1 -22 3 -570.105 511.685 6
-1 -22 -3 676.359 514.011 6
-1 -22 3 272.618 483.645 6
-1 -22 3 -954.822 477.534 5
1 -22 4 531.74 449.007 6
-1 -22 4 461.538 471.096 6
1 -22 4 540.695 373.855 5
-1 -22 4 414.287 425.535 5
2 -22 0 68.8268 600.769 6
-2 -22 0 -277.366 574.542 6
2 -22 -1 1306.53 619.178 6
2 -22 1 1437.66 609.269 6
-2 -22 -1 475.947 556.643 6
-2 -22 1 1310.48 583.14 6
2 -22 -2 -251.446 548.389 6
2 -22 2 260.317 498.253 6
-2 -22 -2 173.341 532.06 6
-2 -22 2 586.864 553.257 6
2 -22 -3 -783.615 546.104 6
2 -22 3 -346.558 481.427 6
-2 -22 -3 684.653 517.731 6
-2 -22 3 239.004 479.452 6
2 -22 4 926.589 454.163 6
-2 -22 4 -100.095 447.874 6
2 -22 4 787.316 424.854 5
-2 -22 4 1010.27 470.25 5
3 -22 0 696.398 584.94 6
-3 -22 0 158.304 530.251 6
3 -22 -1 -904.447 600.627 6
3 -22 1 397.392 566.162 6
-3 -22 -1 -692.101 609.149 6
-3 -22 1 196.236 538.832 6
3 -22 -2 -922.546 584.286 6
3 -22 2 -460.708 517.868 6
-3 -22 -2 -936.175 610.256 6
-3 -22 2 -208.936 509.918 6
3 -22 -3 -1299.27 587.124 6
3 -22 3 322.02 441.589 6
-3 -22 -3 386.973 483.54 6
-3 -22 3 -574.487 504.479 6
-3 -22 4 335.818 443.652 6
4 -22 0 847.513 516.301 6
-4 -22 0 1458.74 615.527 6
4 -22 -1 162.174 519.069 6
4 -22 1 693.62 527.355 6
-4 -22 -1 880.954 587.524 6
-4 -22 1 32.5483 539.676 6
4 -22 -2 137.25 497.118 6
4 -22 2 -551.87 473.426 6
-4 -22 -2 112.706 523.696 6
-4 -22 2 -88.5676 468.129 6
4 -22 -3 265.004 478.525 6
4 -22 3 860.821 454.347 6
-4 -22 -3 209.465 471.026 6
-4 -22 3 1353 519.021 6
5 -22 0 -274.261 529.86 6
-5 -22 0 82.545 535.278 6
5 -22 -1 -382.337 531.226 6
5 -22 1 563.91 517.317 6
-5 -22 -1 117.609 516.202 6
-5 -22 1 61.4807 485.449 6
5 -22 -2 230.702 519.888 6
5 -22 2 -56.3566 425.451 6
-5 -22 -2 -250.861 474.128 6
-5 -22 2 671.177 515.623 6
5 -22 3 255.96 421.866 6
-5 -22 3 -90.0572 447.253 6
6 -22 0 -362.246 517.737 6
-6 -22 0 2080.2 584.859 6
6 -22 -1 379.831 503.54 6
6 -22 1 1141.57 504.733 6
-6 -22 -1 -129.175 513.9 6
-6 -22 1 670.939 503.913 6
6 -22 -2 -454.12 458.376 6
6 -22 2 -238.544 438.156 6
-6 -22 -2 379.556 428.421 6
-6 -22 2 997.97 545.118 6
7 -22 0 793.418 466.592 6
-7 -22 0 1218.5 502.554 6
7 -22 -1 1647.32 515.891 6
7 -22 1 1637.54 520.114 6
-7 -22 -1 654.701 441.374 6
0 -23 0 60.1836 450.616 6
0 -23 -1 683.168 495.238 6
0 -23 1 -160.731 458.421 6
0 -23 2 6036.77 658.86 6
1 -23 0 -55.748 442.202 6
-1 -23 0 -186.248 447.505 6
1 -23 -1 -42.115 469.887 6
1 -23 1 429.319 491.171 6
-1 -23 -1 1382.66 521.295 6
-1 -23 1 441.252 460.519 6
1 -23 2 608.311 441.217 6
-1 -23 2 -163.313 435.034 6
2 -23 0 226.544 427.938 6
-2 -23 0 160.774 444.832 6
2 -23 -1 2404.77 532.624 6
2 -23 1 1119.03 485.253 6
-2 -23 -1 2552.13 559.466 6
-2 -23 1 1377.17 493.494 6
3 -23 0 3781.38 590.27 6
-3 -23 0 5516.47 662.176 6
3 -23 1 2436.63 542.209 6
-3 -23 1 1205.58 485.673 6
