#------------------------------------------------------------------------------
#$Date: 2017-01-12 00:54:14 +0200 (Thu, 12 Jan 2017) $
#$Revision: 190412 $
#$URL: file:///home/coder/svn-repositories/cod/cif/4/51/40/4514000.cif $
#------------------------------------------------------------------------------
#
# This file is available in the Crystallography Open Database (COD),
# http://www.crystallography.net/
#
# All data on this site have been placed in the public domain by the
# contributors.
#
data_4514000
loop_
_publ_author_name
'Yan, Wei'
'Zhang, Chuanlei'
'Chen, Shuguang'
'Han, Lijuan'
'Zheng, Hegen'
_publ_section_title
;
 Two Lanthanide Metal-Organic Frameworks as Remarkably Selective and
 Sensitive Bifunctional Luminescence Sensor for Metal Ions and Small
 Organic Molecules.
;
_journal_name_full               'ACS applied materials &amp; interfaces'
_journal_paper_doi               10.1021/acsami.6b14563
_journal_year                    2017
_chemical_formula_sum            'C25 H17 Eu N3 O10'
_chemical_formula_weight         671.38
_space_group_crystal_system      monoclinic
_space_group_IT_number           14
_space_group_name_Hall           '-P 2yn'
_space_group_name_H-M_alt        'P 1 21/n 1'
_symmetry_space_group_name_Hall  '-P 2yn'
_symmetry_space_group_name_H-M   'P 1 21/n 1'
_atom_sites_solution_hydrogens   mixed
_audit_creation_method           SHELXL-2014/7
_cell_angle_alpha                90
_cell_angle_beta                 94.139(2)
_cell_angle_gamma                90
_cell_formula_units_Z            4
_cell_length_a                   10.6381(13)
_cell_length_b                   18.837(2)
_cell_length_c                   12.0604(15)
_cell_measurement_reflns_used    9798
_cell_measurement_temperature    296(2)
_cell_measurement_theta_max      27.63
_cell_measurement_theta_min      2.20
_cell_volume                     2410.5(5)
_computing_structure_refinement  'SHELXL-2014/7 (Sheldrick, 2014)'
_diffrn_ambient_temperature      296(2)
_diffrn_measured_fraction_theta_full 0.997
_diffrn_measured_fraction_theta_max 0.997
_diffrn_measurement_device_type  'CCD area detector'
_diffrn_measurement_method       'phi and omega scans'
_diffrn_radiation_type           MoK\a
_diffrn_radiation_wavelength     0.71073
_diffrn_reflns_av_R_equivalents  0.0433
_diffrn_reflns_av_unetI/netI     0.0360
_diffrn_reflns_Laue_measured_fraction_full 0.997
_diffrn_reflns_Laue_measured_fraction_max 0.997
_diffrn_reflns_limit_h_max       12
_diffrn_reflns_limit_h_min       -11
_diffrn_reflns_limit_k_max       22
_diffrn_reflns_limit_k_min       -22
_diffrn_reflns_limit_l_max       14
_diffrn_reflns_limit_l_min       -14
_diffrn_reflns_number            17555
_diffrn_reflns_point_group_measured_fraction_full 0.997
_diffrn_reflns_point_group_measured_fraction_max 0.997
_diffrn_reflns_theta_full        24.997
_diffrn_reflns_theta_max         24.997
_diffrn_reflns_theta_min         2.009
_exptl_absorpt_coefficient_mu    2.669
_exptl_crystal_colour            yellow
_exptl_crystal_density_diffrn    1.850
_exptl_crystal_description       block
_exptl_crystal_F_000             1324
_exptl_crystal_size_max          0.200
_exptl_crystal_size_mid          0.160
_exptl_crystal_size_min          0.120
_refine_diff_density_max         1.255
_refine_diff_density_min         -1.091
_refine_diff_density_rms         0.103
_refine_ls_extinction_method     none
_refine_ls_goodness_of_fit_ref   1.047
_refine_ls_hydrogen_treatment    constr
_refine_ls_matrix_type           full
_refine_ls_number_parameters     352
_refine_ls_number_reflns         4231
_refine_ls_number_restraints     1
_refine_ls_restrained_S_all      1.048
_refine_ls_R_factor_all          0.0299
_refine_ls_R_factor_gt           0.0272
_refine_ls_shift/su_max          0.000
_refine_ls_shift/su_mean         0.000
_refine_ls_structure_factor_coef Fsqd
_refine_ls_weighting_details
'w=1/[\s^2^(Fo^2^)+(0.0371P)^2^+2.3707P] where P=(Fo^2^+2Fc^2^)/3'
_refine_ls_weighting_scheme      calc
_refine_ls_wR_factor_gt          0.0694
_refine_ls_wR_factor_ref         0.0710
_reflns_Friedel_coverage         0.000
_reflns_number_gt                3865
_reflns_number_total             4231
_reflns_threshold_expression     'I > 2\s(I)'
_cod_data_source_file            am6b14563_si_002.cif
_cod_data_source_block           1
_cod_database_code               4514000
_shelx_shelxl_version_number     2014/7
_shelx_space_group_comment
;
The symmetry employed for this shelxl refinement is uniquely defined
by the following loop, which should always be used as a source of
symmetry information in preference to the above space-group names.
They are only intended as comments.
;
_shelx_estimated_absorpt_t_min   0.617
_shelx_estimated_absorpt_t_max   0.740
_shelx_res_file
;

    1.res created by SHELXL-2014/7

TITL 1 in P2(1)/n
CELL 0.71073  10.6381  18.8369  12.0604  90.000  94.139  90.000
ZERR   4.00   0.0013   0.0023   0.0015   0.000   0.002   0.000
LATT 1
SYMM 0.5-X, 0.5+Y, 0.5-Z
SFAC C  H  N  O  Eu
UNIT 100 68 12 40 4
OMIT   0.00  50.00
L.S. 20
ACTA
BOND $H
FMAP 2
PLAN 5
SIZE 0.16 0.12 0.20
DELU 0.005 O7 N3
DFIX 0.96 O1W H1A
DFIX 0.96 O1W H1B
EQIV_$1 1-x,-y,1-z
DFIX 2.16 H9A H21_$1
BIND C25  C8
FREE Eu1  N3
FREE C17  Eu1
FREE Eu1  C25
TEMP 23.000
WGHT    0.037100    2.370700
FVAR       0.08891
EU1   5    0.379837    0.039497    0.099764    11.00000    0.01449    0.02220 =
         0.01230   -0.00028    0.00160    0.00292
N1    3    0.644049    0.245068    0.489670    11.00000    0.04774    0.20168 =
         0.07209   -0.08526   -0.02986    0.04602
N2    3   -0.382631    0.273138    0.168613    11.00000    0.02463    0.06532 =
         0.05700   -0.01440   -0.01056    0.00187
N3    3    0.278442   -0.063775    0.248884    11.00000    0.07095    0.04475 =
         0.03906    0.01179    0.03446    0.00960
O1    4    0.384163    0.136815    0.238888    11.00000    0.02167    0.05119 =
         0.04231   -0.02252   -0.00098    0.00980
O1W   4    0.876984    0.203058    0.555969    11.00000    0.03958    0.08649 =
         0.11840    0.05540   -0.03008   -0.02780
AFIX   3
H1WB  2    0.798154    0.198228    0.540890    11.00000   -1.20000
H1WA  2    0.896974    0.186228    0.620229    11.00000   -1.50000
H1WC  2    0.896064    0.246858    0.554769    11.00000   -1.50000
AFIX   0
O2    4    0.202002    0.107536    0.156113    11.00000    0.02277    0.03776 =
         0.03540   -0.01574    0.00189    0.00509
O3    4    0.587689    0.039800    0.175447    11.00000    0.02090    0.05311 =
         0.02951   -0.01118   -0.00934    0.01101
O4    4    0.729274   -0.009720    0.070305    11.00000    0.02272    0.04424 =
         0.01905   -0.00541   -0.00211    0.00266
O5    4    0.033132    0.426761    0.448653    11.00000    0.02399    0.02413 =
         0.02985   -0.00448    0.00523   -0.00266
O6    4   -0.108321    0.348713    0.487672    11.00000    0.03086    0.02637 =
         0.03976   -0.00377    0.01881   -0.00335
O7    4    0.374158   -0.027248    0.278658    11.00000    0.08722    0.07538 =
         0.02975    0.01036    0.00337   -0.01278
O8    4    0.220880   -0.049003    0.156257    11.00000    0.03766    0.04385 =
         0.05723    0.00839    0.02050    0.00126
O9    4    0.242329   -0.111125    0.308608    11.00000    0.11738    0.05677 =
         0.06966    0.02975    0.05076    0.00376
C1    1    0.594825    0.301087    0.447444    11.00000    0.02460    0.18567 =
         0.07822   -0.08282   -0.00644   -0.00030
AFIX  43
H1    2    0.644148    0.341683    0.444037    11.00000   -1.20000
AFIX   0
C2    1    0.469876    0.303744    0.406212    11.00000    0.02183    0.09252 =
         0.05720   -0.03738   -0.00113   -0.00272
AFIX  43
H2    2    0.436210    0.345704    0.376245    11.00000   -1.20000
AFIX   0
C3    1    0.394887    0.243164    0.409892    11.00000    0.02693    0.07184 =
         0.02770   -0.02403   -0.00620    0.02179
C4    1    0.448169    0.182272    0.458213    11.00000    0.06879    0.09609 =
         0.03601   -0.02487   -0.01992    0.04630
AFIX  43
H4    2    0.401252    0.140916    0.463607    11.00000   -1.20000
AFIX   0
C5    1    0.575004    0.185185    0.498598    11.00000    0.09248    0.15236 =
         0.04640   -0.04241   -0.03000    0.09426
AFIX  43
H5    2    0.612435    0.145249    0.532147    11.00000   -1.20000
AFIX   0
C6    1    0.259466    0.246403    0.368460    11.00000    0.02089    0.03822 =
         0.02285   -0.00510    0.00143    0.00572
C7    1    0.187174    0.300234    0.412379    11.00000    0.02238    0.02915 =
         0.02416   -0.00748    0.00071    0.00096
AFIX  43
H7    2    0.226299    0.331745    0.463236    11.00000   -1.20000
AFIX   0
C8    1    0.059311    0.308476    0.383039    11.00000    0.02068    0.02376 =
         0.02065   -0.00233    0.00439   -0.00349
C9    1    0.000000    0.261796    0.305138    11.00000    0.01957    0.02409 =
         0.02310   -0.00373    0.00373   -0.00043
C10   1    0.072289    0.209107    0.260594    11.00000    0.02257    0.02603 =
         0.02606   -0.00809    0.00151   -0.00102
AFIX  43
H10   2    0.033245    0.178033    0.209007    11.00000   -1.20000
AFIX   0
C11   1    0.200297    0.200531    0.289377    11.00000    0.02544    0.02913 =
         0.02165   -0.00150    0.00473    0.00400
C12   1   -0.135081    0.267348    0.262977    11.00000    0.02003    0.03159 =
         0.02397   -0.00974    0.00388    0.00090
C13   1   -0.185234    0.330189    0.219516    11.00000    0.03183    0.03318 =
         0.04669   -0.00311   -0.00644    0.00315
AFIX  43
H13   2   -0.137681    0.371662    0.222275    11.00000   -1.20000
AFIX   0
C14   1   -0.307449    0.329943    0.171966    11.00000    0.03549    0.05251 =
         0.06404   -0.00186   -0.01197    0.00929
AFIX  43
H14   2   -0.339195    0.371897    0.140407    11.00000   -1.20000
AFIX   0
C15   1   -0.334862    0.214016    0.211152    11.00000    0.02928    0.05339 =
         0.05442   -0.01942    0.00161   -0.01092
AFIX  43
H15   2   -0.385653    0.173793    0.209541    11.00000   -1.20000
AFIX   0
C16   1   -0.211852    0.208524    0.258597    11.00000    0.02798    0.03193 =
         0.04488   -0.00923    0.00182   -0.00265
AFIX  43
H16   2   -0.181884    0.165366    0.287104    11.00000   -1.20000
AFIX   0
C17   1    0.267106    0.144845    0.225829    11.00000    0.02348    0.02904 =
         0.02296   -0.00268    0.00435    0.00328
C18   1    0.694523    0.014963    0.159795    11.00000    0.02186    0.02936 =
         0.02294   -0.00393   -0.00439    0.00105
C19   1    0.787000    0.013986    0.259540    11.00000    0.02329    0.03311 =
         0.02159   -0.00435   -0.00631    0.00305
C20   1    0.743890    0.016978    0.365184    11.00000    0.02282    0.07097 =
         0.02476   -0.00929   -0.00377    0.01300
AFIX  43
H20   2    0.658369    0.023283    0.373464    11.00000   -1.20000
AFIX   0
C21   1    0.826805    0.010681    0.458420    11.00000    0.02970    0.08518 =
         0.01925   -0.01421   -0.00236    0.01099
AFIX  43
H21   2    0.795383    0.010999    0.528404    11.00000   -1.20000
AFIX   0
C22   1    0.955825    0.003895    0.450162    11.00000    0.02710    0.04413 =
         0.02210   -0.00697   -0.00835    0.00451
C23   1    0.997329    0.005002    0.343687    11.00000    0.01971    0.08716 =
         0.02943   -0.00150   -0.00374    0.00817
AFIX  43
H23   2    1.083479    0.003478    0.335166    11.00000   -1.20000
AFIX   0
C24   1    0.914898    0.008292    0.249989    11.00000    0.02677    0.07540 =
         0.02081   -0.00286   -0.00133    0.00534
AFIX  43
H24   2    0.945943    0.006651    0.179899    11.00000   -1.20000
AFIX   0
C25   1   -0.010918    0.364438    0.441706    11.00000    0.01984    0.02068 =
         0.01947   -0.00079   -0.00262    0.00009
HKLF 4

REM  1 in P2(1)/n
REM R1 =  0.0272 for    3865 Fo > 4sig(Fo)  and  0.0299 for all    4231 data
REM    352 parameters refined using      1 restraints

END

WGHT      0.0371      2.3720

REM Highest difference peak  1.255,  deepest hole -1.091,  1-sigma level  0.103
Q1    1   0.3793 -0.0102  0.0971  11.00000  0.05    1.25
Q2    1   1.1352 -0.0339  0.2947  11.00000  0.05    1.24
Q3    1   0.3773  0.0895  0.0992  11.00000  0.05    1.24
Q4    1   0.6010  0.2069  0.5215  11.00000  0.05    0.76
Q5    1   0.5431  0.1448  0.5214  11.00000  0.05    0.68
;
_shelx_res_checksum              14646
_shelx_hkl_file
;
  -1   0   0    0.00    0.03
   1   0   0   -0.04    0.03
   2   0   0   53.45    3.33
   2   0   0   53.47    3.00
  -2   0   0   49.66    2.65
   3   0   0   -0.09    0.07
  -3   0   0   -0.10    0.07
   3   0   0    0.21    0.16
  -4   0   0  266.42   14.01
   4   0   0  274.10   17.50
   4   0   0  307.29   15.94
   5   0   0    0.32    0.24
   5   0   0   -0.33    0.13
   6   0   0   47.61    2.88
   6   0   0   49.52    3.38
   7   0   0    0.32    0.35
   7   0   0   -0.27    0.21
   8   0   0  188.80   12.13
   9   0   0    0.50    0.54
  10   0   0   32.52    2.78
  11   0   0    0.19    0.61
  12   0   0   67.64    3.17
  12   0   0   65.12    5.16
  13   0   0    0.03    0.19
  13   0   0    0.41    0.80
   0  -1   0   -0.24    0.03
   0   1   0   -0.19    0.01
   1  -1   0  388.28   20.37
  -1  -1   0  361.52   20.36
   1   1   0  373.60   22.18
   1   1   0  349.41   15.61
  -1   1   0  332.69   17.72
   2  -1   0   11.79    0.75
   2  -1   0   12.20    0.83
  -2   1   0   10.24    0.63
   2   1   0   11.25    0.80
   3  -1   0  168.22    9.00
   3  -1   0  158.69    9.86
   3   1   0  160.60    9.85
  -3   1   0  147.32    7.87
   4  -1   0    2.81    0.47
   4  -1   0    2.87    0.35
   4   1   0    2.84    0.45
  -4   1   0    2.84    0.30
   5  -1   0  291.67   17.73
   5  -1   0  310.01   16.13
  -5   1   0  208.66   14.10
   5   1   0  315.88   16.09
   5   1   0  300.43   17.72
   6  -1   0   43.49    2.74
   6  -1   0   46.01    3.19
   6   1   0   48.20    2.70
   6   1   0   42.98    3.15
   7  -1   0   63.64    3.94
   7  -1   0   66.63    4.57
   7   1   0   69.52    3.89
   7   1   0   65.26    4.54
   8  -1   0    1.30    0.56
   8   1   0    0.83    0.51
   9  -1   0  100.67    7.01
   9   1   0  105.20    7.01
  10  -1   0   31.33    2.73
  10   1   0   31.41    1.58
  10   1   0   30.38    2.69
  11  -1   0   18.36    2.02
  11   1   0   18.47    1.05
  11   1   0   17.44    1.97
  12  -1   0    0.30    0.70
  12   1   0    0.52    0.75
  12   1   0    0.10    0.20
  13  -1   0   39.14    2.00
  13  -1   0   41.21    3.66
  13   1   0   37.96    3.55
  13   1   0   37.52    1.99
   0  -2   0  161.95    9.62
   0   2   0  156.93    7.73
   0   2   0  148.51    6.78
  -1  -2   0   58.19    3.39
   1  -2   0   57.32    3.29
   1  -2   0   56.37    3.44
   1   2   0   55.62    3.40
  -1   2   0   57.23    2.74
   1   2   0   50.46    2.39
  -1   2   0   52.19    2.39
  -2  -2   0   15.56    1.21
   2  -2   0   14.05    1.04
   2   2   0   14.56    0.98
  -2   2   0   13.92    0.78
   2   2   0   13.67    0.67
   3  -2   0   84.71    4.74
   3  -2   0   79.94    5.13
   3   2   0   82.26    5.09
   3   2   0   80.34    3.55
  -3   2   0   77.31    4.06
   4  -2   0   38.59    2.71
   4  -2   0   40.07    2.47
   4   2   0   40.32    2.68
  -4   2   0   39.01    2.11
   4   2   0   41.71    1.82
   5  -2   0   70.06    4.67
   5  -2   0   72.57    4.22
   5   2   0   68.39    3.17
   5   2   0   73.22    4.65
   6  -2   0   19.54    1.33
   6  -2   0   17.72    1.50
   6   2   0   17.47    1.47
  -6   2   0   17.17    1.12
   6   2   0   17.18    0.91
   7  -2   0   47.99    3.46
   7  -2   0   47.28    2.99
   7   2   0   48.88    3.42
   7   2   0   42.81    2.21
   7   2   0   53.04    2.89
   8  -2   0   88.75    6.02
   8   2   0   87.49    5.96
   9  -2   0    1.67    0.69
   9   2   0    2.03    0.71
   9   2   0    1.87    0.29
  10  -2   0    4.85    1.08
  10   2   0    5.24    0.45
  10   2   0    4.14    1.00
  11  -2   0   27.49    2.54
  11   2   0   25.24    1.35
  11   2   0   22.01    2.35
  12  -2   0   33.90    3.21
  12   2   0   35.86    3.19
  12   2   0   34.77    1.80
  13  -2   0    0.85    0.89
  13   2   0    1.99    0.95
  13   2   0    0.86    0.28
   0  -3   0   -0.12    0.05
   0  -3   0   -0.34    0.16
   0   3   0   -0.16    0.03
   0   3   0   -0.04    0.06
   1  -3   0   16.15    1.04
   1  -3   0   16.33    1.20
  -1  -3   0   16.63    1.28
  -1   3   0   16.17    0.82
  -1   3   0   14.29    0.70
   1   3   0   14.74    0.70
  -2  -3   0  211.81   12.54
   2  -3   0  220.04   12.35
   2  -3   0  210.30   13.27
  -2   3   0  217.95   10.60
   2   3   0  217.16   13.21
   2   3   0  214.32    9.30
   3  -3   0  156.49    9.01
   3   3   0  157.52    6.77
   3   3   0  157.69    9.65
  -3   3   0  151.26    7.72
   4  -3   0    0.17    0.26
   4  -3   0    0.11    0.16
   4   3   0    0.23    0.20
   4   3   0    0.29    0.09
  -4   3   0    0.17    0.11
   5  -3   0   86.30    5.06
   5  -3   0   85.76    5.52
   5   3   0   84.20    5.45
   5   3   0   81.80    3.75
   6  -3   0  134.63    8.43
   6  -3   0  129.43    7.65
   6   3   0  131.98    8.36
  -6   3   0  124.50    6.63
   6   3   0  132.82    5.77
   7  -3   0   13.27    1.22
   7  -3   0   14.09    1.35
   7   3   0   13.53    0.77
  -7   3   0   14.38    0.97
   7   3   0   13.58    1.30
   8  -3   0    6.35    1.05
   8   3   0    6.68    1.03
   9  -3   0   57.42    4.22
   9   3   0   56.99    4.13
   9   3   0   55.19    2.65
  10  -3   0   23.67    2.35
  10   3   0   25.16    2.34
  10   3   0   27.45    1.38
  11  -3   0   11.82    1.79
  11   3   0   11.10    0.75
  11   3   0   10.75    1.64
  12  -3   0    2.14    0.97
  12   3   0    2.73    1.02
  12   3   0    1.85    0.34
  13  -3   0   28.58    2.86
  13   3   0   23.98    1.39
  13   3   0   23.39    2.57
   0  -4   0  889.69   54.27
   0  -4   0  915.64   50.06
   0   4   0  872.79   38.29
   0   4   0  869.30   43.60
   1  -4   0    1.26    0.45
  -1  -4   0    1.46    0.48
   1  -4   0    1.53    0.22
   1   4   0    1.10    0.10
  -1   4   0    1.35    0.11
  -1   4   0    1.52    0.15
  -2  -4   0    0.33    0.35
   2  -4   0    0.33    0.16
   2  -4   0    0.13    0.35
  -2   4   0    0.35    0.11
   2   4   0    0.26    0.07
  -2   4   0    0.32    0.07
   2   4   0    0.37    0.15
  -3  -4   0  105.96    6.87
   3  -4   0  113.68    6.59
  -3   4   0  110.49    5.51
   3   4   0  111.01    6.87
   3   4   0  109.40    4.82
   4  -4   0   95.64    5.87
   4   4   0  101.14    6.18
  -4   4   0   95.91    4.92
   4   4   0   97.66    4.30
   5  -4   0  114.38    6.76
   5   4   0  112.35    4.99
   5   4   0  112.58    7.19
   6  -4   0    3.46    0.65
   6  -4   0    3.01    0.64
   6   4   0    3.21    0.29
  -6   4   0    3.58    0.43
   6   4   0    3.65    0.62
   7  -4   0   55.01    3.59
   7  -4   0   56.72    3.95
   7   4   0   54.43    2.56
   7   4   0   54.61    3.84
  -7   4   0   55.91    3.01
   8  -4   0   49.39    3.72
  -8   4   0   49.35    2.83
   8   4   0   49.60    3.64
   8   4   0   52.70    2.39
   9  -4   0   23.04    2.19
   9   4   0   23.98    1.28
   9   4   0   26.34    2.19
  10  -4   0    1.37    0.74
  10   4   0    0.96    0.24
  10   4   0    1.29    0.66
  11  -4   0   30.65    2.90
  11   4   0   32.30    1.67
  11   4   0   32.45    2.85
  12  -4   0    9.94    1.75
  12   4   0    8.83    1.56
  12   4   0    7.67    0.63
  13  -4   0    6.58    1.57
  13   4   0    5.69    0.59
  13   4   0    8.72    1.59
   0  -5   0   -0.54    0.25
   0  -5   0    0.13    0.09
   0   5   0    0.14    0.09
   0   5   0    0.37    0.07
  -1  -5   0    2.08    0.59
   1  -5   0    2.26    0.29
   1  -5   0    2.51    0.63
   1   5   0    2.17    0.16
  -1   5   0    2.35    0.21
  -1   5   0    2.00    0.15
   2  -5   0   99.99    6.10
   2  -5   0  100.33    5.98
  -2  -5   0   99.46    6.19
  -2   5   0   95.78    4.23
   2   5   0   97.37    4.24
  -2   5   0  104.47    4.85
   2   5   0   83.19    5.98
   3  -5   0   62.90    4.11
  -3  -5   0   63.90    4.43
  -3   5   0   64.93    2.85
   3   5   0   62.57    4.07
   3   5   0   65.69    2.86
  -3   5   0   65.24    3.27
   4  -5   0    3.67    0.73
   4  -5   0    3.12    0.53
   4   5   0    2.86    0.25
  -4   5   0    3.22    0.32
   4   5   0    3.54    0.49
   5  -5   0    7.86    0.85
   5  -5   0    9.41    1.06
   5   5   0    8.06    0.49
   5   5   0    8.21    0.81
   6  -5   0  111.91    6.73
   6   5   0  111.61    7.10
  -6   5   0  107.73    5.62
   6   5   0  109.62    4.89
   7  -5   0    3.15    0.72
   7   5   0    2.80    0.31
   7   5   0    2.47    0.60
  -7   5   0    2.25    0.38
   8  -5   0    9.41    1.16
  -8   5   0    9.55    0.80
   8   5   0    8.56    1.12
   8   5   0    9.15    0.60
   9  -5   0    2.86    0.82
   9   5   0    2.10    0.72
   9   5   0    2.61    0.34
  10  -5   0   67.74    4.88
  10   5   0   60.86    3.01
  10   5   0   65.16    4.71
  11  -5   0    0.90    0.76
  11   5   0    3.06    0.95
  11   5   0    2.19    0.35
  12  -5   0    1.12    0.80
  12   5   0    2.18    0.90
  12   5   0    1.36    0.30
  13  -5   0    3.63    1.28
  13   5   0    2.72    0.41
   0  -6   0  176.23   10.52
   0   6   0  170.64    8.51
   0   6   0  165.91    7.41
  -1  -6   0    0.97    0.47
   1  -6   0    1.10    0.21
   1  -6   0    0.31    0.39
  -1   6   0    0.91    0.15
  -1   6   0    1.09    0.11
   1   6   0    0.65    0.10
   2  -6   0   -0.06    0.15
  -2  -6   0    0.03    0.37
   2  -6   0   -0.12    0.36
  -2   6   0   -0.18    0.08
   2   6   0   -0.08    0.07
  -2   6   0   -0.18    0.05
  -3  -6   0  113.41    7.84
   3  -6   0  132.68    7.60
   3  -6   0  118.09    7.81
   3   6   0  124.57    5.42
  -3   6   0  126.81    5.41
  -3   6   0  128.06    6.19
   3   6   0  122.06    7.70
   4  -6   0    1.72    0.43
  -4  -6   0    0.25    0.43
   4  -6   0    1.74    0.61
   4   6   0    1.62    0.35
  -4   6   0    1.84    0.26
   4   6   0    1.96    0.21
   5  -6   0   77.92    5.17
   5  -6   0   77.96    5.02
   5   6   0   77.31    3.51
   5   6   0   79.31    5.07
   6  -6   0    1.93    0.64
   6  -6   0    1.24    0.47
   6   6   0    1.65    0.47
  -6   6   0    1.28    0.27
   6   6   0    1.82    0.24
   7  -6   0  111.48    7.06
   7   6   0  113.03    5.10
   7   6   0  112.44    7.43
  -7   6   0  118.98    5.88
   8  -6   0    2.76    0.76
  -8   6   0    2.97    0.47
   8   6   0    2.41    0.31
   8   6   0    2.20    0.67
   9  -6   0   25.51    2.41
   9   6   0   25.30    1.39
  -9   6   0   28.77    1.74
   9   6   0   28.22    2.34
  10  -6   0    1.12    0.72
  10   6   0    1.16    0.28
  10   6   0    1.44    0.72
  11  -6   0   37.99    3.30
  11   6   0   35.46    3.09
  11   6   0   35.91    1.86
  12  -6   0    0.20    0.66
  12   6   0    0.21    0.20
  13  -6   0    8.30    1.76
  13   6   0    7.88    0.66
   0  -7   0   -0.30    0.26
   0  -7   0    0.23    0.13
   0   7   0    0.35    0.13
   0   7   0    0.14    0.07
   1  -7   0    3.23    0.35
   1  -7   0    2.63    0.70
  -1   7   0    2.68    0.20
   1   7   0    2.79    0.21
  -1   7   0    3.25    0.28
   2  -7   0  201.70   11.82
  -2  -7   0  129.00   11.34
   2   7   0  195.63    8.27
  -2   7   0  203.42    8.26
  -2   7   0  208.09    9.44
   3  -7   0    6.94    1.13
   3  -7   0    8.39    0.74
  -3  -7   0    7.52    1.38
  -3   7   0    7.85    0.41
  -3   7   0    7.74    0.51
   3   7   0    5.46    0.54
   3   7   0    7.19    0.41
   4  -7   0    1.26    0.36
   4  -7   0    1.51    0.62
  -4  -7   0    1.41    0.71
   4   7   0    0.89    0.28
  -4   7   0    1.05    0.21
  -4   7   0    1.37    0.17
   4   7   0    0.83    0.15
   5  -7   0    0.51    0.46
   5  -7   0    0.30    0.30
  -5   7   0    0.00    0.07
   5   7   0    0.31    0.29
   5   7   0    0.37    0.12
   6  -7   0  116.54    7.49
   6  -7   0  122.98    7.87
   6   7   0  123.18    5.35
  -6   7   0  121.11    6.12
   6   7   0  116.37    7.70
   7  -7   0    4.24    0.91
   7   7   0    3.87    0.38
   7   7   0    3.54    0.72
  -7   7   0    4.28    0.51
   8  -7   0    3.71    0.86
   8   7   0    3.22    0.76
   8   7   0    4.34    0.43
  -8   7   0    3.85    0.53
   9  -7   0    2.33    0.82
  -9   7   0    3.32    0.51
   9   7   0    3.09    0.80
   9   7   0    2.69    0.36
  10  -7   0   92.71    6.61
  10   7   0   91.60    4.25
  11  -7   0    0.63    0.67
  11   7   0    0.19    0.19
  12  -7   0    4.80    1.28
  12   7   0    4.44    0.51
  13  -7   0    1.66    1.02
  13   7   0    1.48    0.33
   0  -8   0    5.88    0.50
   0  -8   0    6.07    1.12
   0   8   0    6.15    0.36
   0   8   0    6.30    0.48
   1  -8   0   88.58    5.97
   1  -8   0   94.63    5.72
  -1  -8   0   96.50    6.14
  -1   8   0   90.43    4.60
  -1   8   0   84.83    3.98
   1   8   0   91.90    4.00
   2  -8   0   11.94    1.55
  -2  -8   0   11.45    1.73
   2  -8   0    7.92    0.82
   2   8   0   10.54    0.55
  -2   8   0   10.38    0.54
  -2   8   0   11.91    0.68
   3  -8   0   92.95    5.85
   3  -8   0   88.64    5.69
  -3  -8   0   94.25    6.26
   3   8   0   84.47    3.91
  -3   8   0   88.80    4.48
  -3   8   0   86.87    3.90
  -4  -8   0   41.09    3.55
   4  -8   0   40.24    2.86
   4  -8   0   43.00    3.16
  -4   8   0   43.59    2.19
   4   8   0   42.78    1.91
  -4   8   0   42.70    1.89
   4   8   0   34.49    2.67
   5  -8   0   55.66    3.92
   5  -8   0   54.58    3.77
   5   8   0   56.56    2.50
   5   8   0   50.96    3.60
   6  -8   0    2.20    0.77
   6  -8   0    1.71    0.56
  -6   8   0    2.00    0.33
   6   8   0    1.57    0.48
   6   8   0    1.80    0.25
   7  -8   0   62.91    4.62
   7  -8   0   66.63    4.73
   7   8   0   65.37    4.57
  -7   8   0   73.36    3.60
   7   8   0   66.16    3.11
   8  -8   0    0.09    0.50
   8   8   0    0.66    0.20
   8   8   0    0.71    0.50
  -8   8   0    0.58    0.26
   9  -8   0   31.28    2.73
   9   8   0   30.80    1.61
  10  -8   0    1.17    0.76
  10   8   0    1.65    0.31
  11  -8   0   49.88    4.03
  11   8   0   45.24    2.33
  12  -8   0   11.74    2.05
  12   8   0   12.91    0.88
  13  -8   0    2.56    1.20
  13   8   0    2.58    0.43
   0  -9   0    0.02    0.14
   0  -9   0   -0.04    0.36
   0   9   0    0.01    0.08
   0   9   0   -0.08    0.06
  -1  -9   0  164.08    9.91
   1  -9   0  159.27    9.76
   1  -9   0  163.30    9.67
   1   9   0  161.94    7.87
  -1   9   0  132.62    7.75
  -1   9   0  153.10    6.76
   1   9   0  157.71    6.77
   2  -9   0  292.56   17.09
  -2  -9   0  287.57   17.35
   2   9   0  281.34   12.42
  -2   9   0  292.84   12.41
  -2   9   0  280.93   14.18
   3  -9   0   26.61    1.91
   3  -9   0   26.53    2.37
  -3   9   0   27.09    1.45
   3   9   0   24.68    1.24
  -3   9   0   25.64    1.23
  -4  -9   0    2.00    0.88
   4  -9   0    1.49    0.42
   4  -9   0    1.11    0.66
  -4   9   0    1.25    0.18
   4   9   0    1.12    0.22
   4   9   0    1.40    0.19
  -4   9   0    0.32    0.14
  -5  -9   0   46.99    4.23
   5  -9   0   56.22    3.83
   5  -9   0   57.31    3.55
   5   9   0   49.85    3.29
   5   9   0   56.61    2.32
  -5   9   0   34.87    2.56
   6  -9   0   50.56    3.64
   6  -9   0   48.91    3.79
   6   9   0   52.47    2.37
   6   9   0   45.69    3.43
  -6   9   0   53.75    2.73
   7  -9   0    2.30    0.82
   7  -9   0    1.22    0.57
   7   9   0    0.99    0.21
  -7   9   0    1.44    0.32
   8  -9   0   11.14    1.43
   8   9   0   11.84    0.78
  -8   9   0   14.44    1.00
   9  -9   0   26.25    2.43
   9   9   0   25.69    1.39
  10  -9   0   45.55    3.84
  10   9   0   48.28    2.35
  11  -9   0    1.90    0.90
  11   9   0    1.68    0.34
  12  -9   0    3.44    1.18
  12   9   0    3.34    0.46
   0 -10   0   70.22    4.37
   0 -10   0   67.45    5.00
   0  10   0   70.52    3.61
   0  10   0   66.70    3.07
   1 -10   0   20.94    2.20
   1 -10   0   22.85    1.56
  -1 -10   0   24.12    2.37
  -1  10   0   21.38    1.05
   1  10   0   22.11    1.35
   1  10   0   21.04    1.06
   2 -10   0    2.89    0.93
   2 -10   0    3.29    0.53
  -2 -10   0    5.00    1.27
  -2  10   0    4.09    0.29
   2  10   0    4.54    0.31
  -3 -10   0   77.57    5.70
   3 -10   0   73.95    4.90
   3 -10   0   74.92    5.29
   3  10   0   75.55    3.36
  -3  10   0   73.99    3.34
   4 -10   0  150.40    9.64
   4 -10   0  149.07    9.58
  -4 -10   0  154.93   10.21
   4  10   0  149.86    6.65
  -4  10   0  152.79    6.63
   5 -10   0   10.63    1.67
   5 -10   0   12.11    1.20
  -5 -10   0   11.00    2.14
  -5  10   0   11.44    0.79
   5  10   0   12.01    0.68
  -5  10   0   11.41    0.65
   6 -10   0    9.03    1.55
   6 -10   0    9.52    1.07
   6  10   0    7.64    0.55
  -6  10   0    8.71    0.68
   7 -10   0   38.06    3.11
   7 -10   0   39.13    3.36
  -7  10   0   44.11    2.30
   7  10   0   39.41    1.97
   8 -10   0  124.96    8.66
   8  10   0  132.47    5.82
   9 -10   0   22.60    2.27
   9  10   0   23.83    1.30
  10 -10   0    5.31    1.21
  10  10   0    4.34    0.50
  11 -10   0   19.06    2.24
  11  10   0   21.23    1.23
  12 -10   0   12.34    2.10
  12  10   0   14.19    0.95
   0 -11   0    1.94    0.77
   0 -11   0    0.64    0.24
   0  11   0    0.68    0.13
   0  11   0    1.16    0.23
  -1 -11   0  172.23   11.16
   1 -11   0  179.88   10.84
   1 -11   0  178.63   11.06
   1  11   0  174.14    7.58
  -1  11   0  171.77    8.72
   1  11   0  174.71    8.81
  -1  11   0  166.01    7.57
   2 -11   0    4.41    1.12
  -2 -11   0    4.10    1.20
   2 -11   0    4.42    0.62
  -2  11   0    4.87    0.42
  -2  11   0    3.93    0.30
   2  11   0    4.08    0.32
  -3 -11   0   55.57    4.77
   3 -11   0   61.15    4.50
   3 -11   0   60.45    3.95
  -3  11   0   58.31    3.06
   3  11   0   57.49    2.66
  -3  11   0   57.72    2.64
   4 -11   0    0.05    0.32
   4 -11   0    0.35    0.59
  -4 -11   0    1.18    0.83
   4  11   0    0.60    0.15
  -4  11   0    1.09    0.24
  -4  11   0    0.66    0.14
   5 -11   0   88.56    6.05
   5 -11   0   89.28    6.30
  -5 -11   0   83.90    6.90
  -5  11   0   94.12    4.07
  -5  11   0   92.95    4.67
   5  11   0   90.12    4.09
   6 -11   0   12.93    1.96
   6 -11   0   12.53    1.32
   6  11   0   12.59    0.75
  -6  11   0   12.44    0.88
   7 -11   0   49.68    3.73
   7 -11   0   51.00    4.03
   7  11   0   48.52    2.37
   8 -11   0    2.12    0.81
   8  11   0    2.35    0.35
   9 -11   0   77.27    5.51
   9  11   0   72.06    3.48
  10 -11   0   24.09    2.49
  10  11   0   24.51    1.37
  11 -11   0    1.62    0.90
  11  11   0    2.50    0.39
  12 -11   0   -0.08    0.76
  12  11   0   -0.16    0.20
   0 -12   0  177.11   11.28
   0 -12   0  178.84   10.84
   0  12   0  171.31    7.61
   0  12   0  170.48    8.80
   1 -12   0    3.63    0.55
   1 -12   0    3.22    1.05
  -1 -12   0    2.93    1.09
   1  12   0    3.09    0.46
  -1  12   0    4.26    0.42
  -1  12   0    4.22    0.31
   1  12   0    3.54    0.29
  -2 -12   0   -0.56    0.39
   2 -12   0   -0.12    0.50
   2 -12   0    0.09    0.27
  -2  12   0    0.27    0.15
   2  12   0    0.04    0.09
  -2  12   0    0.06    0.09
   3 -12   0    2.66    1.06
  -3 -12   0    3.31    1.21
   3 -12   0    3.52    0.64
  -3  12   0    4.53    0.32
  -3  12   0    4.00    0.45
   3  12   0    3.98    0.33
   4 -12   0  188.48   11.81
  -4 -12   0  185.77   12.44
   4 -12   0  179.84   11.76
  -4  12   0  184.42    8.13
   4  12   0  183.08    8.16
  -4  12   0  191.76    9.32
   5 -12   0    0.29    0.64
   5 -12   0    0.94    0.46
  -5 -12   0    0.03    0.80
  -5  12   0    0.76    0.17
   5  12   0    0.93    0.20
  -5  12   0    1.21    0.27
   6 -12   0    6.94    1.49
   6 -12   0    5.74    1.02
   6  12   0    5.80    0.47
   7 -12   0    2.08    0.73
   7 -12   0    1.09    0.75
   7  12   0    1.64    0.28
   8 -12   0   68.68    5.03
   8  12   0   68.08    3.23
   9 -12   0    0.25    0.63
   9  12   0    0.53    0.22
  10 -12   0    7.97    1.54
  10  12   0    7.83    0.65
  11 -12   0    0.29    0.81
  11  12   0    0.87    0.29
  12 -12   0   32.76    3.41
  12  12   0   36.56    1.93
   0 -13   0    0.59    0.30
   0 -13   0    0.28    0.40
   0  13   0    0.70    0.14
   1 -13   0   59.78    4.79
   1  13   0   57.37    2.68
  -1  13   0   58.60    2.68
   1  13   0   58.52    3.23
  -1  13   0   61.41    3.17
  -2 -13   0    0.26    0.69
   2 -13   0    0.83    0.37
   2 -13   0    1.21    0.77
  -2  13   0    0.88    0.22
  -2  13   0    0.79    0.16
   2  13   0    0.58    0.15
   2  13   0    1.09    0.32
   3 -13   0   34.76    3.30
  -3 -13   0   32.47    3.55
   3 -13   0   36.14    2.59
  -3  13   0   35.33    1.67
  -3  13   0   35.66    1.97
   3  13   0   34.90    1.69
  -4 -13   0   -0.83    0.56
   4 -13   0    0.12    0.60
   4 -13   0   -0.16    0.34
  -4  13   0    0.03    0.10
  -4  13   0    0.05    0.18
   4  13   0    0.62    0.16
  -5 -13   0  101.02    8.13
   5 -13   0   94.03    7.28
   5 -13   0  108.09    7.07
  -5  13   0  107.82    5.45
   5  13   0  109.30    4.78
  -5  13   0  107.61    4.74
   6 -13   0    1.18    0.86
   6 -13   0    3.16    0.79
   6  13   0    2.58    0.34
   7 -13   0   21.49    2.08
   7 -13   0   20.33    2.79
   7  13   0   23.60    1.24
   8 -13   0    0.29    0.58
   8  13   0    0.24    0.20
   9 -13   0   22.28    2.25
   9  13   0   21.62    1.26
  10 -13   0    2.36    0.99
  10  13   0    2.19    0.38
  11 -13   0    3.17    1.17
  11  13   0    3.15    0.46
   0  14   0   64.28    3.57
   0  14   0   68.17    3.01
  -1 -14   0    0.58    0.50
   1 -14   0    0.17    0.63
   1 -14   0    0.03    0.15
  -1  14   0    0.40    0.13
  -1  14   0    0.46    0.20
   1  14   0    0.31    0.12
   1  14   0    0.23    0.20
   2 -14   0    0.43    0.37
   2 -14   0    0.10    0.57
  -2 -14   0    0.37    0.67
  -2  14   0    0.55    0.14
   2  14   0    0.25    0.22
   2  14   0    0.26    0.13
  -2  14   0    0.33    0.19
   3 -14   0    7.80    1.75
  -3 -14   0    6.56    1.84
   3 -14   0    7.51    0.94
  -3  14   0    7.55    0.49
  -3  14   0    8.31    0.64
   3  14   0    7.56    0.51
  -4 -14   0  100.42    7.98
   4 -14   0  105.98    6.84
   4 -14   0   97.26    7.30
  -4  14   0  101.66    5.30
   4  14   0  103.46    4.64
  -4  14   0  105.74    4.61
   5 -14   0    2.28    0.67
  -5 -14   0    4.22    1.61
   5 -14   0    4.21    1.32
  -5  14   0    2.39    0.29
   5  14   0    2.21    0.31
   6 -14   0    3.34    1.24
   6 -14   0    3.05    0.80
  -6  14   0    2.62    0.33
   6  14   0    3.05    0.38
   7 -14   0    3.01    1.15
   7 -14   0    1.61    0.73
   7  14   0    1.90    0.32
   8 -14   0   46.89    3.62
   8  14   0   41.85    2.18
   9 -14   0    0.22    0.56
   9  14   0    0.61    0.24
  10 -14   0    3.31    1.10
  10  14   0    2.86    0.44
  11 -14   0    2.83    1.16
  11  14   0    1.96    0.40
   0 -15   0    1.10    0.89
   0  15   0    0.30    0.13
   0  15   0    0.54    0.22
  -1 -15   0   36.92    4.12
   1 -15   0   46.41    4.30
   1  15   0   49.19    2.73
  -1  15   0   46.14    2.62
   1  15   0   49.32    2.22
  -1  15   0   48.40    2.20
   2 -15   0   22.79    1.81
   2 -15   0   19.81    2.90
  -2 -15   0   21.83    3.32
   2  15   0   23.39    1.54
   2  15   0   22.23    1.15
  -2  15   0   21.51    1.13
  -2  15   0   23.11    1.39
  -3 -15   0   28.76    3.96
   3 -15   0   29.34    2.23
   3 -15   0   26.23    2.99
  -3  15   0   26.27    1.65
   3  15   0   30.21    1.91
  -3  15   0   27.60    1.39
   3  15   0   29.17    1.42
  -4 -15   0    0.65    1.01
   4 -15   0    1.03    0.52
   4 -15   0    0.32    0.77
   4  15   0    0.98    0.21
  -4  15   0    0.72    0.18
  -4  15   0    1.00    0.29
  -5 -15   0   52.30    5.41
   5 -15   0   58.31    4.09
   5 -15   0   52.44    4.71
   5  15   0   55.98    2.65
  -5  15   0   56.70    2.61
   6 -15   0   19.30    1.91
   6 -15   0   20.61    3.00
  -6  15   0   20.43    1.09
   6  15   0   20.75    1.14
   7 -15   0   20.41    2.98
   7 -15   0   19.68    1.98
   7  15   0   19.30    1.13
   8 -15   0    0.15    0.59
   8  15   0    0.14    0.18
   9 -15   0   25.62    2.49
   9  15   0   23.81    1.39
  10 -15   0   11.61    1.89
  10  15   0    9.99    0.78
   0 -16   0   31.17    3.35
   0  16   0   25.82    1.31
   0  16   0   25.76    1.64
   1 -16   0   38.49    4.01
  -1 -16   0   43.26    4.25
  -1  16   0   42.34    2.38
  -1  16   0   40.38    1.97
   1  16   0   42.97    2.47
   1  16   0   42.14    1.99
  -2 -16   0   -0.10    0.77
   2 -16   0    0.47    0.80
  -2  16   0    0.07    0.13
   2  16   0    0.28    0.25
   2  16   0    0.13    0.13
  -2  16   0    0.22    0.20
  -3 -16   0   27.51    4.01
   3 -16   0   33.72    2.49
   3 -16   0   32.14    3.43
   3  16   0   30.87    1.57
  -3  16   0   32.99    1.86
  -3  16   0   30.28    1.54
   3  16   0   31.21    2.06
  -4 -16   0   69.65    6.54
   4 -16   0   67.53    5.89
   4 -16   0   80.56    5.23
   4  16   0   76.54    3.47
  -4  16   0   74.47    3.43
   4  16   0   75.23    4.28
   5 -16   0   21.59    3.17
  -5 -16   0   17.52    3.39
   5 -16   0   22.73    2.02
  -5  16   0   23.16    1.16
   5  16   0   20.84    1.18
   6 -16   0   -0.32    0.62
   6 -16   0   -0.05    0.50
  -6  16   0    0.61    0.18
   6  16   0    0.55    0.22
   7 -16   0    9.65    1.47
   7 -16   0    8.60    2.03
   7  16   0    8.63    0.66
   8 -16   0   25.11    2.44
   8  16   0   24.73    1.40
   9 -16   0    3.59    1.10
   9  16   0    2.06    0.39
  10 -16   0    1.42    0.93
  10  16   0    0.86    0.30
   0 -17   0    0.36    0.81
   0  17   0    0.39    0.23
   0  17   0    0.11    0.14
   1 -17   0   13.57    2.49
  -1 -17   0   12.73    2.54
  -1  17   0   14.30    0.99
   1  17   0   11.68    0.72
   1  17   0   12.40    1.01
  -1  17   0   11.65    0.71
  -2 -17   0   60.73    5.59
   2 -17   0   57.14    5.21
   2  17   0   58.35    2.74
   2  17   0   58.59    3.38
  -2  17   0   59.22    2.73
  -2  17   0   59.44    3.22
  -3 -17   0   11.32    2.69
   3 -17   0    9.83    2.13
  -3  17   0    9.74    0.63
   3  17   0   10.76    0.67
   3  17   0    9.79    0.96
   4 -17   0    0.64    0.86
  -4 -17   0    0.75    1.10
   4 -17   0    1.08    0.53
   4  17   0    0.72    0.38
  -4  17   0    0.93    0.21
   4  17   0    0.53    0.20
   5 -17   0   11.56    1.38
  -5 -17   0   11.58    2.80
   5 -17   0   12.09    2.40
  -5  17   0   13.26    0.76
   5  17   0   12.02    0.78
   6 -17   0   35.97    3.85
   6 -17   0   36.33    3.06
   6  17   0   36.72    1.89
  -6  17   0   39.39    1.86
   7 -17   0    5.34    1.67
   7 -17   0    4.00    1.03
   7  17   0    4.27    0.49
   8 -17   0    0.73    0.75
   8  17   0    1.05    0.29
   9 -17   0    4.12    1.21
   9  17   0    5.71    0.61
  10  17   0   18.21    1.18
   0 -18   0    7.07    2.02
   0  18   0    8.63    0.56
   0  18   0    8.05    0.78
  -1 -18   0   27.85    4.11
   1 -18   0   31.99    4.34
  -1  18   0   32.13    1.62
   1  18   0   32.26    1.63
   1  18   0   34.63    2.09
  -1  18   0   34.95    2.01
  -2 -18   0    3.13    1.53
   2 -18   0    2.16    1.23
  -2  18   0    2.59    0.43
   2  18   0    2.26    0.50
  -2  18   0    2.43    0.31
   2  18   0    2.05    0.31
   3 -18   0   38.19    4.11
  -3 -18   0   41.68    4.65
   3  18   0   42.25    2.54
   3  18   0   39.17    1.95
  -3  18   0   39.04    1.92
   4 -18   0    4.96    1.61
  -4 -18   0    3.34    1.69
  -4  18   0    4.69    0.44
   4  18   0    4.29    0.45
   4  18   0    4.69    0.78
  -5 -18   0    9.56    2.69
   5 -18   0   10.04    1.45
   5 -18   0    9.09    2.15
  -5  18   0    9.81    0.64
   5  18   0    9.39    1.16
   5  18   0   10.10    0.69
   6 -18   0   -0.10    0.56
   6 -18   0    0.54    0.91
  -6  18   0    0.32    0.18
   6  18   0   -0.01    0.17
   7 -18   0   26.08    3.73
   7 -18   0   25.49    2.46
   7  18   0   25.79    1.43
   8 -18   0    5.13    1.24
   8  18   0    4.53    0.54
   9 -18   0    3.76    1.21
   9  18   0    4.54    0.56
   0 -19   0    0.85    1.00
   0  19   0    0.11    0.16
   0  19   0    0.13    0.26
   1 -19   0    5.39    1.81
  -1 -19   0    3.41    1.54
   1  19   0    4.34    0.43
  -1  19   0    4.90    0.63
   1  19   0    5.09    0.69
  -1  19   0    4.61    0.41
   2 -19   0   58.14    5.55
  -2 -19   0   59.63    5.89
   2  19   0   60.24    2.83
  -2  19   0   61.48    2.82
   2  19   0   59.84    3.51
   3 -19   0    0.88    0.98
  -3 -19   0   -0.55    0.84
   3  19   0    0.24    0.17
   3  19   0    0.65    0.35
  -3  19   0   -0.16    0.14
  -4 -19   0    1.90    1.51
   4 -19   0    1.67    1.18
  -4  19   0    1.35    0.25
   4  19   0    1.38    0.27
   4  19   0    0.95    0.43
   5 -19   0    1.80    1.19
  -5 -19   0    0.19    1.31
   5  19   0    2.65    0.63
   5  19   0    2.53    0.36
  -5  19   0    1.69    0.29
   6 -19   0   47.69    4.89
   6  19   0   51.28    2.47
   6  19   0   47.89    3.21
  -6  19   0   50.26    2.40
   7 -19   0    0.44    1.04
   7 -19   0   -0.20    0.57
   7  19   0    0.21    0.21
   8 -19   0    3.38    1.08
   8  19   0    2.51    0.42
   0 -20   0   12.27    2.69
   0  20   0   11.39    0.75
   0  20   0   13.49    1.06
   1 -20   0   36.11    4.25
  -1 -20   0   38.88    5.24
   1  20   0   35.80    2.31
  -1  20   0   38.80    1.83
   1  20   0   35.94    1.82
   2 -20   0    0.42    1.01
  -2 -20   0    1.62    1.34
  -2  20   0    0.31    0.18
   2  20   0    0.71    0.21
   2  20   0    0.47    0.34
   3 -20   0   19.07    3.32
  -3 -20   0   18.69    3.66
   3  20   0   19.09    1.11
   3  20   0   21.51    1.59
  -3  20   0   20.39    1.10
  -4 -20   0    1.39    1.49
   4 -20   0    1.72    1.29
  -4  20   0    1.69    0.29
   4  20   0    1.93    0.33
   4  20   0    2.68    0.61
   5 -20   0   15.07    3.05
  -5 -20   0   15.51    3.67
  -5  20   0   16.27    0.97
   5  20   0   17.59    1.04
   5  20   0   17.48    1.50
   6 -20   0    3.85    1.70
  -6  20   0    2.65    0.36
   6  20   0    3.22    0.43
   6  20   0    2.28    0.65
   7 -20   0   24.60    3.91
   7  20   0   25.08    2.05
   7  20   0   25.27    1.43
   8  20   0    1.45    0.34
   8  20   0    2.14    0.69
   0 -21   0    0.38    0.99
   0  21   0   -0.04    0.15
  -1 -21   0    8.62    2.48
   1 -21   0   11.00    2.62
   1  21   0   12.08    1.03
   1  21   0   10.45    0.70
  -1  21   0    9.68    0.67
  -2 -21   0   32.82    5.04
   2 -21   0   31.65    4.59
   2  21   0   36.27    2.35
  -2  21   0   37.52    1.81
   2  21   0   35.72    1.82
  -3 -21   0    1.06    1.33
   3 -21   0    3.89    1.72
  -3  21   0    2.90    0.36
   3  21   0    2.92    0.63
   3  21   0    3.17    0.40
   4 -21   0    1.08    1.16
  -4 -21   0    0.18    1.23
  -4  21   0    0.11    0.17
   4  21   0   -0.16    0.15
   4  21   0    0.36    0.35
  -5 -21   0    6.87    2.54
   5 -21   0    9.72    2.47
  -5  21   0    9.74    0.65
   5  21   0    7.88    0.65
   5  21   0   10.08    1.24
   6 -21   0   19.85    3.59
   6  21   0   22.56    1.85
   6  21   0   21.64    1.29
  -6  21   0   23.04    1.24
   7 -21   0    1.31    1.33
   7  21   0    1.33    0.33
   7  21   0    1.14    0.56
   0 -22   0    9.51    2.60
   0  22   0   11.19    0.73
   1 -22   0    7.70    2.42
  -1 -22   0    7.24    2.40
   1  22   0    9.90    0.67
   1  22   0    9.33    0.95
  -1  22   0   10.02    0.67
  -2 -22   0    3.45    1.76
   2 -22   0    3.05    1.66
  -2  22   0    2.56    0.35
   2  22   0    2.44    0.36
   2  22   0    2.50    0.57
   3 -22   0   10.91    2.72
  -3 -22   0    9.20    2.76
   3  22   0   10.52    1.22
  -3  22   0   11.40    0.73
   3  22   0   11.06    0.76
  -4 -22   0   24.79    4.58
   4 -22   0   17.20    3.38
   4  22   0   20.09    1.17
   4  22   0   21.26    1.69
  -4  22   0   19.94    1.14
  -5 -22   0    6.47    2.56
   5 -22   0    5.17    2.05
  -5  22   0    6.42    0.52
   5  22   0    4.59    0.89
   5  22   0    4.95    0.55
   6 -22   0    1.68    1.45
  -6  22   0    0.42    0.22
   6  22   0    0.55    0.24
   6  22   0    1.14    0.53
   0 -23   0   -0.35    1.05
   0  23   0    0.07    0.17
   1 -23   0   10.29    2.81
  -1 -23   0    8.92    2.60
   1  23   0    9.05    0.65
  -1  23   0    7.45    0.60
   2 -23   0    6.74    2.30
  -2 -23   0    8.13    2.68
  -2  23   0    6.19    0.53
   2  23   0    6.66    0.92
   2  23   0    6.17    0.54
   3 -23   0   11.29    2.83
  -3 -23   0   12.94    3.31
   3  23   0    9.49    0.74
  -3  23   0   12.20    0.76
   3  23   0   11.45    1.14
   4 -23   0    0.88    1.18
  -4 -23   0    0.97    1.53
  -4  23   0   -0.11    0.16
   4  23   0    0.13    0.20
   4  23   0   -0.03    0.35
   0 -24   0   28.42    4.75
   0  24   0   23.45    1.31
  -1 -24   0    2.75    1.83
   1 -24   0    3.15    1.81
  -1  24   0    2.38    0.36
   1  24   0    2.38    0.36
   2 -24   0    0.29    1.22
  -2 -24   0    0.18    1.21
   2  24   0   -0.04    0.17
  -2  24   0    0.08    0.18
  -3 -24   0    0.12    1.42
   3 -24   0    0.86    1.34
   3  24   0    1.24    0.49
  -3  24   0    1.10    0.27
  13   0  -1   12.20    1.97
  13   0  -1   12.97    0.86
  12   0  -1    0.29    0.64
  12   0  -1   -0.31    0.16
  11   0  -1   55.82    4.31
  10   0  -1    0.09    0.45
   9   0  -1   15.35    1.56
   8   0  -1    0.26    0.37
   7   0  -1  247.02   13.88
   7   0  -1  239.70   15.29
   6   0  -1    0.67    0.31
   6   0  -1   -0.23    0.17
   5   0  -1   47.81    3.26
   5   0  -1   49.51    2.95
   4   0  -1    0.23    0.17
   4   0  -1   -0.06    0.11
   3   0  -1  318.96   17.72
   3   0  -1  308.38   19.29
   2   0  -1   -0.18    0.09
   1   0  -1   69.87    4.01
   0   0   1   -0.05    0.05
   0   0  -1   -0.02    0.02
   0   0  -1    0.14    0.04
   1   0   1 1000.00   59.73
  -1   0  -1  936.73   54.32
   2   0   1    0.32    0.19
  -2   0  -1    0.02    0.07
   3   0   1   12.77    1.06
  -3   0  -1   12.80    0.80
   4   0   1   -0.02    0.19
  -4   0  -1    0.05    0.07
   5   0   1   79.09    5.10
  -5   0  -1   74.85    4.01
  -6   0  -1    0.00    0.17
   6   0   1    0.43    0.36
  -7   0  -1    1.73    0.39
   7   0   1    1.67    0.60
   8   0   1    0.23    0.44
   9   0   1  164.69   10.86
  10   0   1   -0.33    0.50
  11   0   1    5.56    0.47
  11   0   1    5.02    1.22
  12   0   1    0.09    0.19
  12   0   1    0.06    0.68
  13   0   1   63.03    3.00
  13   0   1   59.57    5.07
  13  -1  -1    3.18    1.12
  13  -1  -1    3.14    0.43
  13   1  -1    2.74    0.41
  13   1  -1    3.95    1.17
  12  -1  -1   58.77    4.77
  12   1  -1   58.89    4.74
  12   1  -1   64.53    2.96
  11  -1  -1    1.01    0.69
  11   1  -1    0.42    0.21
  11   1  -1    0.53    0.59
  10  -1  -1    6.31    1.16
  10   1  -1    7.62    1.24
   9  -1  -1   12.49    1.39
   9   1  -1   12.51    1.36
   8  -1  -1  112.31    7.49
   8   1  -1  114.93    7.48
   7  -1  -1    7.06    0.77
   7  -1  -1    7.58    0.90
   7   1  -1    7.91    0.89
   7   1  -1    7.52    0.69
   6  -1  -1   46.89    2.94
   6  -1  -1   48.01    3.29
   6   1  -1   49.75    2.92
   6   1  -1   45.95    3.25
   5  -1  -1  190.53   10.59
   5  -1  -1  177.12   11.57
   5   1  -1  191.19   10.57
   5   1  -1  181.27   11.56
   4  -1  -1  254.94   14.21
   4  -1  -1  245.60   15.49
   4   1  -1  251.09   15.47
   3  -1  -1    3.30    0.39
   3  -1  -1    2.71    0.38
   3   1  -1    3.39    0.37
   2  -1  -1  184.40   11.25
   2  -1  -1  178.93   10.37
   2   1  -1  184.94   11.23
   1  -1  -1   26.21    1.50
  -1   1   1   22.40    1.07
   0  -1   1  328.92   25.62
   0  -1  -1  391.77   20.59
   0   1   1  535.06   25.76
   0   1  -1  410.37   20.67
   0   1   1  431.72   18.07
  -1  -1  -1    5.25    0.41
  -1  -1  -1    4.52    0.31
   1   1   1    4.43    0.44
   1   1   1    4.59    0.24
   2  -1   1  212.05   12.76
  -2  -1  -1  217.36   11.66
   2   1   1  194.99    8.88
  -2   1  -1  195.65   10.16
   2   1   1  209.94   12.76
   3  -1   1   84.02    5.23
  -3  -1  -1   75.05    4.12
   3   1   1   85.40    5.22
  -3   1  -1   80.09    4.12
   4  -1   1   65.30    4.23
   4   1   1   62.45    4.21
   5  -1   1    2.57    0.58
  -5  -1  -1    3.07    0.41
   5   1   1    2.76    0.57
  -5   1  -1    2.75    0.39
   6  -1   1  186.22   11.54
  -6   1  -1  174.92    9.13
   6   1   1  181.72   11.51
   7  -1   1   62.01    4.16
   7   1   1   55.18    4.08
  -7   1  -1   57.11    3.19
   8  -1   1   71.85    5.03
   8   1   1   69.81    4.99
   9  -1   1    0.59    0.61
   9   1   1    1.22    0.23
   9   1   1    0.37    0.57
  10  -1   1   88.25    6.20
  10   1   1   85.59    6.14
  10   1   1   84.35    3.93
  11  -1   1    7.12    1.44
  11   1   1    7.67    0.58
  11   1   1    7.49    1.47
  12  -1   1   21.27    1.22
  12  -1   1   21.43    2.41
  12   1   1   22.47    2.42
  12   1   1   21.57    1.22
  13  -1   1    0.45    0.81
  13  -1   1    0.12    0.22
  13   1   1    0.23    0.23
  13   1   1    0.77    0.85
  13  -2  -1    4.45    1.30
  13   2  -1    6.13    1.40
  13   2  -1    5.17    0.56
  12  -2  -1    0.41    0.69
  12   2  -1    0.34    0.21
  12   2  -1    0.55    0.72
  11  -2  -1   61.20    4.65
  11   2  -1   59.26    2.88
  11   2  -1   62.53    4.60
  10  -2  -1   36.60    2.95
  10   2  -1   34.91    2.88
  10   2  -1   34.85    1.76
   9  -2  -1    5.40    1.00
   9   2  -1    4.42    0.89
   9   2  -1    4.31    0.39
   8  -2  -1    2.08    0.60
   8   2  -1    1.87    0.56
   7  -2  -1  100.66    6.49
   7  -2  -1   95.06    5.85
   7   2  -1   96.22    6.42
   7   2  -1  101.32    5.78
   6  -2  -1   93.53    5.68
   6  -2  -1   94.55    6.24
   6   2  -1   95.31    6.19
   6   2  -1  100.42    5.63
   5  -2  -1    7.55    0.74
   5  -2  -1    8.23    0.79
   5   2  -1    8.06    0.75
   4  -2  -1   38.61    2.41
   4  -2  -1   38.38    2.57
   4   2  -1   38.09    2.53
   3  -2  -1  152.86    8.41
   3  -2  -1  147.15    9.08
   3   2  -1  148.78    9.03
  -3   2   1  135.89    7.22
   2  -2  -1   45.56    2.63
  -2   2   1   40.45    2.14
   2   2  -1   43.33    1.89
   1  -2  -1  137.36    7.43
   1   2  -1  121.49    5.57
   0  -2   1   13.99    0.98
   0   2   1   12.11    0.62
   0   2  -1   15.70    0.62
  -1  -2  -1  582.22   30.74
   1  -2   1  572.00   33.45
   1  -2   1  599.46   30.86
  -1  -2  -1  529.88   26.90
   1   2   1  528.28   23.59
  -1   2  -1  602.62   26.95
   1   2   1  422.88   33.37
  -1   2  -1  534.05   23.53
   2  -2   1   35.76    2.15
  -2  -2  -1   35.07    2.17
  -2  -2  -1   30.74    1.75
  -2   2  -1   33.38    1.75
   2   2   1   35.02    2.26
   2   2   1   31.95    1.49
   3  -2   1    0.05    0.20
  -3  -2  -1   -0.07    0.04
   3  -2   1   -0.04    0.17
  -3  -2  -1    0.06    0.21
   3   2   1   -0.02    0.20
  -3   2  -1    0.25    0.12
   3   2   1   -0.08    0.02
   4  -2   1   62.64    3.82
   4  -2   1   63.54    3.39
   4   2   1   62.85    3.80
  -4   2  -1   40.20    2.91
   5  -2   1  405.53   25.44
   5   2   1  417.86   25.43
  -5   2  -1  401.57   20.30
   5   2   1  417.23   17.75
   6  -2   1   21.85    1.81
   6   2   1   22.58    1.82
  -6   2  -1   21.87    1.35
   6   2   1   20.96    1.08
   7  -2   1    2.01    0.63
   7   2   1    2.02    0.61
   7   2   1    0.42    0.12
  -7   2  -1    2.13    0.41
   8  -2   1   22.99    2.06
  -8   2  -1   22.64    1.52
   8   2   1   22.58    2.04
   9  -2   1  110.41    7.45
   9   2   1  109.24    4.88
   9   2   1  105.19    7.38
  10  -2   1    8.05    1.43
  10   2   1    7.74    0.58
  10   2   1    7.59    1.36
  11  -2   1    2.98    1.02
  11   2   1    3.16    0.39
  11   2   1    3.34    1.04
  12  -2   1   10.84    1.87
  12   2   1    9.45    1.71
  12   2   1    9.67    0.71
  13  -2   1   37.29    3.62
  13  -2   1   42.09    1.99
  13   2   1   35.82    1.96
  13   2   1   34.64    3.48
  13  -3  -1    8.24    1.67
  13   3  -1    9.02    1.64
  13   3  -1    8.12    0.67
  12  -3  -1   46.29    3.72
  12   3  -1   39.90    3.49
  12   3  -1   41.27    2.12
  11  -3  -1   11.50    1.70
  11   3  -1   10.49    0.74
  11   3  -1   12.60    1.54
  10  -3  -1    3.57    0.95
  10   3  -1    4.42    0.46
  10   3  -1    4.38    0.95
   9  -3  -1   42.18    3.25
   9   3  -1   42.58    3.19
   9   3  -1   41.41    2.03
   8  -3  -1   38.02    2.93
   8   3  -1   41.02    2.47
   8   3  -1   38.29    2.86
   8   3  -1   36.66    1.84
   7  -3  -1   20.11    1.69
   7  -3  -1   18.58    1.56
   7   3  -1   20.49    1.63
   7   3  -1   18.95    1.01
   6  -3  -1    6.19    0.74
   6  -3  -1    6.48    0.80
   6   3  -1    5.24    0.38
   6   3  -1    6.14    0.68
   5  -3  -1   83.86    5.46
   5  -3  -1   84.59    5.07
   5   3  -1   86.57    3.75
   5   3  -1   85.84    5.39
  -5   3   1   80.58    4.29
   4  -3  -1  155.65    8.73
   4  -3  -1  146.56    9.39
  -4   3   1  141.90    7.45
   4   3  -1  151.26    6.54
   4   3  -1  155.04    9.33
   3  -3  -1    1.20    0.35
   3   3  -1    1.10    0.13
  -3   3   1    1.03    0.14
   3   3  -1    1.31    0.21
   2  -3  -1  187.30   11.37
   2  -3  -1  195.04   10.63
  -2   3   1  180.69    9.06
   2   3  -1  176.28    7.97
   1  -3  -1  314.21   16.33
   1   3  -1  270.63   12.39
  -1   3   1  276.32   14.03
   0  -3   1   91.08    5.12
   0  -3   1   71.93    5.11
   0   3  -1   81.93    3.54
   0   3  -1   85.09    4.09
   1  -3   1   13.60    0.97
   1  -3   1   13.91    1.13
  -1  -3  -1   13.85    1.09
   1   3   1    9.04    0.86
  -1   3  -1   14.65    0.73
  -1   3  -1   12.60    0.57
   2  -3   1   40.64    2.60
   2  -3   1   42.84    2.57
  -2  -3  -1   40.30    2.59
   2   3   1   31.81    2.53
  -2   3  -1   40.10    2.02
   3  -3   1   74.08    4.24
  -3  -3  -1   70.06    4.36
   3   3   1   65.47    4.48
  -3   3  -1   69.02    3.55
   4  -3   1   97.56    5.31
   4  -3   1   77.30    5.72
  -4  -3  -1   89.91    5.50
   4   3   1   96.19    5.76
  -4   3  -1   84.28    4.52
   5  -3   1    1.92    0.48
   5  -3   1    0.99    0.32
   5   3   1    0.87    0.15
  -5   3  -1    1.76    0.30
   5   3   1    1.39    0.43
   6  -3   1   89.04    6.04
   6   3   1   89.13    4.05
  -6   3  -1   92.49    4.73
   6   3   1   92.10    6.01
   7  -3   1   71.00    4.92
   7   3   1   69.01    4.85
  -7   3  -1   70.99    3.78
   8  -3   1   55.87    4.08
   8   3   1   57.45    4.05
  -8   3  -1   52.63    3.09
   9  -3   1    2.62    0.82
  -9   3  -1    2.14    0.49
   9   3   1    2.09    0.31
   9   3   1    3.11    0.84
  10  -3   1   19.84    2.16
  10   3   1   21.93    2.14
  10   3   1   21.38    1.17
  11  -3   1   29.69    2.90
  11   3   1   32.68    2.91
  11   3   1   31.78    1.64
  12  -3   1   14.21    2.15
  12   3   1   15.56    1.92
  12   3   1   12.66    0.87
  13  -3   1    1.81    1.04
  13   3   1    1.63    0.90
  13   3   1    0.95    0.28
  13  -4  -1    4.45    1.31
  13   4  -1    5.70    0.60
  13   4  -1    7.03    1.46
  12  -4  -1    4.15    1.17
  12   4  -1    4.00    0.48
  12   4  -1    4.94    1.17
  11  -4  -1   11.60    1.72
  11   4  -1   12.11    1.48
  11   4  -1   10.69    0.75
  10  -4  -1   58.96    4.57
  10   4  -1   62.37    2.91
  10   4  -1   62.34    4.48
   9  -4  -1    0.64    0.51
   9   4  -1    1.42    0.26
   9   4  -1    1.84    0.65
   8  -4  -1    4.54    0.89
   8   4  -1    5.32    0.87
   8   4  -1    4.65    0.39
   7  -4  -1   13.11    1.30
   7  -4  -1   13.31    1.27
   7   4  -1   13.01    1.19
   7   4  -1   12.62    0.73
   6  -4  -1  107.38    6.87
   6  -4  -1  105.64    6.38
   6   4  -1  102.22    4.69
   6   4  -1  107.34    6.76
   5  -4  -1    7.79    0.92
  -5   4   1    5.92    0.47
   5   4  -1    6.18    0.40
   5   4  -1    6.78    0.65
   4  -4  -1  152.71    8.68
   4   4  -1  143.39    6.44
  -4   4   1  143.30    7.32
   4   4  -1  151.53    9.17
   3  -4  -1  162.24    9.40
  -3   4   1  153.38    7.93
   3   4  -1  167.26    9.91
   3   4  -1  160.33    6.98
   2  -4  -1  354.11   19.60
   2  -4  -1  341.92   21.06
  -2   4   1  347.88   16.82
   2   4  -1  329.60   14.89
  -1  -4   1  165.14    9.74
   1  -4  -1  169.71    9.45
   1   4  -1  156.24    6.97
  -1   4   1  156.61    7.93
   0  -4   1   85.76    4.98
   0  -4   1   73.16    4.86
   0   4  -1   81.27    3.89
   0   4  -1   72.24    3.35
  -1  -4  -1    0.51    0.45
   1  -4   1    0.98    0.31
   1  -4   1    0.93    0.44
  -1   4  -1    1.00    0.10
  -1   4  -1    1.50    0.20
   1   4   1    0.68    0.20
  -2  -4  -1   66.49    3.86
   2  -4   1   65.02    3.80
   2  -4   1   61.04    3.81
  -2   4  -1   63.89    3.00
   2   4   1   43.87    3.71
  -2   4  -1   56.99    2.56
   3  -4   1    0.10    0.27
   3  -4   1   -0.05    0.08
  -3  -4  -1    0.07    0.28
   3   4   1   -0.04    0.02
  -3   4  -1    0.16    0.11
   3   4   1   -0.16    0.18
  -4  -4  -1  107.37    6.20
   4  -4   1  108.79    5.94
   4   4   1  111.25    6.31
  -4   4  -1   70.02    4.90
   5  -4   1   48.28    3.21
   5   4   1   50.23    3.45
  -5   4  -1   51.20    2.69
   6  -4   1  104.96    6.20
   6  -4   1  104.48    6.84
  -6   4  -1  103.83    5.34
   6   4   1   99.99    6.76
   7  -4   1    0.13    0.43
  -7   4  -1    0.20    0.21
   7   4   1   -0.10    0.39
   7   4   1    0.00    0.04
   8  -4   1   60.60    3.92
  -8   4  -1   57.63    2.90
   8   4   1   58.72    3.82
   8   4   1   33.86    2.30
   9  -4   1   23.85    2.28
   9   4   1   23.66    2.22
   9   4   1   23.76    1.27
  -9   4  -1   24.61    1.62
  10  -4   1   11.35    1.71
  10   4   1   10.67    0.71
  10   4   1   10.70    1.59
  11  -4   1   -0.01    0.65
  11   4   1    0.02    0.16
  11   4   1    0.22    0.62
  12  -4   1   18.47    2.19
  12   4   1   16.22    2.01
  12   4   1   15.82    1.01
  13  -4   1   10.40    2.01
  13   4   1   10.51    0.77
  13   4   1   11.13    1.90
  13  -5  -1   41.21    3.70
  13   5  -1   38.30    2.03
  12  -5  -1    3.93    1.17
  12   5  -1    3.72    0.45
  12   5  -1    3.89    1.09
  11  -5  -1   10.68    1.67
  11   5  -1    9.65    1.49
  11   5  -1   10.02    0.71
  10  -5  -1    1.90    0.77
  10   5  -1    1.55    0.30
  10   5  -1    1.51    0.66
   9  -5  -1   61.32    4.54
   9   5  -1   62.58    2.92
   9   5  -1   63.10    4.42
   8  -5  -1   13.41    1.40
   8   5  -1   13.38    0.79
   8   5  -1   14.76    1.38
   7  -5  -1   15.60    1.54
   7   5  -1   14.79    0.84
  -7   5   1   15.68    1.02
   7   5  -1   15.88    1.36
   6  -5  -1   -0.20    0.36
   6  -5  -1   -0.07    0.08
  -6   5   1    0.09    0.08
   6   5  -1    0.06    0.10
   6   5  -1    0.17    0.25
   5  -5  -1  277.70   15.99
   5  -5  -1  278.05   17.20
   5   5  -1  278.04   11.99
  -5   5   1  264.12   13.65
   5   5  -1  283.24   17.07
   4  -5  -1   10.68    0.92
   4  -5  -1   10.71    1.12
  -4   5   1   10.09    0.63
   4   5  -1   11.64    0.82
   4   5  -1    9.44    0.55
   3  -5  -1    0.74    0.42
   3   5  -1    1.14    0.19
   3   5  -1    1.10    0.14
  -3   5   1    0.90    0.13
  -3   5   1    1.19    0.15
   2  -5  -1   47.79    3.04
   2  -5  -1   45.22    2.89
  -2  -5   1   42.82    3.35
   2   5  -1   42.17    1.99
  -2   5   1   41.33    1.99
   2   5  -1   48.64    2.78
  -2   5   1   45.68    2.26
  -1  -5   1  164.65    9.98
   1  -5  -1  173.67    9.72
   1  -5  -1  173.57   10.10
  -1   5   1  152.13    7.09
   1   5  -1  170.05    8.20
  -1   5   1  153.23    8.08
   1   5  -1  162.54    7.09
   0  -5   1    0.76    0.23
   0  -5  -1    0.06    0.11
   0  -5   1    0.91    0.45
   0   5   1    0.87    0.10
   0   5  -1    1.14    0.17
   0   5  -1    1.43    0.10
  -1  -5  -1    3.31    0.72
   1  -5   1    3.34    0.72
   1  -5   1    3.32    0.47
  -1   5  -1    3.75    0.30
  -1   5  -1    3.33    0.20
   1   5   1    3.47    0.22
   2  -5   1    1.07    0.29
  -2  -5  -1    0.75    0.43
   2  -5   1    0.59    0.36
  -2   5  -1    0.50    0.08
  -2   5  -1    0.46    0.13
   2   5   1    0.03    0.03
   2   5   1    0.27    0.17
  -3  -5  -1  211.64   11.85
   3  -5   1  208.94   11.67
   3   5   1  169.16   12.28
  -3   5  -1  206.43    9.84
  -4  -5  -1    8.66    1.31
   4  -5   1    9.70    0.94
   4  -5   1    8.44    0.99
   4   5   1    9.33    0.89
   5  -5   1    3.11    0.64
   5  -5   1    2.24    0.55
   5   5   1    2.83    0.59
  -5   5  -1    3.42    0.42
   6  -5   1   13.15    1.25
  -6   5  -1   14.05    0.93
   6   5   1   11.93    1.23
   7   5   1   81.96    5.57
   8  -5   1    0.61    0.52
   8   5   1    0.76    0.19
   8   5   1    0.43    0.48
  -8   5  -1    1.04    0.35
   9  -5   1    0.38    0.54
   9   5   1    0.04    0.13
   9   5   1   -0.07    0.47
  -9   5  -1    0.03    0.25
  10  -5   1    6.00    1.30
 -10   5  -1    7.08    0.87
  10   5   1    5.36    1.16
  10   5   1    5.87    0.50
  11  -5   1   29.56    2.88
  11   5   1   29.51    1.58
  11   5   1   31.74    2.83
  12  -5   1   -0.05    0.72
  12   5   1    0.26    0.21
  12   5   1    1.10    0.76
  13  -5   1    0.94    0.93
  13   5   1    0.67    0.26
  13  -6  -1    0.11    0.78
  13   6  -1    0.40    0.25
  12  -6  -1    1.48    0.88
  12   6  -1    1.26    0.29
  11  -6  -1   -0.01    0.58
  11   6  -1    0.10    0.16
  11   6  -1    0.29    0.58
  10  -6  -1   90.20    6.24
  10   6  -1   82.53    6.00
  10   6  -1   88.66    4.02
   9  -6  -1   -0.39    0.43
   9   6  -1    0.07    0.16
   9   6  -1    0.03    0.45
   8  -6  -1    1.85    0.65
   8   6  -1    1.05    0.21
   8   6  -1    1.42    0.52
   7  -6  -1   -0.03    0.13
   7  -6  -1    0.53    0.59
   7   6  -1    0.85    0.18
  -7   6   1    1.43    0.27
   7   6  -1    1.24    0.42
   6  -6  -1  153.08    9.64
   6  -6  -1  149.95    9.09
   6   6  -1  147.51    9.48
   6   6  -1  151.39    6.63
   5  -6  -1   20.97    1.64
   5  -6  -1   20.10    1.81
   5   6  -1   20.29    1.05
  -5   6   1   22.02    1.20
   5   6  -1   21.21    1.52
   4  -6  -1   61.87    4.25
   4  -6  -1   64.78    4.27
   4   6  -1   67.57    4.13
  -4   6   1   64.57    3.30
  -4   6   1   64.87    2.91
   4   6  -1   65.44    2.92
   3  -6  -1  168.05   10.13
   3  -6  -1  169.94   10.60
  -3   6   1  164.40    7.40
   3   6  -1  175.59   10.46
  -3   6   1  170.78    8.41
   3   6  -1  170.79    7.40
   2  -6  -1  113.98    7.15
   2  -6  -1  118.42    7.05
  -2   6   1  117.65    5.68
   2   6  -1  109.45    5.00
  -2   6   1  114.57    5.00
   1  -6  -1   93.14    5.43
  -1  -6   1   72.31    5.38
   1   6  -1   92.20    4.46
   1   6  -1   89.56    3.80
  -1   6   1   85.71    3.81
  -1   6   1   89.06    4.35
   0  -6   1   70.20    4.51
   0  -6   1   73.20    4.80
   0   6  -1   72.08    3.63
   0   6  -1   66.62    3.10
   0   6   1   73.45    3.12
  -1  -6  -1   12.38    1.40
   1  -6   1   14.08    1.10
   1  -6   1   13.14    1.43
   1   6   1   13.89    0.69
  -1   6  -1   15.68    0.85
  -1   6  -1   13.32    0.67
   2  -6   1   92.31    5.60
  -2  -6  -1   91.80    5.67
   2  -6   1   90.59    5.57
   2   6   1   75.13    5.41
  -2   6  -1   85.52    3.80
  -2   6  -1   90.97    4.41
   2   6   1   86.53    3.82
  -3  -6  -1    0.26    0.38
   3  -6   1    0.06    0.21
   3  -6   1   -0.25    0.24
  -3   6  -1    0.07    0.12
  -3   6  -1    0.15    0.07
   3   6   1   -0.05    0.15
   3   6   1    0.09    0.07
   4  -6   1   42.40    2.93
   4  -6   1   40.66    2.86
  -4  -6  -1   42.69    3.21
   4   6   1   37.82    2.76
   4   6   1   40.29    1.86
  -5  -6  -1    9.35    1.53
   5  -6   1    9.14    1.02
   5  -6   1   10.72    1.17
   5   6   1    8.80    0.97
  -5   6  -1    9.94    0.72
   5   6   1   11.06    0.59
   6  -6   1   62.43    4.29
   6  -6   1   61.46    4.06
  -6   6  -1   62.69    3.26
   6   6   1   59.93    2.79
   6   6   1   57.71    4.17
   7  -6   1    2.81    0.70
   7   6   1    2.04    0.65
  -7   6  -1    3.23    0.48
   8  -6   1   48.39    3.70
   8   6   1   47.05    2.30
   8   6   1   48.64    3.61
  -8   6  -1   48.79    2.75
   9  -6   1   14.51    1.67
   9   6   1   15.06    0.87
  -9   6  -1   14.31    1.12
   9   6   1   12.55    1.56
  10  -6   1   33.92    2.89
 -10   6  -1   32.30    1.99
  10   6   1   26.77    2.58
  10   6   1   28.05    1.55
  11  -6   1    0.05    0.66
  11   6   1    0.54    0.61
  11   6   1    0.24    0.19
  12  -6   1   15.70    2.33
  12   6   1   14.15    0.93
  13  -6   1    1.17    0.98
  13   6   1    1.16    0.30
  13  -7  -1   24.07    2.54
  13   7  -1   18.03    1.18
  12  -7  -1    1.16    0.80
  12   7  -1    1.64    0.32
  11  -7  -1   14.57    1.84
  11   7  -1   15.62    0.96
  10  -7  -1    1.86    0.77
  10   7  -1    1.39    0.29
   9  -7  -1  104.63    7.03
   9   7  -1  103.95    4.64
   9   7  -1   97.36    6.79
   8  -7  -1    1.37    0.60
   8  -7  -1    0.67    0.68
   8   7  -1    0.91    0.20
  -8   7   1    1.10    0.29
   8   7  -1    0.99    0.51
   7  -7  -1   47.53    3.57
   7   7  -1   47.37    2.31
   7   7  -1   51.15    3.42
  -7   7   1   50.57    2.66
   6  -7  -1    1.23    0.42
   6  -7  -1    1.15    0.64
   6   7  -1    1.14    0.36
  -6   7   1    0.27    0.13
   6   7  -1    1.18    0.20
   5  -7  -1  171.79   10.51
   5  -7  -1  173.71   11.03
  -5   7   1  173.21    8.68
   5   7  -1  175.41   10.86
   5   7  -1  177.56    7.65
   4  -7  -1    3.14    0.50
  -4   7   1    2.66    0.23
   4   7  -1    2.81    0.25
   4   7  -1    2.35    0.34
  -4   7   1    2.94    0.28
   3  -7  -1   50.36    3.59
   3  -7  -1   50.07    3.36
  -3  -7   1   50.22    4.03
  -3   7   1   51.87    2.30
   3   7  -1   49.88    2.30
   3   7  -1   52.68    3.19
  -3   7   1   50.75    2.60
   2  -7  -1   28.27    1.85
  -2  -7   1   26.62    2.52
   2  -7  -1   27.97    2.25
  -2   7   1   26.92    1.26
   2   7  -1   26.30    1.26
  -2   7   1   27.08    1.43
   1  -7  -1  250.40   14.18
   1  -7  -1  255.24   14.73
  -1   7   1  221.03   10.35
  -1   7   1  232.06   11.82
   1   7  -1  240.18   10.35
   0  -7   1    9.60    1.47
   0  -7  -1   11.86    0.78
   0  -7   1   10.64    0.90
   0   7  -1   11.27    0.56
   0   7   1   11.23    0.57
   0   7  -1   11.56    0.73
   1  -7   1    1.40    0.59
  -1  -7  -1    0.11    0.23
   1  -7   1    1.38    0.33
  -1   7  -1    1.33    0.22
  -1   7  -1    1.33    0.14
   1   7   1    1.09    0.14
   2  -7   1    0.15    0.38
   2  -7   1    0.22    0.22
  -2  -7  -1    0.19    0.31
  -2   7  -1    0.27    0.07
   2   7   1    0.17    0.07
  -2   7  -1    0.19    0.11
   3  -7   1  243.41   12.60
   3  -7   1  238.39   13.11
  -3  -7  -1  134.75   12.32
   3   7   1  232.49    9.08
   3   7   1  160.70   12.86
  -3   7  -1  206.44   10.38
  -3   7  -1  240.94    9.06
   4  -7   1    1.07    0.41
  -4  -7  -1    1.05    0.58
   4  -7   1    1.50    0.55
   4   7   1    0.59    0.26
  -4   7  -1    0.02    0.10
   4   7   1    0.85    0.14
  -5  -7  -1    2.61    0.95
   5  -7   1    2.77    0.63
   5  -7   1    3.38    0.81
   5   7   1    3.26    0.28
  -5   7  -1    2.60    0.38
   5   7   1    2.81    0.56
   6  -7   1    1.61    0.56
   6  -7   1    2.02    0.66
   6   7   1    1.88    0.54
  -6   7  -1    1.70    0.33
   7  -7   1  206.58   12.80
   7   7   1  205.01   13.66
  -7   7  -1  231.74   10.86
   8  -7   1    2.56    0.82
   8   7   1    1.86    0.30
   8   7   1    2.19    0.68
  -8   7  -1    2.10    0.44
   9  -7   1    0.80    0.64
   9   7   1    0.45    0.52
  -9   7  -1    0.86    0.34
   9   7   1    0.42    0.19
  10  -7   1    0.47    0.69
  10   7   1    0.57    0.21
 -10   7  -1    0.92    0.39
  11  -7   1   46.01    3.98
  11   7   1   46.95    2.33
  12  -7   1   -0.56    0.66
  12   7   1    0.22    0.21
  13  -7   1    3.60    1.32
  13   7   1    3.08    0.45
  13  -8  -1    0.48    0.92
  13   8  -1    1.82    0.37
  12  -8  -1    2.32    1.04
  12   8  -1    2.01    0.37
  11  -8  -1   10.62    1.70
  11   8  -1    9.12    0.70
  10  -8  -1   70.47    5.17
  10   8  -1   68.50    3.27
   9  -8  -1    0.37    0.56
   9   8  -1    1.06    0.26
   8  -8  -1   33.25    2.68
   8  -8  -1   35.92    2.84
   8   8  -1   31.68    1.63
   8   8  -1   31.17    2.47
   7  -8  -1    5.74    1.22
   7  -8  -1    6.85    1.04
  -7   8   1    7.29    0.58
   7   8  -1    6.44    0.82
   7   8  -1    6.46    0.48
   6  -8  -1  128.88    8.33
   6  -8  -1  133.62    8.62
   6   8  -1  134.73    8.43
   6   8  -1  134.31    5.91
   5  -8  -1   29.03    2.25
   5  -8  -1   31.07    2.58
   5   8  -1   30.72    1.47
   5   8  -1   29.30    2.08
  -5   8   1   31.92    1.66
   4  -8  -1   56.46    3.75
   4  -8  -1   56.29    3.99
   4   8  -1   57.08    3.56
   4   8  -1   54.26    2.54
  -4   8   1   56.76    2.87
  -4   8   1   55.33    2.53
  -3  -8   1   78.33    5.74
   3  -8  -1   78.74    5.02
   3  -8  -1   77.85    5.21
  -3   8   1   78.65    3.46
  -3   8   1   77.23    3.93
   3   8  -1   76.83    3.46
   2  -8  -1  310.59   18.31
  -2  -8   1  332.86   18.86
   2   8  -1  314.36   13.49
  -2   8   1  313.91   15.36
  -2   8   1  293.89   13.48
   1  -8  -1    2.40    0.76
   1  -8  -1    2.57    0.29
  -1  -8   1    0.33    0.38
  -1  -8   1    1.37    0.28
  -1   8   1    2.52    0.19
   1   8  -1    2.43    0.34
  -1   8   1    2.30    0.26
   1   8  -1    2.54    0.20
   0  -8  -1  100.33    6.22
   0  -8   1  104.62    6.72
   0  -8   1  103.59    6.37
   0   8   1   96.72    4.41
   0   8  -1   99.88    4.40
  -1  -8  -1   46.90    3.48
   1  -8   1   45.41    3.48
   1  -8   1   48.14    3.05
  -1   8  -1   42.94    2.03
   1   8   1   45.31    2.06
  -2  -8  -1  130.02    8.01
   2  -8   1  124.41    7.88
  -2   8  -1  119.97    5.40
   2   8   1  123.56    5.43
  -3  -8  -1    2.97    0.95
   3  -8   1    3.77    0.61
   3  -8   1    2.26    0.75
  -3   8  -1    3.32    0.24
   3   8   1    3.12    0.25
   3   8   1    1.92    0.33
   4  -8   1   78.86    4.99
   4  -8   1   78.25    5.08
  -4  -8  -1   76.07    5.39
   4   8   1   73.36    3.33
  -4   8  -1   81.74    3.87
   4   8   1   56.21    4.72
  -4   8  -1   79.04    3.31
  -5  -8  -1   23.75    2.47
   5  -8   1   22.98    2.10
   5  -8   1   24.06    1.92
   5   8   1   18.74    1.71
   5   8   1   24.89    1.16
  -5   8  -1   23.25    1.37
   6  -8   1   34.22    2.60
   6  -8   1   32.78    2.69
  -6   8  -1   33.16    1.89
   6   8   1   30.64    2.44
   7  -8   1    0.64    0.55
   7  -8   1    1.72    0.71
   7   8   1    1.16    0.23
  -7   8  -1    1.16    0.33
   7   8   1    1.44    0.54
   8  -8   1   95.64    6.61
   8   8   1   91.82    4.31
   8   8   1   87.25    6.40
  -8   8  -1  104.16    5.05
   9  -8   1   10.01    1.61
  -9   8  -1   14.03    1.04
   9   8   1   11.07    0.76
  10  -8   1   37.59    3.25
  10   8   1   35.31    1.85
  11  -8   1   -0.51    0.53
  11   8   1    0.64    0.25
  12  -8   1   28.70    2.96
  12   8   1   25.49    1.48
  12  -9  -1   16.85    2.09
  12   9  -1   14.77    0.99
  11  -9  -1    6.54    1.36
  11   9  -1    5.38    0.56
  10  -9  -1    3.36    0.95
  10   9  -1    2.15    0.36
   9  -9  -1   74.94    5.52
   9   9  -1   78.76    3.60
   8  -9  -1   46.02    3.47
   8  -9  -1   43.07    3.56
   8   9  -1   45.99    2.21
   7  -9  -1   15.48    1.99
   7  -9  -1   12.21    1.34
   7   9  -1   12.42    0.76
   6  -9  -1    1.77    0.80
   6  -9  -1    0.52    0.38
  -6   9   1    0.20    0.10
   6   9  -1    1.04    0.20
   6   9  -1    1.30    0.39
   5  -9  -1   72.72    4.76
   5  -9  -1   68.31    4.92
  -5   9   1   71.14    3.20
   5   9  -1   69.11    4.53
  -5   9   1   72.91    3.64
   5   9  -1   70.07    3.21
   4  -9  -1   47.82    3.26
   4  -9  -1   46.56    3.61
  -4   9   1   49.06    2.48
   4   9  -1   47.56    2.19
  -4   9   1   46.64    2.18
   3  -9  -1    0.73    0.26
   3  -9  -1    1.09    0.62
  -3  -9   1    1.06    0.72
  -3   9   1    0.54    0.12
   3   9  -1    0.43    0.11
  -3   9   1    0.67    0.15
   2  -9  -1   10.88    1.60
  -2  -9   1   12.97    1.98
   2   9  -1   11.55    0.63
   2   9  -1   13.00    0.90
  -2   9   1   12.15    0.73
  -2   9   1   12.22    0.63
  -1  -9   1  227.86   13.03
   1  -9  -1  212.81   12.63
  -1  -9   1  168.29   12.74
   1  -9  -1  225.05   12.80
   1   9  -1  212.55   10.40
  -1   9   1  199.51    8.99
   1   9  -1  213.04    9.00
  -1   9   1  209.32   10.29
   0  -9   1  125.49    7.79
   0  -9   1  118.35    7.35
   0  -9  -1  122.03    7.21
   0   9   1  124.61    5.11
   0   9   1   90.94    5.86
   0   9  -1  122.62    5.93
   0   9  -1  114.97    5.09
   1  -9   1    4.93    0.61
  -1  -9  -1    4.89    0.37
   1  -9   1    4.97    1.14
  -1  -9  -1    5.76    1.19
   1   9   1    4.99    0.33
  -1   9  -1    4.61    0.30
  -1   9  -1    4.95    0.43
   2  -9   1   65.57    4.50
  -2  -9  -1   65.68    4.58
  -2   9  -1   54.06    3.15
  -2   9  -1   62.74    2.71
   2   9   1   60.83    2.73
  -3  -9  -1  208.99   12.79
   3  -9   1  196.45   12.48
   3  -9   1  208.63   12.89
   3   9   1  197.89    8.93
  -3   9  -1  212.34    8.91
  -3   9  -1  204.54   10.23
   4  -9   1   77.50    5.34
   4  -9   1   82.63    5.22
  -4  -9  -1   82.08    5.76
   4   9   1   76.86    3.49
   4   9   1   56.47    4.89
  -4   9  -1   82.30    4.04
  -4   9  -1   90.37    3.48
  -5  -9  -1    0.02    0.56
   5  -9   1    0.91    0.63
   5  -9   1    1.30    0.49
  -5   9  -1    1.00    0.26
   5   9   1    0.58    0.30
   5   9   1    0.80    0.17
   6  -9   1   23.80    2.07
  -6  -9  -1   22.27    2.65
   6  -9   1   24.15    2.30
   6   9   1   23.80    1.24
  -6   9  -1   26.39    1.49
   6   9   1   22.90    1.91
   7  -9   1    7.02    1.21
   7  -9   1    9.42    1.49
  -7   9  -1    7.97    0.71
   7   9   1    7.66    0.55
   8  -9   1   34.06    2.83
   8   9   1   32.59    1.68
  -8   9  -1   32.99    2.00
   9  -9   1    0.35    0.59
  -9   9  -1    0.18    0.28
   9   9   1    0.71    0.22
  10  -9   1   14.18    2.05
  10   9   1   14.64    0.93
  11  -9   1   34.87    3.46
  11   9   1   41.04    2.03
  12  -9   1    9.40    1.85
  12   9   1    7.64    0.66
  12 -10  -1    2.55    1.05
  12  10  -1    1.33    0.34
  11 -10  -1   16.57    2.01
  11  10  -1   16.92    1.05
  10 -10  -1   39.81    3.41
  10  10  -1   41.41    2.08
   9 -10  -1   10.65    1.55
   9  10  -1   10.81    0.75
   8 -10  -1    0.47    0.50
   8 -10  -1    1.58    0.79
   8  10  -1    0.51    0.20
   7 -10  -1  107.69    7.27
   7 -10  -1  106.60    7.25
   7  10  -1  111.17    4.91
   6 -10  -1   42.93    3.18
   6 -10  -1   42.70    3.54
   6  10  -1   44.58    2.08
   5 -10  -1   36.40    3.12
   5 -10  -1   35.94    2.70
   5  10  -1   35.94    1.77
  -5  10   1   37.96    1.75
  -5  10   1   38.09    1.99
  -4 -10   1    0.71    0.78
   4 -10  -1    0.67    0.32
   4 -10  -1    0.28    0.63
   4  10  -1    0.63    0.15
  -4  10   1    0.98    0.16
  -4  10   1    0.92    0.19
  -3 -10   1   29.10    3.03
   3 -10  -1   28.65    2.64
   3 -10  -1   29.82    2.08
  -3  10   1   29.82    1.58
  -3  10   1   27.90    1.38
   3  10  -1   29.19    1.39
   2 -10  -1   24.20    2.37
   2 -10  -1   27.51    1.78
  -2 -10   1   23.43    2.63
   2  10  -1   25.14    1.20
  -2  10   1   23.74    1.37
   2  10  -1   24.40    1.55
  -2  10   1   24.40    1.19
   1 -10  -1    0.08    0.14
  -1 -10   1    0.25    0.43
   1 -10  -1   -0.17    0.46
  -1 -10   1    0.24    0.18
   1  10  -1    0.03    0.13
  -1  10   1    0.11    0.08
   1  10  -1    0.09    0.07
  -1  10   1    0.44    0.15
   0 -10  -1   85.67    5.33
   0 -10   1   90.62    6.14
   0 -10   1   86.47    5.48
   0  10   1   85.40    3.78
   0  10  -1   81.78    3.76
   0  10  -1   85.10    4.42
  -1 -10  -1  167.23   10.67
   1 -10   1  167.56   10.70
   1 -10   1  173.72   10.60
  -1 -10  -1  169.06   10.35
  -1  10  -1  165.30    7.34
  -1  10  -1  169.06    8.47
   1  10   1  167.54    7.36
   2 -10   1   88.64    5.71
   2 -10   1   84.93    6.05
  -2 -10  -1   94.27    6.27
   2  10   1   86.25    3.90
  -2  10  -1   85.27    3.87
  -2  10  -1   89.78    4.52
  -3 -10  -1    0.15    0.55
   3 -10   1    1.33    0.71
   3 -10   1    0.84    0.40
  -3  10  -1    1.34    0.25
   3  10   1    1.00    0.17
  -3  10  -1    1.00    0.15
   4 -10   1   34.05    2.83
   4 -10   1   28.33    2.31
  -4 -10  -1   31.98    3.09
  -4  10  -1   29.46    1.43
  -4  10  -1   31.09    1.73
   4  10   1   30.38    1.47
   5 -10   1   97.37    6.60
   5 -10   1   98.28    6.68
  -5 -10  -1   95.78    7.17
   5  10   1   99.56    4.45
  -5  10  -1  102.08    5.12
   6 -10   1   13.43    1.95
  -6 -10  -1   14.51    2.43
   6 -10   1   10.80    1.33
   6  10   1   12.89    0.74
  -6  10  -1   12.06    0.90
   7 -10   1    3.44    1.03
   7 -10   1    2.85    0.83
   7  10   1    2.73    0.35
  -7  10  -1    3.84    0.52
   8 -10   1    2.42    0.83
  -8  10  -1    3.13    0.51
   8  10   1    2.19    0.33
   9 -10   1   73.38    5.42
   9  10   1   71.66    3.41
  10 -10   1   12.02    1.87
  10  10   1   11.95    0.82
  11 -10   1    3.76    1.21
  11  10   1    4.15    0.51
  12 -10   1    9.23    1.84
  12  10   1    7.58    0.66
  12 -11  -1   31.82    3.19
  12  11  -1   32.26    1.76
  11 -11  -1    2.07    0.95
  11  11  -1    1.85    0.36
  10 -11  -1    6.23    1.31
  10  11  -1    6.05    0.60
   9 -11  -1    9.55    1.50
   9  11  -1   10.76    0.73
   8 -11  -1   75.38    5.62
   8 -11  -1   80.09    5.55
   8  11  -1   77.80    3.62
   7 -11  -1    0.45    0.47
   7 -11  -1    0.59    0.74
   7  11  -1    0.35    0.18
   6 -11  -1   26.92    2.67
   6 -11  -1   27.65    2.20
   6  11  -1   26.04    1.36
   5 -11  -1   14.91    1.31
   5 -11  -1   12.57    1.94
  -5  11   1   12.32    0.83
   5  11  -1   13.68    0.77
  -5  11   1   13.71    0.75
   4 -11  -1   64.49    4.25
   4 -11  -1   63.15    4.71
  -4 -11   1   59.21    5.28
  -4  11   1   64.48    3.25
   4  11  -1   63.91    2.88
  -4  11   1   60.23    2.85
   3 -11  -1    2.57    0.95
   3 -11  -1    2.57    0.49
  -3 -11   1    1.71    0.97
   3  11  -1    2.19    0.25
  -3  11   1    2.92    0.33
  -3  11   1    2.36    0.25
  -2 -11   1   19.90    2.78
   2 -11  -1   21.26    1.42
   2 -11  -1   20.78    2.17
  -2  11   1   12.08    1.03
   2  11  -1   21.37    1.29
   2  11  -1   19.94    0.94
  -2  11   1   19.87    0.93
  -1 -11   1   34.88    2.75
   1 -11  -1   41.02    3.53
  -1 -11   1   43.99    3.80
   1 -11  -1   48.02    2.83
   1  11  -1   45.44    2.42
  -1  11   1   44.26    1.97
   1  11  -1   42.92    1.96
   0 -11   1  149.75    9.58
   0 -11  -1  149.94    8.93
   0 -11   1  141.94    9.07
   0  11  -1  147.25    7.32
   0  11   1  139.78    6.31
   0  11  -1  140.17    6.30
   0  11   1  142.29    7.29
   1 -11   1   13.34    2.07
  -1 -11  -1   13.07    0.87
  -1 -11  -1   16.12    2.25
   1 -11   1   13.00    1.14
  -1  11  -1   12.42    0.66
  -1  11  -1   12.06    0.85
   1  11   1   12.40    0.68
   2 -11   1   77.39    5.09
   2 -11   1   79.78    5.65
  -2 -11  -1   76.73    5.70
  -2  11  -1   77.46    3.43
  -2  11  -1   76.38    4.01
   2  11   1   76.26    3.46
   3 -11   1    4.47    0.76
  -3 -11  -1    3.31    1.14
   3 -11   1    6.30    1.38
   3  11   1    4.98    0.37
  -3  11  -1    5.38    0.35
  -3  11  -1    4.59    0.46
   4 -11   1   88.40    5.75
  -4 -11  -1   84.15    6.42
   4 -11   1   79.74    5.98
  -4  11  -1   88.06    3.82
   4  11   1   83.42    3.85
  -4  11  -1   86.83    4.45
   5 -11   1    1.67    0.86
   5 -11   1    1.94    0.63
  -5 -11  -1    2.81    1.25
  -5  11  -1    2.32    0.39
   5  11   1    2.16    0.28
  -5  11  -1    2.51    0.27
  -6 -11  -1   50.28    4.72
   6 -11   1   49.89    4.13
   6 -11   1   50.32    3.85
   6  11   1   52.84    2.48
  -6  11  -1   55.74    2.90
   7 -11   1   59.66    4.62
   7 -11   1   55.61    4.39
  -7  11  -1   61.83    3.29
   7  11   1   61.00    2.83
   8 -11   1   24.04    2.35
   8  11   1   25.42    1.35
   9 -11   1    2.78    0.94
   9  11   1    2.07    0.34
  10 -11   1   48.33    4.11
  10  11   1   49.54    2.45
  11 -11   1    6.39    1.52
  11  11   1    5.91    0.61
  12 -11   1    2.50    1.21
  12  11   1    3.41    0.48
  12 -12  -1    2.07    1.06
  12  12  -1    2.33    0.42
  11 -12  -1   32.96    3.21
  11  12  -1   35.18    1.85
  10 -12  -1    4.71    1.16
  10  12  -1    5.13    0.55
   9 -12  -1   14.63    1.68
   9  12  -1   14.30    0.92
   8 -12  -1    1.12    0.63
   8 -12  -1    1.40    0.82
   8  12  -1    1.45    0.29
   7 -12  -1   78.90    5.47
   7 -12  -1   80.72    5.80
   7  12  -1   76.56    3.61
   6 -12  -1    0.19    0.44
   6 -12  -1    0.07    0.68
   6  12  -1    0.37    0.16
  -6  12   1    0.42    0.15
   5 -12  -1   22.31    1.84
   5 -12  -1   20.48    2.39
  -5  12   1   22.27    1.13
   5  12  -1   22.14    1.15
   4 -12  -1    0.10    0.28
  -4 -12   1   -0.38    0.57
   4 -12  -1   -0.28    0.56
   4  12  -1    0.24    0.13
  -4  12   1   -0.10    0.08
  -4  12   1   -0.02    0.09
   3 -12  -1  145.29    9.14
   3 -12  -1  142.02    9.41
  -3 -12   1  146.81   10.09
   3  12  -1  145.27    6.35
  -3  12   1  142.33    6.33
   3  12  -1  143.14    7.49
   2 -12  -1    0.42    0.62
   2 -12  -1    1.29    0.34
  -2 -12   1    1.93    0.98
   2  12  -1    0.82    0.16
  -2  12   1    0.98    0.16
   2  12  -1    0.79    0.27
  -2  12   1    0.47    0.16
  -1 -12   1    1.64    0.31
  -1 -12   1    1.77    0.85
   1 -12  -1    0.88    0.26
   1 -12  -1    1.78    0.89
   1  12  -1    1.60    0.34
   1  12  -1    1.91    0.21
  -1  12   1    1.82    0.21
  -1  12   1    2.03    0.31
   0 -12   1   12.12    1.08
   0 -12  -1   12.59    0.91
   0 -12   1   10.79    1.93
   0  12  -1   12.05    0.65
   0  12   1   12.06    0.85
   0  12  -1   11.49    0.85
   0  12   1   12.05    0.66
  -1 -12  -1  229.88   14.37
   1 -12   1  231.89   14.41
  -1 -12  -1  237.67   14.08
   1 -12   1  209.69   14.32
   1  12   1  234.53   10.00
  -1  12  -1  220.48    9.96
   1  12   1  231.81   11.56
  -1  12  -1  239.56   11.50
   2 -12   1    0.37    0.34
  -2 -12  -1    0.04    0.51
   2 -12   1    0.02    0.52
  -2  12  -1    0.19    0.16
   2  12   1    0.13    0.10
  -2  12  -1    0.56    0.13
   3 -12   1    5.69    0.87
   3 -12   1    5.03    1.32
  -3 -12  -1    6.23    1.55
  -3  12  -1    5.09    0.36
  -3  12  -1    6.18    0.53
   3  12   1    5.15    0.39
   4 -12   1    0.03    0.39
  -4 -12  -1   -0.56    0.53
   4 -12   1   -0.27    0.49
  -4  12  -1    0.16    0.11
  -4  12  -1   -0.05    0.17
   4  12   1    0.14    0.11
  -5 -12  -1  149.05   10.21
   5 -12   1  139.87    9.46
   5 -12   1  136.74    9.48
   5  12   1  148.16    6.45
  -5  12  -1  150.08    6.40
  -5  12  -1  144.62    7.38
  -6 -12  -1    6.43    1.86
   6 -12   1    8.31    1.64
   6 -12   1    6.31    1.12
  -6  12  -1    6.61    0.66
   6  12   1    7.03    0.52
   7 -12   1    0.71    0.56
   7 -12   1    0.73    0.68
   7  12   1    0.23    0.18
   8 -12   1    0.33    0.57
   8  12   1   -0.04    0.15
   9 -12   1   48.28    3.98
   9  12   1   48.44    2.40
  10 -12   1    0.10    0.69
  10  12   1    0.35    0.22
  11 -12   1    4.41    1.34
  11  12   1    5.45    0.60
  11 -13  -1    1.00    0.84
  11  13  -1    0.82    0.29
  10 -13  -1    3.88    1.10
  10  13  -1    3.82    0.48
   9 -13  -1    0.57    0.64
   9  13  -1    0.94    0.27
   8 -13  -1   27.15    2.89
   8 -13  -1   27.40    2.46
   8  13  -1   27.71    1.48
   7 -13  -1   -0.13    0.40
   7 -13  -1    0.23    0.60
   7  13  -1    0.15    0.16
   6 -13  -1   31.86    2.66
   6 -13  -1   32.52    3.21
   6  13  -1   34.39    1.71
  -6  13   1   36.22    1.68
   5 -13  -1    1.59    0.93
   5 -13  -1    2.28    0.61
  -5  13   1    1.83    0.25
   5  13  -1    2.25    0.30
   4 -13  -1   89.39    6.30
  -4 -13   1   94.11    7.15
   4 -13  -1   91.53    5.68
  -4  13   1   65.37    4.32
   4  13  -1   91.31    3.87
  -4  13   1   90.44    3.84
   3 -13  -1    0.95    0.78
   3 -13  -1    0.48    0.34
  -3 -13   1    0.62    0.78
   3  13  -1    0.37    0.14
  -3  13   1    0.41    0.14
  -3  13   1    0.63    0.19
   3  13  -1    0.47    0.27
  -2 -13   1   31.88    3.40
   2 -13  -1   32.06    3.11
   2 -13  -1   33.42    2.22
   2  13  -1   30.79    1.49
  -2  13   1   29.71    1.48
  -2  13   1   30.09    1.73
   2  13  -1   30.58    1.90
   1 -13  -1    0.20    0.61
  -1 -13   1    0.31    0.42
   1 -13  -1    0.01    0.11
   1  13  -1    1.28    0.19
  -1  13   1    1.78    0.30
  -1  13   1    0.99    0.17
   1  13  -1    1.61    0.35
   0 -13  -1   89.99    5.52
   0 -13   1   85.21    5.67
   0 -13   1   87.42    6.57
   0  13   1   87.40    3.91
   0  13  -1   85.95    3.89
   0  13   1   88.14    4.58
   0  13  -1   88.13    4.60
  -1 -13  -1    2.44    1.02
   1 -13   1    3.48    1.16
   1  13   1    3.18    0.31
  -1  13  -1    3.35    0.44
   1  13   1    3.20    0.47
  -1  13  -1    3.33    0.28
   2 -13   1   35.67    2.53
  -2 -13  -1   33.75    3.37
   2 -13   1   31.76    3.22
  -2  13  -1   33.86    1.59
   2  13   1   32.25    1.61
  -2  13  -1   34.32    1.93
   3 -13   1    8.61    1.04
   3 -13   1    7.65    1.67
  -3 -13  -1    9.70    1.97
  -3  13  -1    8.43    0.51
  -3  13  -1    9.72    0.71
   3  13   1    8.22    0.54
   4 -13   1   64.07    4.45
  -4 -13  -1   61.23    5.35
   4 -13   1   62.54    5.01
   4  13   1   63.17    2.92
  -4  13  -1   63.76    2.87
  -4  13  -1   62.80    3.37
   5 -13   1   -0.22    0.57
  -5 -13  -1   -0.18    0.70
   5 -13   1   -0.10    0.48
   5  13   1    0.20    0.14
  -5  13  -1    0.23    0.25
  -5  13  -1    0.20    0.13
  -6 -13  -1   58.42    5.57
   6 -13   1   63.12    4.57
   6 -13   1   64.88    5.04
  -6  13  -1   63.82    3.40
   6  13   1   61.75    2.94
   7 -13   1    8.40    1.33
   7 -13   1    4.09    1.31
   7  13   1    6.20    0.52
   8 -13   1   32.60    2.94
   8  13   1   34.02    1.75
   9 -13   1    0.77    0.74
   9  13   1    1.01    0.29
  10 -13   1   25.58    2.68
  10  13   1   25.83    1.46
  11 -13   1    0.80    0.89
  11  13   1    0.60    0.28
  11 -14  -1   23.90    2.65
  11  14  -1   25.09    1.45
  10 -14  -1    5.49    1.30
  10  14  -1    5.00    0.56
   9 -14  -1    4.96    1.13
   9  14  -1    3.39    0.45
   8 -14  -1    4.57    1.34
   8 -14  -1    2.64    0.86
   8  14  -1    2.55    0.37
   7 -14  -1   57.28    4.86
   7 -14  -1   59.21    4.36
   7  14  -1   60.12    2.83
   6 -14  -1    2.42    1.04
   6 -14  -1    3.25    0.76
  -6  14   1    2.60    0.32
   6  14  -1    2.37    0.33
   5 -14  -1   16.63    1.48
   5 -14  -1   13.56    2.25
  -5  14   1   14.31    0.82
   5  14  -1   14.11    0.85
  -4 -14   1   11.40    2.53
   4 -14  -1   13.60    2.22
   4 -14  -1   11.84    1.21
  -4  14   1   11.98    0.70
   4  14  -1   11.87    0.72
   4  14  -1   13.01    1.10
   3 -14  -1   71.58    5.47
   3 -14  -1   70.29    4.62
  -3 -14   1   61.69    5.81
   3  14  -1   68.22    3.87
   3  14  -1   70.99    3.16
  -3  14   1   66.62    3.60
  -3  14   1   70.45    3.14
   2 -14  -1   11.73    2.14
   2 -14  -1    9.98    0.98
  -2 -14   1   11.40    2.34
   2  14  -1   11.41    0.92
  -2  14   1   10.67    0.62
  -2  14   1   11.69    0.78
   2  14  -1   10.38    0.63
  -1 -14   1    0.14    0.46
   1 -14  -1    5.04    1.45
  -1  14   1    4.30    0.48
  -1  14   1    4.00    0.31
   1  14  -1    4.29    0.57
   1  14  -1    3.68    0.30
   0 -14  -1    0.40    0.42
   0 -14   1    4.90    1.53
   0  14  -1    4.10    0.31
   0  14  -1    5.53    0.52
   0  14   1    5.38    0.57
   0  14   1    4.03    0.32
   1 -14   1   63.38    5.51
  -1 -14  -1   66.13    5.54
   1  14   1   72.04    3.82
  -1  14  -1   69.05    3.16
  -1  14  -1   71.28    3.76
   1  14   1   73.43    3.20
   2 -14   1    0.80    0.44
  -2 -14  -1    0.65    0.71
   2 -14   1    0.45    0.71
   2  14   1    0.59    0.16
  -2  14  -1    0.45    0.14
  -2  14  -1    0.85    0.25
  -3 -14  -1    2.99    1.27
   3 -14   1    3.12    1.16
   3 -14   1    2.43    0.65
  -3  14  -1    2.92    0.42
   3  14   1    3.12    0.33
  -3  14  -1    2.67    0.28
   4 -14   1   20.12    2.83
  -4 -14  -1   15.52    2.82
   4 -14   1   16.28    1.58
  -4  14  -1   15.10    0.83
   4  14   1   14.85    0.87
  -4  14  -1   15.43    1.05
   5 -14   1   95.02    7.45
  -5 -14  -1  107.79    8.24
   5 -14   1  106.08    7.12
  -5  14  -1  107.76    4.71
  -5  14  -1  104.75    5.46
   5  14   1  106.35    4.76
  -6 -14  -1    4.49    1.72
   6 -14   1    4.76    1.00
   6 -14   1    3.53    1.24
   6  14   1    4.29    0.45
   7 -14   1   -0.19    0.60
   7 -14   1   -0.26    0.52
   7  14   1    0.01    0.15
   8 -14   1    4.83    1.17
   8  14   1    5.17    0.54
   9 -14   1   42.81    3.74
   9  14   1   44.79    2.24
  10 -14   1    1.09    0.87
  10  14   1    0.09    0.20
  11 -14   1    2.44    1.13
  11  14   1    1.69    0.37
  11  15  -1    3.22    0.49
  10 -15  -1    2.04    0.95
  10  15  -1    2.40    0.42
   9 -15  -1    9.97    1.67
   9  15  -1   12.87    0.85
   8 -15  -1   27.95    2.53
   8  15  -1   27.25    1.49
   7 -15  -1    4.77    1.41
   7 -15  -1    4.68    0.99
   7  15  -1    3.44    0.42
   6 -15  -1   13.11    1.44
   6 -15  -1   13.63    2.38
  -6  15   1   13.28    0.80
   6  15  -1   14.84    0.86
   5 -15  -1   33.39    2.60
   5 -15  -1   34.54    3.44
  -5  15   1   32.39    1.63
   5  15  -1   33.73    1.67
  -4 -15   1   62.28    6.07
   4 -15  -1   68.84    4.66
   4 -15  -1   66.11    5.46
  -4  15   1   69.06    3.11
   4  15  -1   67.20    3.13
   4  15  -1   69.36    3.91
   3 -15  -1    2.29    0.57
  -3 -15   1    1.46    1.09
   3 -15  -1    2.31    1.11
   3  15  -1    3.30    0.57
  -3  15   1    3.11    0.32
   3  15  -1    2.92    0.32
  -3  15   1    3.03    0.40
   2 -15  -1   10.38    2.03
  -2 -15   1    9.82    2.26
   2 -15  -1   12.90    1.15
  -2  15   1   12.44    0.87
  -2  15   1   12.73    0.72
   2  15  -1   12.83    0.72
   2  15  -1   12.42    1.02
   1 -15  -1   18.12    2.78
  -1 -15   1   17.64    2.97
   1  15  -1   21.47    1.10
  -1  15   1   21.34    1.11
  -1  15   1   23.19    1.38
   1  15  -1   23.02    1.47
   0 -15  -1   35.79    3.59
   0 -15   1   33.54    3.64
   0  15   1   37.18    2.09
   0  15  -1   36.08    2.11
   0  15  -1   35.31    1.69
   0  15   1   34.71    1.70
   1 -15   1    2.21    1.16
  -1 -15  -1    1.93    1.07
  -1  15  -1    1.65    0.23
   1  15   1    2.78    0.46
   1  15   1    1.86    0.25
  -1  15  -1    2.37    0.39
   2 -15   1   19.12    2.82
   2 -15   1   18.55    1.59
  -2 -15  -1   10.61    2.27
  -2  15  -1   17.02    1.14
   2  15   1   17.21    0.92
   2  15   1   14.96    1.22
  -2  15  -1   17.26    0.89
  -3 -15  -1   29.35    3.29
   3 -15   1   24.56    2.91
   3 -15   1   24.21    2.12
  -3  15  -1   26.92    1.28
   3  15   1   24.63    1.30
  -3  15  -1   25.63    1.56
   4 -15   1   45.59    4.21
   4 -15   1   45.51    3.43
  -4 -15  -1   45.93    4.62
  -4  15  -1   44.17    2.54
   4  15   1   45.18    2.19
  -4  15  -1   47.33    2.14
  -5 -15  -1   -0.24    0.83
   5 -15   1    0.01    0.47
   5 -15   1    0.07    0.63
   5  15   1   -0.07    0.13
  -5  15  -1   -0.21    0.12
   6 -15   1   37.84    3.64
  -6 -15  -1   34.60    4.76
   6 -15   1   34.04    2.86
   6  15   1   32.56    1.72
  -6  15  -1   34.18    1.67
   7 -15   1    7.14    1.32
   7 -15   1    7.29    1.80
   7  15   1    7.05    0.58
   8 -15   1   20.45    2.18
   8  15   1   20.23    1.19
   9 -15   1    3.21    1.09
   9  15   1    2.84    0.43
  10 -15   1   15.54    2.27
  10  15   1   14.58    1.00
  10 -16  -1   12.24    1.95
  10  16  -1   11.95    0.88
   9 -16  -1    4.21    1.15
   9  16  -1    5.20    0.56
   8 -16  -1    7.84    1.35
   8  16  -1    6.58    0.59
   7 -16  -1   26.87    3.12
   7 -16  -1   27.60    2.41
   7  16  -1   25.82    1.43
   6 -16  -1   24.69    2.25
   6 -16  -1   24.31    3.35
   6  16  -1   25.56    1.37
  -6  16   1   26.66    1.34
   5 -16  -1    6.09    1.68
   5 -16  -1    6.07    1.01
  -5  16   1    6.61    0.48
   5  16  -1    5.60    0.49
   5  16  -1    6.29    0.90
  -4 -16   1   13.75    2.90
   4 -16  -1   16.84    2.71
   4 -16  -1   15.75    1.48
   4  16  -1   15.71    1.29
   4  16  -1   14.89    0.88
  -4  16   1   15.66    0.87
  -3 -16   1   55.51    5.53
   3 -16  -1   55.32    4.97
   3 -16  -1   60.73    4.06
  -3  16   1   60.42    2.72
   3  16  -1   57.69    3.39
   3  16  -1   57.36    2.72
   2 -16  -1   65.19    5.45
  -2 -16   1   59.74    5.73
  -2  16   1   61.52    2.97
  -2  16   1   66.85    3.48
   2  16  -1   64.90    2.99
   2  16  -1   69.69    3.70
  -1 -16   1    3.63    1.43
   1 -16  -1    2.33    1.21
  -1  16   1    4.95    0.38
   1  16  -1    4.35    0.37
  -1  16   1    4.84    0.56
   1  16  -1    4.74    0.65
   0 -16  -1    0.64    0.83
   0 -16   1    0.22    0.84
   0  16   1    0.43    0.16
   0  16  -1    0.45    0.15
   0  16  -1    1.43    0.35
   0  16   1    0.48    0.25
  -1 -16  -1   27.83    3.27
   1 -16   1   25.35    3.55
  -1  16  -1   27.40    1.35
   1  16   1   27.91    1.37
   1  16   1   26.91    1.74
  -1  16  -1   27.01    1.69
  -2 -16  -1   13.09    2.53
   2 -16   1   13.40    2.46
  -2  16  -1   13.25    0.73
   2  16   1   13.04    1.07
   2  16   1   11.50    0.73
  -2  16  -1   14.11    0.97
   3 -16   1    1.23    1.01
   3 -16   1    1.19    0.59
  -3 -16  -1    1.35    1.13
   3  16   1    1.16    0.24
  -3  16  -1    1.73    0.24
  -3  16  -1    1.47    0.34
   4 -16   1   27.36    3.21
   4 -16   1   28.83    2.39
  -4 -16  -1   31.12    4.27
  -4  16  -1   27.77    1.69
   4  16   1   27.18    1.42
  -4  16  -1   26.85    1.37
  -5 -16  -1   48.78    5.33
   5 -16   1   57.43    4.20
   5 -16   1   56.58    5.01
   5  16   1   57.89    2.69
  -5  16  -1   55.89    2.62
   6 -16   1   11.36    1.61
   6 -16   1    9.34    2.14
  -6 -16  -1   10.88    2.84
   6  16   1   12.21    0.77
  -6  16  -1   10.67    0.69
   7 -16   1   -0.32    0.79
   7 -16   1    0.00    0.54
   7  16   1   -0.06    0.15
   8 -16   1   13.62    1.95
   8  16   1   13.10    0.89
   9 -16   1   21.87    2.49
   9  16   1   24.95    1.40
  10 -16   1    7.10    1.63
  10  16   1    8.47    0.72
  10 -17  -1    4.71    1.30
  10  17  -1    4.60    0.57
   9 -17  -1   23.46    2.46
   9  17  -1   23.90    1.39
   8 -17  -1    7.65    1.43
   8  17  -1    7.14    0.61
   7 -17  -1    5.17    1.60
   7 -17  -1    4.10    1.00
   7  17  -1    3.40    0.44
   6 -17  -1    6.20    1.73
   6 -17  -1    4.19    0.94
  -6  17   1    3.98    0.41
   6  17  -1    3.79    0.75
   6  17  -1    3.76    0.44
   5 -17  -1   36.09    3.73
   5 -17  -1   32.62    2.73
   5  17  -1   31.52    2.29
   5  17  -1   33.97    1.74
  -5  17   1   37.87    1.73
   4 -17  -1    8.02    1.10
  -4 -17   1    7.60    2.35
   4 -17  -1    5.65    1.61
   4  17  -1    7.65    0.55
  -4  17   1    6.90    0.51
   4  17  -1    6.96    0.93
   3 -17  -1    7.18    1.84
  -3 -17   1    6.70    2.16
   3  17  -1    8.59    0.56
   3  17  -1    7.76    0.93
  -3  17   1    7.54    0.54
   2 -17  -1    5.12    1.59
  -2 -17   1    5.74    1.85
  -2  17   1    4.27    0.41
   2  17  -1    4.22    0.64
   2  17  -1    3.33    0.36
  -1 -17   1   69.89    6.50
   1 -17  -1   77.39    6.37
  -1  17   1   76.56    4.16
  -1  17   1   78.59    3.55
   1  17  -1   79.74    3.55
   1  17  -1   80.36    4.29
   0 -17  -1   18.15    3.06
   0 -17   1   13.07    2.71
   0  17  -1   18.41    0.97
   0  17   1   17.98    1.25
   0  17   1   18.88    0.98
   0  17  -1   17.51    1.27
  -1 -17  -1   -0.34    0.60
   1 -17   1   -0.25    0.68
  -1  17  -1    0.28    0.22
   1  17   1    0.10    0.13
   1  17   1    0.26    0.23
  -1  17  -1   -0.04    0.12
   2 -17   1    7.49    1.95
  -2 -17  -1    9.05    2.26
  -2  17  -1    9.70    0.60
   2  17   1    9.42    0.62
   2  17   1   10.39    0.92
  -2  17  -1    9.33    0.80
  -3 -17  -1   58.52    5.65
   3 -17   1   56.80    5.34
  -3  17  -1   62.62    2.87
   3  17   1   62.15    2.90
   3  17   1   62.15    3.62
  -3  17  -1   64.68    3.41
  -4 -17  -1   21.09    3.48
   4 -17   1   18.99    3.07
   4 -17   1   20.02    1.91
  -4  17  -1   20.39    1.06
   4  17   1   18.85    1.09
   5 -17   1    0.17    0.48
  -5 -17  -1    0.85    1.18
   5 -17   1    0.06    0.72
   5  17   1    0.06    0.16
  -5  17  -1   -0.13    0.13
  -6 -17  -1    8.09    2.44
   6 -17   1    6.50    1.23
   6 -17   1    6.65    1.85
  -6  17  -1    5.98    0.47
   6  17   1    5.26    0.54
   7 -17   1   26.17    2.55
   7 -17   1   25.22    3.65
   7  17   1   27.45    1.48
   8 -17   1    3.14    1.04
   8  17   1    3.44    0.46
   9 -17   1    0.48    0.77
   9  17   1    0.63    0.28
   9 -18  -1   -0.07    0.74
   9  18  -1   -0.01    0.21
   8 -18  -1    6.08    1.29
   8  18  -1    5.48    0.59
   7 -18  -1    1.64    1.14
   7 -18  -1    3.56    0.96
   7  18  -1    2.37    0.36
   7  18  -1    2.31    0.65
   6 -18  -1   37.87    3.10
   6 -18  -1   34.31    3.91
  -6  18   1   36.46    1.88
   6  18  -1   40.09    1.94
   6  18  -1   39.12    2.61
   5 -18  -1    0.70    0.92
   5 -18  -1    0.13    0.52
   5  18  -1    0.40    0.20
  -5  18   1    0.88    0.21
   5  18  -1    0.47    0.36
   4 -18  -1    8.07    2.02
  -4 -18   1    7.62    2.42
   4  18  -1    6.59    0.91
   4  18  -1    8.70    0.60
  -4  18   1    7.93    0.56
   3 -18  -1    7.67    1.96
  -3 -18   1    7.96    2.33
   3  18  -1    7.55    0.55
  -3  18   1    7.62    0.54
   3  18  -1    8.78    1.00
   2 -18  -1   67.31    5.73
  -2 -18   1   64.44    6.10
   2  18  -1   62.30    2.95
   2  18  -1   62.69    3.63
  -2  18   1   64.39    2.95
  -1 -18   1    0.24    0.88
   1 -18  -1    0.36    0.82
  -1  18   1    0.71    0.28
  -1  18   1   -0.10    0.13
   1  18  -1    0.65    0.30
   1  18  -1   -0.02    0.13
   0 -18   1   41.99    4.58
   0 -18  -1   45.79    4.55
   0  18   1   47.10    2.59
   0  18  -1   44.76    2.60
   0  18   1   44.49    2.11
   0  18  -1   41.18    2.08
   1 -18   1   13.35    2.70
  -1 -18  -1   12.60    2.70
  -1  18  -1   15.41    1.12
  -1  18  -1   14.32    0.83
   1  18   1   14.93    0.86
   1  18   1   14.92    1.16
  -2 -18  -1   42.73    4.64
   2 -18   1   42.74    4.52
   2  18   1   46.80    2.73
  -2  18  -1   45.18    2.13
  -2  18  -1   43.51    2.57
   2  18   1   45.32    2.17
   3 -18   1    0.42    0.79
  -3 -18  -1    0.06    0.91
   3  18   1    0.45    0.18
   3  18   1    0.67    0.39
  -3  18  -1    0.25    0.16
  -4 -18  -1   38.38    5.09
   4 -18   1   30.45    3.67
  -4  18  -1   33.02    1.65
   4  18   1   34.90    2.29
   4  18   1   33.14    1.70
   5 -18   1    1.55    1.12
  -5 -18  -1    2.53    1.58
   5 -18   1    3.22    0.91
   5  18   1    2.81    0.39
  -5  18  -1    3.10    0.36
   6 -18   1   19.66    3.29
   6 -18   1   20.64    2.11
  -6 -18  -1   18.01    3.70
   6  18   1   20.66    1.18
  -6  18  -1   20.41    1.11
   7 -18   1    0.16    0.96
   7 -18   1    0.44    0.67
   7  18   1    0.00    0.17
   8 -18   1   19.27    2.25
   8  18   1   21.57    1.26
   9 -18   1    2.46    1.06
   9  18   1    2.17    0.40
   8 -19  -1    0.06    0.62
   8  19  -1   -0.10    0.18
   8  19  -1    0.65    0.49
   7 -19  -1    8.44    1.43
   7 -19  -1    7.28    2.01
   7  19  -1    9.19    1.19
   7  19  -1    7.92    0.65
  -7  19   1    7.04    0.60
   6 -19  -1    0.88    0.98
   6  19  -1    1.08    0.27
   6  19  -1    0.58    0.43
  -6  19   1    0.43    0.20
   5 -19  -1   59.43    5.43
  -5  19   1   58.52    2.77
   5  19  -1   58.89    2.81
   5  19  -1   57.59    3.57
  -4 -19   1    1.16    1.35
   4 -19  -1    1.55    1.11
   4  19  -1    0.11    0.30
   4  19  -1    0.37    0.18
  -4  19   1    0.54    0.20
  -3 -19   1    7.67    2.33
   3 -19  -1    7.38    2.01
  -3  19   1    7.11    0.53
   3  19  -1    6.51    0.89
   3  19  -1    8.02    0.56
   2 -19  -1    0.00    0.85
  -2 -19   1    0.23    0.95
   2  19  -1    0.29    0.27
  -2  19   1   -0.03    0.14
   2  19  -1    0.09    0.14
   1 -19  -1   52.35    5.29
  -1 -19   1   53.14    5.58
  -1  19   1   57.21    2.70
   1  19  -1   59.72    3.34
   1  19  -1   58.95    2.70
   0 -19  -1    0.13    0.77
   0 -19   1    0.74    1.03
   0  19   1    0.72    0.31
   0  19  -1    0.49    0.18
   0  19  -1    0.52    0.30
   0  19   1    0.30    0.17
  -1 -19  -1    0.99    0.96
   1 -19   1   -0.21    0.86
   1  19   1    0.37    0.17
  -1  19  -1    0.13    0.14
   1  19   1    0.23    0.28
  -1  19  -1    0.39    0.28
   2 -19   1    5.58    1.82
  -2 -19  -1    3.25    1.55
   2  19   1    4.99    0.44
  -2  19  -1    5.16    0.42
   2  19   1    4.72    0.71
  -2  19  -1    4.72    0.63
   3 -19   1   72.88    6.43
  -3 -19  -1   78.78    6.88
   3  19   1   69.78    3.38
  -3  19  -1   73.89    3.35
   3  19   1   74.08    4.19
  -4 -19  -1    0.75    1.14
   4 -19   1    0.14    0.93
  -4  19  -1   -0.15    0.15
   4  19   1    0.25    0.33
   4  19   1    0.79    0.23
   5 -19   1   -0.15    0.79
  -5 -19  -1    0.12    1.14
   5  19   1    0.15    0.36
  -5  19  -1    0.12    0.16
   5  19   1    0.36    0.20
  -6 -19  -1    2.29    1.66
   6 -19   1    1.14    1.27
   6  19   1    1.66    0.32
  -6  19  -1    1.60    0.28
   7 -19   1   38.00    3.36
   7 -19   1   36.51    4.28
   7  19   1   39.06    2.00
   8 -19   1   -0.41    0.63
   8  19   1    0.04    0.21
   8  20  -1    7.40    1.19
   8  20  -1    9.99    0.76
   7 -20  -1    1.16    1.16
   7  20  -1    1.68    0.60
  -7  20   1    0.79    0.24
   7  20  -1    1.06    0.29
   6 -20  -1   35.88    4.16
   6  20  -1   37.32    2.57
  -6  20   1   36.51    1.85
   6  20  -1   36.47    1.90
   5 -20  -1    3.08    1.47
   5  20  -1    3.28    0.71
   5  20  -1    2.74    0.38
  -5  20   1    2.07    0.33
  -4 -20   1   13.07    3.26
   4 -20  -1   13.06    2.71
  -4  20   1   14.35    0.89
   4  20  -1   15.77    0.93
   4  20  -1   16.23    1.37
   3 -20  -1    1.40    1.20
  -3 -20   1    1.58    1.43
   3  20  -1    2.74    0.60
  -3  20   1    2.21    0.31
   3  20  -1    1.82    0.31
  -2 -20   1   25.55    4.34
   2 -20  -1   21.90    3.66
  -2  20   1   27.99    1.40
   2  20  -1   27.28    1.40
   2  20  -1   25.44    1.83
  -1 -20   1    1.46    1.18
   1 -20  -1    2.51    1.36
   1  20  -1    1.30    0.25
  -1  20   1    0.92    0.24
   1  20  -1    1.85    0.47
   0 -20  -1    9.16    2.34
   0 -20   1   10.66    2.69
   0  20  -1    8.88    0.61
   0  20  -1    9.29    0.89
   0  20   1    9.40    0.64
  -1 -20  -1    8.36    2.35
   1 -20   1   11.57    2.71
   1  20   1   13.04    0.79
  -1  20  -1   11.80    0.75
  -1  20  -1   14.15    1.07
   1  20   1   13.31    1.10
   2 -20   1   35.75    4.88
  -2 -20  -1   41.04    4.66
   2  20   1   36.87    2.42
   2  20   1   38.76    1.90
  -2  20  -1   37.81    1.86
  -3 -20  -1    5.53    2.15
   3 -20   1    2.30    1.41
   3  20   1    1.08    0.25
  -3  20  -1    0.90    0.22
   3  20   1    1.13    0.45
  -4 -20  -1   20.45    3.82
   4 -20   1   16.39    3.18
  -4  20  -1   19.16    1.02
   4  20   1   17.63    1.05
   4  20   1   17.25    1.49
   5 -20   1    6.52    2.08
  -5 -20  -1    6.24    2.28
   5  20   1    3.88    0.79
  -5  20  -1    3.85    0.41
   5  20   1    4.77    0.51
  -6 -20  -1   10.09    2.98
   6 -20   1   10.46    2.62
  -6  20  -1   12.18    0.77
   6  20   1   12.07    0.84
   6  20   1   11.79    1.40
   7  20   1    0.33    0.22
   7 -21  -1    3.15    1.62
   7  21  -1    3.82    0.82
   7  21  -1    3.86    0.51
  -7  21   1    4.61    0.50
   6 -21  -1    1.08    1.12
   6  21  -1    0.70    0.26
   6  21  -1    0.27    0.39
  -6  21   1    0.45    0.21
   5 -21  -1   23.55    3.83
   5  21  -1   24.81    1.96
  -5  21   1   27.52    1.40
   5  21  -1   25.09    1.41
  -4 -21   1   10.53    3.02
   4 -21  -1   13.12    2.77
  -4  21   1   11.82    0.77
   4  21  -1   11.42    0.78
   4  21  -1   13.39    1.23
   3 -21  -1    0.81    1.07
  -3 -21   1    0.16    1.21
   3  21  -1    0.35    0.35
  -3  21   1    0.23    0.18
   3  21  -1    0.13    0.18
   2 -21  -1    4.85    1.82
  -2 -21   1    3.73    1.86
  -2  21   1    3.71    0.43
   2  21  -1    4.96    0.76
   2  21  -1    5.18    0.45
  -1 -21   1   41.91    5.65
   1 -21  -1   32.29    4.62
   1  21  -1   37.45    1.84
  -1  21   1   36.54    1.85
   1  21  -1   38.38    2.39
   0 -21   1   11.49    2.92
   0 -21  -1   10.64    2.59
   0  21   1   11.24    0.71
   0  21  -1    9.73    0.67
   0  21  -1   10.63    0.97
  -1 -21  -1   -0.26    0.90
   1 -21   1    0.32    1.03
   1  21   1   -0.03    0.15
  -1  21  -1    0.15    0.16
  -2 -21  -1    3.47    1.65
   2 -21   1    5.03    1.93
  -2  21  -1    3.84    0.41
   2  21   1    3.82    0.44
   2  21   1    5.30    0.78
   3 -21   1   37.30    5.04
  -3 -21  -1   37.30    5.34
   3  21   1   34.27    1.80
   3  21   1   34.54    2.35
  -3  21  -1   36.30    1.76
  -4 -21  -1    4.96    2.07
   4 -21   1    2.19    1.50
  -4  21  -1    4.09    0.43
   4  21   1    5.33    0.84
   4  21   1    3.66    0.45
  -5 -21  -1    0.36    1.36
   5 -21   1    0.47    1.16
   5  21   1    0.12    0.19
   5  21   1   -0.07    0.34
  -5  21  -1    0.55    0.20
  -6 -21  -1    6.69    2.63
   6 -21   1    5.49    1.99
  -6  21  -1    6.07    0.51
   6  21   1    5.68    0.61
   6  21   1    6.34    1.03
   7  21   1   12.21    1.49
   7  21   1   12.84    0.91
   6 -22  -1    9.72    2.51
  -6  22   1   12.02    0.80
   6  22  -1   11.99    1.43
   6  22  -1   11.96    0.84
   5 -22  -1    1.69    1.30
  -5  22   1    1.77    0.31
   5  22  -1    2.00    0.35
   5  22  -1    2.49    0.68
  -4 -22   1    8.17    2.77
   4 -22  -1    5.64    1.99
   4  22  -1    8.21    1.08
  -4  22   1    8.55    0.61
   4  22  -1    6.94    0.60
   3 -22  -1    8.58    2.44
  -3 -22   1   10.27    2.98
   3  22  -1   14.15    1.20
  -3  22   1    9.96    0.71
   3  22  -1   10.30    0.73
   2 -22  -1   18.92    3.52
  -2 -22   1   26.61    4.50
   2  22  -1   22.13    1.66
  -2  22   1   21.39    1.20
   2  22  -1   21.71    1.20
  -1 -22   1    1.56    1.46
   1 -22  -1    3.06    1.58
  -1  22   1    1.92    0.32
   1  22  -1    1.53    0.29
   1  22  -1    2.85    0.58
   0 -22  -1    5.34    2.04
   0 -22   1    9.63    2.69
   0  22  -1    7.12    0.88
   0  22  -1    6.42    0.52
   0  22   1    7.00    0.55
   1 -22   1   13.88    3.15
  -1 -22  -1   19.57    3.72
   1  22   1   13.47    0.87
  -1  22  -1   14.89    0.87
   2 -22   1    4.41    1.98
  -2 -22  -1    3.11    1.76
  -2  22  -1    6.62    0.52
   2  22   1    7.59    0.93
   2  22   1    6.88    0.55
  -3 -22  -1    1.14    1.32
   3 -22   1    0.09    1.14
   3  22   1    0.76    0.43
   3  22   1    0.28    0.20
  -3  22  -1    0.37    0.18
  -4 -22  -1    6.28    2.39
   4 -22   1    7.15    2.34
   4  22   1    8.31    1.12
  -4  22  -1    8.06    0.60
   4  22   1    8.50    0.65
  -5 -22  -1   15.13    3.67
   5 -22   1   12.72    3.07
  -5  22  -1   17.02    0.99
   5  22   1   16.80    1.53
   5  22   1   17.37    1.06
   6 -22   1    8.46    2.47
  -6 -22  -1    8.03    2.85
  -6  22  -1    6.70    0.56
   6  22   1    6.70    1.08
   6  22   1    7.37    0.64
   4 -23  -1   10.94    2.79
   4  23  -1   13.76    1.34
  -4  23   1   13.75    0.89
   4  23  -1   15.08    0.93
  -3 -23   1    0.34    1.47
   3 -23  -1    0.84    1.21
   3  23  -1    0.84    0.44
   3  23  -1    0.53    0.23
  -3  23   1    0.75    0.24
   2 -23  -1    3.26    1.69
  -2 -23   1    6.17    2.42
  -2  23   1    6.48    0.54
   2  23  -1    7.46    0.96
   2  23  -1    6.29    0.54
   1 -23  -1    8.37    2.49
  -1 -23   1    7.87    2.59
  -1  23   1    7.28    0.56
   1  23  -1    6.79    0.55
   1  23  -1    5.13    0.80
   0 -23  -1   16.35    3.38
   0 -23   1    9.65    2.96
   0  23  -1   11.75    0.76
   0  23   1   11.43    0.77
  -1 -23  -1    0.64    1.32
   1 -23   1    1.09    1.28
   1  23   1   -0.13    0.16
  -1  23  -1   -0.21    0.15
  -2 -23  -1    5.51    2.25
   2 -23   1    6.13    2.23
   2  23   1    7.88    0.61
  -2  23  -1    7.65    0.58
   3 -23   1    6.75    2.33
  -3 -23  -1    8.49    2.71
   3  23   1    8.15    0.65
  -3  23  -1    9.07    0.63
   3  23   1    8.31    1.09
   4 -23   1    7.00    2.47
  -4 -23  -1   11.26    3.19
  -4  23  -1   11.46    0.75
   4  23   1   10.30    0.78
   4  23   1   13.60    1.27
  -2 -24   1    1.29    1.59
   2 -24  -1    1.20    1.34
   2  24  -1    0.86    0.25
  -2  24   1    1.16    0.28
   2  24  -1    0.43    0.38
   1 -24  -1    1.57    1.45
  -1 -24   1    0.65    1.38
  -1  24   1    0.95    0.27
   1  24  -1    1.55    0.30
   0 -24  -1    1.11    1.45
   0 -24   1    0.12    1.11
   0  24   1    0.09    0.20
   0  24  -1    0.05    0.17
   1 -24   1   26.69    4.65
  -1 -24  -1   20.91    4.17
   1  24   1   22.30    1.29
  -1  24  -1   23.68    1.27
  -2 -24  -1    3.83    2.01
   2 -24   1    2.67    1.83
  -2  24  -1    3.34    0.40
   2  24   1    2.71    0.39
  13   0  -2    0.34    0.68
  13   0  -2    0.13    0.19
  12   0  -2   19.34    2.09
  11   0  -2    0.21    0.51
  10   0  -2   76.04    5.37
   9   0  -2    0.35    0.42
   8   0  -2   23.99    1.93
   8   0  -2   22.86    1.68
   7   0  -2    0.04    0.22
   7   0  -2   -0.16    0.19
   6   0  -2  312.14   17.17
   6   0  -2  290.42   18.69
   5   0  -2   -0.12    0.18
   5   0  -2    1.01    0.26
   4   0  -2  147.05    8.36
   4   0  -2  142.43    9.02
   3   0  -2   -0.13    0.11
   2   0  -2    5.90    0.53
   1   0  -2   -0.30    0.11
   1   0  -2   -0.26    0.06
   0   0  -2   20.23    1.10
   0   0  -2   19.73    1.31
   0   0   2   21.94    0.91
   1   0   2   -0.33    0.03
  -1   0  -2   -0.32    0.09
  -1   0  -2   -0.40    0.08
   1   0   2   -0.25    0.17
  -2   0  -2  690.58   39.42
   2   0   2  716.58   43.22
  -3   0  -2   -0.06    0.05
   3   0   2   -0.12    0.20
   4   0   2    4.24    0.72
  -4   0  -2    4.84    0.46
   5   0   2   -0.13    0.29
  -5   0  -2   -0.14    0.13
  -6   0  -2  252.54   13.04
   6   0   2  267.72   16.46
   7   0   2    0.01    0.43
  -7   0  -2   -0.18    0.18
   8   0   2   10.45    1.52
  -8   0  -2   10.30    0.93
   9   0   2    0.22    0.15
   9   0   2   -0.31    0.46
  10   0   2   39.20    1.89
  10   0   2   36.19    3.27
  11   0   2    0.41    0.19
  11   0   2    0.17    0.63
  12   0   2    0.23    0.71
  12   0   2    0.67    0.22
  13   0   2    1.11    0.86
  13   0   2   -0.01    0.18
  13  -1  -2    1.51    0.88
  13   1  -2    0.77    0.81
  13   1  -2    1.18    0.29
  12  -1  -2    0.86    0.70
  12   1  -2    1.38    0.77
  12   1  -2    1.57    0.30
  11  -1  -2   80.61    5.89
  11   1  -2   84.46    5.89
  10  -1  -2    1.09    0.60
  10   1  -2    1.86    0.67
   9  -1  -2    2.77    0.71
   9   1  -2    3.38    0.74
   8  -1  -2    6.74    0.83
   8  -1  -2    6.22    0.94
   8   1  -2    7.29    0.73
   8   1  -2    4.49    0.81
   7  -1  -2   74.29    4.49
   7  -1  -2   72.82    4.92
   7   1  -2   72.66    4.89
   7   1  -2   74.32    4.45
   6  -1  -2    0.42    0.34
   6  -1  -2    1.56    0.40
   6   1  -2    1.47    0.37
   6   1  -2    0.53    0.30
   5  -1  -2   39.30    2.78
   5  -1  -2   42.23    2.62
   5   1  -2   40.15    2.76
   5   1  -2   43.48    2.62
   4  -1  -2   38.04    2.34
   4  -1  -2   36.40    2.45
   4   1  -2   34.88    2.32
   4   1  -2   37.70    2.44
   3  -1  -2  106.78    6.22
   2  -1  -2    9.10    0.73
   1  -1  -2   83.22    4.90
   1  -1  -2   87.48    4.17
   1   1  -2   82.17    4.20
  -1   1   2   83.30    3.64
   0  -1  -2    0.45    0.12
   0  -1  -2    0.61    0.21
   0  -1   2    0.54    0.24
   0   1   2    0.98    0.27
   0   1  -2    0.51    0.14
   0   1   2    0.71    0.07
  -1  -1  -2  435.66   22.59
  -1  -1  -2  471.54   25.89
   1   1   2  442.15   19.86
   1   1   2  492.00   28.32
   2  -1   2   54.30    3.29
  -2  -1  -2   52.22    2.83
  -2  -1  -2   46.70    2.47
  -2   1  -2   34.45    2.43
   2   1   2   48.70    2.09
   2   1   2   48.92    3.23
   3  -1   2  119.65    7.42
  -3  -1  -2  117.83    6.60
   3   1   2  113.42    5.02
  -3   1  -2  105.72    5.80
   3   1   2  120.03    7.42
   4  -1   2  138.91    8.66
  -4  -1  -2  127.12    6.80
   4   1   2  137.71    8.65
   4   1   2  137.94    5.88
  -4   1  -2  130.21    6.80
  -5  -1  -2   66.48    3.74
   5  -1   2   72.75    4.84
  -5   1  -2   70.84    3.74
   5   1   2   70.87    4.82
   5   1   2   72.67    3.17
   6  -1   2    1.36    0.55
  -6  -1  -2    0.76    0.31
   6   1   2    1.17    0.19
   6   1   2    1.14    0.52
  -6   1  -2    0.67    0.28
  -7  -1  -2   58.18    3.23
   7  -1   2   59.36    4.21
   7   1   2   59.36    4.19
   7   1   2   54.99    2.63
  -7   1  -2   56.34    3.19
   8  -1   2   10.04    1.45
   8   1   2    7.97    1.31
  -8   1  -2    8.15    0.81
   8   1   2    8.71    0.56
   9  -1   2   89.91    6.33
   9   1   2   90.51    6.32
  -9   1  -2   87.81    4.88
   9   1   2   87.21    4.03
  10  -1   2    0.91    0.73
  10   1   2    1.07    0.73
  10   1   2    0.67    0.21
  11  -1   2   31.18    3.02
  11  -1   2   32.65    1.65
  11   1   2   32.12    1.66
  11   1   2   32.14    3.03
  12  -1   2   10.22    1.86
  12  -1   2   10.11    0.71
  12   1   2    9.83    0.71
  12   1   2    9.50    1.76
  13  -1   2   14.46    0.90
  13  -1   2   11.76    2.12
  13   1   2   12.62    0.88
  13   1   2   12.21    2.10
  13  -2  -2    6.14    1.40
  13   2  -2    4.66    1.26
  13   2  -2    5.68    0.58
  12  -2  -2   24.35    2.38
  12   2  -2   21.97    1.27
  12   2  -2   22.38    2.27
  11  -2  -2    0.41    0.56
  11   2  -2    0.36    0.21
  11   2  -2    0.75    0.61
  10  -2  -2   84.44    5.79
  10   2  -2   80.86    3.77
  10   2  -2   81.50    5.70
   9  -2  -2   27.22    2.25
   9   2  -2   25.63    2.18
   8  -2  -2    9.73    1.08
   8  -2  -2    9.14    0.99
   8   2  -2    8.99    1.02
   8   2  -2    9.38    0.87
   7  -2  -2    0.24    0.32
   7  -2  -2    0.21    0.31
   7   2  -2    0.64    0.34
   7   2  -2    0.04    0.20
   6  -2  -2  337.19   18.91
   6  -2  -2  322.49   20.56
   6   2  -2  326.34   20.51
   6   2  -2  339.58   18.86
   5  -2  -2   78.25    4.69
   5  -2  -2   76.15    5.02
   5   2  -2   78.61    4.98
   4  -2  -2   28.95    1.83
   4  -2  -2   25.10    1.84
   4   2  -2   26.94    1.81
   3  -2  -2   22.51    1.55
   2  -2  -2  201.15   10.87
   2  -2  -2  192.37    9.31
   2   2  -2  188.95    8.18
  -2   2   2  176.62    8.18
   1  -2  -2   22.59    1.44
   1  -2  -2   20.84    1.06
   1   2  -2   20.56    0.92
   1   2  -2   20.96    1.14
  -1   2   2   20.06    0.94
   0  -2   2    4.69    0.55
   0  -2  -2    5.53    0.36
   0  -2  -2    6.38    0.58
   0   2  -2    5.98    0.40
   0   2  -2    5.55    0.27
   0   2   2    7.76    0.61
   0   2   2    6.34    0.30
  -1  -2  -2   10.56    0.81
   1  -2   2   10.61    0.89
  -1  -2  -2    8.56    0.56
   1   2   2    8.64    0.44
   1   2   2    9.27    0.80
  -2  -2  -2  132.26    7.27
  -2  -2  -2  120.03    6.27
   2   2   2  125.44    5.44
  -2   2  -2  122.96    6.28
   2   2   2  126.34    7.96
   3  -2   2   26.98    2.44
  -3  -2  -2   36.91    2.27
  -3   2  -2   36.92    1.92
   3   2   2   37.18    1.59
   3   2   2   36.42    2.53
  -4  -2  -2   20.03    1.38
   4  -2   2   19.55    1.59
   4   2   2   18.19    0.92
   4   2   2   17.92    1.56
  -4   2  -2   18.63    1.15
  -5  -2  -2   50.76    2.80
   5  -2   2   50.57    3.63
   5   2   2   52.24    2.33
  -5   2  -2   50.63    2.78
   5   2   2   51.61    3.63
  -6  -2  -2  130.84    6.96
   6  -2   2  134.91    8.83
   6   2   2  136.22    8.82
  -6   2  -2  132.57    6.93
   6   2   2  139.62    5.95
   7  -2   2   36.12    2.85
  -7   2  -2   34.24    2.10
   7   2   2   35.75    2.82
   7   2   2   35.52    1.70
   8  -2   2    2.61    0.79
   8   2   2    2.10    0.28
  -8   2  -2    2.40    0.49
   8   2   2    2.52    0.78
   9  -2   2   13.22    1.65
   9   2   2   13.89    1.63
   9   2   2   12.47    0.79
  -9   2  -2   13.77    1.14
  10  -2   2   65.54    5.03
  10   2   2   67.01    3.09
  10   2   2   63.98    4.98
  11  -2   2    3.88    1.15
  11   2   2    4.92    0.50
  11   2   2    5.00    1.22
  12  -2   2    0.48    0.74
  12  -2   2    0.46    0.22
  12   2   2    0.30    0.70
  12   2   2    0.19    0.21
  13  -2   2    4.60    0.52
  13  -2   2    5.42    1.46
  13   2   2    4.06    1.28
  13   2   2    5.65    0.57
  13  -3  -2    0.96    0.84
  13   3  -2    1.23    0.87
  13   3  -2    1.15    0.31
  12  -3  -2   15.38    1.87
  12   3  -2   13.96    1.72
  12   3  -2   15.39    0.95
  11  -3  -2   42.22    3.53
  11   3  -2   43.72    2.16
  11   3  -2   44.87    3.47
  10  -3  -2   24.38    2.13
  10   3  -2   20.78    1.99
  10   3  -2   21.02    1.18
   9  -3  -2    4.90    0.91
   9   3  -2    3.81    0.41
   9   3  -2    5.12    0.88
   8  -3  -2   24.70    2.05
   8  -3  -2   22.49    1.89
   8   3  -2   26.27    1.77
   8   3  -2   24.42    1.97
   8   3  -2   24.93    1.26
   7  -3  -2  145.66    9.57
   7  -3  -2  147.93    8.82
   7   3  -2  154.26    8.74
   7   3  -2  148.94    6.59
   7   3  -2  150.29    9.50
   6  -3  -2   54.47    3.51
   6  -3  -2   58.09    3.75
   6   3  -2   52.94    2.50
   6   3  -2   54.93    3.65
   5  -3  -2   15.86    1.23
   5  -3  -2   16.12    1.26
   5   3  -2   14.15    0.77
   5   3  -2   15.41    1.16
   4  -3  -2  160.99    9.32
   4  -3  -2  158.54    9.98
   4   3  -2  162.45    9.92
   4   3  -2  157.97    6.96
   3  -3  -2  167.76    9.46
   3   3  -2  158.43    7.06
   2  -3  -2   16.57    1.20
   2   3  -2   14.98    0.71
  -2   3   2   14.80    0.71
   2   3  -2   15.50    0.92
  -1  -3   2   61.41    4.16
   1  -3  -2   72.06    4.01
   1   3  -2   63.31    2.84
  -1   3   2   65.87    2.85
   1   3  -2   65.76    3.33
   0  -3   2  269.31   20.66
   0  -3  -2  383.74   19.13
   0  -3  -2  351.39   16.51
   0   3  -2  330.13   14.47
   0   3   2  345.90   14.52
  -1  -3  -2   35.41    2.24
   1  -3   2   32.97    2.35
  -1  -3  -2   31.60    1.74
  -1   3  -2   34.68    1.77
   1   3   2   34.06    1.49
   1   3   2   30.15    2.24
  -1   3  -2   34.26    1.46
   2  -3   2   32.46    2.27
  -2  -3  -2   34.67    2.15
  -2  -3  -2   30.49    1.68
  -2   3  -2   32.20    1.69
   2   3   2   28.35    2.17
   2   3   2   30.16    1.40
  -3  -3  -2   49.25    2.90
  -3  -3  -2   44.57    2.35
  -3   3  -2   39.50    2.31
   3   3   2   43.06    3.03
  -4  -3  -2   60.88    3.53
   4  -3   2   36.87    3.62
   4   3   2   58.52    2.45
   4   3   2   58.34    3.77
  -4   3  -2   57.60    2.90
   5  -3   2   91.66    5.94
  -5  -3  -2   78.45    5.38
  -5  -3  -2   89.81    4.65
   5   3   2   92.30    3.94
  -5   3  -2   87.64    4.60
   5   3   2   90.55    5.92
   6  -3   2    0.67    0.45
   6   3   2    0.28    0.12
  -6   3  -2   -0.01    0.19
   6   3   2    0.80    0.46
   7  -3   2   34.89    2.72
   7   3   2   32.76    1.58
   7   3   2   28.10    2.57
  -7   3  -2   34.10    1.99
   8  -3   2   58.02    4.32
   8   3   2   56.22    2.67
  -8   3  -2   59.40    3.25
   8   3   2   55.74    4.24
   9  -3   2   81.37    6.02
  -9   3  -2   83.24    4.61
   9   3   2   85.07    3.84
   9   3   2   84.43    5.99
  10  -3   2    2.96    0.94
 -10   3  -2    2.62    0.58
  10   3   2    1.50    0.28
  10   3   2    2.67    0.88
  11  -3   2    8.09    1.60
  11   3   2    8.78    1.58
  11   3   2    8.97    0.65
  12  -3   2   20.87    2.38
  12   3   2   20.62    2.29
  12   3   2   16.94    1.08
  13  -3   2    3.80    0.46
  13  -3   2    3.36    1.25
  13   3   2    3.49    1.16
  13   3   2    3.00    0.44
  13  -4  -2   42.18    3.72
  13   4  -2   41.00    2.12
  13   4  -2   40.35    3.54
  12  -4  -2    8.31    1.56
  12   4  -2    9.22    0.69
  12   4  -2   10.37    1.59
  11  -4  -2    0.65    0.61
  11   4  -2    0.23    0.18
  11   4  -2    0.03    0.54
  10  -4  -2   26.67    2.33
  10   4  -2   24.48    1.34
  10   4  -2   25.29    2.19
   9  -4  -2   71.83    4.88
   9   4  -2   64.88    3.16
   9   4  -2   69.64    4.74
   8  -4  -2    5.62    0.93
   8  -4  -2    5.76    0.94
   8   4  -2    4.47    0.40
   8   4  -2    5.19    0.82
   8   4  -2    5.08    0.69
   7  -4  -2    0.41    0.45
   7  -4  -2    0.33    0.33
   7   4  -2    0.14    0.27
   7   4  -2    0.27    0.13
   6  -4  -2   46.73    3.16
   6  -4  -2   41.86    3.01
   6   4  -2   45.44    2.10
   6   4  -2   45.91    3.05
   5  -4  -2  187.38   11.21
   5   4  -2  193.86    8.38
   5   4  -2  194.79   11.94
   4  -4  -2    5.07    0.75
   4   4  -2    6.26    0.50
   4   4  -2    4.76    0.33
   2  -4  -2  168.04    9.18
  -2   4   2  149.15    6.76
   2   4  -2  156.25    7.83
   2   4  -2  152.87    6.75
   1  -4  -2  771.21   39.44
  -1  -4   2  616.95   42.67
   1   4  -2  683.87   34.24
  -1   4   2  706.52   30.19
   1   4  -2  711.63   30.11
   0  -4   2    0.47    0.23
   0  -4  -2    0.41    0.37
   0   4  -2    0.60    0.06
   0   4  -2    0.32    0.10
   0   4   2    0.56    0.08
   1  -4   2    4.92    0.63
  -1  -4  -2    5.33    0.78
  -1   4  -2    5.27    0.28
   1   4   2    5.56    0.56
  -1   4  -2    5.87    0.43
   1   4   2    6.00    0.31
   2  -4   2    0.60    0.32
  -2  -4  -2    0.76    0.45
   2  -4   2    0.51    0.39
   2   4   2    0.30    0.08
   2   4   2    0.45    0.25
  -2   4  -2    1.20    0.21
  -3  -4  -2  209.31   11.56
   3  -4   2  209.30   11.63
   3   4   2  174.24   12.30
   4  -4   2    3.97    0.71
  -4  -4  -2    3.14    0.68
   4  -4   2    2.61    0.58
   4   4   2    3.42    0.62
  -4   4  -2    2.96    0.39
   4   4   2    3.07    0.25
  -5  -4  -2   74.54    5.11
   5   4   2   81.18    3.61
  -5   4  -2   82.29    4.23
   5   4   2   83.24    5.44
   6  -4   2   57.72    4.20
   6   4   2   55.98    4.16
   6   4   2   61.24    2.71
  -6   4  -2   60.25    3.22
   7  -4   2   82.77    5.75
   7   4   2   79.25    5.67
  -7   4  -2   82.94    4.41
   7   4   2   83.71    3.73
   8  -4   2    1.95    0.74
   8   4   2    2.49    0.74
   8   4   2    1.06    0.22
  -8   4  -2    1.42    0.42
   9  -4   2   53.44    4.10
  -9   4  -2   53.68    3.04
   9   4   2   49.90    3.98
   9   4   2   49.53    2.45
  10  -4   2    8.07    1.51
  10   4   2    8.51    0.61
  10   4   2    6.16    1.30
 -10   4  -2   10.17    0.96
  11  -4   2   21.72    2.36
  11   4   2   18.87    2.17
  11   4   2   19.47    1.13
  12  -4   2    0.10    0.65
  12   4   2    0.98    0.72
  12   4   2   -0.17    0.17
  13  -4   2   12.97    2.24
  13   4   2   12.07    0.85
  13   4   2   12.32    2.06
  13  -5  -2    0.05    0.74
  13   5  -2    0.63    0.26
  12  -5  -2   32.11    2.95
  12   5  -2   31.25    2.79
  12   5  -2   30.21    1.64
  11  -5  -2    5.24    1.18
  11   5  -2    5.64    0.51
  11   5  -2    6.36    1.14
  10  -5  -2   24.84    2.26
  10   5  -2   26.06    2.18
  10   5  -2   23.64    1.32
   9  -5  -2   -0.23    0.37
   9   5  -2    0.14    0.16
   9   5  -2    0.31    0.38
   8  -5  -2   46.84    3.42
   8  -5  -2   44.67    3.29
   8   5  -2   48.55    3.30
   8   5  -2   45.07    2.20
   7  -5  -2    0.07    0.15
   7  -5  -2    0.54    0.53
   7   5  -2    1.10    0.38
   7   5  -2    0.97    0.19
   6  -5  -2   38.86    2.78
   6   5  -2   36.63    1.81
   6   5  -2   40.41    2.64
   5  -5  -2    0.16    0.38
   5  -5  -2    0.34    0.23
   5   5  -2    0.08    0.09
   5   5  -2    0.07    0.15
   4  -5  -2  420.17   24.06
   4  -5  -2  413.63   25.90
   4   5  -2  438.14   25.79
   4   5  -2  410.14   18.24
   3  -5  -2   29.81    2.20
   3  -5  -2   31.38    2.03
   3   5  -2   28.31    1.36
   2  -5  -2  201.35   11.22
   2   5  -2  191.69    9.56
   2   5  -2  181.60    8.25
  -1  -5   2    1.86    0.35
   1  -5  -2    2.92    0.63
  -1   5   2    2.83    0.19
   1   5  -2    2.87    0.18
   0  -5  -2  118.44    7.42
   0  -5   2  112.26    7.81
   0   5   2  133.68    5.38
   0   5  -2  120.13    5.35
   0   5  -2  132.07    6.22
  -1  -5  -2    7.57    1.03
   1  -5   2    6.73    0.76
   1  -5   2    8.28    1.24
  -1   5  -2    7.17    0.37
   1   5   2    7.63    0.40
   1   5   2    8.49    0.69
  -1   5  -2    7.42    0.52
  -2  -5  -2    0.54    0.43
   2  -5   2    0.63    0.31
   2  -5   2    0.71    0.44
   2   5   2    0.17    0.20
  -2   5  -2    0.35    0.15
  -2   5  -2    0.30    0.07
   3  -5   2    5.63    0.80
   3  -5   2    7.01    1.04
  -3  -5  -2    5.03    0.88
   3   5   2    5.25    0.31
   3   5   2    3.15    0.58
   4  -5   2  352.88   19.95
   4  -5   2  353.95   21.49
  -4  -5  -2  345.29   20.00
  -4   5  -2  353.15   17.08
   4   5   2  303.81   21.37
   4   5   2  357.26   14.91
   5  -5   2    7.88    1.11
   5  -5   2    8.13    0.97
  -5  -5  -2    9.48    1.30
  -5   5  -2    7.81    0.66
   5   5   2    7.83    0.49
   5   5   2    7.84    0.95
   6  -5   2    6.74    0.96
  -6   5  -2    5.71    0.63
   6   5   2    5.16    0.91
   6   5   2    5.43    0.40
   7   5   2   23.21    2.10
  -7   5  -2   24.26    1.54
   8  -5   2  115.64    7.96
  -8   5  -2  117.15    6.15
   8   5   2  121.83    5.25
   8   5   2  110.56    7.85
   9  -5   2   25.12    2.43
  -9   5  -2   24.72    1.73
   9   5   2   25.20    1.35
   9   5   2   27.83    2.43
  10  -5   2    1.03    0.77
  10   5   2    1.30    0.69
 -10   5  -2    0.62    0.39
  10   5   2    1.09    0.25
  11  -5   2    0.63    0.80
  11   5   2    0.64    0.22
  11   5   2    1.42    0.77
 -11   5  -2    0.51    0.38
  12  -5   2   48.90    4.29
  12   5   2   48.03    2.40
  12   5   2   47.33    4.09
  13  -5   2    0.61    0.88
  13   5   2    0.40    0.24
  13  -6  -2   43.65    3.81
  13   6  -2   40.44    2.14
  12  -6  -2   -0.08    0.63
  12   6  -2   -0.13    0.16
  11  -6  -2    0.43    0.57
  11   6  -2    0.15    0.17
  10  -6  -2    1.70    0.72
  10   6  -2    1.32    0.60
  10   6  -2    0.91    0.24
   9  -6  -2  110.41    7.28
   9   6  -2  104.88    4.84
   9   6  -2  106.38    7.07
   8  -6  -2    8.64    1.22
   8  -6  -2    8.86    1.33
   8   6  -2    8.75    0.60
   8   6  -2    9.51    1.03
   7  -6  -2    1.08    0.60
   7  -6  -2    0.01    0.12
   7   6  -2   -0.03    0.25
   7   6  -2    0.30    0.13
   6  -6  -2    5.32    0.78
   6  -6  -2    5.37    0.98
   6   6  -2    5.38    0.60
   6   6  -2    5.18    0.39
   5  -6  -2  121.29    7.74
   5  -6  -2  120.48    7.43
   5   6  -2  124.69    5.34
  -5   6   2  117.42    6.03
   5   6  -2  121.32    7.58
   4  -6  -2    1.07    0.29
   4  -6  -2    1.03    0.53
  -4   6   2    1.02    0.13
  -4   6   2    0.89    0.14
   4   6  -2    0.95    0.20
   4   6  -2    0.82    0.14
   3  -6  -2  100.05    6.28
   3  -6  -2  102.02    6.20
   3   6  -2   96.93    4.36
   2  -6  -2    1.37    0.58
   2   6  -2    3.47    0.22
  -2   6   2    3.09    0.21
  -1  -6   2  302.03   22.41
   1  -6  -2  420.69   21.12
   1   6  -2  378.93   15.75
   0  -6   2    4.13    0.98
   0  -6  -2    0.05    0.21
   0  -6   2    3.31    0.51
   0   6  -2    1.84    0.27
   0   6  -2    3.94    0.18
   1  -6   2   41.08    2.74
   1  -6   2   42.57    3.11
  -1   6  -2   37.18    1.71
  -1   6  -2   36.69    2.06
  -2  -6  -2    7.25    1.10
   2  -6   2    3.70    0.69
   2  -6   2    8.61    1.29
   2   6   2    8.74    0.70
  -3  -6  -2  142.06    8.24
   3  -6   2  154.17    8.34
   3  -6   2  138.17    8.51
   3   6   2   92.75    8.28
   3   6   2  134.26    5.79
  -3   6  -2  142.61    6.69
   4  -6   2   -0.09    0.29
   4  -6   2    0.30    0.39
  -4  -6  -2   -0.25    0.36
   4   6   2    0.05    0.09
  -4   6  -2    0.12    0.18
   4   6   2   -0.02    0.24
   5  -6   2   44.95    3.17
   5  -6   2   45.45    3.20
  -5  -6  -2   44.18    3.34
   5   6   2   40.57    3.09
  -5   6  -2   44.00    2.39
   5   6   2   41.04    2.00
  -6  -6  -2   12.72    1.75
   6  -6   2   10.87    1.28
   6  -6   2   15.25    1.45
   6   6   2   11.38    0.71
   6   6   2   12.74    1.32
  -6   6  -2   15.34    0.98
   8  -6   2    0.13    0.51
   8   6   2   -0.01    0.15
   8   6   2   -0.31    0.43
  -8   6  -2    0.51    0.32
   9  -6   2   58.83    4.70
   9   6   2   61.98    4.65
  -9   6  -2   64.50    3.54
   9   6   2   62.29    2.93
  10  -6   2    0.20    0.66
 -10   6  -2    0.23    0.33
  10   6   2    0.18    0.16
  10   6   2   -0.20    0.46
  11  -6   2   23.16    2.42
  11   6   2   18.31    2.14
 -11   6  -2   20.55    1.59
  11   6   2   20.03    1.17
  12  -6   2    0.38    0.76
  12   6   2    0.17    0.22
  13  -6   2   22.50    2.66
  13   6   2   17.71    1.15
  13  -7  -2    2.49    1.11
  13   7  -2    1.93    0.38
  12  -7  -2   23.85    2.51
  12   7  -2   24.15    1.37
  11  -7  -2    8.42    1.45
  11   7  -2    7.47    0.61
  10  -7  -2   38.18    3.12
  10   7  -2   37.11    1.89
   9  -7  -2    1.23    0.59
   9   7  -2    1.51    0.55
   9   7  -2    1.11    0.25
   8  -7  -2  113.75    7.68
   8  -7  -2  124.07    8.11
   8   7  -2  125.56    7.91
   8   7  -2  123.80    5.48
   7  -7  -2   -0.04    0.14
   7  -7  -2   -0.38    0.53
   7   7  -2    0.21    0.30
   7   7  -2    0.30    0.14
   6  -7  -2   53.10    3.72
   6  -7  -2   56.67    3.86
   6   7  -2   54.21    3.55
  -6   7   2   51.46    2.78
   6   7  -2   55.25    2.49
   5  -7  -2    0.80    0.55
   5  -7  -2    0.32    0.25
   5   7  -2    0.22    0.11
   5   7  -2    0.12    0.17
  -5   7   2    0.39    0.12
   4  -7  -2  253.76   14.59
   4  -7  -2  249.36   15.36
  -4   7   2  234.26   12.14
   4   7  -2  251.74   15.19
   4   7  -2  247.91   10.73
   3  -7  -2    9.14    0.77
   3  -7  -2    9.00    1.26
   3   7  -2    9.07    0.49
  -3   7   2    8.77    0.50
  -1  -7   2    0.77    0.28
  -1  -7   2   -0.04    0.23
   1  -7  -2    1.54    0.62
  -1   7   2    1.82    0.20
   1   7  -2    1.52    0.27
   1   7  -2    1.80    0.14
   1  -7   2    9.06    0.92
  -1  -7  -2    9.42    1.36
   1  -7   2    8.07    1.38
  -1   7  -2    9.48    0.47
  -2  -7  -2   29.14    2.40
   2  -7   2   31.25    2.53
  -2   7  -2   29.15    1.29
   2   7   2   31.64    1.98
  -2   7  -2   22.28    1.55
   3  -7   2    0.20    0.39
  -3  -7  -2    0.22    0.43
   3  -7   2    0.72    0.38
   3   7   2    0.66    0.12
   3   7   2    0.28    0.24
  -3   7  -2    0.63    0.21
  -3   7  -2    0.42    0.10
  -4  -7  -2  294.94   17.81
   4  -7   2  321.57   17.77
   4  -7   2  322.74   18.86
   4   7   2  318.55   13.03
  -4   7  -2  324.30   14.94
   4   7   2  223.14   18.58
   5  -7   2    0.43    0.42
   5  -7   2    0.35    0.39
  -5  -7  -2    0.51    0.51
   5   7   2    0.54    0.13
  -5   7  -2    0.43    0.24
   5   7   2    0.54    0.34
   6  -7   2   13.22    1.36
   6  -7   2   14.18    1.48
  -6  -7  -2    2.65    1.05
  -6   7  -2   14.20    0.90
   6   7   2   11.69    1.20
   7  -7   2    2.94    0.85
   7   7   2    1.47    0.25
  -7   7  -2    5.03    0.59
   7   7   2    2.85    0.76
   8  -7   2  108.28    7.63
   8   7   2  114.65    5.02
   8   7   2  102.42    7.49
  -8   7  -2  116.64    5.88
   9  -7   2   -0.18    0.51
  -9   7  -2    0.16    0.31
   9   7   2    0.39    0.52
   9   7   2    0.08    0.17
  10  -7   2    0.36    0.68
  10   7   2    0.13    0.16
 -10   7  -2   -0.08    0.31
  11   7   2    1.87    0.34
 -11   7  -2    3.11    0.65
  12  -7   2   28.69    3.08
  12   7   2   30.59    1.65
  13  -7   2    2.90    1.27
  13   7   2    3.35    0.47
  13  -8  -2   45.87    4.18
  13   8  -2   49.66    2.47
  12  -8  -2    7.64    1.55
  12   8  -2    8.15    0.67
  11  -8  -2   -0.34    0.49
  11   8  -2    0.25    0.19
  10  -8  -2    6.81    1.24
  10   8  -2    6.47    0.55
   9  -8  -2   84.69    5.83
   9   8  -2   81.23    3.82
   8  -8  -2   20.05    2.12
   8  -8  -2   18.69    1.81
   8   8  -2   20.12    1.10
   8   8  -2   20.63    1.68
   7  -8  -2    0.52    0.72
   7  -8  -2    0.91    0.43
   7   8  -2    1.40    0.41
   7   8  -2    1.25    0.23
   6  -8  -2    4.53    0.76
   6  -8  -2    4.00    1.04
   6   8  -2    5.07    0.57
   6   8  -2    4.51    0.37
  -6   8   2    4.54    0.38
   5  -8  -2  137.18    8.75
   5  -8  -2  136.48    8.55
   5   8  -2  138.83    8.54
  -5   8   2  136.12    6.81
   5   8  -2  136.97    6.05
   4  -8  -2   12.41    1.06
   4  -8  -2   11.32    1.56
   4   8  -2   11.61    0.66
   4   8  -2   13.18    0.89
  -4   8   2   12.76    0.70
   3  -8  -2    6.28    1.15
   3  -8  -2    5.56    0.57
   3   8  -2    5.25    0.35
  -3   8   2    5.44    0.35
   3   8  -2    5.58    0.41
   2  -8  -2   40.34    3.12
   2   8  -2   39.37    1.84
  -2   8   2   39.50    2.07
   2   8  -2   44.03    2.30
   1  -8  -2  407.97   22.51
   1   8  -2  387.44   19.12
   1   8  -2  378.07   16.65
  -1   8   2  374.21   18.99
   0  -8  -2   19.12    1.77
   0  -8   2   19.56    2.02
   0  -8   2   14.99    1.31
   0   8  -2   15.17    0.76
   0   8  -2   16.77    1.01
   1  -8   2   59.47    4.12
  -1  -8  -2   60.98    4.34
   1  -8   2   62.94    4.56
  -1   8  -2   62.76    3.22
  -1   8  -2   60.59    2.70
   2  -8   2  175.70   11.15
  -2  -8  -2  182.82   11.07
  -2   8  -2  171.46    7.79
  -2   8  -2  189.27    9.02
   3  -8   2  351.23   21.45
  -3  -8  -2  349.01   20.35
   3  -8   2  349.32   20.33
   3   8   2  293.49   21.18
  -3   8  -2  366.83   14.86
  -3   8  -2  355.89   17.06
  -4  -8  -2    6.98    1.30
   4  -8   2    5.83    1.14
   4  -8   2    6.30    0.94
  -4   8  -2    5.65    0.52
   4   8   2    3.17    0.62
   5  -8   2   52.10    3.69
  -5  -8  -2   53.59    3.95
   5  -8   2   47.73    3.49
  -5   8  -2   50.75    2.62
   5   8   2   38.27    3.25
   6  -8   2   19.08    1.98
   6  -8   2   21.23    1.91
  -6  -8  -2   21.57    2.32
   6   8   2   17.39    1.71
  -6   8  -2   20.95    1.31
   7  -8   2   80.50    5.55
   7   8   2   79.76    3.57
  -7   8  -2   81.68    4.19
   7   8   2   67.89    5.32
   8  -8   2    0.67    0.66
   8   8   2    1.43    0.66
  -8   8  -2    1.39    0.39
   8   8   2    1.09    0.24
   9  -8   2   39.64    3.54
  -9   8  -2   46.62    2.62
   9   8   2   41.92    2.12
  10  -8   2   15.12    2.15
 -10   8  -2   14.22    1.20
  10   8   2   13.56    0.89
  11  -8   2   30.35    2.93
  11   8   2   26.54    1.51
  12  -8   2   -0.01    0.69
  12   8   2    0.58    0.26
  12  -9  -2   19.81    2.26
  12   9  -2   18.51    1.16
  11  -9  -2   23.06    2.39
  11   9  -2   23.93    1.34
  10  -9  -2    9.24    1.47
  10   9  -2   10.60    0.73
   9  -9  -2    7.45    1.23
   9   9  -2    7.80    0.60
   8  -9  -2   18.97    1.79
   8  -9  -2   18.80    2.15
   8   9  -2   19.16    1.07
   7  -9  -2   85.34    6.00
   7  -9  -2   87.89    5.97
   7   9  -2   90.60    4.02
   6  -9  -2   18.26    1.58
   6  -9  -2   18.28    2.04
   6   9  -2   18.10    0.97
   6   9  -2   17.86    1.36
   5  -9  -2    0.16    0.27
   5  -9  -2   -0.10    0.59
  -5   9   2    0.02    0.04
   5   9  -2    0.57    0.14
   5   9  -2    0.55    0.21
  -5   9   2    0.48    0.13
   4  -9  -2   89.38    6.16
   4  -9  -2   92.06    6.00
   4   9  -2   94.42    4.14
  -4   9   2   93.25    4.64
   4   9  -2   96.77    5.78
  -4   9   2   90.25    4.13
   3  -9  -2   16.95    1.87
   3  -9  -2   18.10    1.31
  -3   9   2   17.10    0.93
   3   9  -2   18.30    1.10
   3   9  -2   17.30    0.86
  -3   9   2   14.41    0.84
   3   9  -2   16.29    1.16
  -2  -9   2   45.83    3.82
   2  -9  -2   42.63    2.69
   2  -9  -2   45.20    3.30
  -2   9   2   42.84    2.11
   2   9  -2   44.36    2.33
   2   9  -2   43.14    1.86
  -2   9   2   29.59    1.83
   1  -9  -2   26.27    2.36
   1  -9  -2   24.97    1.65
   1   9  -2   23.93    1.15
  -1   9   2   22.85    1.34
   1   9  -2   26.33    1.49
   0  -9   2  123.41    8.40
   0  -9  -2  131.40    8.41
   0  -9   2  143.18    8.87
   0   9  -2  133.76    6.71
   0   9  -2  133.09    5.76
   1  -9   2  142.66    8.98
   1  -9   2  134.23    8.74
  -1   9  -2  135.68    6.92
  -1   9  -2  136.22    5.95
   2  -9   2    0.40    0.54
  -2  -9  -2    0.36    0.55
   2  -9   2    0.82    0.40
  -2   9  -2    0.45    0.10
  -2   9  -2    0.32    0.16
   2   9   2   -0.01    0.03
   3  -9   2   13.74    1.95
   3  -9   2   14.27    1.35
  -3  -9  -2   13.79    1.95
   3   9   2   12.90    1.07
  -3   9  -2   14.25    0.92
  -3   9  -2   13.49    0.69
   4  -9   2  178.26   11.12
  -4  -9  -2  183.60   11.07
   4  -9   2  179.63   10.87
  -4   9  -2  182.50    7.54
   4   9   2  140.32   10.79
  -4   9  -2  179.83    8.73
  -5  -9  -2   37.68    3.31
   5  -9   2   38.61    2.80
   5  -9   2   36.67    3.02
   5   9   2   27.19    2.47
  -5   9  -2   38.35    2.02
   6  -9   2    1.68    0.68
   6  -9   2    2.84    0.93
  -6  -9  -2    1.07    0.81
   6   9   2    2.52    0.62
  -6   9  -2    2.18    0.42
   7  -9   2    2.85    0.85
   7   9   2    2.59    0.70
   7   9   2    2.70    0.33
  -7   9  -2    2.41    0.47
   8  -9   2   25.36    2.43
   8   9   2   25.56    1.38
  -8   9  -2   27.34    1.71
   9  -9   2    6.02    1.34
  -9   9  -2    8.20    0.92
   9   9   2    7.89    0.60
  10  -9   2    0.98    0.75
  10   9   2    0.50    0.22
  11  -9   2    9.45    1.77
  11   9   2    7.81    0.66
  12  -9   2   50.40    4.61
  12   9   2   53.21    2.63
  12 -10  -2   10.81    1.88
  12  10  -2   11.60    0.84
  11 -10  -2    0.62    0.69
  11  10  -2    0.18    0.21
  10 -10  -2   18.75    2.01
  10  10  -2   19.75    1.14
   9 -10  -2   10.68    1.36
   9  10  -2   10.86    0.74
   8 -10  -2    3.61    0.81
   8 -10  -2    2.64    1.02
   8  10  -2    2.59    0.36
   7 -10  -2    6.75    1.02
   7 -10  -2    7.92    1.55
   7  10  -2    6.33    0.50
   6 -10  -2   57.22    3.86
   6 -10  -2   54.88    4.21
   6  10  -2   52.46    2.54
   5 -10  -2   32.44    2.39
   5 -10  -2   31.48    2.88
   5  10  -2   32.16    1.56
   4 -10  -2   13.36    1.15
   4 -10  -2   12.97    1.85
  -4  10   2   13.28    0.77
  -4  10   2   12.90    0.71
   4  10  -2   13.88    0.73
   3 -10  -2   18.10    2.25
   3 -10  -2   16.64    1.30
  -3  10   2   15.85    0.93
   3  10  -2   16.32    0.85
   3  10  -2   16.58    1.19
  -3  10   2   18.44    0.87
   2 -10  -2   69.50    4.25
  -2 -10   2   65.80    5.28
   2 -10  -2   64.98    4.76
  -2  10   2   65.94    3.35
  -2  10   2   60.19    2.94
   2  10  -2   67.16    3.56
   2  10  -2   67.13    2.95
  -1 -10   2   86.64    6.17
   1 -10  -2   72.68    6.07
  -1  10   2  103.44    4.31
  -1  10   2  106.09    4.96
   1  10  -2  111.20    5.11
   1  10  -2  108.36    4.30
   0 -10  -2    8.23    0.61
   0 -10   2    7.93    1.61
   0 -10   2    6.82    0.82
   0 -10  -2    8.52    1.50
   0  10   2    7.75    0.46
   0  10  -2    7.53    0.44
   0  10  -2    8.64    0.65
  -1 -10  -2    9.48    1.62
   1 -10   2    9.55    1.74
   1 -10   2    9.78    0.98
  -1  10  -2    9.09    0.68
  -1  10  -2    8.52    0.47
   1  10   2    8.41    0.50
   2 -10   2   70.19    4.70
  -2 -10  -2   65.30    5.04
   2 -10   2   66.91    5.12
  -2  10  -2   71.58    3.65
  -2  10  -2   71.85    3.08
   2  10   2   66.26    3.11
   3 -10   2   27.84    2.70
  -3 -10  -2   28.68    2.77
   3 -10   2   29.12    2.25
  -3  10  -2   28.73    1.65
  -3  10  -2   28.80    1.33
   3  10   2   26.52    1.36
   4 -10   2    8.64    1.08
   4 -10   2    8.03    1.55
  -4 -10  -2   10.04    1.77
  -4  10  -2    8.68    0.70
  -4  10  -2    9.32    0.51
   4  10   2    7.26    0.79
  -5 -10  -2   29.27    2.92
   5 -10   2   28.85    2.29
   5 -10   2   29.02    2.66
   5  10   2   20.46    1.91
  -5  10  -2   29.41    1.62
   6 -10   2   57.01    4.06
   6 -10   2   53.64    4.22
  -6 -10  -2   55.09    4.63
   6  10   2   51.46    2.52
  -6  10  -2   53.40    2.97
  -7 -10  -2    7.60    1.80
   7 -10   2    6.56    1.24
   7  10   2    8.47    0.58
  -7  10  -2    7.34    0.74
   8 -10   2    0.57    0.63
   8  10   2    0.76    0.22
  -8  10  -2    0.22    0.28
   9 -10   2    6.98    1.40
  -9  10  -2    7.34    0.87
   9  10   2    6.52    0.56
  10 -10   2   52.05    4.27
  10  10   2   49.15    2.48
  11 -10   2    7.39    1.63
  11  10   2   10.49    0.76
  12 -10   2    0.41    0.84
  12  10   2    0.94    0.29
  12 -11  -2    9.10    1.73
  11 -11  -2   39.49    3.48
  11  11  -2   39.97    2.06
  10 -11  -2    3.48    0.96
  10  11  -2    2.65    0.40
   9 -11  -2    3.63    0.89
   9  11  -2    3.20    0.41
   8 -11  -2   39.50    3.59
   8 -11  -2   43.87    3.34
   8  11  -2   43.49    2.11
   7 -11  -2  124.45    8.14
   7 -11  -2  118.62    8.16
   7  11  -2  124.53    5.53
   6 -11  -2    1.06    0.90
   6 -11  -2    1.16    0.46
  -6  11   2    1.26    0.22
   6  11  -2    1.40    0.24
   5 -11  -2   11.46    1.87
   5 -11  -2   10.95    1.09
   5  11  -2   11.31    0.66
  -5  11   2   10.28    0.63
   4 -11  -2   29.56    2.82
   4 -11  -2   29.10    2.13
   4  11  -2   29.21    1.41
  -4  11   2   28.44    1.54
   3 -11  -2   64.78    4.77
   3 -11  -2   65.63    4.17
  -3  11   2   63.80    2.86
   3  11  -2   61.67    2.86
   3  11  -2   62.35    3.51
  -3  11   2   62.17    3.22
  -2 -11   2    9.81    2.06
   2 -11  -2   11.12    0.91
   2 -11  -2   11.51    1.80
  -2  11   2   10.25    0.68
  -2  11   2   11.17    0.61
   2  11  -2   10.56    0.60
   2  11  -2   12.05    0.88
   1 -11  -2   49.99    3.61
  -1  11   2   43.08    1.85
   1  11  -2   44.65    2.30
  -1  11   2   29.59    2.09
   1  11  -2   40.34    1.82
   0 -11   2   42.70    3.25
   0 -11  -2   50.97    3.91
   0 -11   2   49.26    4.15
   0 -11  -2   48.54    3.01
   0  11  -2   47.49    2.59
   0  11   2   48.11    2.16
   0  11  -2   45.33    2.12
   1 -11   2   77.33    5.76
  -1 -11  -2   81.55    5.65
  -1  11  -2   75.30    4.00
  -1  11  -2   73.97    3.38
   1  11   2   77.19    3.42
   2 -11   2   13.38    1.26
  -2 -11  -2   12.66    2.02
   2 -11   2   11.35    1.96
   2  11   2   10.95    0.65
  -2  11  -2   12.26    0.85
  -2  11  -2   11.68    0.62
  -3 -11  -2   24.81    2.56
   3 -11   2   30.13    2.68
   3 -11   2   25.50    1.96
  -3  11  -2   23.91    1.09
  -3  11  -2   27.06    1.42
   3  11   2   14.67    1.07
   4 -11   2   25.60    2.66
   4 -11   2   26.84    2.21
  -4 -11  -2   26.60    2.84
  -4  11  -2   24.41    1.56
  -4  11  -2   27.05    1.26
  -5 -11  -2   70.72    5.63
   5 -11   2   68.26    5.28
   5 -11   2   71.00    5.02
  -5  11  -2   72.59    3.80
  -6 -11  -2   -0.23    0.70
   6 -11   2    0.24    0.53
   6 -11   2   -0.57    0.47
   6  11   2    0.06    0.13
  -6  11  -2    0.01    0.24
  -7 -11  -2   44.05    4.34
   7 -11   2   45.64    3.67
  -7  11  -2   48.37    2.68
   7  11   2   46.46    2.26
   8 -11   2    6.03    1.29
   8  11   2    6.20    0.53
  -8  11  -2    7.56    0.84
   9 -11   2   25.20    2.57
   9  11   2   25.78    1.41
  10 -11   2   -0.04    0.64
  10  11   2   -0.16    0.17
  11 -11   2   22.33    2.62
  11  11   2   23.89    1.37
  12 -11   2    5.26    1.55
  12  11   2    5.12    0.59
  12 -12  -2   14.30    2.13
  12  12  -2   11.94    0.89
  11 -12  -2    0.25    0.69
  11  12  -2    0.03    0.21
  10 -12  -2   27.31    2.52
  10  12  -2   23.91    1.39
   9 -12  -2    7.32    1.28
   9  12  -2    8.46    0.63
   8 -12  -2   34.84    2.75
   8 -12  -2   30.88    3.11
   8  12  -2   31.48    1.66
   7 -12  -2    3.97    1.24
   7 -12  -2    4.34    0.85
   7  12  -2    3.32    0.39
   6 -12  -2  112.15    7.30
   6 -12  -2  110.31    7.58
  -6  12   2  107.98    4.93
   6  12  -2  111.15    4.96
   5 -12  -2    2.44    0.57
   5 -12  -2    1.46    0.98
  -5  12   2    2.31    0.28
   5  12  -2    2.40    0.29
   4 -12  -2   15.54    1.28
   4 -12  -2   14.85    2.22
   4  12  -2   13.92    0.79
   4  12  -2   15.16    1.16
  -4  12   2   13.63    0.78
  -3 -12   2    0.58    0.77
   3 -12  -2    0.32    0.27
   3 -12  -2    0.34    0.75
   3  12  -2    0.64    0.26
  -3  12   2    0.29    0.12
   3  12  -2    0.22    0.11
  -3  12   2    0.26    0.13
  -2 -12   2  122.72    9.02
   2 -12  -2  129.66    7.97
   2 -12  -2  126.27    8.45
   2  12  -2  129.04    5.57
   2  12  -2  127.97    6.58
  -2  12   2  123.23    6.35
  -2  12   2  123.81    5.57
   1 -12  -2   18.22    2.35
  -1 -12   2   12.07    1.16
   1  12  -2   15.07    1.06
   1  12  -2   15.22    0.77
  -1  12   2   16.72    0.80
   0 -12   2    0.38    0.66
   0 -12   2    0.14    0.28
   0 -12  -2    0.38    0.17
   0 -12  -2    1.11    0.56
   0  12   2    0.39    0.12
   0  12  -2    0.64    0.23
   0  12  -2    0.74    0.13
   0  12   2    0.91    0.24
   1 -12   2    0.29    0.22
  -1 -12  -2    2.07    0.94
   1 -12   2    2.34    1.05
  -1 -12  -2    1.59    0.22
   1  12   2    1.64    0.22
  -1  12  -2    1.58    0.32
  -1  12  -2    1.78    0.19
   2 -12   2  161.87   10.89
   2 -12   2  169.56   10.69
  -2 -12  -2  154.72   10.79
   2  12   2  168.45    7.31
  -2  12  -2  174.61    8.44
  -2  12  -2  162.93    7.26
   3 -12   2    0.56    0.46
  -3 -12  -2    0.06    0.63
   3 -12   2    0.31    0.61
  -3  12  -2    0.72    0.23
   3  12   2   -0.03    0.05
  -3  12  -2    0.46    0.13
   4 -12   2    3.41    1.16
  -4 -12  -2    7.14    1.68
   4 -12   2    6.00    1.01
  -4  12  -2    5.52    0.54
  -4  12  -2    6.09    0.36
   4  12   2    2.09    0.31
  -5 -12  -2    4.08    1.42
   5 -12   2    3.22    0.85
   5 -12   2    2.19    1.00
   5  12   2    2.98    0.34
  -5  12  -2    3.59    0.50
   6 -12   2   61.16    4.64
  -6 -12  -2   57.13    5.33
   6 -12   2   64.37    5.04
   6  12   2   65.31    2.97
  -6  12  -2   64.97    3.47
   7 -12   2   15.25    1.80
  -7 -12  -2   16.55    2.89
   7  12   2   16.70    0.98
  -7  12  -2   18.20    1.25
   8 -12   2    0.59    0.65
   8  12   2    0.29    0.19
   9 -12   2    0.17    0.67
   9  12   2   -0.17    0.15
  10 -12   2   56.44    4.80
  10  12   2   60.59    2.91
  11 -12   2    0.53    0.84
  11  12   2   -0.04    0.19
  11 -13  -2   44.05    3.80
  11  13  -2   44.03    2.27
  10 -13  -2    1.58    0.80
  10  13  -2    1.43    0.32
   9 -13  -2    4.59    1.03
   9  13  -2    4.15    0.48
   8 -13  -2    7.73    1.67
   8 -13  -2    8.35    1.26
   8  13  -2    5.59    0.51
   7 -13  -2   64.29    4.58
   7 -13  -2   61.27    5.01
   7  13  -2   64.82    3.01
   6 -13  -2    3.60    1.22
   6 -13  -2    3.53    0.76
  -6  13   2    3.81    0.38
   6  13  -2    3.63    0.39
   5 -13  -2   31.90    3.20
   5 -13  -2   34.55    2.50
   5  13  -2   32.42    2.14
  -5  13   2   32.60    1.59
   5  13  -2   31.41    1.61
   4 -13  -2    0.34    0.82
   4 -13  -2    1.88    0.49
   4  13  -2    1.16    0.21
  -4  13   2    1.02    0.19
   4  13  -2    0.99    0.37
   3 -13  -2   91.66    6.72
  -3 -13   2   92.61    7.42
   3 -13  -2   98.16    6.10
  -3  13   2   90.34    4.77
   3  13  -2   96.34    4.21
  -3  13   2   89.89    4.20
   3  13  -2   98.98    5.09
   2 -13  -2    0.86    0.84
   2 -13  -2    1.28    0.34
  -2 -13   2    0.73    0.78
   2  13  -2    1.05    0.17
   2  13  -2    1.17    0.33
  -2  13   2    1.04    0.18
   1 -13  -2   27.82    3.26
   1 -13  -2   41.79    2.66
   1  13  -2   41.44    2.32
   1  13  -2   40.61    1.85
  -1  13   2   40.34    2.19
  -1  13   2   39.48    1.86
   0 -13   2    0.77    0.79
   0 -13  -2    0.41    0.31
   0 -13   2    0.98    0.39
   0 -13  -2    1.03    0.24
   0  13  -2    1.23    0.31
   0  13   2    1.24    0.28
   0  13   2    0.77    0.17
   0  13  -2    1.11    0.17
   1 -13   2  104.04    7.48
  -1 -13  -2   95.54    7.20
  -1 -13  -2  101.37    6.28
   1  13   2  101.15    4.51
  -1  13  -2   99.15    4.47
  -1  13  -2  104.93    5.28
  -2 -13  -2    0.04    0.68
   2 -13   2    0.14    0.37
   2 -13   2    0.20    0.65
  -2  13  -2    0.09    0.09
  -2  13  -2    0.17    0.19
   2  13   2   -0.01    0.10
   3 -13   2   14.69    2.43
   3 -13   2   15.46    1.49
  -3 -13  -2    9.85    2.06
  -3  13  -2   14.83    1.01
   3  13   2   14.43    0.81
  -3  13  -2   14.54    0.76
   4 -13   2    2.56    0.74
   4 -13   2    1.88    0.96
  -4 -13  -2    2.11    1.08
   4  13   2    2.64    0.31
  -4  13  -2    2.77    0.43
  -4  13  -2    2.62    0.27
   5 -13   2   34.83    3.46
   5 -13   2   35.36    2.92
  -5 -13  -2   33.32    3.69
  -5  13  -2   37.62    1.72
   5  13   2   36.44    1.77
  -5  13  -2   34.68    2.09
   6 -13   2    3.42    0.91
  -6 -13  -2    1.77    1.11
   6 -13   2    2.90    1.17
   6  13   2    4.05    0.42
  -6  13  -2    2.82    0.51
   7 -13   2   26.83    2.57
  -7 -13  -2   25.49    3.83
  -7  13  -2   28.39    1.80
   7  13   2   29.35    1.50
   8 -13   2    3.48    1.05
   8  13   2    3.93    0.47
   9 -13   2   21.16    2.34
   9  13   2   21.27    1.24
  10 -13   2   -0.11    0.69
  10  13   2    0.22    0.21
  11 -13   2   14.49    2.33
  11  13   2   16.25    1.06
  11 -14  -2   -0.40    0.63
  11  14  -2    0.01    0.22
  10 -14  -2   25.55    2.59
  10  14  -2   27.34    1.51
   9 -14  -2   21.20    2.15
   9  14  -2   21.30    1.23
   8 -14  -2    8.82    1.35
   8 -14  -2   12.45    2.12
   8  14  -2    7.19    0.60
   7 -14  -2    0.87    0.52
   7 -14  -2    1.34    0.89
   7  14  -2    1.09    0.24
   6 -14  -2   55.77    4.58
   6 -14  -2   53.27    3.85
  -6  14   2   53.14    2.50
   6  14  -2   52.32    2.53
   5 -14  -2   10.16    1.97
   5 -14  -2   10.52    1.13
   5  14  -2   11.10    0.67
   5  14  -2    9.57    0.99
  -5  14   2   10.32    0.64
   4 -14  -2   21.79    2.89
   4 -14  -2   21.07    1.77
  -4  14   2   21.39    1.13
   4  14  -2   23.46    1.61
   4  14  -2   23.03    1.16
   3 -14  -2    5.52    0.69
   3 -14  -2    3.62    1.31
  -3 -14   2    5.84    1.81
  -3  14   2    5.22    0.39
   3  14  -2    4.44    0.38
   3  14  -2    5.59    0.72
   2 -14  -2   95.98    6.15
  -2 -14   2  100.42    7.68
   2 -14  -2   94.29    6.98
   2  14  -2   95.14    5.13
  -2  14   2  100.91    4.30
   2  14  -2   94.21    4.27
  -2  14   2   92.18    4.90
   1 -14  -2    7.39    1.74
   1 -14  -2    6.78    0.68
  -1  14   2    7.64    0.61
   1  14  -2    7.80    0.71
   1  14  -2    7.01    0.46
  -1  14   2    7.11    0.48
   0 -14   2    3.83    1.36
   0 -14  -2    0.57    0.45
   0 -14  -2    4.77    0.46
   0  14  -2    4.32    0.33
   0  14  -2    4.77    0.58
   0  14   2    5.45    0.51
   0  14   2    4.70    0.35
   1 -14   2    5.55    0.88
   1 -14   2    6.00    1.67
  -1 -14  -2    5.06    1.45
   1  14   2    5.03    0.40
   1  14   2    5.14    0.64
  -1  14  -2    6.32    0.58
  -1  14  -2    5.55    0.38
   2 -14   2   55.54    4.08
  -2 -14  -2   56.67    4.89
   2 -14   2   52.12    4.81
  -2  14  -2   59.05    2.61
  -2  14  -2   58.17    3.14
   2  14   2   58.24    2.66
  -3 -14  -2    1.62    0.99
   3 -14   2    3.96    0.86
   3 -14   2    2.08    1.14
  -3  14  -2    5.11    0.57
  -3  14  -2    3.67    0.31
   3  14   2    3.74    0.38
  -4 -14  -2    3.75    1.41
   4 -14   2    5.79    1.05
   4 -14   2    4.46    1.36
   4  14   2    4.77    0.40
  -4  14  -2    4.12    0.55
  -4  14  -2    4.47    0.35
   5 -14   2    5.91    1.15
   5 -14   2    9.68    1.95
  -5 -14  -2    6.08    1.84
   5  14   2    5.42    0.47
  -5  14  -2    6.15    0.43
  -5  14  -2    5.77    0.68
   6 -14   2   99.48    7.11
  -6 -14  -2  103.96    8.14
   6 -14   2   98.78    7.51
  -6  14  -2  104.88    5.41
   6  14   2  104.61    4.69
   7 -14   2    0.72    0.65
  -7 -14  -2   -0.31    0.95
   7  14   2    0.61    0.23
   8 -14   2    1.19    0.78
   8  14   2    1.55    0.31
   9 -14   2    4.65    1.24
   9  14   2    5.17    0.57
  10 -14   2   31.30    3.22
  10  14   2   34.99    1.84
  11 -14   2    1.56    1.04
  11  14   2    1.42    0.35
  10 -15  -2   11.48    1.80
  10  15  -2   10.46    0.80
   9 -15  -2    0.72    0.66
   9  15  -2    1.46    0.32
   8 -15  -2    9.36    1.95
   8 -15  -2    9.24    1.42
   8  15  -2    8.86    0.67
   7 -15  -2   43.31    4.04
   7 -15  -2   40.14    3.27
   7  15  -2   43.71    2.11
   6 -15  -2    1.94    0.64
   6 -15  -2    5.24    1.43
   6  15  -2    2.60    0.35
   6  15  -2    3.20    0.67
  -6  15   2    3.06    0.35
   5 -15  -2    4.93    1.49
   5 -15  -2    5.88    0.92
   5  15  -2    5.59    0.82
  -5  15   2    5.34    0.43
   5  15  -2    5.42    0.46
   4 -15  -2   19.25    2.79
   4 -15  -2   15.63    1.44
   4  15  -2   15.58    0.89
   4  15  -2   16.63    1.31
  -4  15   2   16.35    0.89
   3 -15  -2   53.60    3.61
   3 -15  -2   51.10    4.55
  -3 -15   2   48.00    5.07
  -3  15   2   53.01    2.45
   3  15  -2   52.92    2.45
   3  15  -2   51.96    3.07
  -2 -15   2    1.94    1.19
   2 -15  -2    2.10    0.46
   2 -15  -2    2.28    1.10
   2  15  -2    1.92    0.43
  -2  15   2    1.28    0.23
  -2  15   2    1.97    0.32
   2  15  -2    1.66    0.23
   1 -15  -2   27.55    1.96
  -1 -15   2   31.71    3.53
   1 -15  -2   27.37    3.09
   1  15  -2   27.08    1.75
  -1  15   2   28.92    1.38
   1  15  -2   28.20    1.35
  -1  15   2   25.44    1.61
   0 -15   2   26.02    3.60
   0 -15  -2   21.88    3.09
   0  15   2   20.45    1.33
   0  15  -2   19.94    1.04
   0  15  -2   20.28    1.37
   0  15   2   20.96    1.07
   1 -15   2   37.06    3.85
  -1 -15  -2   36.11    3.71
  -1  15  -2   36.77    2.16
   1  15   2   37.39    1.78
  -1  15  -2   35.24    1.73
   1  15   2   38.60    2.21
   2 -15   2    0.52    0.71
  -2 -15  -2   -0.04    0.65
   2 -15   2    0.09    0.40
   2  15   2    0.20    0.13
  -2  15  -2    0.17    0.12
  -2  15  -2    0.52    0.24
  -3 -15  -2    6.78    1.77
   3 -15   2    6.68    1.09
   3 -15   2    6.10    1.68
  -3  15  -2    6.09    0.41
   3  15   2    5.45    0.44
  -3  15  -2    5.87    0.60
   4 -15   2   25.23    3.45
  -4 -15  -2   21.81    3.39
   4 -15   2   21.80    2.10
  -4  15  -2   23.24    1.49
  -4  15  -2   24.46    1.19
   4  15   2   24.04    1.24
   5 -15   2   59.49    5.37
   5 -15   2   65.87    4.81
  -5 -15  -2   63.79    5.83
   5  15   2   65.31    3.06
  -5  15  -2   66.24    3.00
  -5  15  -2   66.79    3.58
  -6 -15  -2   -0.11    0.84
   6 -15   2   -0.32    0.71
   6 -15   2    0.48    0.60
   6  15   2    0.34    0.19
  -7 -15  -2   19.45    3.47
   7 -15   2   18.78    2.01
   7  15   2   17.19    1.06
   8 -15   2   19.40    2.20
   8  15   2   20.53    1.20
   9 -15   2   14.81    2.19
   9  15   2   14.85    0.98
  10 -15   2   -0.01    0.75
  10  15   2   -0.04    0.21
  10 -16  -2   15.14    1.90
  10  16  -2   16.33    1.05
   9 -16  -2   24.14    2.46
   9  16  -2   26.43    1.46
   8 -16  -2    8.42    1.39
   8 -16  -2    6.04    1.66
   8  16  -2    8.35    0.65
   7 -16  -2    0.92    0.56
   7 -16  -2    0.25    0.79
   7  16  -2    0.51    0.21
   7  16  -2    0.81    0.41
   6 -16  -2   20.03    1.93
   6 -16  -2   20.58    3.02
  -6  16   2   22.04    1.17
   6  16  -2   21.76    1.20
   6  16  -2   23.26    1.74
   5 -16  -2   32.53    2.61
   5 -16  -2   35.55    3.58
   5  16  -2   35.81    2.30
  -5  16   2   32.61    1.66
   5  16  -2   34.07    1.69
   4 -16  -2    5.67    0.86
   4 -16  -2    4.82    1.56
   4  16  -2    4.77    0.41
  -4  16   2    5.09    0.41
   4  16  -2    3.75    0.67
   3 -16  -2    0.34    0.35
  -3 -16   2   -0.06    0.87
   3 -16  -2    1.23    0.99
   3  16  -2    0.37    0.28
  -3  16   2    0.25    0.15
   3  16  -2    0.35    0.16
  -2 -16   2   33.24    4.59
   2 -16  -2   28.37    3.36
   2  16  -2   33.77    2.09
   2  16  -2   32.87    1.60
  -2  16   2   33.11    1.61
  -1 -16   2   40.51    4.33
   1 -16  -2   37.31    3.91
  -1  16   2   41.05    2.27
   1  16  -2   40.68    2.40
   1  16  -2   40.34    1.90
  -1  16   2   38.66    1.91
   0 -16  -2    1.07    0.91
   0 -16   2    0.35    0.85
   0  16  -2    0.50    0.15
   0  16   2    0.53    0.17
   0  16  -2    0.44    0.25
   0  16   2    0.39    0.25
  -1 -16  -2   18.85    2.91
   1 -16   2   13.96    2.71
  -1  16  -2   14.62    1.05
   1  16   2   12.11    1.02
   1  16   2   13.83    0.79
  -1  16  -2   13.26    0.74
  -2 -16  -2   27.02    3.64
   2 -16   2   23.47    3.53
  -2  16  -2   26.40    1.65
  -2  16  -2   26.62    1.30
   2  16   2   26.24    1.34
  -3 -16  -2   33.59    3.80
   3 -16   2   33.03    2.84
   3 -16   2   33.03    3.74
  -3  16  -2   37.10    2.13
  -3  16  -2   37.80    1.73
   3  16   2   36.00    1.77
   4 -16   2    2.88    0.84
  -4 -16  -2    3.68    1.52
   4 -16   2    1.89    1.11
  -4  16  -2    3.59    0.53
   4  16   2    2.93    0.36
  -4  16  -2    3.37    0.33
   5 -16   2   26.84    2.47
  -5 -16  -2   22.21    3.73
   5 -16   2   24.43    3.59
  -5  16  -2   29.45    1.74
  -5  16  -2   26.33    1.36
   5  16   2   27.29    1.42
  -6 -16  -2   29.34    4.29
   6 -16   2   29.32    3.37
   6 -16   2   26.31    2.52
   6  16   2   26.34    1.44
  -7 -16  -2   20.10    3.59
   7 -16   2   17.18    2.00
   7  16   2   18.72    1.10
   8 -16   2    1.79    0.90
   8  16   2    1.74    0.35
   9 -16   2    9.03    1.74
   9  16   2   10.41    0.79
  10 -16   2   25.40    2.87
  10  16   2   27.15    1.55
   9 -17  -2    1.81    0.85
   9  17  -2    1.23    0.58
   9  17  -2    1.70    0.35
   8 -17  -2   21.08    2.09
   8 -17  -2   21.06    3.15
   8  17  -2   19.04    1.71
   8  17  -2   19.24    1.17
   7 -17  -2   15.25    2.69
   7 -17  -2   12.79    1.50
  -7  17   2   12.25    0.80
   7  17  -2   12.66    1.28
   7  17  -2   13.67    0.86
   6 -17  -2   15.57    2.70
   6 -17  -2   18.37    1.73
   6  17  -2   17.16    1.01
   6  17  -2   17.71    1.49
  -6  17   2   16.47    0.98
   5 -17  -2    4.53    0.83
   5 -17  -2    3.01    1.31
   5  17  -2    2.75    0.37
   5  17  -2    4.41    0.74
  -5  17   2    4.05    0.40
   4 -17  -2   23.27    1.90
   4 -17  -2   22.86    3.38
  -4  17   2   22.29    1.19
   4  17  -2   22.42    1.20
   4  17  -2   22.55    1.67
   3 -17  -2   12.01    2.36
  -3 -17   2    7.98    2.32
  -3  17   2   12.88    0.73
   3  17  -2   11.02    0.70
   3  17  -2   11.27    1.05
  -2 -17   2   15.22    3.05
   2 -17  -2   18.16    2.94
   2  17  -2   16.46    1.29
  -2  17   2   17.71    0.95
   2  17  -2   17.04    0.93
  -1 -17   2    0.59    0.99
   1 -17  -2    1.32    0.96
   1  17  -2    0.71    0.31
   1  17  -2    0.38    0.15
  -1  17   2    0.53    0.18
   0 -17   2  129.63    9.66
   0 -17  -2  122.73    9.23
   0  17   2  129.29    6.62
   0  17  -2  128.32    6.67
   0  17   2  128.58    5.68
   0  17  -2  124.22    5.64
  -1 -17  -2   22.82    3.33
   1 -17   2   23.72    3.69
  -1  17  -2   21.26    1.09
  -1  17  -2   22.44    1.45
   1  17   2   21.74    1.13
   1  17   2   18.27    1.41
   2 -17   2    7.90    2.08
  -2 -17  -2    6.04    1.79
   2  17   2    6.32    0.80
  -2  17  -2    5.80    0.43
   2  17   2    5.79    0.46
  -2  17  -2    6.06    0.71
   3 -17   2    2.98    1.37
  -3 -17  -2    0.80    1.02
  -3  17  -2    2.23    0.43
  -3  17  -2    1.51    0.24
   3  17   2    1.99    0.30
   4 -17   2   48.25    4.79
   4 -17   2   50.07    3.84
  -4 -17  -2   52.28    5.13
  -4  17  -2   49.22    2.33
  -4  17  -2   50.41    2.83
   4  17   2   49.32    2.39
   5 -17   2    7.37    1.30
  -5 -17  -2    5.94    2.03
   5 -17   2    5.27    1.73
  -5  17  -2    6.07    0.47
   5  17   2    6.53    0.53
   6 -17   2    0.53    0.96
   6 -17   2    1.03    0.73
  -6 -17  -2    0.59    1.17
   6  17   2    1.55    0.29
  -7 -17  -2    8.02    2.56
   7 -17   2    4.74    1.20
   7  17   2    5.65    0.57
   8 -17   2   37.24    3.47
   8  17   2   40.08    2.05
   9 -17   2    7.40    1.59
   9  17   2    7.53    0.68
   9 -18  -2   47.36    3.89
   9  18  -2   44.17    3.15
   9  18  -2   46.46    2.36
   8 -18  -2    0.34    0.62
   8 -18  -2    1.55    1.13
   8  18  -2    0.46    0.24
   8  18  -2    0.28    0.42
   7 -18  -2    1.81    0.79
   7 -18  -2    1.95    1.15
  -7  18   2    1.69    0.32
   7  18  -2    2.30    0.63
   7  18  -2    2.07    0.35
   6 -18  -2    3.61    1.43
   6 -18  -2    2.34    0.74
  -6  18   2    2.62    0.35
   6  18  -2    1.98    0.57
   6  18  -2    3.03    0.40
   5 -18  -2   58.50    5.46
   5 -18  -2   65.20    4.50
  -5  18   2   63.15    2.94
   5  18  -2   62.69    2.96
   5  18  -2   61.31    3.75
   4 -18  -2    0.11    0.74
  -4  18   2    0.06    0.13
   4  18  -2    0.12    0.28
   4  18  -2   -0.12    0.13
  -3 -18   2    2.34    1.57
   3 -18  -2    0.94    0.97
  -3  18   2    1.20    0.24
   3  18  -2    1.37    0.25
   3  18  -2    1.52    0.44
   2 -18  -2    8.88    2.10
  -2 -18   2    8.36    2.37
   2  18  -2    8.62    0.86
   2  18  -2    8.70    0.58
  -2  18   2    8.34    0.58
   1 -18  -2   60.42    5.51
  -1 -18   2   56.31    5.79
   1  18  -2   61.14    3.51
   1  18  -2   61.01    2.84
  -1  18   2   63.75    2.87
   0 -18   2    3.47    1.64
   0 -18  -2    3.91    1.40
   0  18  -2    3.07    0.51
   0  18  -2    2.37    0.30
   0  18   2    3.62    0.53
   0  18   2    2.60    0.33
  -1 -18  -2   27.38    3.83
   1 -18   2   20.08    3.51
   1  18   2   26.28    1.71
  -1  18  -2   27.75    1.71
  -1  18  -2   24.89    1.29
   1  18   2   25.89    1.34
  -2 -18  -2    8.69    2.24
   2 -18   2    8.70    2.19
   2  18   2    8.36    0.60
   2  18   2    7.67    0.91
  -2  18  -2    8.89    0.56
  -2  18  -2    8.37    0.79
   3 -18   2   42.01    4.76
  -3 -18  -2   53.70    5.24
  -3  18  -2   51.42    2.38
  -3  18  -2   53.02    2.91
   3  18   2   53.56    3.12
   3  18   2   48.85    2.43
  -4 -18  -2    0.80    1.22
   4 -18   2    1.54    1.18
   4  18   2    1.56    0.28
  -4  18  -2    1.16    0.23
   5 -18   2   10.24    2.41
   5 -18   2   11.50    1.66
  -5 -18  -2   11.76    2.77
  -5  18  -2   11.47    0.70
   5  18   2   10.45    0.74
   6 -18   2   -0.18    0.51
   6 -18   2    1.18    1.14
  -6 -18  -2   -0.73    1.02
   6  18   2    0.28    0.20
  -7 -18  -2   34.08    5.10
   7 -18   2   23.44    2.45
   7  18   2   23.16    1.35
   8 -18   2   -0.19    0.68
   8  18   2   -0.05    0.20
   9 -18   2   14.49    2.23
   9  18   2   14.78    1.01
   8 -19  -2   36.51    3.24
   8  19  -2   36.88    1.96
   8  19  -2   39.58    2.73
   7 -19  -2    0.33    0.92
   7 -19  -2   -0.20    0.52
   7  19  -2    0.30    0.38
  -7  19   2    0.34    0.19
   7  19  -2    0.19    0.20
   6 -19  -2   17.38    3.01
   6  19  -2   15.07    0.93
  -6  19   2   13.98    0.89
   6  19  -2   14.09    1.36
   5 -19  -2    2.18    1.21
  -5  19   2    0.56    0.21
   5  19  -2    0.65    0.41
   5  19  -2    0.75    0.23
   4 -19  -2   39.40    4.13
   4  19  -2   38.25    1.85
  -4  19   2   35.95    1.83
   4  19  -2   36.33    2.46
   3 -19  -2    0.85    0.94
  -3 -19   2    0.35    0.99
   3  19  -2    0.20    0.16
   3  19  -2    0.86    0.37
  -3  19   2    0.56    0.19
   2 -19  -2   18.26    3.13
  -2 -19   2   14.61    3.13
  -2  19   2   15.52    0.89
   2  19  -2   15.42    0.88
   2  19  -2   14.49    1.23
  -1 -19   2   -0.25    0.87
   1 -19  -2    0.50    0.86
  -1  19   2    0.02    0.15
   1  19  -2    0.42    0.29
   1  19  -2    0.00    0.13
   0 -19  -2   34.12    4.10
   0 -19   2   37.95    4.51
   0  19  -2   40.00    1.92
   0  19   2   39.77    1.94
   0  19  -2   42.24    2.45
   1 -19   2    1.06    1.17
  -1 -19  -2    1.35    1.09
  -1  19  -2    1.02    0.22
   1  19   2    0.97    0.23
  -1  19  -2    1.76    0.41
   1  19   2    1.73    0.44
   2 -19   2    3.00    1.50
  -2 -19  -2    2.61    1.39
   2  19   2    3.47    0.39
  -2  19  -2    2.95    0.33
   2  19   2    3.50    0.61
  -2  19  -2    2.69    0.51
   3 -19   2    2.32    1.42
  -3 -19  -2    2.07    1.44
  -3  19  -2    1.76    0.27
   3  19   2    1.65    0.30
  -3  19  -2    1.71    0.42
   3  19   2    2.83    0.58
  -4 -19  -2   60.61    6.01
   4 -19   2   59.65    5.73
   4  19   2   57.58    2.84
  -4  19  -2   61.75    2.79
   5 -19   2    0.86    1.12
  -5 -19  -2    0.34    1.12
  -5  19  -2    0.17    0.16
   5  19   2    0.23    0.19
  -6 -19  -2   -0.03    1.18
   6 -19   2    0.40    1.11
   6  19   2    0.37    0.23
  -6  19  -2   -0.08    0.16
  -7 -19  -2    0.10    1.34
   7 -19   2    1.26    0.83
   7  19   2    0.48    0.23
   8 -19   2   39.81    3.65
   8  19   2   40.44    2.11
   7 -20  -2    6.05    1.90
  -7  20   2    3.95    0.46
   7  20  -2    4.24    0.87
   7  20  -2    3.29    0.47
   6 -20  -2    3.08    1.45
   6  20  -2    2.66    0.39
  -6  20   2    2.70    0.37
   6  20  -2    4.01    0.80
   5 -20  -2   39.49    4.39
  -5  20   2   40.91    2.05
   5  20  -2   41.58    2.08
   5  20  -2   43.96    2.80
   4 -20  -2    3.48    1.46
   4  20  -2    3.82    0.73
  -4  20   2    3.64    0.41
   4  20  -2    4.06    0.44
   3 -20  -2    4.76    1.66
   3  20  -2    4.56    0.46
  -3  20   2    4.89    0.44
   3  20  -2    4.70    0.77
  -2 -20   2    3.46    1.82
   2 -20  -2    4.14    1.57
   2  20  -2    2.43    0.33
  -2  20   2    2.30    0.32
   2  20  -2    1.60    0.48
  -1 -20   2   18.34    3.66
   1 -20  -2   20.12    3.45
  -1  20   2   22.58    1.17
   1  20  -2   20.21    1.13
   1  20  -2   22.52    1.58
   0 -20  -2    0.73    0.91
   0 -20   2   -0.60    0.95
   0  20   2    0.87    0.23
   0  20  -2    0.94    0.21
   0  20  -2    1.70    0.43
   1 -20   2   12.21    2.85
  -1 -20  -2   10.29    2.52
   1  20   2   14.13    0.87
  -1  20  -2   15.00    0.84
  -1  20  -2   15.72    1.18
  -2 -20  -2    2.70    1.48
   2 -20   2    3.77    1.74
   2  20   2    4.17    0.68
   2  20   2    3.20    0.41
  -2  20  -2    3.95    0.39
  -2  20  -2    2.75    0.53
  -3 -20  -2   52.24    5.59
   3 -20   2   50.91    5.41
  -3  20  -2   56.47    2.55
   3  20   2   53.14    2.60
   3  20   2   53.16    3.27
  -4 -20  -2    1.60    1.34
   4 -20   2    3.22    1.71
  -4  20  -2    2.79    0.34
   4  20   2    1.78    0.32
   4  20   2    1.91    0.59
   5 -20   2   14.96    3.10
  -5 -20  -2   16.07    3.50
   5  20   2   16.52    1.00
  -5  20  -2   15.83    0.92
   6 -20   2    2.77    1.55
  -6 -20  -2    2.59    1.75
  -6  20  -2    3.16    0.38
   6  20   2    3.43    0.45
  -7 -20  -2    6.53    2.60
   7  20   2   10.37    0.78
   7 -21  -2    8.36    2.27
  -7  21   2    7.58    0.62
   7  21  -2    8.16    1.18
   7  21  -2    7.47    0.66
   6 -21  -2    6.20    1.99
  -6  21   2    6.76    0.56
   6  21  -2    8.02    1.12
   6  21  -2    6.30    0.63
   5 -21  -2    1.04    1.10
  -5  21   2    0.20    0.20
   5  21  -2    0.49    0.22
   5  21  -2    0.23    0.40
   4 -21  -2   27.37    4.06
   4  21  -2   28.02    1.45
   4  21  -2   25.66    1.96
  -4  21   2   26.58    1.43
   3 -21  -2    9.97    2.45
   3  21  -2   12.85    0.82
  -3  21   2   13.76    0.83
   3  21  -2   13.17    1.20
  -2 -21   2    0.57    1.19
   2 -21  -2    0.72    0.99
   2  21  -2    1.08    0.42
  -2  21   2    1.21    0.27
   2  21  -2    1.10    0.25
  -1 -21   2    3.57    1.80
   1 -21  -2    4.47    1.80
  -1  21   2    4.92    0.49
   1  21  -2    4.46    0.45
   1  21  -2    5.84    0.80
   0 -21  -2   39.56    4.59
   0 -21   2   38.00    5.42
   0  21  -2   40.77    2.52
   0  21  -2   40.69    1.98
   0  21   2   41.07    2.02
   1 -21   2    4.31    1.93
  -1 -21  -2    2.10    1.44
  -1  21  -2    5.62    0.46
  -1  21  -2    5.03    0.71
   1  21   2    4.96    0.49
  -2 -21  -2    1.79    1.24
   2 -21   2    2.06    1.40
   2  21   2    1.42    0.45
  -2  21  -2    1.13    0.25
   2  21   2    0.99    0.25
  -3 -21  -2    1.59    1.40
   3 -21   2    2.23    1.43
  -3  21  -2    1.93    0.30
   3  21   2    2.31    0.58
   3  21   2    1.66    0.31
  -4 -21  -2   23.08    4.34
   4 -21   2   30.81    4.58
  -4  21  -2   30.98    1.53
   4  21   2   29.43    1.59
   4  21   2   30.39    2.17
   5 -21   2    1.72    1.40
  -5 -21  -2    3.14    1.85
   5  21   2    3.86    0.81
  -5  21  -2    3.94    0.41
   5  21   2    3.19    0.43
  -6 -21  -2    0.53    1.59
   6 -21   2    1.50    1.33
   6  21   2    0.02    0.21
  -6  21  -2   -0.07    0.15
   6 -22  -2   14.33    3.00
   6  22  -2   12.23    0.86
  -6  22   2   13.58    0.86
   6  22  -2   11.87    1.46
   5 -22  -2   24.17    3.95
   5  22  -2   18.03    1.60
   5  22  -2   19.03    1.11
  -5  22   2   17.71    1.07
   4 -22  -2    2.16    1.34
   4  22  -2    0.91    0.46
  -4  22   2    0.42    0.22
   4  22  -2    0.92    0.25
   3 -22  -2    3.75    1.67
  -3  22   2    3.58    0.42
   3  22  -2    4.25    0.76
   3  22  -2    3.52    0.43
   2 -22  -2   13.67    3.06
  -2 -22   2   13.74    3.49
   2  22  -2   16.18    0.97
  -2  22   2   16.91    1.00
   2  22  -2   18.86    1.45
  -1 -22   2   13.51    3.29
   1 -22  -2   19.81    3.61
   1  22  -2   17.61    1.42
  -1  22   2   18.32    1.04
   1  22  -2   17.47    1.01
   0 -22   2    3.57    1.81
   0 -22  -2    3.31    1.73
   0  22  -2    3.27    0.60
   0  22  -2    2.76    0.36
   0  22   2    3.18    0.40
  -1 -22  -2    9.67    2.62
   1 -22   2    2.81    1.69
  -1  22  -2    7.20    0.54
   1  22   2    7.29    0.56
  -2 -22  -2    8.84    2.65
   2 -22   2    6.46    2.28
  -2  22  -2   11.33    0.71
   2  22   2   11.43    0.75
  -3 -22  -2   10.12    2.89
   3 -22   2   14.79    3.26
  -3  22  -2   15.58    0.88
   3  22   2   14.28    1.29
   3  22   2   13.59    0.90
   4 -22   2    0.07    1.17
  -4 -22  -2    0.39    1.30
   4  22   2    0.22    0.39
  -4  22  -2   -0.18    0.15
   4  22   2   -0.13    0.17
  -5 -22  -2    6.59    2.58
   5 -22   2    7.02    2.45
   5  22   2    3.75    0.82
  -5  22  -2    4.38    0.45
   5  22   2    5.20    0.55
   4 -23  -2    6.90    2.20
   4  23  -2    5.56    0.92
   4  23  -2    6.59    0.57
  -4  23   2    6.37    0.55
   3 -23  -2   10.43    2.83
  -3  23   2   14.58    0.90
   3  23  -2   14.65    0.90
   3  23  -2   14.28    1.33
   2 -23  -2    2.88    1.61
  -2  23   2    2.20    0.35
   2  23  -2    2.56    0.37
   2  23  -2    3.43    0.66
   1 -23  -2    6.06    2.15
  -1 -23   2    4.43    2.12
   1  23  -2    5.10    0.79
   1  23  -2    5.80    0.50
  -1  23   2    5.61    0.55
   0 -23  -2   11.89    2.87
   0 -23   2    7.62    2.68
   0  23  -2   10.80    0.71
   0  23  -2   11.35    1.05
   0  23   2    9.49    0.71
  -1 -23  -2   15.59    3.45
   1 -23   2   13.94    3.38
  -1  23  -2   16.49    0.97
   1  23   2   17.27    1.01
  -2 -23  -2    1.07    1.37
   2 -23   2   -0.29    1.20
  -2  23  -2    0.65    0.22
   2  23   2    1.24    0.27
  -3 -23  -2   11.08    3.01
   3 -23   2    7.32    2.50
   3  23   2    6.95    0.60
  -3  23  -2    7.14    0.55
   4 -23   2    7.04    2.48
  -4 -23  -2    9.68    3.01
  -4  23  -2    8.95    0.63
   4  23   2    7.97    0.67
   4  23   2    9.48    1.20
   2 -24  -2   22.91    4.12
   2  24  -2   25.14    1.88
  -2  24   2   25.05    1.38
   2  24  -2   25.46    1.37
   1 -24  -2   -0.40    0.97
  -1 -24   2    0.48    1.37
   1  24  -2    0.83    0.42
   1  24  -2    0.52    0.22
  -1  24   2    0.49    0.23
   0 -24   2    5.37    2.32
   0 -24  -2    1.53    1.47
   0  24  -2    2.46    0.35
   0  24   2    2.23    0.35
  -1 -24  -2    1.55    1.48
   1 -24   2    0.56    1.31
   1  24   2    0.22    0.21
  -1  24  -2    0.02    0.18
   2 -24   2   20.96    4.20
  -2 -24  -2   21.70    4.22
   2  24   2   22.07    1.25
  -2  24  -2   21.42    1.20
  13   0  -3   18.41    2.09
  13   0  -3   17.37    1.08
  12   0  -3    0.09    0.57
  11   0  -3   73.19    5.28
  10   0  -3   -0.07    0.40
   9   0  -3   50.37    3.65
   8   0  -3    0.06    0.26
   8   0  -3   -0.10    0.26
   7   0  -3   18.63    1.44
   7   0  -3   18.50    1.51
   6   0  -3   -0.03    0.19
   6   0  -3   -0.41    0.21
   5   0  -3  257.37   16.13
   5   0  -3  263.70   14.93
   4   0  -3   -0.18    0.12
   3   0  -3  217.59   10.62
   3   0  -3  210.32   12.28
   2   0  -3   -0.16    0.15
   2   0  -3   -0.32    0.06
   1   0  -3  613.14   30.12
   0   0  -3   -0.06    0.11
   0   0   3   -0.28    0.12
   0   0  -3   -0.23    0.13
  -1   0  -3    8.70    0.59
   1   0   3    8.62    0.41
  -1   0  -3    8.74    0.70
   1   0   3    9.23    0.89
   2   0   3   -0.10    0.04
  -2   0  -3   -0.12    0.11
  -2   0  -3   -0.24    0.11
   2   0   3    0.19    0.26
   3   0   3  431.50   18.50
  -3   0  -3  406.09   24.16
   3   0   3  451.80   26.73
   4   0   3   -0.01    0.30
   4   0   3    0.12    0.10
  -4   0  -3    0.23    0.20
   5   0   3   12.55    1.37
  -5   0  -3   13.99    0.98
   6   0   3   -0.01    0.09
  -6   0  -3   -0.12    0.20
   6   0   3    0.13    0.39
   7   0   3   96.78    4.25
  -7   0  -3   89.98    5.07
   7   0   3   98.58    6.62
   8   0   3    0.01    0.51
   8   0   3    0.19    0.11
  -8   0  -3   -0.22    0.21
   9   0   3    2.24    0.29
   9   0   3    2.29    0.83
  -9   0  -3    2.46    0.57
  10   0   3    0.02    0.50
  10   0   3   -0.14    0.13
  11   0   3   48.73    2.38
  11   0   3   49.19    4.19
  12   0   3   -0.01    0.19
  12   0   3    0.52    0.74
  13   0   3    3.58    1.23
  13   0   3    2.49    0.39
  13  -1  -3    0.44    0.70
  13   1  -3    0.18    0.72
  13   1  -3    0.34    0.24
  12  -1  -3   -0.26    0.49
  12   1  -3    0.46    0.63
  12   1  -3    0.45    0.21
  11  -1  -3    2.86    0.83
  11   1  -3    2.34    0.78
  10  -1  -3   63.24    4.58
  10   1  -3   63.65    4.55
   9  -1  -3    4.81    0.91
   9   1  -3    5.10    0.89
   8  -1  -3    1.90    0.54
   8  -1  -3    2.11    0.52
   8   1  -3    2.41    0.57
   8   1  -3    2.02    0.47
   7  -1  -3    0.68    0.32
   7  -1  -3    0.27    0.30
   7   1  -3    0.25    0.28
   7   1  -3    0.36    0.28
   6  -1  -3  213.27   13.81
   6  -1  -3  224.61   12.79
   6   1  -3  223.57   12.77
   6   1  -3  223.45   13.80
   5  -1  -3   29.79    2.08
   5  -1  -3   30.35    2.11
   5   1  -3   30.85    2.07
   5   1  -3   30.33    2.10
   4  -1  -3    2.14    0.43
   4   1  -3    2.10    0.42
   3  -1  -3    0.65    0.13
   3  -1  -3   -0.39    0.19
   3   1  -3   -0.64    0.19
   2  -1  -3  219.47   12.03
   2  -1  -3  203.13   10.33
   2   1  -3  207.06   10.39
   1  -1  -3  259.90   12.49
  -1   1   3  245.75   10.94
   1   1  -3  256.01   12.53
   0  -1  -3   52.76    2.71
   0  -1  -3   52.15    3.21
   0  -1   3   44.06    3.50
   0   1  -3   52.63    2.73
   0   1   3   64.79    3.61
   0   1   3   52.62    2.31
   1  -1   3    2.24    0.14
  -1  -1  -3    3.14    0.42
  -1  -1  -3    2.40    0.29
   1   1   3    2.27    0.15
   1   1   3    2.95    0.53
  -1   1  -3    2.28    0.29
  -2  -1  -3  237.85   12.53
   2  -1   3  280.34   15.94
  -2  -1  -3  254.04   14.36
   2   1   3  248.68   10.91
   2   1   3  244.99   15.84
  -3  -1  -3   82.58    4.81
  -3  -1  -3   78.86    4.23
   3  -1   3   86.45    5.56
  -3   1  -3   79.37    4.73
   3   1   3   81.02    3.60
   3   1   3   85.06    5.53
   4  -1   3  134.77    8.51
  -4  -1  -3  127.65    7.45
   4   1   3  128.80    5.67
   4   1   3  135.26    8.50
  -4   1  -3  122.97    6.60
   5  -1   3    8.68    1.04
  -5  -1  -3    7.91    0.68
   5   1   3    7.95    0.46
   5   1   3    7.11    1.11
  -5   1  -3    7.02    0.67
  -6  -1  -3  105.52    5.62
   6  -1   3  106.14    7.24
   6   1   3  106.69    7.24
  -6   1  -3  104.97    5.61
   6   1   3  111.06    4.76
  -7  -1  -3    1.63    0.44
   7  -1   3    1.70    0.70
   7   1   3    2.25    0.75
  -7   1  -3    2.13    0.47
   7   1   3    2.16    0.27
  -8  -1  -3    0.88    0.38
   8  -1   3    0.46    0.57
  -8   1  -3    1.20    0.40
   8   1   3    0.23    0.50
   8   1   3    0.77    0.18
   9  -1   3   12.80    1.85
   9   1   3   11.96    0.74
  -9   1  -3   11.96    1.10
   9   1   3   14.26    1.68
  10  -1   3   24.85    1.32
  10  -1   3   28.14    2.64
  10   1   3   25.95    2.57
  10   1   3   24.67    1.33
 -10   1  -3   25.26    1.85
  11  -1   3    0.94    0.75
  11  -1   3    0.58    0.20
  11   1   3    0.64    0.23
  11   1   3    1.25    0.84
  12  -1   3   28.61    1.55
  12  -1   3   28.81    3.04
  12   1   3   30.73    3.08
  12   1   3   29.25    1.56
  13  -1   3    4.84    0.52
  13  -1   3    3.12    1.23
  13   1   3    3.53    0.46
  13   1   3    5.70    1.47
  13  -2  -3   15.34    1.93
  13   2  -3   14.99    0.98
  13   2  -3   15.38    1.88
  12  -2  -3    8.15    1.45
  12   2  -3    7.64    1.38
  12   2  -3    8.84    0.66
  11  -2  -3   43.35    3.49
  11   2  -3   45.57    3.45
  11   2  -3   42.62    2.15
  10  -2  -3    2.26    0.70
  10   2  -3    1.58    0.61
  10   2  -3    1.35    0.27
   9  -2  -3   28.18    2.30
   9   2  -3   27.47    2.23
   8  -2  -3   18.66    1.60
   8  -2  -3   19.70    1.71
   8   2  -3   20.18    1.54
   8   2  -3   21.08    1.69
   7  -2  -3   58.52    3.96
   7  -2  -3   59.73    3.74
   7   2  -3   57.51    3.65
   7   2  -3   55.72    3.89
   6  -2  -3    0.74    0.31
   6  -2  -3    0.13    0.30
   6   2  -3    1.00    0.31
   6   2  -3    0.61    0.32
   5  -2  -3  152.52    8.79
   5  -2  -3  147.51    9.40
   5   2  -3  149.32    9.36
   4  -2  -3   62.00    3.84
   3  -2  -3  211.83   10.47
   3  -2  -3  214.53   12.24
   3   2  -3  211.06   10.58
   2  -2  -3   21.03    1.42
   2  -2  -3   19.18    1.00
  -2   2   3   18.65    0.88
   2   2  -3   18.46    1.09
   1  -2  -3    5.01    0.30
  -1  -2   3    3.91    0.52
   1  -2  -3    1.21    0.38
   1   2  -3    4.51    0.35
   1   2  -3    4.57    0.21
  -1   2   3    4.25    0.23
   0  -2  -3    1.47    0.21
   0  -2   3    1.54    0.39
   0  -2  -3    1.82    0.37
   0   2  -3    2.00    0.26
   0   2   3    2.40    0.45
   0   2   3    2.42    0.14
  -1  -2  -3    9.11    0.61
  -1  -2  -3    9.72    0.83
   1  -2   3    9.35    0.95
   1   2   3    9.29    0.90
   1   2   3    9.65    0.47
  -1   2  -3   10.59    0.65
  -2  -2  -3    3.34    0.49
  -2  -2  -3    2.97    0.35
   2   2   3    3.73    0.63
   2   2   3    3.09    0.20
  -3  -2  -3  151.29    8.61
  -3  -2  -3  143.69    7.48
   3  -2   3  152.29    9.60
   3   2   3  146.76    9.54
   4  -2   3   54.76    3.63
  -4  -2  -3   41.00    2.64
  -4  -2  -3   49.34    3.08
  -4   2  -3   50.16    2.69
   4   2   3   52.33    2.23
   4   2   3   48.67    3.55
   5  -2   3    4.11    0.84
  -5  -2  -3    3.41    0.48
   5   2   3    4.03    0.80
  -5   2  -3    3.83    0.51
   5   2   3    4.36    0.31
   6  -2   3    6.25    1.08
  -6  -2  -3    7.00    0.77
   6   2   3    6.06    0.43
   6   2   3    7.53    1.16
  -6   2  -3    6.16    0.71
  -7  -2  -3  113.02    6.14
   7  -2   3  114.97    7.90
   7   2   3  114.33    7.88
  -7   2  -3  116.73    6.12
   7   2   3  121.03    5.19
   8  -2   3   18.82    2.00
  -8  -2  -3   19.17    1.44
   8   2   3   19.05    1.96
   8   2   3   18.77    1.02
  -8   2  -3   19.22    1.39
   9  -2   3    0.78    0.69
   9   2   3    0.96    0.22
  -9   2  -3    1.64    0.49
   9   2   3    1.12    0.69
  10  -2   3    6.87    1.45
  10   2   3    7.73    0.57
  10   2   3    7.39    1.43
 -10   2  -3    8.06    1.02
  11  -2   3   33.20    1.67
  11  -2   3   30.65    3.11
  11   2   3   31.72    3.09
  11   2   3   32.92    1.68
  12  -2   3    6.69    1.58
  12  -2   3    6.47    0.55
  12   2   3    6.36    0.56
  12   2   3    6.98    1.55
  13  -2   3    1.99    1.09
  13  -2   3    0.37    0.22
  13   2   3    0.67    0.24
  13   2   3    1.19    0.91
  13  -3  -3   13.32    2.00
  13   3  -3   12.28    0.87
  13   3  -3   13.18    1.91
  12  -3  -3    0.78    0.71
  12   3  -3    0.59    0.24
  12   3  -3    0.41    0.59
  11  -3  -3   10.79    1.40
  11   3  -3   11.89    1.40
  11   3  -3   11.65    0.77
  10  -3  -3  106.69    7.31
  10   3  -3  106.45    7.21
  10   3  -3  109.42    4.88
   9  -3  -3    6.68    1.05
   9   3  -3    6.93    1.00
   9   3  -3    5.72    0.48
   8  -3  -3    1.15    0.45
   8  -3  -3    1.09    0.50
   8   3  -3    1.06    0.20
   8   3  -3    1.11    0.39
   8   3  -3    0.99    0.42
   7  -3  -3   38.84    2.64
   7  -3  -3   36.38    2.70
   7   3  -3   35.51    1.76
   7   3  -3   36.37    2.62
   7   3  -3   40.14    2.55
   6  -3  -3  170.04   10.66
   6  -3  -3  168.45    9.94
   6   3  -3  167.98   10.58
   5  -3  -3   33.23    2.31
   5  -3  -3   32.26    2.30
   5   3  -3   33.50    2.24
   4  -3  -3    2.93    0.54
   4   3  -3    2.81    0.22
   3  -3  -3  124.52    5.98
   3  -3  -3  123.82    7.19
   3   3  -3  117.07    5.27
   3   3  -3  119.23    6.14
   2  -3  -3   21.67    1.05
   2  -3  -3   20.81    1.52
  -2   3   3   19.92    0.95
   2   3  -3   19.77    1.18
   2   3  -3   20.26    0.93
   1  -3  -3   79.51    3.91
  -1  -3   3   71.59    5.08
   1   3  -3   78.06    3.41
   1   3  -3   83.49    4.03
  -1   3   3   80.86    3.44
   0  -3  -3   45.51    2.89
   0  -3   3   45.04    3.09
   0  -3  -3   42.57    2.29
   0   3  -3   46.59    2.36
   0   3   3   45.26    1.98
   0   3  -3   44.74    1.94
  -1  -3  -3  109.79    6.37
   1  -3   3   98.53    6.93
  -1  -3  -3  100.37    5.36
   1   3   3  121.52    6.89
   1   3   3  105.76    4.65
  -2  -3  -3  147.93    7.66
  -2  -3  -3  156.66    8.95
   2   3   3  152.35    6.64
   2   3   3  155.56    9.73
  -3  -3  -3   35.89    2.28
  -3  -3  -3   31.85    1.83
   3   3   3   32.04    2.45
  -3   3  -3   32.13    1.84
  -4  -3  -3   77.22    4.08
  -4  -3  -3   77.99    4.79
   4   3   3   76.41    5.28
   4   3   3   78.72    3.44
  -4   3  -3   76.79    4.07
  -5  -3  -3   82.17    5.06
   5  -3   3   84.05    5.68
   5   3   3   77.84    5.62
  -5   3  -3   83.17    4.35
   5   3   3   83.71    3.68
   6  -3   3  123.42    8.35
  -6  -3  -3  123.24    6.52
  -6   3  -3  122.37    6.48
   6   3   3  129.85    5.54
   6   3   3  125.17    8.34
   7  -3   3    1.58    0.64
  -7  -3  -3    0.91    0.36
  -7   3  -3    1.11    0.38
   7   3   3    1.12    0.21
   7   3   3    1.67    0.65
   8  -3   3    0.67    0.59
   8   3   3    1.68    0.69
  -8   3  -3    0.31    0.33
   8   3   3    0.54    0.18
   9  -3   3   35.88    3.24
  -9   3  -3   41.10    2.41
   9   3   3   36.39    3.20
   9   3   3   36.43    1.84
  10  -3   3   28.76    2.83
  10   3   3   28.15    2.77
  10   3   3   28.85    1.51
 -10   3  -3   30.40    2.04
  11  -3   3    0.34    0.68
  11   3   3    0.04    0.17
 -11   3  -3   -0.16    0.36
  11   3   3    0.21    0.61
  12  -3   3   18.58    2.35
  12  -3   3   18.69    1.07
  12   3   3   18.74    2.27
  12   3   3   16.91    1.07
  13  -3   3   19.30    2.84
  13  -3   3   18.73    1.13
  13   3   3   17.30    2.58
  13   3   3   19.23    1.15
  13  -4  -3    4.85    1.30
  13   4  -3    7.23    1.38
  13   4  -3    6.98    0.61
  12  -4  -3   37.50    3.22
  12   4  -3   36.65    1.88
  12   4  -3   34.79    3.03
  11  -4  -3   35.84    2.99
  11   4  -3   35.14    1.80
  11   4  -3   34.55    2.87
  10  -4  -3    0.40    0.50
  10   4  -3    0.57    0.45
  10   4  -3    0.22    0.19
   9  -4  -3   37.63    2.87
   9   4  -3   36.41    2.74
   9   4  -3   35.67    1.80
   8  -4  -3   68.30    4.76
   8  -4  -3   66.98    4.50
   8   4  -3   70.08    4.35
   8   4  -3   69.20    3.17
   8   4  -3   70.60    4.66
   7  -4  -3   29.02    2.28
   7  -4  -3   29.48    2.27
   7   4  -3   31.41    2.20
   7   4  -3   29.92    1.47
   6  -4  -3    0.38    0.26
   6  -4  -3    0.01    0.33
   6   4  -3    0.29    0.21
   6   4  -3    0.21    0.11
   5  -4  -3   54.24    3.37
   5  -4  -3   41.10    3.33
   5   4  -3   55.79    3.32
   5   4  -3   51.84    2.30
   4  -4  -3  262.02   14.97
   4   4  -3  256.00   11.21
   3  -4  -3   44.57    2.85
   3   4  -3   43.80    2.32
   3   4  -3   41.54    1.89
  -3   4   3   40.28    1.90
   2  -4  -3   33.06    2.25
  -2   4   3   30.75    1.44
   2   4  -3   31.57    1.77
   2   4  -3   32.64    1.43
  -1  -4   3  307.16   20.48
   1  -4  -3  331.96   16.25
   1   4  -3  338.00   16.39
   1   4  -3  341.82   14.30
  -1   4   3  337.74   14.36
   0  -4  -3  674.59   34.03
   0  -4   3  476.05   36.84
   0  -4  -3  592.23   29.47
   0   4  -3  627.83   25.82
   0   4   3  629.12   25.98
  -1  -4  -3    1.72    0.24
   1  -4   3    2.60    0.55
  -1  -4  -3    2.72    0.58
  -1   4  -3    2.27    0.14
   1   4   3    2.70    0.18
   1   4   3    2.21    0.44
  -2  -4  -3    4.69    0.71
   2  -4   3    0.11    0.18
  -2  -4  -3    5.81    0.38
   2   4   3    6.22    0.61
   2   4   3    1.87    0.14
  -3  -4  -3  115.56    6.79
   3  -4   3  116.79    7.40
  -3  -4  -3  107.98    5.70
  -3   4  -3  114.55    5.72
   3   4   3  107.15    4.89
   3   4   3  111.05    7.27
  -4  -4  -3  164.53    9.73
  -4  -4  -3  161.17    8.29
   4  -4   3  171.93   10.61
  -4   4  -3  163.21    8.28
   4   4   3  173.60    7.15
   4   4   3  146.62   10.47
  -5  -4  -3   16.40    1.18
  -5  -4  -3   17.21    1.54
   5   4   3   18.29    0.90
   5   4   3   17.12    1.63
  -5   4  -3   16.91    1.15
   6  -4   3   31.59    2.58
  -6  -4  -3   24.29    2.21
  -6   4  -3   31.50    1.88
   6   4   3   35.12    2.64
   6   4   3   31.74    1.50
   7  -4   3   98.16    7.00
   7   4   3   95.20    6.95
   7   4   3  107.72    4.58
  -7   4  -3  102.97    5.40
   8  -4   3   73.31    5.67
   8   4   3   78.89    3.61
   8   4   3   81.52    5.71
  -8   4  -3   80.99    4.35
   9  -4   3    0.54    0.64
   9   4   3    0.26    0.17
   9   4   3    0.33    0.58
  -9   4  -3    0.02    0.31
  10  -4   3   22.96    2.54
 -10   4  -3   28.93    1.88
  10   4   3   24.99    1.35
  10   4   3   23.20    2.46
  11  -4   3   12.79    2.11
  11   4   3   11.64    1.94
  11   4   3   14.14    0.88
 -11   4  -3   14.73    1.32
  12  -4   3   27.22    3.01
  12   4   3   28.38    2.92
  12   4   3   29.00    1.56
  13  -4   3    0.30    0.21
  13  -4   3    0.70    0.86
  13   4   3    1.14    0.86
  13   4   3   -0.07    0.19
  13  -5  -3   20.54    2.31
  13   5  -3   19.17    1.18
  12  -5  -3    0.15    0.63
  12   5  -3    0.10    0.20
  11  -5  -3   42.89    3.59
  11   5  -3   46.79    2.23
  11   5  -3   43.87    3.46
  10  -5  -3    0.37    0.50
  10   5  -3    0.56    0.21
  10   5  -3    0.32    0.42
   9  -5  -3   88.50    6.25
   9   5  -3   95.06    5.69
   9   5  -3   91.21    4.18
   9   5  -3   92.50    6.12
   8  -5  -3    0.50    0.43
   8  -5  -3    0.64    0.58
   8   5  -3   -0.06    0.13
   8   5  -3    0.31    0.37
   7  -5  -3   58.28    4.00
   7   5  -3   60.43    3.97
   7   5  -3   59.17    2.74
   6  -5  -3   20.03    1.78
   6   5  -3   21.37    1.57
   6   5  -3   21.69    1.07
   5  -5  -3   63.68    4.32
   5  -5  -3   65.90    4.28
   5   5  -3   65.29    2.96
   5   5  -3   67.96    4.22
   4  -5  -3    2.14    0.57
   4  -5  -3    1.43    0.33
  -4   5   3    1.70    0.19
   4   5  -3    1.45    0.18
   3  -5  -3  384.64   21.41
   3   5  -3  370.62   16.08
  -3   5   3  360.01   16.09
   3   5  -3  376.79   18.50
   2  -5  -3  151.12    8.78
   2   5  -3  147.98    6.37
   2   5  -3  141.86    7.41
  -1  -5   3  222.38   14.94
   1   5  -3  265.23   10.37
   1   5  -3  270.97   11.99
  -1   5   3  204.15   10.39
   0  -5   3    9.45    0.97
   0   5  -3    9.68    0.47
   0   5   3   11.03    0.52
   1  -5   3  222.54   16.07
  -1  -5  -3  233.95   14.88
   1   5   3  316.35   16.04
  -1   5  -3  252.63   11.06
  -2  -5  -3   13.37    1.32
  -2  -5  -3   11.28    0.80
  -2   5  -3   13.10    0.84
   2   5   3   12.46    0.64
   2   5   3   14.21    1.15
   3  -5   3   46.87    3.23
  -3  -5  -3   43.58    3.07
  -3  -5  -3   42.27    2.37
   3   5   3   42.62    3.06
  -3   5  -3   44.35    2.37
   3   5   3   41.17    1.96
   4  -5   3    9.20    1.08
  -4  -5  -3    8.74    1.21
  -4   5  -3    7.69    0.67
   4   5   3    7.02    0.91
   4   5   3    8.39    0.48
   5  -5   3  212.59   13.40
  -5  -5  -3  217.62   12.46
   5   5   3  219.46    9.11
  -5   5  -3  213.44   10.52
   5   5   3  178.51   13.24
  -6  -5  -3   12.78    1.45
  -6   5  -3   14.85    1.05
   6   5   3   13.97    0.78
   6   5   3   13.22    1.47
  -7   5  -3   21.31    1.46
   7   5   3   21.45    1.12
   7   5   3   20.40    2.03
   8  -5   3    0.29    0.55
   8   5   3    0.39    0.18
  -8   5  -3    0.52    0.35
   8   5   3    0.47    0.59
   9  -5   3  135.57    9.48
   9   5   3  143.09    6.20
   9   5   3  128.32    9.35
  -9   5  -3  142.69    7.32
  10  -5   3    2.93    1.03
 -10   5  -3    3.50    0.69
  10   5   3    3.61    1.03
  10   5   3    3.05    0.39
  11  -5   3    0.61    0.80
  11   5   3    0.98    0.25
  11   5   3    1.94    0.85
 -11   5  -3    0.97    0.47
  12  -5   3    3.69    1.26
 -12   5  -3    3.14    0.72
  12   5   3    2.30    1.00
  12   5   3    2.48    0.39
  13  -5   3   28.57    3.17
  13   5   3   27.99    1.56
  13  -6  -3    1.15    0.82
  13   6  -3    1.81    0.36
  12  -6  -3   55.73    4.39
  12   6  -3   54.07    2.68
  11  -6  -3   -0.44    0.44
  11   6  -3   -0.04    0.19
  10  -6  -3    4.33    0.95
  10   6  -3    4.01    0.82
  10   6  -3    3.33    0.41
   9  -6  -3    3.54    0.81
   9   6  -3    3.34    0.70
   9   6  -3    3.47    0.39
   8  -6  -3  223.95   14.13
   8  -6  -3  211.74   13.20
   8   6  -3  221.78    9.74
   8   6  -3  228.77   13.96
   7  -6  -3    2.73    0.82
   7   6  -3    2.14    0.47
   7   6  -3    2.34    0.29
   6  -6  -3    2.41    0.72
   6   6  -3    2.16    0.25
   6   6  -3    2.44    0.42
   5  -6  -3    2.07    0.42
   5  -6  -3    1.56    0.62
   5   6  -3    1.77    0.22
   5   6  -3    2.24    0.35
   4  -6  -3  213.80   12.44
   4  -6  -3  214.61   13.09
   4   6  -3  217.98    9.14
  -4   6   3  194.97    9.13
   3  -6  -3    1.20    0.53
  -3   6   3    1.54    0.18
   3   6  -3    1.30    0.15
   3   6  -3    1.84    0.32
   2  -6  -3   26.27    2.01
   2   6  -3   23.02    1.41
  -2   6   3   23.66    1.11
   2   6  -3   23.01    1.09
  -1  -6   3    3.66    0.60
   1  -6  -3    4.11    0.81
  -1   6   3    4.04    0.27
   1   6  -3    5.65    0.27
   0  -6   3  116.18    8.14
   0   6  -3  136.12    5.51
   1  -6   3    4.24    0.73
  -1  -6  -3    2.01    0.63
   1   6   3    3.61    0.25
  -1   6  -3    3.62    0.21
  -1   6  -3    3.63    0.37
   2  -6   3   90.90    6.34
  -2   6  -3   93.31    4.16
   2   6   3   89.01    4.20
   2   6   3  111.31    6.22
  -2   6  -3   94.68    4.91
   3  -6   3    1.47    0.48
  -3  -6  -3    0.12    0.25
   3   6   3    0.92    0.14
   3   6   3    1.19    0.39
  -3   6  -3    1.20    0.26
   4  -6   3  264.28   16.14
  -4   6  -3  259.73   12.71
   4   6   3  271.02   11.05
   4   6   3  220.02   15.92
  -5  -6  -3   13.97    1.55
   5  -6   3   17.76    1.61
   5   6   3   14.11    0.77
  -5   6  -3   14.32    1.04
   5   6   3   12.20    1.38
  -6  -6  -3   23.32    2.15
   6   6   3   18.38    1.92
   6   6   3   22.87    1.15
  -6   6  -3   24.12    1.47
   7  -6   3    3.14    1.01
   7   6   3    8.51    1.36
  -7   6  -3   11.93    0.90
   7   6   3   11.63    0.63
   8  -6   3  136.53    9.33
   8   6   3  145.25    6.14
   8   6   3  115.80    9.11
  -8   6  -3  147.37    7.21
   9  -6   3    1.89    0.87
   9   6   3    2.67    0.37
  -9   6  -3    2.11    0.55
   9   6   3    2.89    0.90
  10  -6   3   31.20    3.18
 -10   6  -3   37.63    2.36
  10   6   3   36.95    3.23
  10   6   3   35.99    1.83
  11  -6   3   -0.35    0.64
 -11   6  -3    0.16    0.37
  11   6   3    0.48    0.62
  11   6   3    0.22    0.19
  12  -6   3   18.49    2.77
 -12   6  -3   24.13    1.82
  12   6   3   21.09    1.26
  13  -7  -3   33.47    3.22
  13   7  -3   33.47    1.81
  12  -7  -3    1.47    0.84
  12   7  -3    1.37    0.32
  11  -7  -3   21.41    2.10
  11   7  -3   18.11    1.11
  10  -7  -3    7.49    1.26
  10   7  -3    5.98    0.52
   9  -7  -3   16.69    1.74
   9   7  -3   19.98    1.07
   9   7  -3   20.02    1.67
   8  -7  -3    0.14    0.68
   8  -7  -3    0.39    0.39
   8   7  -3    0.21    0.33
   8   7  -3    0.38    0.19
   7  -7  -3   59.76    5.23
   7  -7  -3   85.58    5.38
   7   7  -3   87.57    5.19
   7   7  -3   85.71    3.62
   6  -7  -3    3.87    0.92
   6  -7  -3    3.63    0.62
   6   7  -3    3.96    0.52
   6   7  -3    2.94    0.31
   5  -7  -3   29.22    2.23
   5  -7  -3   31.18    2.54
   5   7  -3   31.58    1.49
   5   7  -3   32.35    2.09
   4  -7  -3    0.66    0.52
   4  -7  -3    0.62    0.25
   4   7  -3    0.81    0.28
   4   7  -3    0.67    0.13
  -4   7   3    0.44    0.12
   3  -7  -3  207.86   12.07
   3  -7  -3  203.63   12.54
   3   7  -3  199.88   10.19
  -3   7   3  200.52    8.77
   3   7  -3  198.19    8.76
   2  -7  -3   61.28    3.73
   2   7  -3   58.10    2.29
  -2   7   3   51.35    2.30
   2   7  -3   36.62    2.70
   1  -7  -3  196.39   10.69
  -1  -7   3  166.97   11.04
   1   7  -3  118.77    8.77
   1   7  -3  199.59    7.63
  -1   7   3  200.95    7.66
   0  -7  -3   12.32    1.36
   0  -7   3    9.09    1.01
   0   7   3   11.26    0.56
   0   7  -3   11.44    0.75
   0   7  -3   10.03    0.51
  -1  -7  -3  109.02    6.91
   1  -7   3   92.90    7.08
   1   7   3  115.40    4.78
  -1   7  -3  110.52    4.73
  -1   7  -3  113.56    5.57
   2  -7   3   55.34    4.30
  -2  -7  -3   59.01    4.31
  -2   7  -3   59.42    3.28
   2   7   3   73.89    4.19
  -2   7  -3   63.67    2.75
   2   7   3   60.55    2.79
  -3  -7  -3   36.68    2.86
   3  -7   3   34.61    2.70
  -3   7  -3   36.80    1.99
   3   7   3   34.56    1.62
   3   7   3   32.09    2.48
  -4  -7  -3    3.69    0.92
   4  -7   3    3.29    0.75
   4   7   3    2.42    0.26
   4   7   3    1.68    0.53
  -4   7  -3    2.65    0.41
   5  -7   3  171.37   10.54
  -5  -7  -3  160.26   10.03
   5   7   3  141.06   10.28
  -5   7  -3  168.73    8.19
   5   7   3  161.11    7.05
  -6  -7  -3    0.63    0.54
   6  -7   3    1.08    0.58
   6   7   3    1.78    0.25
   6   7   3    1.88    0.61
  -6   7  -3    1.87    0.41
   7  -7   3    0.85    0.67
   7   7   3    0.78    0.55
   7   7   3    1.33    0.24
  -7   7  -3    0.63    0.32
   8  -7   3   17.38    1.97
   8   7   3   17.55    1.88
   8   7   3   16.86    1.00
  -8   7  -3   19.29    1.36
   9  -7   3  146.37    9.81
  -9   7  -3  149.31    7.50
   9   7   3  130.69    9.56
   9   7   3  140.60    6.37
  10  -7   3    0.81    0.71
  10   7   3    0.71    0.64
 -10   7  -3    1.02    0.44
  10   7   3    1.19    0.28
  11  -7   3    3.40    1.16
  11   7   3    4.11    0.49
 -11   7  -3    3.86    0.76
  12  -7   3    0.12    0.80
  12   7   3   -0.19    0.18
  13  -8  -3    1.50    0.98
  13   8  -3    1.77    0.38
  12  -8  -3   31.66    2.98
  12   8  -3   31.13    1.69
  11  -8  -3    7.94    1.45
  11   8  -3    9.40    0.69
  10  -8  -3    0.24    0.49
  10   8  -3    0.25    0.18
   9  -8  -3   10.04    1.26
   9   8  -3   11.06    0.71
   8  -8  -3   49.01    3.77
   8  -8  -3   53.36    3.96
   8   8  -3   53.98    3.59
   8   8  -3   52.06    2.47
   7  -8  -3    9.09    1.08
   7  -8  -3    9.14    1.52
   7   8  -3    9.39    0.62
   7   8  -3   10.50    0.93
   6  -8  -3    1.68    0.81
   6  -8  -3    2.41    0.55
   6   8  -3    2.79    0.44
   6   8  -3    3.30    0.32
   5  -8  -3   16.30    1.33
   5  -8  -3   15.51    1.75
   5   8  -3   16.32    1.15
  -5   8   3   15.77    0.83
   5   8  -3   15.38    0.83
   4  -8  -3  116.95    7.23
   4  -8  -3  114.19    7.19
   4   8  -3  115.75    5.94
  -4   8   3  105.76    4.97
   4   8  -3  113.85    4.97
   3  -8  -3    8.40    0.73
   3  -8  -3    7.33    1.26
   3   8  -3    8.16    0.46
  -3   8   3    7.70    0.46
   3   8  -3    7.83    0.69
   2  -8  -3    2.60    0.82
  -2   8   3    2.60    0.22
   2   8  -3    2.12    0.19
  -2   8   3    2.17    0.19
  -1  -8   3   57.18    4.52
   1  -8  -3   72.48    4.79
   1   8  -3   72.06    3.06
  -1   8   3   70.32    3.09
   1   8  -3   76.66    3.70
   0  -8  -3  246.03   13.51
   0  -8   3  190.41   14.02
   0   8  -3  229.00    9.66
   0   8  -3  235.42   11.20
   0   8   3  221.08    9.71
  -1  -8  -3   24.62    2.25
  -1   8  -3   23.59    1.09
  -1   8  -3   25.15    1.42
   1   8   3   22.93    1.14
  -2  -8  -3   11.38    1.70
   2  -8   3   13.00    1.99
   2  -8   3   14.79    1.39
  -2   8  -3   14.81    0.68
   2   8   3   12.91    0.71
  -2   8  -3   13.34    0.92
  -3  -8  -3   46.58    3.61
   3  -8   3   40.52    3.63
   3  -8   3   43.88    3.41
   3   8   3   45.12    2.13
  -3   8  -3   46.35    2.55
  -3   8  -3   48.37    2.09
   3   8   3   50.27    3.23
   4  -8   3  244.13   14.45
   4  -8   3  230.60   13.83
  -4  -8  -3  240.31   13.80
   4   8   3  174.31   14.06
   4   8   3  231.97    9.82
  -4   8  -3  236.82   11.32
   5  -8   3    0.96    0.56
  -5  -8  -3    1.13    0.68
   5   8   3    0.71    0.16
   5   8   3    0.59    0.39
  -5   8  -3    0.61    0.27
   6  -8   3    4.24    0.98
  -6  -8  -3    5.86    1.31
   6   8   3    5.60    0.42
   6   8   3    5.00    0.94
  -6   8  -3    4.55    0.61
   7  -8   3    0.08    0.55
  -7   8  -3    0.76    0.34
   7   8   3    0.34    0.16
   7   8   3    0.33    0.51
   8  -8   3   36.38    3.24
  -8   8  -3   40.55    2.35
   8   8   3   34.21    3.08
   8   8   3   38.96    1.90
   9  -8   3    9.33    1.65
   9   8   3    9.38    0.68
  -9   8  -3    9.34    0.95
  10  -8   3   11.43    1.96
 -10   8  -3   15.27    1.28
  10   8   3   14.59    0.91
  11  -8   3    9.39    1.84
  11   8   3   10.72    0.78
 -11   8  -3   11.81    1.14
  12  -8   3   29.80    3.21
  12   8   3   28.64    1.61
  12  -9  -3    0.87    0.78
  12   9  -3    0.97    0.30
  11  -9  -3   12.01    1.81
  11   9  -3   13.19    0.87
  10  -9  -3   26.33    2.35
  10   9  -3   23.45    1.34
   9  -9  -3   12.15    1.38
   9   9  -3   10.55    0.73
   8  -9  -3    0.88    0.51
   8  -9  -3    0.49    0.80
   8   9  -3    1.50    0.27
   7  -9  -3   60.43    4.30
   7  -9  -3   62.00    4.54
   7   9  -3   62.51    2.87
   6  -9  -3   81.93    5.86
   6  -9  -3   86.81    5.76
   6   9  -3   89.18    3.92
   6   9  -3   86.94    5.51
   5  -9  -3   26.57    2.51
   5  -9  -3   28.10    2.06
   5   9  -3   27.96    1.84
   5   9  -3   26.13    1.33
   4  -9  -3   -0.65    0.49
   4  -9  -3    0.12    0.21
  -4   9   3    0.12    0.10
   4   9  -3    0.54    0.24
   4   9  -3    0.19    0.12
   4   9  -3    0.03    0.09
   3  -9  -3   92.12    5.92
   3  -9  -3   87.32    5.58
   3   9  -3   87.30    3.86
  -3   9   3   84.56    3.87
   2  -9  -3   72.13    4.80
  -2   9   3   69.58    3.01
   2   9  -3   67.15    3.62
   2   9  -3   69.10    2.99
  -2   9   3   61.39    3.37
   1  -9  -3   34.68    2.81
  -1  -9   3   27.00    2.24
   1   9  -3   32.52    1.85
   1   9  -3   32.18    1.45
  -1   9   3   33.70    1.49
   0  -9  -3   11.17    1.59
   0  -9   3    8.11    0.98
   0   9   3    9.47    0.52
   0   9  -3    9.76    0.71
   0   9  -3    9.00    0.47
  -1  -9  -3   79.26    5.23
   1  -9   3   67.24    5.41
  -1   9  -3   76.18    3.86
   1   9   3   73.97    3.27
  -1   9  -3   69.84    3.22
   2  -9   3   54.45    4.35
   2  -9   3   53.78    3.91
  -2  -9  -3   52.14    4.09
   2   9   3   55.27    2.48
  -2   9  -3   56.18    2.95
  -2   9  -3   54.11    2.43
   3  -9   3   22.35    1.95
   3  -9   3   24.44    2.45
  -3  -9  -3   22.02    2.29
   3   9   3   20.83    1.09
   3   9   3   22.50    1.71
  -3   9  -3   22.09    1.36
  -3   9  -3   22.61    1.05
  -4  -9  -3    6.39    1.40
   4  -9   3    7.13    1.12
   4  -9   3    4.93    1.25
  -4   9  -3    6.51    0.61
   4   9   3    5.54    0.40
   4   9   3    4.77    0.77
   5  -9   3   94.89    6.43
  -5  -9  -3  102.39    6.58
   5  -9   3   96.84    6.37
   5   9   3   85.55    4.10
  -5   9  -3   95.90    4.83
   5   9   3   81.96    6.03
  -6  -9  -3    3.10    1.13
   6  -9   3    4.15    0.98
  -6   9  -3    5.14    0.64
   6   9   3    5.21    0.40
   6   9   3    2.53    0.72
   7  -9   3    5.94    1.19
  -7   9  -3    4.93    0.68
   7   9   3    5.41    0.45
   7   9   3    4.39    0.97
   8  -9   3   32.52    3.01
   8   9   3   34.49    1.74
  -8   9  -3   35.29    2.16
   9  -9   3   22.71    2.56
  -9   9  -3   27.85    1.83
   9   9   3   27.32    1.44
  10  -9   3   21.26    2.53
 -10   9  -3   26.78    1.81
  10   9   3   24.42    1.37
  11  -9   3    1.67    0.95
  11   9   3    1.62    0.33
  12  -9   3    6.98    1.70
  12   9   3    4.89    0.57
  12 -10  -3   14.63    2.15
  12  10  -3   15.58    1.01
  11 -10  -3   13.01    1.86
  11  10  -3   12.38    0.86
  10 -10  -3    2.01    0.76
  10  10  -3    1.63    0.32
   9 -10  -3   19.49    1.88
   9  10  -3   17.97    1.06
   8 -10  -3   42.31    3.26
   8 -10  -3   43.21    3.62
   8  10  -3   42.90    2.09
   7 -10  -3   25.93    2.09
   7 -10  -3   23.59    2.53
   7  10  -3   24.66    1.30
   6 -10  -3   12.25    1.89
   6 -10  -3   13.91    1.30
   6  10  -3   13.76    0.78
   5 -10  -3   50.80    3.91
   5 -10  -3   51.06    3.42
   5  10  -3   50.36    2.28
   5  10  -3   43.84    2.84
   4 -10  -3   80.27    5.27
   4 -10  -3   73.46    5.56
   4  10  -3   84.57    5.04
   4  10  -3   81.26    3.62
   3 -10  -3   27.12    1.89
   3 -10  -3   26.56    2.56
  -3  10   3   26.00    1.36
  -3  10   3   25.71    1.27
   3  10  -3   26.71    1.67
   3  10  -3   26.73    1.26
   2 -10  -3   -0.25    0.55
   2 -10  -3    0.00    0.14
  -2  10   3    0.17    0.09
   2  10  -3    0.02    0.07
  -2  10   3    0.14    0.09
   2  10  -3    0.29    0.18
   1 -10  -3   65.13    4.61
  -1 -10   3   51.83    4.05
  -1  10   3   61.74    2.76
   1  10  -3   65.93    3.34
   1  10  -3   64.14    2.74
   0 -10   3   45.50    4.16
   0 -10  -3   55.50    3.96
   0 -10   3   45.57    3.42
   0  10  -3   48.55    2.18
   0  10   3   49.74    2.22
   0  10  -3   48.14    2.67
  -1 -10  -3   15.50    2.10
   1 -10   3    7.49    1.23
   1 -10   3   16.51    2.44
   1  10   3   18.55    0.82
  -1  10  -3   17.40    1.04
  -1  10  -3   16.10    0.75
   2 -10   3   24.30    2.04
   2 -10   3   25.46    2.65
  -2 -10  -3   24.14    2.45
  -2  10  -3   24.35    1.45
  -2  10  -3   23.25    1.11
   2  10   3   22.73    1.16
   3 -10   3   75.32    5.83
   3 -10   3   77.89    5.51
  -3 -10  -3   75.99    5.71
  -3  10  -3   85.39    4.24
  -3  10  -3   84.01    3.54
   3  10   3   75.98    3.58
   4 -10   3   49.04    3.63
   4 -10   3   48.64    4.03
  -4 -10  -3   43.44    3.91
   4  10   3   48.22    3.30
  -4  10  -3   47.94    2.67
   5 -10   3    2.69    0.79
   5 -10   3    2.01    0.89
  -5 -10  -3    3.77    1.15
   5  10   3    1.58    0.53
  -5  10  -3    3.24    0.49
  -6 -10  -3   18.91    2.68
   6 -10   3   15.41    2.29
   6 -10   3   17.38    1.84
   6  10   3   16.74    0.95
  -6  10  -3   17.79    1.23
   7 -10   3   73.16    5.56
   7  10   3   77.56    3.53
  -7  10  -3   77.15    4.16
   8 -10   3   30.30    2.93
  -8  10  -3   34.49    2.10
   8  10   3   32.78    1.69
   9 -10   3    1.67    0.91
   9  10   3    1.89    0.33
  -9  10  -3    2.72    0.57
  10 -10   3    3.02    1.10
  10  10   3    3.35    0.44
  11 -10   3   23.78    2.72
  11  10   3   23.12    1.35
  12 -10   3   12.54    2.26
  12  10   3   14.17    0.97
  12 -11  -3   -0.39    0.62
  12  11  -3    0.56    0.28
  11 -11  -3    9.07    1.55
  11  11  -3    7.94    0.67
  10 -11  -3   52.58    4.16
  10  11  -3   54.00    2.62
   9 -11  -3    3.40    0.88
   9  11  -3    3.88    0.44
   8 -11  -3    0.91    0.52
   8 -11  -3    1.56    0.95
   8  11  -3    0.25    0.17
   7 -11  -3   19.04    2.52
   7 -11  -3   18.23    1.70
   7  11  -3   19.36    1.05
   6 -11  -3  122.33    8.11
   6 -11  -3  121.56    7.93
   6  11  -3  121.03    5.43
  -6  11   3  121.65    5.42
   5 -11  -3   12.88    1.09
   5 -11  -3   13.07    1.95
   5  11  -3   12.89    0.66
   5  11  -3    4.52    0.82
   4 -11  -3    0.80    0.32
   4 -11  -3    1.00    0.86
   4  11  -3    0.02    0.11
  -4  11   3    0.00    0.03
   4  11  -3    0.49    0.14
   3 -11  -3    1.38    0.90
   3 -11  -3    1.08    0.31
   3  11  -3    1.18    0.32
   3  11  -3    1.09    0.17
  -3  11   3    0.91    0.15
   2 -11  -3   75.28    5.44
   2 -11  -3   79.40    4.82
   2  11  -3   75.48    4.04
  -2  11   3   70.26    3.79
   2  11  -3   74.78    3.34
   1 -11  -3    4.58    1.20
  -1 -11   3    3.08    0.61
   1  11  -3    3.79    0.28
  -1  11   3    4.50    0.31
  -1  11   3    4.34    0.38
   1  11  -3    3.56    0.49
   0 -11   3   15.60    1.52
   0 -11  -3   16.05    2.22
   0 -11   3   21.98    3.03
   0  11   3   18.88    0.90
   0  11  -3   17.54    1.15
   0  11  -3   16.79    0.84
   1 -11   3   56.59    4.79
  -1 -11  -3   61.85    4.58
   1 -11   3   56.56    4.08
  -1  11  -3   56.48    2.56
  -1  11  -3   56.75    3.10
   1  11   3   57.39    2.61
   2 -11   3  123.58    8.22
  -2 -11  -3  124.73    7.98
   2 -11   3  122.49    7.74
  -2  11  -3  127.25    6.00
  -2  11  -3  127.34    5.09
   2  11   3   81.96    5.08
   3 -11   3   10.18    1.23
  -3 -11  -3    9.05    1.75
   3 -11   3    8.78    1.81
  -3  11  -3    9.92    0.54
  -3  11  -3    9.50    0.78
  -4 -11  -3    7.12    1.60
   4 -11   3    8.45    1.27
   4 -11   3    5.58    1.43
  -4  11  -3    6.45    0.42
  -4  11  -3    7.39    0.68
   5 -11   3   25.91    2.70
  -5 -11  -3   23.14    2.67
   5 -11   3   22.20    2.14
   5  11   3   22.58    1.19
  -5  11  -3   23.46    1.49
   6 -11   3   84.73    6.05
   6 -11   3   82.10    6.20
  -6 -11  -3   84.57    6.47
   6  11   3   85.54    3.88
  -6  11  -3   85.30    4.54
   7 -11   3   -0.50    0.46
  -7  11  -3    0.13    0.29
   7  11   3    0.19    0.17
   8 -11   3   31.98    2.96
  -8  11  -3   33.10    2.05
   8  11   3   30.62    1.65
   9 -11   3   16.29    2.03
   9  11   3   17.92    1.07
  -9  11  -3   18.43    1.39
  10 -11   3   23.36    2.66
  10  11   3   25.19    1.41
  11 -11   3    0.91    0.91
  11  11   3    1.75    0.37
  11 -12  -3   22.63    2.37
  11  12  -3   22.49    1.31
  10 -12  -3    0.21    0.61
  10  12  -3    0.58    0.25
   9 -12  -3   31.76    2.68
   9  12  -3   29.65    1.60
   8 -12  -3    1.17    0.96
   8 -12  -3    1.39    0.57
   8  12  -3    1.37    0.27
   7 -12  -3   37.80    3.49
   7 -12  -3   38.79    2.96
   7  12  -3   38.73    1.90
   6 -12  -3   12.85    2.03
   6 -12  -3    9.48    1.07
   6  12  -3    9.26    0.62
  -6  12   3    9.21    0.60
   6  12  -3   10.00    0.99
   5 -12  -3  122.56    7.81
   5 -12  -3  113.43    7.31
  -5  12   3  110.65    5.01
   5  12  -3  109.66    5.01
   5  12  -3  110.14    6.05
   4 -12  -3    8.03    0.85
   4 -12  -3    8.07    1.64
   4  12  -3    7.88    0.51
   3 -12  -3   18.83    2.56
   3 -12  -3   19.59    1.49
   3  12  -3   19.02    1.35
   3  12  -3   19.11    0.98
   2 -12  -3    1.03    0.29
   2 -12  -3   -0.04    0.75
  -2  12   3    0.94    0.19
   2  12  -3    0.73    0.14
   2  12  -3    0.75    0.27
  -1 -12   3   96.66    7.48
   1 -12  -3  126.80    7.39
   1  12  -3  122.99    5.18
   1  12  -3  123.68    6.14
   0 -12   3    3.16    0.69
   0 -12  -3    2.89    1.03
   0 -12   3    1.52    0.97
   0  12  -3    3.73    0.49
   0  12  -3    3.21    0.26
   1 -12   3   15.57    2.50
  -1 -12  -3   16.88    2.41
   1 -12   3   14.35    1.50
  -1  12  -3   16.65    1.08
  -1  12  -3   15.09    0.77
   2 -12   3    0.37    0.46
   2 -12   3    0.36    0.67
  -2 -12  -3   -0.47    0.65
   2  12   3    0.03    0.05
  -2  12  -3    0.79    0.14
  -2  12  -3    0.78    0.27
  -3 -12  -3   83.60    6.45
   3 -12   3   88.29    6.08
   3 -12   3   80.46    6.48
  -3  12  -3   91.43    3.91
  -3  12  -3   89.18    4.64
   4 -12   3    0.89    0.59
   4 -12   3    0.55    0.77
  -4 -12  -3    0.53    0.80
  -4  12  -3    0.88    0.30
  -4  12  -3    1.32    0.18
   4  12   3    0.78    0.18
  -5 -12  -3    5.72    1.53
   5 -12   3    3.93    1.32
   5 -12   3    4.30    0.98
  -5  12  -3    4.80    0.61
   5  12   3    3.92    0.40
   6 -12   3    2.04    0.76
  -6 -12  -3    0.09    0.78
   6 -12   3    1.95    1.02
  -6  12  -3    1.39    0.38
   6  12   3    1.42    0.26
   7 -12   3   47.42    3.89
  -7  12  -3   47.98    2.79
   7  12   3   48.30    2.34
   8 -12   3    8.70    1.59
  -8  12  -3    9.32    0.94
   8  12   3   10.59    0.72
   9 -12   3    4.52    1.21
   9  12   3    5.51    0.56
  10 -12   3   -0.06    0.69
  10  12   3   -0.11    0.18
  11 -12   3   38.34    3.76
  11  12   3   38.78    2.05
  11 -13  -3    0.33    0.69
  11  13  -3    0.14    0.22
  10 -13  -3   51.79    4.06
  10  13  -3   49.53    2.50
   9 -13  -3    0.49    0.57
   9  13  -3    0.17    0.19
   8 -13  -3    1.48    0.61
   8 -13  -3    2.20    1.12
   8  13  -3    1.37    0.28
   7 -13  -3    2.85    0.73
   7 -13  -3    4.91    1.41
   7  13  -3    2.18    0.31
   7  13  -3    1.80    0.54
   6 -13  -3   94.21    6.35
   6 -13  -3   88.56    6.77
   6  13  -3   98.37    4.32
   6  13  -3   92.52    5.28
  -6  13   3   97.49    4.30
   5 -13  -3    0.43    0.85
   5 -13  -3    0.39    0.35
   5  13  -3    0.68    0.33
   5  13  -3    0.32    0.15
  -5  13   3    0.13    0.12
   4 -13  -3   13.07    2.19
   4 -13  -3   11.72    1.10
   4  13  -3   12.01    1.03
   4  13  -3   11.33    0.68
  -4  13   3   11.53    0.68
   3 -13  -3   -0.34    0.70
   3 -13  -3    0.23    0.25
  -3  13   3    0.01    0.05
   3  13  -3    0.21    0.23
   3  13  -3    0.16    0.12
   2 -13  -3  140.17    9.37
   2 -13  -3  146.56    8.78
   2  13  -3  137.69    6.12
   2  13  -3  139.09    7.24
  -2  13   3  133.65    6.98
  -1 -13   3    0.35    0.58
   1 -13  -3    0.18    0.19
   1 -13  -3    0.31    0.34
  -1  13   3    0.17    0.15
   1  13  -3    0.19    0.11
   1  13  -3    0.35    0.20
  -1  13   3   -0.02    0.03
   0 -13   3   26.01    2.49
   0 -13   3   35.29    3.67
   0  13  -3   36.56    2.03
   0  13  -3   36.97    1.58
   1 -13   3    1.17    0.53
   1 -13   3    1.46    0.94
  -1 -13  -3    0.73    0.78
  -1  13  -3    1.06    0.16
  -1  13  -3    0.70    0.25
   2 -13   3   87.91    6.24
  -2 -13  -3   89.10    6.73
   2 -13   3   92.17    6.98
  -2  13  -3   89.78    4.04
  -2  13  -3   96.75    4.83
  -3 -13  -3   -0.10    0.62
   3 -13   3   -0.08    0.65
   3 -13   3    0.34    0.45
   3  13   3    0.02    0.09
  -3  13  -3    0.22    0.21
  -3  13  -3    0.30    0.12
   4 -13   3   18.49    1.87
   4 -13   3   16.37    2.65
  -4 -13  -3   18.91    2.80
  -4  13  -3   19.63    0.96
   4  13   3   18.65    1.01
  -4  13  -3   17.86    1.26
   5 -13   3    0.42    0.76
   5 -13   3    1.14    0.67
  -5 -13  -3    0.83    0.86
   5  13   3    0.83    0.20
  -5  13  -3    0.48    0.29
  -6 -13  -3   40.06    3.97
   6 -13   3   36.18    3.65
   6 -13   3   33.81    3.06
   6  13   3   36.71    1.83
  -6  13  -3   37.65    2.21
   7 -13   3   -0.02    0.56
   7  13   3    0.22    0.18
  -7  13  -3   -0.20    0.27
   8 -13   3   32.67    3.16
  -8  13  -3   35.24    2.22
   8  13   3   36.80    1.84
   9 -13   3    0.30    0.69
   9  13   3   -0.01    0.18
  10 -13   3   18.49    2.36
  10  13   3   20.09    1.21
  11 -13   3    0.37    0.87
  11  13   3    0.33    0.25
  11 -14  -3   18.67    2.12
  11  14  -3   15.78    1.07
  10 -14  -3    0.24    0.59
  10  14  -3   -0.06    0.20
   9 -14  -3   18.12    1.89
   9  14  -3   18.37    1.10
   8 -14  -3    8.98    1.92
   8 -14  -3    7.94    1.30
   8  14  -3    9.82    0.68
   8  14  -3    8.80    1.17
   7 -14  -3   28.34    3.11
   7 -14  -3   30.73    2.48
   7  14  -3   28.75    2.10
   7  14  -3   29.82    1.54
   6 -14  -3    3.24    0.72
   6 -14  -3    2.05    1.07
   6  14  -3    3.51    0.67
   6  14  -3    3.40    0.38
  -6  14   3    2.70    0.33
   5 -14  -3   52.24    3.68
   5 -14  -3   50.06    4.45
   5  14  -3   52.60    3.15
   5  14  -3   52.02    2.46
  -5  14   3   52.92    2.45
   4 -14  -3    0.80    0.93
   4 -14  -3    1.35    0.44
   4  14  -3    1.55    0.23
  -4  14   3    1.12    0.22
   4  14  -3    1.51    0.42
   3 -14  -3   42.05    3.85
   3 -14  -3   41.23    2.84
   3  14  -3   41.10    2.48
  -3  14   3   40.30    1.93
   3  14  -3   39.88    1.92
   2 -14  -3    2.71    0.47
   2 -14  -3    2.42    1.22
   2  14  -3    2.46    0.27
   2  14  -3    2.18    0.44
  -2  14   3    2.30    0.28
   1 -14  -3  137.28    7.72
  -1 -14   3  119.56    9.10
   1 -14  -3  121.40    8.54
   1  14  -3  130.68    6.43
  -1  14   3  127.71    6.25
   1  14  -3  126.82    5.40
  -1  14   3   93.12    5.39
   0 -14  -3    0.15    0.78
   0 -14   3    0.99    0.90
   0 -14  -3    0.18    0.15
   0  14  -3    1.13    0.31
   0  14  -3    0.69    0.15
   0  14   3    0.42    0.12
   0  14   3    1.12    0.30
   1 -14   3   16.37    2.78
   1 -14   3   19.25    1.78
  -1 -14  -3   19.22    2.77
  -1  14  -3   19.50    1.26
  -1  14  -3   19.24    0.93
   1  14   3   16.41    0.95
   2 -14   3    0.00    0.39
   2 -14   3    0.01    0.68
  -2 -14  -3    0.92    0.87
  -2  14  -3    0.58    0.26
   2  14   3    0.37    0.14
  -2  14  -3    0.34    0.12
   3 -14   3   43.21    4.47
  -3 -14  -3   51.38    4.61
   3 -14   3   53.36    3.91
  -3  14  -3   49.32    2.86
   3  14   3   51.59    2.41
  -3  14  -3   53.46    2.35
   4 -14   3    8.29    1.90
   4 -14   3    7.47    1.30
  -4 -14  -3    7.74    1.84
   4  14   3    7.95    0.55
  -4  14  -3    7.73    0.73
  -4  14  -3    8.22    0.50
   5 -14   3    0.11    0.74
   5 -14   3    0.05    0.49
  -5 -14  -3    0.67    0.88
  -5  14  -3    0.35    0.26
   5  14   3    0.29    0.17
   6 -14   3    4.65    1.53
   6 -14   3    3.36    0.97
  -6 -14  -3    2.26    1.27
  -6  14  -3    5.51    0.70
   6  14   3    4.17    0.44
   7 -14   3   68.65    5.47
  -7  14  -3   75.90    4.07
   7  14   3   74.17    3.46
   8 -14   3    2.22    0.93
   8  14   3    2.71    0.40
   9 -14   3    3.12    1.11
   9  14   3    3.31    0.45
  10 -14   3    2.13    1.09
  10  14   3    1.65    0.36
  10 -15  -3   59.89    4.53
  10  15  -3   54.42    2.77
  10  15  -3   55.63    3.65
   9 -15  -3   15.25    1.71
   9  15  -3   13.52    1.39
   9  15  -3   13.47    0.91
   8 -15  -3   -0.07    0.45
   8 -15  -3    1.15    0.91
   8  15  -3    0.13    0.38
   8  15  -3   -0.01    0.17
   7 -15  -3    9.79    1.24
   7 -15  -3   13.73    2.33
   7  15  -3   11.71    1.16
  -7  15   3   11.29    0.70
   7  15  -3    9.49    0.70
   6 -15  -3   53.09    3.97
   6 -15  -3   53.10    4.73
   6  15  -3   56.31    3.40
   6  15  -3   57.67    2.64
  -6  15   3   55.59    2.62
   5 -15  -3    2.75    1.21
   5 -15  -3    3.00    0.66
   5  15  -3    4.01    0.67
  -5  15   3    3.38    0.36
   5  15  -3    3.15    0.35
   4 -15  -3    1.70    1.06
   4 -15  -3    1.94    0.52
   4  15  -3    1.46    0.25
   4  15  -3    1.53    0.44
  -4  15   3    1.41    0.24
   3 -15  -3   16.54    2.64
   3 -15  -3   20.04    1.55
   3  15  -3   19.09    1.00
   3  15  -3   18.57    1.40
  -3  15   3   18.86    1.02
   2 -15  -3   81.23    6.77
   2 -15  -3   96.04    5.95
   2  15  -3   93.76    4.13
  -2  15   3   92.92    4.15
   2  15  -3   89.90    4.97
  -1 -15   3   13.89    2.85
   1 -15  -3    7.87    1.92
   1 -15  -3   11.86    0.97
  -1  15   3   11.21    0.82
   1  15  -3   11.23    0.65
   1  15  -3   12.07    0.96
  -1  15   3   10.94    0.67
   0 -15  -3    7.14    1.77
   0 -15   3   10.16    2.28
   0  15   3    8.07    0.68
   0  15  -3    7.03    0.71
   0  15  -3    7.01    0.47
   0  15   3    7.38    0.50
  -1 -15  -3   33.63    3.48
   1 -15   3   29.23    3.47
   1  15   3   30.34    1.51
  -1  15  -3   29.95    1.45
  -1  15  -3   30.81    1.87
  -2 -15  -3   55.53    4.84
   2 -15   3   50.87    3.90
   2 -15   3   48.11    4.77
   2  15   3   51.43    2.44
  -2  15  -3   52.32    2.39
  -2  15  -3   53.85    2.94
   3 -15   3    1.15    0.61
   3 -15   3    0.93    0.96
  -3 -15  -3    2.23    1.20
   3  15   3    1.38    0.24
  -3  15  -3    1.64    0.38
  -3  15  -3    1.10    0.20
   4 -15   3    0.98    0.96
  -4 -15  -3    2.94    1.29
   4 -15   3    1.77    0.70
   4  15   3    1.60    0.26
  -4  15  -3    2.01    0.25
  -4  15  -3    1.69    0.39
  -5 -15  -3   22.78    3.55
   5 -15   3   25.33    2.43
   5 -15   3   24.08    3.52
  -5  15  -3   25.88    1.68
  -5  15  -3   28.10    1.31
   5  15   3   24.98    1.36
   6 -15   3   57.35    4.63
  -6 -15  -3   64.14    5.73
   6 -15   3   62.55    5.43
  -6  15  -3   59.32    3.39
   6  15   3   61.79    2.89
   7 -15   3    3.51    1.04
   7  15   3    3.38    0.43
   8 -15   3   17.33    2.06
   8  15   3   16.00    1.02
   9 -15   3   12.48    2.07
   9  15   3   13.03    0.91
  10 -15   3   25.98    2.89
  10  15   3   25.67    1.50
  10 -16  -3    0.62    0.73
  10  16  -3    2.09    0.69
  10  16  -3    1.55    0.35
   9 -16  -3   14.37    1.74
   9  16  -3   15.09    1.49
   9  16  -3   15.05    0.98
   8 -16  -3   29.18    3.35
   8 -16  -3   33.29    2.77
   8  16  -3   31.11    1.66
   8  16  -3   30.32    2.28
   7 -16  -3    9.27    2.04
   7 -16  -3   11.49    1.32
   7  16  -3   11.48    0.74
  -7  16   3    9.90    0.69
   7  16  -3    8.93    1.18
   6 -16  -3    0.32    0.40
   6 -16  -3    0.67    0.87
   6  16  -3    0.40    0.19
   6  16  -3    0.33    0.33
  -6  16   3    0.14    0.16
   5 -16  -3   26.85    2.17
   5 -16  -3   27.14    3.15
   5  16  -3   26.13    1.90
  -5  16   3   28.18    1.39
   5  16  -3   25.90    1.38
   4 -16  -3   33.36    2.47
   4 -16  -3   32.44    3.48
   4  16  -3   34.01    2.19
  -4  16   3   31.29    1.61
   4  16  -3   32.83    1.62
   3 -16  -3    4.34    0.70
   3 -16  -3    6.01    1.69
  -3  16   3    3.40    0.37
   3  16  -3    4.65    0.37
   3  16  -3    5.11    0.72
   2 -16  -3    5.01    0.69
   2 -16  -3    4.82    1.61
  -2  16   3    5.20    0.41
   2  16  -3    4.75    0.68
   2  16  -3    4.44    0.37
   1 -16  -3   32.92    3.65
  -1 -16   3   33.14    4.66
   1  16  -3   33.68    1.68
   1  16  -3   36.22    2.19
  -1  16   3   37.53    1.74
   0 -16  -3  149.24   10.03
   0 -16   3  126.04   10.17
   0  16  -3  141.80    7.31
   0  16  -3  137.45    6.19
   0  16   3  146.29    6.25
   0  16   3  138.99    7.22
   1 -16   3    7.77    2.12
  -1 -16  -3   11.36    2.26
   1  16   3    8.39    0.83
   1  16   3   11.14    0.63
  -1  16  -3    8.81    0.56
  -1  16  -3    8.50    0.80
   2 -16   3    4.11    1.56
  -2 -16  -3    3.02    1.33
  -2  16  -3    2.91    0.30
   2  16   3    2.55    0.32
  -2  16  -3    2.66    0.48
   3 -16   3   21.13    2.07
  -3 -16  -3   20.83    3.27
   3 -16   3   25.02    3.57
  -3  16  -3   21.31    1.09
  -3  16  -3   22.40    1.44
   3  16   3   20.44    1.14
   4 -16   3   26.41    3.80
  -4 -16  -3   25.98    3.83
   4 -16   3   27.84    2.58
   4  16   3   29.26    1.50
  -4  16  -3   30.53    1.44
  -4  16  -3   29.79    1.84
  -5 -16  -3    8.29    2.16
   5 -16   3    5.78    1.80
   5 -16   3    8.01    1.40
  -5  16  -3    7.78    0.51
   5  16   3    7.28    0.57
  -5  16  -3    7.02    0.81
  -6 -16  -3    9.43    2.43
   6 -16   3   11.91    2.50
   6 -16   3    9.42    1.63
  -6  16  -3   10.50    0.95
   6  16   3   10.41    0.72
   7 -16   3   16.89    2.08
   7  16   3   20.23    1.15
   8 -16   3   13.75    2.14
   8  16   3   16.38    1.02
   9 -16   3    1.87    0.96
   9  16   3    1.67    0.35
   9 -17  -3   17.28    1.95
   9  17  -3   19.38    1.70
   9  17  -3   16.40    1.08
   8 -17  -3    0.14    0.80
   8 -17  -3   -0.20    0.46
   8  17  -3    0.64    0.25
   8  17  -3    0.07    0.36
   7 -17  -3   24.21    3.44
   7 -17  -3   23.77    2.10
   7  17  -3   20.74    1.23
  -7  17   3   22.40    1.21
   7  17  -3   20.40    1.74
   6 -17  -3    7.20    1.84
   6 -17  -3    8.63    1.25
   6  17  -3    8.52    1.09
  -6  17   3    8.57    0.60
   6  17  -3    7.69    0.60
   5 -17  -3   19.22    2.98
   5 -17  -3   17.63    1.60
  -5  17   3   15.16    0.93
   5  17  -3   16.98    0.96
   5  17  -3   17.46    1.43
   4 -17  -3    1.25    0.98
   4 -17  -3    1.30    0.48
   4  17  -3    1.44    0.26
   4  17  -3    1.88    0.49
  -4  17   3    1.40    0.25
   3 -17  -3   22.96    3.30
   3  17  -3   24.10    1.71
   3  17  -3   24.52    1.25
  -3  17   3   24.46    1.27
   2 -17  -3    6.53    1.79
   2  17  -3    6.58    0.83
   2  17  -3    7.69    0.51
  -2  17   3    7.65    0.53
  -1 -17   3   17.10    3.28
   1 -17  -3   21.35    3.26
   1  17  -3   20.35    1.04
  -1  17   3   20.40    1.09
   1  17  -3   19.85    1.43
   0 -17  -3    0.45    0.87
   0 -17   3    1.23    1.05
   0  17  -3    0.80    0.17
   0  17  -3    0.71    0.31
   0  17   3    0.66    0.28
   0  17   3    0.38    0.17
   1 -17   3   66.35    6.18
  -1 -17  -3   66.08    5.91
   1  17   3   68.46    3.84
  -1  17  -3   73.02    3.85
  -1  17  -3   68.80    3.14
   1  17   3   69.24    3.20
  -2 -17  -3   17.46    3.04
   2 -17   3   14.90    2.98
  -2  17  -3   15.23    0.83
  -2  17  -3   15.09    1.14
   2  17   3   15.01    0.88
  -3 -17  -3    9.50    2.25
   3 -17   3    8.28    2.17
  -3  17  -3    8.02    0.52
  -3  17  -3    8.58    0.78
   3  17   3    7.17    0.55
   4 -17   3    1.42    0.73
   4 -17   3    2.13    1.25
  -4 -17  -3    3.40    1.48
   4  17   3    1.38    0.26
  -4  17  -3    1.16    0.38
  -4  17  -3    1.60    0.24
   5 -17   3   34.29    4.65
  -5 -17  -3   39.18    4.36
   5 -17   3   36.57    3.17
   5  17   3   34.37    1.83
  -5  17  -3   36.99    2.23
  -5  17  -3   37.82    1.78
  -6 -17  -3    5.80    2.01
   6 -17   3    5.78    1.24
   6  17   3    5.52    0.55
   7 -17   3    3.70    1.08
   7  17   3    5.14    0.53
   8 -17   3    1.56    0.88
   8  17   3    2.56    0.41
   9 -17   3   20.76    2.50
   9  17   3   21.54    1.30
   9 -18  -3    1.53    0.86
   9  18  -3    2.01    0.68
   9  18  -3    1.13    0.31
   8 -18  -3   42.29    3.49
   8 -18  -3   39.40    4.27
   8  18  -3   44.32    2.19
   8  18  -3   42.19    2.93
   7 -18  -3    1.80    0.73
   7 -18  -3    0.41    0.87
   7  18  -3    1.65    0.57
   7  18  -3    1.75    0.32
  -7  18   3    1.03    0.26
   6 -18  -3   -0.18    0.40
   6 -18  -3    0.84    0.93
   6  18  -3    0.31    0.35
  -6  18   3    0.31    0.19
   6  18  -3   -0.09    0.17
   5 -18  -3   -0.49    0.74
   5 -18  -3    0.18    0.41
   5  18  -3    0.32    0.34
   5  18  -3    0.26    0.18
  -5  18   3    0.04    0.15
   4 -18  -3   36.16    3.97
   4  18  -3   37.25    1.86
   4  18  -3   38.67    2.48
  -4  18   3   37.99    1.86
   3 -18  -3    0.05    0.78
  -3  18   3    0.22    0.16
   3  18  -3    0.16    0.15
   3  18  -3    0.42    0.31
   2 -18  -3    0.16    0.79
   2  18  -3    0.10    0.13
  -2  18   3    0.18    0.15
   2  18  -3    0.20    0.26
  -1 -18   3    1.73    1.34
   1 -18  -3    1.41    1.16
  -1  18   3    2.55    0.33
   1  18  -3    2.70    0.53
   1  18  -3    2.48    0.29
   0 -18  -3   37.87    4.03
   0 -18   3   31.51    4.63
   0  18  -3   35.12    1.70
   0  18   3   34.02    1.74
   0  18  -3   37.88    2.22
  -1 -18  -3   -0.02    0.77
   1 -18   3   -0.44    0.80
  -1  18  -3    0.55    0.29
  -1  18  -3    0.41    0.16
   1  18   3    0.41    0.18
   1  18   3    0.32    0.27
  -2 -18  -3    3.98    1.57
   2 -18   3    8.22    2.25
  -2  18  -3    9.72    0.83
   2  18   3    7.65    0.56
  -2  18  -3    7.88    0.52
   2  18   3    8.41    0.96
  -3 -18  -3    5.66    1.87
   3 -18   3    4.47    1.72
   3  18   3    5.07    0.49
  -3  18  -3    4.36    0.63
  -3  18  -3    4.85    0.40
   4 -18   3   47.10    5.05
  -4 -18  -3   50.90    5.26
  -4  18  -3   52.89    2.43
  -4  18  -3   53.12    2.99
   4  18   3   51.15    2.50
  -5 -18  -3    0.39    0.98
   5 -18   3    1.28    0.68
   5 -18   3    0.35    0.93
   5  18   3    0.23    0.19
  -5  18  -3    0.33    0.16
  -6 -18  -3   10.36    2.70
   6 -18   3    6.68    2.10
   6 -18   3    9.50    1.59
   6  18   3    7.81    0.63
   7 -18   3    0.38    0.67
   7  18   3    0.14    0.20
   8 -18   3   18.06    2.31
   8  18   3   21.81    1.27
   8 -19  -3    0.01    0.62
   8 -19  -3    0.57    1.00
   8  19  -3    0.29    0.42
   8  19  -3    0.58    0.26
   7 -19  -3   17.44    3.16
   7 -19  -3   21.45    2.07
  -7  19   3   22.78    1.21
   7  19  -3   19.01    1.72
   7  19  -3   20.96    1.23
   6 -19  -3    0.83    0.94
  -6  19   3    0.13    0.18
   6  19  -3    0.30    0.35
   6  19  -3    0.00    0.16
   5 -19  -3    8.34    2.13
  -5  19   3   11.55    0.76
   5  19  -3   12.35    0.78
   5  19  -3   12.36    1.21
   4 -19  -3    0.08    0.72
   4  19  -3    0.15    0.16
   4  19  -3    0.27    0.34
  -4  19   3    0.42    0.19
   3 -19  -3   26.20    3.76
   3  19  -3   27.22    1.87
  -3  19   3   26.30    1.37
   3  19  -3   25.07    1.34
   2 -19  -3   -0.38    0.75
  -2  19   3    0.40    0.18
   2  19  -3    0.51    0.34
   2  19  -3    0.60    0.18
   1 -19  -3   16.37    2.96
   1  19  -3   15.15    0.85
   1  19  -3   14.17    1.21
  -1  19   3   15.91    0.90
   0 -19  -3    0.14    0.78
   0 -19   3    0.08    0.91
   0  19  -3   -0.15    0.11
   0  19   3   -0.04    0.14
   0  19  -3    0.21    0.25
   1 -19   3   30.87    4.66
  -1 -19  -3   40.12    4.36
  -1  19  -3   40.71    2.39
  -1  19  -3   39.13    1.86
   1  19   3   37.92    1.91
  -2 -19  -3    0.59    0.97
   2 -19   3   -0.03    0.90
   2  19   3    0.14    0.17
   2  19   3    0.78    0.36
  -2  19  -3    0.58    0.31
  -2  19  -3   -0.20    0.13
   3 -19   3    7.83    2.22
  -3 -19  -3    6.89    2.08
  -3  19  -3    7.78    0.51
  -3  19  -3    6.24    0.78
   3  19   3    6.53    0.54
   4 -19   3    0.04    0.92
  -4 -19  -3   -0.25    0.94
   4  19   3    0.39    0.20
  -4  19  -3    0.11    0.15
  -5 -19  -3   52.81    5.64
   5 -19   3   47.70    5.27
   5  19   3   52.15    2.60
  -5  19  -3   56.09    2.53
  -6 -19  -3   -0.05    1.19
   6 -19   3    1.15    1.27
   6  19   3   -0.20    0.16
   7 -19   3    7.11    1.44
   7  19   3    5.66    0.61
   8 -19   3    0.55    0.76
   8  19   3   -0.03    0.20
   7 -20  -3    2.53    1.35
   7  20  -3    2.02    0.64
  -7  20   3    1.49    0.31
   7  20  -3    2.57    0.38
   6 -20  -3    0.82    1.01
   6  20  -3    0.30    0.42
   6  20  -3    0.10    0.21
  -6  20   3    0.78    0.23
   5 -20  -3    1.26    1.15
   5  20  -3    1.01    0.26
  -5  20   3    1.11    0.27
   5  20  -3    1.93    0.56
   4 -20  -3   36.54    4.14
  -4  20   3   36.07    1.80
   4  20  -3   35.00    1.79
   4  20  -3   35.54    2.41
   3 -20  -3    3.00    1.48
  -3  20   3    3.45    0.39
   3  20  -3    2.81    0.36
   3  20  -3    3.51    0.67
   2 -20  -3    3.64    1.61
   2  20  -3    5.30    0.44
   2  20  -3    6.72    0.87
  -2  20   3    4.98    0.49
   1 -20  -3    2.55    1.33
   1  20  -3    2.36    0.52
  -1  20   3    1.88    0.30
   1  20  -3    1.84    0.27
   0 -20   3   43.97    5.18
   0 -20  -3   47.30    4.95
   0  20  -3   46.65    2.83
   0  20   3   45.73    2.28
   0  20  -3   49.43    2.24
   1 -20   3    1.37    1.28
  -1 -20  -3    0.36    0.89
  -1  20  -3    0.27    0.16
   1  20   3    0.34    0.18
  -1  20  -3    0.62    0.33
   2 -20   3    7.27    2.19
  -2 -20  -3    5.12    1.88
   2  20   3    6.06    0.50
  -2  20  -3    6.04    0.79
  -2  20  -3    6.02    0.46
   3 -20   3    0.13    1.04
  -3 -20  -3    0.47    1.06
   3  20   3    1.02    0.47
  -3  20  -3    0.96    0.22
   3  20   3    0.38    0.20
  -3  20  -3    0.58    0.33
  -4 -20  -3   45.18    5.24
   4 -20   3   45.81    5.20
   4  20   3   48.23    2.39
  -4  20  -3   49.97    2.31
  -5 -20  -3    0.55    1.12
   5 -20   3    0.04    1.08
  -5  20  -3    0.62    0.20
   5  20   3    0.44    0.23
   6 -20   3   10.04    2.70
  -6 -20  -3    5.30    2.24
   6  20   3    7.50    0.63
   7  20   3    4.17    0.52
   6 -21  -3   11.58    2.61
   6  21  -3    9.62    0.72
  -6  21   3    9.31    0.70
   6  21  -3   13.07    1.45
   5 -21  -3   10.03    2.42
   5  21  -3    9.42    0.69
   5  21  -3    8.83    1.16
  -5  21   3   10.16    0.70
   4 -21  -3    0.90    1.06
   4  21  -3    0.11    0.33
   4  21  -3    0.12    0.17
  -4  21   3   -0.35    0.15
   3 -21  -3   30.68    4.36
   3  21  -3   29.48    1.50
  -3  21   3   27.26    1.50
   3  21  -3   29.85    2.06
   2 -21  -3   16.85    3.18
   2  21  -3   12.01    0.75
   2  21  -3   11.68    1.11
  -2  21   3   11.71    0.78
   1 -21  -3    4.90    1.79
  -1  21   3    3.81    0.44
   1  21  -3    4.20    0.71
   1  21  -3    4.69    0.45
   0 -21   3    5.52    2.21
   0 -21  -3    5.54    1.94
   0  21   3    5.58    0.54
   0  21  -3    5.45    0.45
   0  21  -3    6.05    0.81
   1 -21   3   28.20    4.51
  -1 -21  -3   21.11    3.77
  -1  21  -3   27.12    1.37
  -1  21  -3   28.09    1.84
   1  21   3   25.95    1.41
   2 -21   3    5.16    2.05
  -2 -21  -3    6.47    2.11
  -2  21  -3    6.14    0.48
  -2  21  -3    7.16    0.84
   2  21   3    5.88    0.52
   3 -21   3    2.38    1.50
  -3 -21  -3    3.10    1.70
  -3  21  -3    4.34    0.42
   3  21   3    5.05    0.51
   3  21   3    4.76    0.79
   4 -21   3    1.88    1.46
  -4 -21  -3    1.64    1.40
   4  21   3    0.62    0.45
  -4  21  -3    0.30    0.18
   4  21   3    0.52    0.22
  -5 -21  -3   24.54    4.35
   5 -21   3   23.90    4.20
   5  21   3   23.99    1.37
  -5  21  -3   25.25    1.30
  -6 -21  -3    3.88    2.03
   6 -21   3    4.62    2.01
   6  21   3    4.30    0.52
   5 -22  -3   20.00    3.59
   5  22  -3   15.99    1.01
  -5  22   3   16.84    1.02
   5  22  -3   17.95    1.55
   4 -22  -3   19.66    3.58
   4  22  -3   17.14    1.55
  -4  22   3   18.33    1.08
   4  22  -3   19.15    1.09
   3 -22  -3    6.71    2.16
  -3  22   3    5.77    0.52
   3  22  -3    6.05    0.51
   3  22  -3    5.76    0.89
   2 -22  -3    5.00    1.84
  -2  22   3    5.85    0.50
   2  22  -3    5.01    0.49
   2  22  -3    4.87    0.80
   1 -22  -3   13.58    2.96
   1  22  -3   13.13    1.18
   1  22  -3   12.34    0.78
  -1  22   3   12.88    0.82
   0 -22  -3   23.11    3.93
   0  22  -3   20.52    1.57
   0  22  -3   21.49    1.16
   0  22   3   21.47    1.20
  -1 -22  -3    1.71    1.43
   1 -22   3    1.29    1.37
  -1  22  -3    1.48    0.27
  -1  22  -3    1.68    0.47
   1  22   3    1.32    0.27
   2 -22   3    1.02    1.35
  -2 -22  -3    2.22    1.53
   2  22   3    1.10    0.27
  -2  22  -3    0.45    0.19
   3 -22   3   14.77    3.33
  -3 -22  -3   16.00    3.43
   3  22   3   14.70    0.95
  -3  22  -3   15.83    0.90
   4 -22   3   12.79    3.15
  -4 -22  -3   17.31    3.66
   4  22   3   13.44    0.90
  -4  22  -3   13.99    0.83
   4  22   3   13.66    1.34
  -5 -22  -3    0.31    1.33
   5 -22   3   -0.01    1.32
   5  22   3    0.53    0.24
  -5  22  -3    0.37    0.20
   5  22   3    0.15    0.44
   4 -23  -3    3.75    1.74
   4  23  -3    2.13    0.34
   4  23  -3    1.97    0.60
  -4  23   3    1.19    0.30
   3 -23  -3    9.57    2.59
   3  23  -3    9.92    1.19
  -3  23   3    9.28    0.69
   3  23  -3    8.79    0.66
   2 -23  -3   14.27    3.24
   2  23  -3   18.16    1.08
   2  23  -3   21.59    1.63
  -2  23   3   20.12    1.14
   1 -23  -3    2.24    1.56
   1  23  -3    2.30    0.34
   1  23  -3    2.40    0.57
  -1  23   3    2.76    0.38
   0 -23  -3    3.04    1.58
   0  23  -3    1.60    0.29
   0  23  -3    1.74    0.50
   0  23   3    1.72    0.33
  -1 -23  -3    9.02    2.62
  -1  23  -3    8.59    0.61
   1  23   3    8.89    0.66
   2 -23   3   15.43    3.55
  -2 -23  -3   20.19    3.89
   2  23   3   20.33    1.17
  -2  23  -3   20.27    1.11
   3 -23   3    0.28    1.35
  -3 -23  -3   -0.49    1.07
  -3  23  -3    0.75    0.23
   3  23   3    0.96    0.29
   1 -24  -3   30.20    4.78
   1  24  -3   24.14    1.32
   1  24  -3   22.65    1.81
  -1  24   3   25.90    1.38
   0 -24  -3    5.50    2.12
   0  24  -3    4.01    0.44
   0  24   3    4.37    0.49
   0  24  -3    4.45    0.75
  -1 -24  -3    6.90    2.43
   1  24   3    8.15    0.64
  -1  24  -3    7.97    0.60
  13   0  -4    0.01    0.21
  13   0  -4   -0.01    0.62
  12   0  -4    8.30    1.41
  11   0  -4   -0.15    0.42
  10   0  -4   44.76    3.39
   9   0  -4   -0.22    0.30
   9   0  -4   -0.46    0.30
   8   0  -4   42.21    2.82
   8   0  -4   39.02    2.93
   7   0  -4    0.07    0.25
   7   0  -4    0.06    0.24
   6   0  -4  126.59    7.49
   6   0  -4  124.22    7.97
   5   0  -4   -0.62    0.17
   4   0  -4   53.65    3.31
   4   0  -4   49.84    2.70
   3   0  -4   -0.07    0.18
   3   0  -4    0.00    0.10
   2   0  -4  283.01   13.96
   2   0  -4  282.64   16.18
   1   0  -4   -0.28    0.06
  -1   0   4   -0.13    0.03
   1   0  -4   -0.14    0.09
   0   0  -4   22.38    1.50
   0   0  -4   22.57    1.22
   0   0   4   20.00    0.93
   1   0   4   -0.37    0.03
  -1   0  -4   -0.46    0.12
  -1   0  -4   -0.34    0.14
   1   0   4   -0.21    0.24
  -2   0  -4  276.07   14.10
  -2   0  -4  279.98   16.14
   2   0   4  307.46   17.92
   2   0   4  274.61   12.23
   3   0   4    0.38    0.33
   3   0   4   -0.06    0.08
  -3   0  -4   -0.14    0.17
  -4   0  -4   27.45    1.94
   4   0   4   29.11    1.42
   4   0   4   43.53    2.75
   5   0   4    0.18    0.10
  -5   0  -4   -0.11    0.18
   5   0   4   -0.05    0.30
   6   0   4   61.31    4.70
   6   0   4   65.31    2.90
  -6   0  -4   63.94    3.55
   7   0   4   -0.09    0.44
   7   0   4   -0.05    0.10
  -7   0  -4   -0.19    0.22
  -8   0  -4  121.22    6.37
   8   0   4  115.96    8.23
   8   0   4  117.80    5.29
   9   0   4    0.03    0.12
   9   0   4   -0.45    0.44
  -9   0  -4   -0.11    0.29
  10   0   4    6.75    1.42
 -10   0  -4    6.23    0.96
  10   0   4    7.28    0.53
  11   0   4    0.03    0.66
  11   0   4   -0.04    0.16
  12   0   4   38.93    3.90
  12   0   4   44.20    2.15
  13   0   4    0.95    0.93
  13   0   4    0.02    0.20
  13  -1  -4   36.63    3.19
  13   1  -4   36.88    1.86
  13   1  -4   30.32    3.01
  12  -1  -4    1.37    0.72
  12   1  -4    1.07    0.69
  12   1  -4    1.34    0.29
  11  -1  -4    2.37    0.77
  11   1  -4    1.24    0.63
  10  -1  -4    1.67    0.59
  10   1  -4    1.65    0.60
   9  -1  -4   74.74    5.13
   9  -1  -4   73.57    4.78
   9   1  -4   71.28    5.07
   9   1  -4   78.36    4.76
   8  -1  -4    4.62    0.77
   8  -1  -4    5.14    0.83
   8   1  -4    4.39    0.74
   8   1  -4    3.92    0.71
   7  -1  -4    0.08    0.25
   7  -1  -4    0.00    0.22
   7   1  -4    0.07    0.24
   7   1  -4   -0.02    0.24
   6  -1  -4    4.51    0.74
   6  -1  -4    4.95    0.60
   6   1  -4    4.89    0.73
   6   1  -4    4.47    0.57
   5  -1  -4  249.74   14.21
   5   1  -4  241.58   14.18
   4  -1  -4   13.35    1.15
   4  -1  -4   13.47    0.83
   4   1  -4   14.19    1.18
   4   1  -4   14.43    0.90
   3  -1  -4   26.46    1.83
   3  -1  -4   26.02    1.39
   3   1  -4   25.56    1.44
   3   1  -4   24.61    1.81
   2  -1  -4   -0.22    0.22
   2  -1  -4    0.34    0.10
   2   1  -4   -0.40    0.19
   2   1  -4    0.43    0.12
   1  -1  -4  208.55    9.89
  -1  -1   4  200.10   12.58
   1   1  -4  196.60    9.92
  -1   1   4  193.29    8.61
   0  -1  -4   74.45    3.81
   0  -1  -4   68.62    4.48
   0   1  -4   71.91    4.48
   0   1   4   87.52    5.03
   0   1  -4   75.11    3.83
   0   1   4   73.17    3.24
  -1  -1  -4    2.61    0.34
   1  -1   4    2.25    0.14
  -1  -1  -4    2.17    0.41
   1   1   4    2.55    0.16
  -1   1  -4    2.26    0.40
   1   1   4    3.46    0.63
  -1   1  -4    2.23    0.32
   2  -1   4    1.48    0.14
  -2  -1  -4    1.19    0.36
   2  -1   4    2.31    0.57
  -2  -1  -4    1.81    0.30
   2   1   4    2.12    0.54
   2   1   4    1.75    0.14
  -2   1  -4    0.94    0.31
  -2   1  -4    1.67    0.29
  -3  -1  -4  452.65   25.90
   3  -1   4  461.86   19.75
   3  -1   4  467.74   28.60
   3   1   4  469.08   28.56
  -3   1  -4  446.73   25.82
   3   1   4  449.61   19.77
   4  -1   4    1.00    0.48
   4  -1   4    1.56    0.17
  -4  -1  -4    1.22    0.31
  -4  -1  -4    1.10    0.34
  -4   1  -4    1.11    0.32
  -4   1  -4    0.94    0.25
   4   1   4    1.99    0.61
   4   1   4    0.94    0.14
   5  -1   4   17.11    1.70
   5   1   4   15.90    1.65
  -5   1  -4   16.82    1.16
   5   1   4   15.64    0.82
   6  -1   4    5.20    1.07
  -6  -1  -4    5.83    0.71
   6   1   4    6.90    1.18
  -6   1  -4    5.57    0.71
   6   1   4    5.29    0.39
   7  -1   4   51.89    2.38
  -7  -1  -4   48.28    2.97
   7  -1   4   47.57    3.96
  -7   1  -4   52.65    3.00
   7   1   4   50.58    4.02
   7   1   4   54.47    2.40
   8  -1   4    8.34    1.48
  -8  -1  -4    8.05    0.98
   8  -1   4    7.25    0.52
   8   1   4    7.04    1.37
   8   1   4    7.49    0.54
  -8   1  -4    7.89    0.98
   9  -1   4   11.32    1.76
  -9  -1  -4   12.68    1.11
   9  -1   4    9.13    0.63
   9   1   4    8.88    1.60
  -9   1  -4   10.10    1.02
   9   1   4    9.86    0.65
  10  -1   4    0.61    0.69
  10  -1   4    0.95    0.22
 -10   1  -4    0.69    0.41
  10   1   4    0.94    0.22
  10   1   4    0.79    0.71
  11  -1   4   36.93    1.81
  11  -1   4   33.03    3.36
  11   1   4   36.27    1.82
  11   1   4   30.90    3.27
 -11   1  -4   37.46    2.52
  12  -1   4    1.75    0.96
  12  -1   4    0.89    0.27
  12   1   4    0.81    0.83
  12   1   4    1.33    0.31
  13  -1   4    9.73    0.72
  13  -1   4   10.54    2.06
  13   1   4    8.56    1.87
  13   1   4    8.64    0.69
  13  -2  -4    0.68    0.69
  13   2  -4    0.39    0.24
  13   2  -4   -0.10    0.62
  12  -2  -4    6.54    1.28
  12   2  -4    8.89    1.40
  12   2  -4    8.36    0.64
  11  -2  -4   14.36    1.67
  11   2  -4   17.34    0.98
  11   2  -4   15.47    1.65
  10  -2  -4   51.90    3.94
  10   2  -4   54.80    3.91
   9  -2  -4   -0.03    0.38
   9  -2  -4   -0.32    0.40
   9   2  -4   -0.56    0.27
   9   2  -4    0.03    0.32
   8  -2  -4   40.70    3.06
   8  -2  -4   40.69    2.95
   8   2  -4   45.80    2.92
   8   2  -4   41.51    3.01
   7  -2  -4   25.79    1.89
   7  -2  -4   22.93    1.86
   7   2  -4   23.05    1.81
   7   2  -4   24.77    1.83
   6  -2  -4   46.43    3.07
   6  -2  -4   43.81    3.11
   6   2  -4   47.90    3.05
   6   2  -4   44.89    3.08
   5  -2  -4   -0.38    0.21
   5   2  -4    0.17    0.25
   4  -2  -4   75.39    4.74
   4  -2  -4   78.70    3.89
   4   2  -4   75.96    4.00
   3  -2  -4   20.91    1.13
   3  -2  -4   23.18    1.62
   3   2  -4   20.24    1.23
   2  -2  -4   56.52    3.48
   2  -2  -4   57.25    2.78
   2   2  -4   53.34    2.86
  -2   2   4   52.79    2.41
  -1  -2   4   17.52    1.57
   1  -2  -4   21.05    1.11
   1   2  -4   20.73    1.16
  -1   2   4   20.30    0.92
   0  -2  -4  280.50   16.87
   0  -2   4  270.13   18.41
   0  -2  -4  288.74   14.57
   0   2  -4  280.91   14.61
   0   2   4  363.51   18.50
   0   2   4  291.35   12.73
   1  -2   4    3.33    0.16
  -1  -2  -4    2.12    0.44
  -1  -2  -4    2.80    0.34
   1   2   4    3.60    0.64
   1   2   4    2.83    0.19
  -1   2  -4    2.52    0.34
  -2  -2  -4   81.54    4.75
  -2  -2  -4   74.74    4.03
  -2   2  -4   77.69    4.05
   2   2   4   80.59    5.28
   2   2   4   76.49    3.41
  -3  -2  -4    2.28    0.37
  -3  -2  -4    1.35    0.41
   3   2   4    2.85    0.67
   4  -2   4  231.57   13.58
  -4  -2  -4  199.30   12.06
  -4  -2  -4  207.04   10.55
   4   2   4  218.49   13.48
  -4   2  -4  203.32   11.91
   4   2   4  210.34    9.10
  -4   2  -4  199.45   10.54
   5  -2   4   47.70    3.80
  -5  -2  -4   47.41    3.19
   5   2   4   51.99    3.84
   5   2   4   52.86    2.31
  -5   2  -4   49.85    2.99
  -5   2  -4   52.23    2.85
   6  -2   4   16.99    1.81
   6   2   4   19.46    1.87
   6   2   4   17.71    0.91
  -6   2  -4   15.30    1.22
  -7  -2  -4    1.64    0.44
   7  -2   4    0.64    0.56
  -7   2  -4    0.75    0.36
   7   2   4    0.70    0.17
   7   2   4    1.28    0.67
   8  -2   4  103.92    7.53
  -8  -2  -4  112.24    5.83
   8   2   4  107.22    4.80
  -8   2  -4  107.32    5.78
   8   2   4  101.91    7.49
   9  -2   4   10.35    1.75
  -9  -2  -4   11.72    1.15
   9   2   4   10.60    1.75
   9   2   4   10.91    0.71
  -9   2  -4   12.50    1.12
  10  -2   4    6.13    0.47
  10  -2   4    4.29    1.21
  10   2   4    4.80    1.24
 -10   2  -4    4.88    0.86
  10   2   4    4.81    0.49
  11  -2   4    3.59    0.42
  11  -2   4    3.58    1.14
  11   2   4    4.24    1.22
  11   2   4    3.37    0.43
 -11   2  -4    4.31    0.85
  12  -2   4   35.37    3.66
  12  -2   4   40.33    1.96
  12   2   4   38.37    1.96
  12   2   4   36.29    3.64
  13  -2   4    6.42    1.69
  13  -2   4   10.04    0.71
  13   2   4    6.86    1.71
  13   2   4    8.91    0.70
  13  -3  -4   23.62    2.47
  13   3  -4   23.61    2.41
  13   3  -4   24.56    1.39
  12  -3  -4   16.17    1.83
  12   3  -4   16.07    0.98
  12   3  -4   14.46    1.69
  11  -3  -4    4.93    1.06
  11   3  -4    5.15    0.53
  11   3  -4    4.98    1.00
  10  -3  -4   22.96    2.12
  10   3  -4   22.87    2.06
  10   3  -4   26.25    1.31
   9  -3  -4   67.46    4.56
   9  -3  -4   67.05    4.81
   9   3  -4   71.69    4.45
   9   3  -4   68.40    3.19
   9   3  -4   70.64    4.75
   8  -3  -4   24.18    1.93
   8  -3  -4   21.87    1.84
   8   3  -4   21.80    1.75
   8   3  -4   21.62    1.76
   8   3  -4   21.46    1.14
   7  -3  -4    0.17    0.35
   7  -3  -4    0.29    0.30
   7   3  -4    0.39    0.31
   7   3  -4    0.51    0.29
   6  -3  -4   25.73    1.96
   6  -3  -4   24.72    1.87
   6   3  -4   24.93    1.81
   5  -3  -4  228.22   13.23
   5  -3  -4  225.97   11.25
   4  -3  -4  109.90    5.38
   4  -3  -4  109.52    6.54
   4   3  -4  104.29    5.55
   3  -3  -4   11.79    1.10
   3  -3  -4   12.85    0.68
   3   3  -4   13.33    0.84
   3   3  -4   11.68    0.60
   2  -3  -4   49.45    2.34
   2  -3  -4   47.47    3.04
   2   3  -4   46.06    2.03
  -2   3   4   43.45    2.05
   2   3  -4   45.16    2.46
   1  -3  -4  489.73   23.16
  -1  -3   4  470.89   29.15
   1   3  -4  480.92   23.25
   1   3  -4  468.20   20.30
  -1   3   4  448.90   20.36
   0  -3   4    1.29    0.41
   0  -3  -4   -0.01    0.18
   0  -3  -4    1.67    0.23
   0   3   4    2.48    0.14
   0   3  -4    1.75    0.26
   0   3   4    2.28    0.47
  -1  -3  -4   13.49    1.20
  -1  -3  -4   13.50    0.86
  -1   3  -4   13.38    0.89
   1   3   4   13.85    0.67
   1   3   4   16.88    1.32
  -2  -3  -4   39.17    2.56
   2  -3   4   36.06    2.87
  -2  -3  -4   37.15    2.06
   2   3   4   36.92    1.69
   2   3   4   39.12    2.79
  -3  -3  -4  532.69   27.26
  -3  -3  -4  546.78   31.33
   3   3   4  558.40   23.86
   3   3   4  572.19   34.27
  -4  -3  -4   65.88    3.60
  -4  -3  -4   66.90    4.23
   4   3   4   65.86    4.73
  -4   3  -4   67.77    3.61
   4   3   4   68.23    3.00
  -5  -3  -4    5.55    0.66
  -5  -3  -4    5.23    0.82
   5  -3   4    6.64    1.15
   5   3   4    5.41    0.38
  -5   3  -4    5.67    0.67
   5   3   4    6.39    1.08
   6  -3   4   60.53    4.53
   6   3   4   62.04    2.76
  -6   3  -4   61.45    3.37
   6   3   4   55.40    4.43
   7  -3   4   45.00    3.83
   7   3   4   51.99    3.91
   7   3   4   48.82    2.29
  -7   3  -4   49.61    2.86
   8  -3   4    6.01    1.29
  -8  -3  -4    8.66    1.04
   8   3   4    6.15    1.29
   8   3   4    7.93    0.55
  -8   3  -4    9.10    0.90
   9  -3   4   17.53    2.10
   9   3   4   18.79    1.05
  -9   3  -4   21.08    1.52
   9   3   4   17.92    2.08
  10  -3   4   28.67    2.93
 -10   3  -4   30.76    2.11
  10   3   4   29.45    1.54
  10   3   4   29.13    2.88
  11  -3   4   32.90    3.43
  11  -3   4   38.12    1.86
  11   3   4   33.26    3.39
 -11   3  -4   37.45    2.53
  11   3   4   38.75    1.89
  12  -3   4    1.79    0.32
  12  -3   4    2.61    1.10
  12   3   4    1.67    0.34
  12   3   4    2.10    1.01
 -12   3  -4    2.35    0.71
  13  -3   4    9.33    0.72
  13  -3   4    9.49    2.02
  13   3   4    9.34    1.93
  13   3   4    9.70    0.74
  13  -4  -4    1.78    0.91
  13   4  -4    1.68    0.36
  12  -4  -4    3.10    0.95
  12   4  -4    2.84    0.40
  12   4  -4    2.02    0.78
  11  -4  -4   46.22    3.72
  11   4  -4   49.34    2.35
  11   4  -4   46.86    3.61
  10  -4  -4   19.60    1.89
  10   4  -4   20.77    1.81
  10   4  -4   18.69    1.09
   9  -4  -4    0.12    0.38
   9  -4  -4    0.07    0.52
   9   4  -4    0.53    0.37
   9   4  -4    0.09    0.34
   9   4  -4    0.42    0.18
   8  -4  -4   43.81    3.11
   8  -4  -4   41.16    3.12
   8   4  -4   44.99    3.04
   8   4  -4   41.21    2.93
   8   4  -4   41.83    2.03
   7  -4  -4   88.76    5.64
   7  -4  -4   85.45    5.87
   7   4  -4   89.78    5.78
   7   4  -4   91.83    4.01
   6  -4  -4  114.94    7.14
   6  -4  -4  108.88    6.81
   6   4  -4  109.74    7.03
   6   4  -4  109.24    4.90
   5  -4  -4    0.43    0.37
   5  -4  -4    0.38    0.11
   5  -4  -4    0.23    0.19
   5   4  -4    0.55    0.23
   5   4  -4    0.12    0.09
   4  -4  -4   21.06    1.05
   4  -4  -4   22.36    1.70
   4   4  -4   18.25    1.25
   4   4  -4   19.52    0.97
   3  -4  -4  437.64   24.12
   3   4  -4  405.59   20.85
  -3   4   4  414.17   18.18
   3   4  -4  429.22   18.19
   2  -4  -4   87.27    4.93
   2  -4  -4   74.68    3.85
   2   4  -4   76.05    3.39
   2   4  -4   76.88    4.03
   1  -4  -4   39.24    2.05
  -1  -4   4   39.68    2.84
  -1   4   4   40.79    1.79
   1   4  -4   40.51    2.17
   1   4  -4   39.88    1.75
   0  -4   4   84.33    6.06
   0  -4  -4   88.94    4.63
   0   4  -4   94.15    3.97
   0   4   4   95.90    4.03
   0   4  -4   95.63    4.73
  -1  -4  -4  244.72   13.21
   1   4   4  264.15   11.53
   1   4   4  294.26   16.74
   2  -4   4   67.66    4.66
  -2  -4  -4   63.03    3.43
  -2  -4  -4   68.79    4.24
   2   4   4   74.75    4.54
  -2   4  -4   57.71    3.45
   3  -4   4    8.64    1.27
  -3  -4  -4    7.12    1.02
  -3  -4  -4    8.36    0.67
   3   4   4    8.89    1.02
   3   4   4    8.37    0.47
  -3   4  -4    8.37    0.69
   4  -4   4   28.28    2.37
  -4  -4  -4   26.89    2.12
  -4  -4  -4   27.23    1.65
  -4   4  -4   27.16    1.65
   4   4   4   26.55    1.29
   4   4   4   27.73    2.27
  -5  -4  -4   82.54    4.49
  -5  -4  -4   79.81    5.29
   5   4   4   88.13    5.88
   5   4   4   86.54    3.76
  -5   4  -4   82.25    4.47
  -6  -4  -4   16.04    1.43
   6   4   4   14.75    0.81
   6   4   4   14.70    1.62
  -6   4  -4   14.12    1.12
  -7  -4  -4    3.00    0.59
   7  -4   4    5.69    1.21
   7   4   4    4.64    1.07
   7   4   4    5.55    0.42
  -7   4  -4    5.26    0.71
   8  -4   4   57.85    4.76
  -8   4  -4   64.47    3.59
   8   4   4   60.73    4.76
   8   4   4   63.59    2.90
   9  -4   4   38.18    3.41
   9   4   4   37.22    3.36
  -9   4  -4   38.39    2.45
   9   4   4   37.98    1.89
  10  -4   4    2.16    0.96
  10   4   4    3.10    1.03
 -10   4  -4    2.58    0.65
  10   4   4    3.44    0.42
  11  -4   4    8.25    1.77
  11   4   4    9.90    0.73
  11   4   4   10.82    1.86
 -11   4  -4   12.33    1.21
  12  -4   4   10.19    0.73
  12  -4   4    9.85    1.99
  12   4   4   11.12    0.77
  12   4   4   10.32    1.93
 -12   4  -4   10.06    1.34
  13  -5  -4    5.99    1.38
  13   5  -4    5.80    0.61
  12  -5  -4   29.68    2.83
  12   5  -4   32.10    1.67
  11  -5  -4    0.08    0.51
  11   5  -4    0.12    0.47
  11   5  -4   -0.30    0.17
  10  -5  -4   30.91    2.65
  10   5  -4   32.87    2.54
  10   5  -4   31.28    1.63
   9  -5  -4    2.09    0.81
   9  -5  -4    3.28    0.77
   9   5  -4    3.61    0.71
   9   5  -4    4.05    0.41
   8  -5  -4  125.06    8.23
   8  -5  -4  127.76    7.84
   8   5  -4  123.18    5.61
   8   5  -4  127.48    8.09
   7  -5  -4    0.11    0.23
   7  -5  -4    1.42    0.63
   7   5  -4    1.50    0.40
   7   5  -4    1.57    0.23
   6  -5  -4   92.17    5.68
   6   5  -4   85.36    3.97
   6   5  -4   90.49    5.70
   5  -5  -4   20.22    1.06
   5  -5  -4   19.80    1.54
   5  -5  -4   18.89    1.71
   5   5  -4   20.41    1.35
   5   5  -4   20.62    1.00
   4  -5  -4   22.22    1.84
   4   5  -4   22.09    1.40
  -4   5   4   22.61    1.07
   4   5  -4   21.76    1.06
   3  -5  -4    6.46    0.95
   3   5  -4    6.23    0.55
   3   5  -4    5.41    0.35
  -3   5   4    6.82    0.38
   2  -5  -4  414.06   22.28
   2   5  -4  379.59   16.66
  -2   5   4  363.71   16.69
   2   5  -4  394.29   19.17
   1  -5  -4   47.39    2.38
  -1  -5   4   38.58    3.20
   1   5  -4   50.37    2.54
   1   5  -4   49.17    2.05
   0  -5  -4  121.98    5.79
   0  -5   4   87.77    7.43
   0  -5  -4  123.22    7.11
   0   5  -4  120.29    4.99
   0   5  -4  123.34    5.90
   1  -5   4    5.63    1.05
  -1  -5  -4    8.85    1.17
  -1  -5  -4    9.49    0.64
   1   5   4   12.58    1.05
  -1   5  -4    9.26    0.44
   2  -5   4  275.06   17.72
  -2  -5  -4  260.00   13.89
   2   5   4  314.98   17.57
   2   5   4  272.58   12.10
  -2   5  -4  278.22   13.94
   3  -5   4   74.20    5.16
  -3  -5  -4   71.97    3.84
   3   5   4   73.21    3.24
  -3   5  -4   75.40    3.86
   3   5   4   68.89    4.94
  -4  -5  -4   13.83    1.45
   4  -5   4   14.81    1.54
  -4  -5  -4   14.27    1.02
  -4   5  -4   14.86    1.03
   4   5   4   12.72    1.38
   4   5   4   14.81    0.75
  -5  -5  -4    3.13    0.81
  -5  -5  -4    4.14    0.59
   5  -5   4    4.03    0.91
   5   5   4    4.16    0.88
   5   5   4    3.46    0.31
  -5   5  -4    3.54    0.54
  -6  -5  -4   94.84    6.26
  -6   5  -4  101.94    5.25
   6   5   4   94.95    6.79
   6   5   4  100.74    4.42
   7  -5   4   12.13    1.79
  -7   5  -4   13.12    1.09
   7   5   4   11.37    1.50
   7   5   4   14.40    0.79
   8  -5   4    9.97    1.66
   8   5   4    9.59    1.61
   8   5   4   10.58    0.68
  -8   5  -4   11.31    1.02
   9  -5   4    9.92    1.73
   9   5   4    8.18    0.62
   9   5   4    8.40    1.51
  -9   5  -4    9.92    1.09
  10  -5   4   74.96    5.99
 -10   5  -4   84.69    4.51
  10   5   4   79.02    3.64
  10   5   4   70.02    5.83
  11  -5   4    5.22    1.42
  11   5   4    5.76    0.56
 -11   5  -4    5.45    0.92
  11   5   4    4.89    1.31
  12  -5   4    1.68    1.01
  12   5   4    2.10    0.36
 -12   5  -4    1.32    0.57
  12   5   4    2.16    1.02
  13  -6  -4    2.30    1.00
  13   6  -4    2.23    0.39
  12  -6  -4    0.15    0.58
  12   6  -4    0.16    0.21
  11  -6  -4   72.68    5.29
  11   6  -4   71.21    3.38
  10  -6  -4    4.61    0.96
  10   6  -4    4.24    0.46
  10   6  -4    4.89    0.88
   9  -6  -4    0.60    0.46
   9  -6  -4    0.59    0.68
   9   6  -4    0.43    0.19
   9   6  -4    0.81    0.40
   8  -6  -4    0.49    0.64
   8  -6  -4    0.24    0.32
   8   6  -4   -0.12    0.14
   8   6  -4    0.25    0.32
   7  -6  -4  296.70   18.03
   7   6  -4  311.93   13.41
   7   6  -4  314.25   19.12
   6  -6  -4   -0.03    0.08
   6  -6  -4    0.05    0.48
   6   6  -4    0.16    0.12
   6   6  -4    0.32    0.22
   5  -6  -4    0.87    0.31
   5  -6  -4    0.33    0.45
   5   6  -4    0.61    0.25
   5   6  -4    0.56    0.13
   4  -6  -4    0.03    0.38
  -4   6   4    0.48    0.11
   4   6  -4    0.56    0.21
   4   6  -4    0.44    0.10
   3  -6  -4  152.05    8.78
   3   6  -4  140.43    7.33
  -3   6   4  139.08    6.27
   3   6  -4  144.65    6.25
   2  -6  -4    0.83    0.50
  -2   6   4    0.81    0.12
   2   6  -4    0.58    0.19
   2   6  -4    0.65    0.09
  -1  -6   4   23.17    1.84
  -1   6   4   23.13    1.09
   1   6  -4   24.07    1.39
   1   6  -4   22.71    1.05
   0  -6  -4    7.51    1.10
   0  -6   4    2.56    0.70
   0   6   4    8.81    0.42
   0   6  -4    7.53    0.35
  -1  -6  -4  232.38   11.43
   1  -6   4  208.44   14.59
  -1  -6  -4  230.78   13.60
  -1   6  -4  229.41   11.49
  -1   6  -4  232.17    9.91
   1   6   4  242.88    9.98
   2  -6   4    8.55    1.11
  -2  -6  -4    8.61    0.67
  -2  -6  -4    8.50    1.25
   2   6   4    8.83    0.94
   2   6   4    9.42    0.50
  -2   6  -4    8.46    0.68
   3  -6   4   75.88    5.32
  -3  -6  -4   78.75    5.05
  -3  -6  -4   76.03    3.98
   3   6   4   72.21    3.35
  -3   6  -4   78.05    4.00
   3   6   4   72.31    5.08
  -4  -6  -4    1.56    0.66
   4  -6   4    1.68    0.66
   4   6   4    1.17    0.52
   4   6   4    2.50    0.25
  -4   6  -4    2.23    0.41
   5  -6   4  229.70   15.48
   5   6   4  248.54   10.50
   5   6   4  237.86   15.37
  -5   6  -4  244.80   12.15
  -6  -6  -4   21.47    2.11
   6   6   4   23.85    2.19
   6   6   4   24.92    1.23
  -6   6  -4   23.63    1.57
   7  -6   4    9.95    1.68
  -7   6  -4   14.61    1.13
   7   6   4   13.76    1.64
   7   6   4   13.75    0.80
   8  -6   4    2.33    0.90
   8   6   4    4.90    0.43
   8   6   4    4.75    1.14
  -8   6  -4    5.59    0.76
   9  -6   4   83.24    6.30
   9   6   4   87.85    3.90
  -9   6  -4   82.20    4.69
   9   6   4   80.95    6.19
  10  -6   4    0.35    0.63
  10   6   4    0.18    0.21
 -10   6  -4    0.50    0.42
  10   6   4    0.37    0.67
  11  -6   4   16.59    2.50
 -11   6  -4   21.68    1.60
  11   6   4   15.56    1.03
  11   6   4   15.42    2.34
  12  -6   4    1.57    0.98
 -12   6  -4    0.90    0.51
  12   6   4    0.94    0.27
  13  -7  -4    0.65    0.75
  13   7  -4    0.40    0.25
  12  -7  -4   43.62    3.68
  12   7  -4   43.49    2.21
  11  -7  -4    2.18    0.79
  11   7  -4    1.80    0.34
  10  -7  -4   36.66    3.04
  10   7  -4   38.34    1.90
   9  -7  -4    6.17    1.04
   9  -7  -4    6.64    1.33
   9   7  -4    6.20    0.50
   9   7  -4    7.01    0.95
   8  -7  -4   79.47    5.30
   8  -7  -4   73.27    5.24
   8   7  -4   76.51    3.51
   8   7  -4   77.90    5.07
   7  -7  -4    0.17    0.66
   7  -7  -4   -0.09    0.29
   7   7  -4    0.28    0.27
   7   7  -4   -0.06    0.15
   6  -7  -4   64.11    4.53
   6  -7  -4   64.88    4.42
   6   7  -4   68.41    4.26
   6   7  -4   64.18    2.98
   5  -7  -4    5.33    0.64
   5  -7  -4    4.66    0.99
   5   7  -4    6.30    0.75
  -5   7   4    5.28    0.37
   5   7  -4    5.15    0.36
   4  -7  -4   58.89    4.14
   4   7  -4   62.47    3.31
  -4   7   4   58.84    2.70
   4   7  -4   59.11    2.68
   3  -7  -4    1.56    0.65
  -3   7   4    1.03    0.16
   3   7  -4    1.08    0.14
   3   7  -4    1.49    0.32
   2  -7  -4  194.54   11.36
  -2   7   4  178.79    8.18
   2   7  -4  188.10    8.15
   2   7  -4  193.23    9.50
  -1  -7   4   25.67    2.25
   1   7  -4   31.51    1.38
  -1   7   4   32.94    1.43
   0  -7  -4   47.08    3.38
   0   7   4   46.62    2.07
   0   7  -4   44.31    2.01
   0   7  -4   45.74    2.49
  -1  -7  -4    0.22    0.51
   1  -7   4    0.07    0.32
  -1   7  -4    0.34    0.07
  -1   7  -4    0.03    0.13
   1   7   4    0.13    0.08
   2  -7   4   83.93    5.98
  -2  -7  -4   84.56    5.72
   2   7   4  103.51    5.81
  -2   7  -4   82.01    3.79
   2   7   4   85.30    3.85
  -2   7  -4   83.90    4.53
   3  -7   4    0.33    0.39
  -3  -7  -4    0.07    0.55
  -3   7  -4    0.59    0.25
   3   7   4    0.72    0.14
   3   7   4    0.14    0.32
  -4  -7  -4   41.22    3.14
   4  -7   4   37.55    3.07
   4   7   4   39.76    1.80
   4   7   4   33.80    2.83
  -4   7  -4   39.33    2.22
   5  -7   4   19.82    1.87
  -5  -7  -4   19.16    1.93
   5   7   4   17.66    0.90
  -5   7  -4   16.94    1.20
   5   7   4   12.39    1.52
  -6  -7  -4  122.34    8.20
   6  -7   4  131.12    8.73
   6   7   4  122.37    8.53
  -6   7  -4  130.86    6.68
   6   7   4  130.15    5.69
   7  -7   4   -0.25    0.50
  -7   7  -4    0.35    0.31
   7   7   4   -0.05    0.49
   7   7   4    0.55    0.18
   8  -7   4   22.52    2.49
  -8   7  -4   27.78    1.80
   8   7   4   26.84    1.38
   8   7   4   25.37    2.50
   9  -7   4    1.55    0.86
   9   7   4    1.11    0.27
  -9   7  -4    1.49    0.50
   9   7   4    1.58    0.86
  10  -7   4   58.54    5.19
  10   7   4   68.33    3.13
 -10   7  -4   68.89    3.88
  10   7   4   62.49    5.11
  11  -7   4    0.26    0.65
 -11   7  -4   -0.10    0.35
  11   7   4    0.04    0.19
  12  -7   4    6.05    1.60
 -12   7  -4    7.11    1.05
  12   7   4    5.64    0.61
  12  -8  -4    1.74    0.85
  12   8  -4    2.04    0.36
  11  -8  -4   40.48    3.44
  11   8  -4   42.98    2.13
  10  -8  -4   10.07    1.47
  10   8  -4    9.65    0.69
   9  -8  -4    2.67    0.95
   9  -8  -4    2.23    0.66
   9   8  -4    2.08    0.32
   8  -8  -4    4.30    0.83
   8  -8  -4    3.48    1.07
   8   8  -4    4.06    0.65
   8   8  -4    3.63    0.39
   7  -8  -4   93.38    6.36
   7  -8  -4   96.07    6.37
   7   8  -4   97.66    4.32
   7   8  -4   94.83    6.14
   6  -8  -4    5.02    1.14
   6  -8  -4    5.96    0.76
   6   8  -4    6.24    0.61
   6   8  -4    5.58    0.75
   6   8  -4    5.45    0.42
   5  -8  -4    0.97    0.67
   5  -8  -4    0.70    0.30
  -5   8   4    0.52    0.14
   5   8  -4    0.49    0.27
   5   8  -4    0.89    0.16
   4  -8  -4   24.88    2.29
   4  -8  -4   26.73    1.86
   4   8  -4   26.07    1.63
  -4   8   4   24.31    1.22
   4   8  -4   24.84    1.21
   3  -8  -4  188.32   11.30
   3   8  -4  186.07    8.05
   3   8  -4  184.89    9.42
  -3   8   4  182.27    8.08
   2  -8  -4   74.33    4.78
  -2   8   4   67.15    3.03
   2   8  -4   67.17    3.64
   2   8  -4   66.56    3.00
  -1  -8   4    1.51    0.48
   1  -8  -4   -0.10    0.19
   1   8  -4    1.56    0.14
  -1   8   4    1.60    0.17
   1   8  -4    1.57    0.29
   0  -8  -4   27.34    2.40
   0   8   4   26.95    1.23
   0   8  -4   23.46    1.17
   0   8  -4   28.20    1.56
   1  -8   4   64.18    4.83
  -1  -8  -4   69.64    4.82
  -1   8  -4   70.91    3.03
   1   8   4   67.97    3.08
  -1   8  -4   70.68    3.66
   2  -8   4   12.37    1.47
  -2  -8  -4   13.59    1.85
   2   8   4   14.21    0.76
  -2   8  -4   15.77    0.71
  -2   8  -4   15.31    1.01
  -3  -8  -4   19.29    2.15
   3  -8   4   25.26    2.10
   3   8   4   21.13    1.07
   3   8   4   23.04    1.79
  -3   8  -4   19.94    1.35
  -4  -8  -4   67.74    4.86
   4  -8   4   71.33    4.93
   4   8   4   65.98    3.04
   4   8   4   57.88    4.55
  -4   8  -4   73.77    3.66
  -5  -8  -4  103.42    7.12
   5  -8   4  108.73    7.38
  -5   8  -4  118.93    5.64
   5   8   4   80.64    6.99
   5   8   4  119.33    4.78
  -6  -8  -4    1.20    0.79
   6  -8   4    1.61    0.70
  -6   8  -4    2.48    0.49
   6   8   4    2.01    0.27
   6   8   4    1.84    0.66
   7  -8   4    1.27    0.76
  -7   8  -4    2.20    0.48
   7   8   4    2.03    0.30
   7   8   4    1.88    0.76
   8  -8   4   17.20    2.04
   8   8   4   16.57    1.93
  -8   8  -4   19.85    1.41
   8   8   4   17.73    1.03
   9  -8   4   26.12    2.73
   9   8   4   27.96    1.47
  -9   8  -4   27.07    1.89
  10  -8   4    2.74    1.10
  10   8   4    3.40    0.45
 -10   8  -4    3.75    0.72
  11  -8   4    2.19    1.08
  11   8   4    3.39    0.46
 -11   8  -4    4.07    0.77
  12  -8   4    8.28    1.88
  12   8   4   10.29    0.78
  12  -9  -4   14.92    1.88
  12   9  -4   14.62    0.97
  11  -9  -4    3.68    0.99
  11   9  -4    2.58    0.39
  10  -9  -4   15.74    1.75
  10   9  -4   17.27    1.01
   9  -9  -4   31.36    2.58
   9  -9  -4   30.81    2.89
   9   9  -4   29.87    1.57
   8  -9  -4   16.74    1.57
   8  -9  -4   14.44    2.05
   8   9  -4   15.46    0.90
   7  -9  -4    1.85    0.92
   7  -9  -4    1.03    0.43
   7   9  -4    1.01    0.22
   6  -9  -4   51.94    4.06
   6  -9  -4   50.64    3.70
   6   9  -4   54.43    3.50
   6   9  -4   54.12    3.16
   6   9  -4   55.60    2.49
   5  -9  -4   78.16    5.52
   5  -9  -4   79.84    5.28
   5   9  -4   83.36    3.61
   5   9  -4   82.90    4.42
  -5   9   4   76.62    3.61
   4  -9  -4   17.32    1.84
   4  -9  -4   12.98    1.12
  -4   9   4   12.99    0.72
   4   9  -4   12.98    0.71
   4   9  -4   14.57    1.06
   3  -9  -4    6.61    1.27
  -3   9   4    4.69    0.36
   3   9  -4    5.83    0.59
   3   9  -4    5.85    0.36
   2  -9  -4   23.28    2.26
  -2   9   4   24.08    1.11
  -2   9   4   21.11    1.19
   2   9  -4   23.24    1.07
  -1  -9   4   24.50    2.12
   1   9  -4   27.83    1.29
  -1   9   4   29.00    1.34
   1   9  -4   31.74    1.72
   0  -9  -4   20.83    2.09
   0   9  -4   19.94    1.19
   0   9   4   17.43    0.90
   0   9  -4   17.23    0.85
  -1  -9  -4    1.44    0.83
   1  -9   4    1.97    0.64
   1   9   4    2.16    0.23
  -1   9  -4    2.85    0.41
  -1   9  -4    2.16    0.18
  -2  -9  -4   78.64    5.53
   2  -9   4   78.56    5.52
  -2   9  -4   78.54    3.44
  -2   9  -4   80.86    4.15
   2   9   4   75.47    3.50
  -3  -9  -4   64.41    4.71
   3  -9   4   58.70    4.55
   3   9   4   61.28    2.85
  -3   9  -4   58.05    3.38
   3   9   4   72.52    4.34
  -4  -9  -4    9.05    1.62
   4  -9   4   10.44    1.49
  -4   9  -4   10.07    0.81
   4   9   4    8.77    0.56
   4   9   4    8.56    1.03
   5  -9   4   11.78    1.48
  -5  -9  -4   12.63    1.95
  -5   9  -4   12.87    1.00
   5   9   4   10.13    1.23
   5   9   4   13.05    0.72
   6  -9   4   36.75    3.17
  -6  -9  -4   35.65    3.32
  -6   9  -4   38.72    2.27
   6   9   4   41.43    1.84
   6   9   4   31.00    2.88
   7  -9   4  101.70    7.40
   7   9   4  116.51    4.77
   7   9   4   85.54    7.07
  -7   9  -4  111.40    5.62
   8  -9   4    8.82    1.58
  -8   9  -4    8.11    0.95
   8   9   4    7.51    0.59
   9  -9   4    2.11    0.96
   9   9   4    2.45    0.37
  -9   9  -4    1.96    0.52
  10  -9   4   20.31    2.43
  10   9   4   19.89    1.19
 -10   9  -4   21.90    1.64
  11  -9   4   18.13    2.30
  11   9   4   15.96    1.06
 -11   9  -4   18.06    1.49
  12  -9   4    3.81    1.32
  12   9   4    3.28    0.48
  12 -10  -4    8.47    1.59
  12  10  -4    8.50    0.70
  11 -10  -4   22.48    2.37
  11  10  -4   25.84    1.40
  10 -10  -4   31.71    2.79
  10  10  -4   32.48    1.69
   9 -10  -4    0.26    0.40
   9 -10  -4   -0.33    0.72
   9  10  -4    0.12    0.17
   8 -10  -4   15.13    1.46
   8 -10  -4   13.67    2.05
   8  10  -4   12.57    0.81
   7 -10  -4   32.79    3.14
   7 -10  -4   37.96    2.77
   7  10  -4   36.24    2.35
   7  10  -4   35.69    1.76
   6 -10  -4   34.44    3.23
   6 -10  -4   36.19    2.74
  -6  10   4   38.83    1.81
   6  10  -4   36.91    2.36
   6  10  -4   38.70    1.81
   5 -10  -4    0.63    0.32
   5 -10  -4    1.02    0.83
   5  10  -4    0.23    0.24
  -5  10   4    0.41    0.15
   5  10  -4    0.57    0.15
   5  10  -4    0.51    0.19
   4 -10  -4   35.03    3.05
   4 -10  -4   33.80    2.41
   4  10  -4   33.69    1.61
  -4  10   4   34.49    1.63
   3 -10  -4   34.63    3.15
   3 -10  -4   38.42    2.57
  -3  10   4   38.35    1.75
   3  10  -4   36.02    1.72
   2 -10  -4   31.87    2.83
   2  10  -4   32.25    1.86
  -2  10   4   28.62    1.58
   2  10  -4   30.04    1.41
  -2  10   4   31.20    1.45
   1 -10  -4    0.08    0.28
  -1  10   4    0.68    0.14
   1  10  -4    0.87    0.25
   1  10  -4    0.91    0.13
   0 -10  -4   55.43    4.14
   0  10  -4   50.50    2.31
   0  10  -4   54.27    2.87
   0  10   4   50.67    2.37
   1 -10   4   67.44    5.13
  -1 -10  -4   73.63    5.34
  -1  10  -4   76.04    3.24
  -1  10  -4   73.70    3.92
   1  10   4   74.63    3.30
   2 -10   4   31.27    2.63
  -2 -10  -4   29.67    2.91
  -2  10  -4   31.68    1.43
  -2  10  -4   32.08    1.85
   2  10   4   29.62    1.48
   3 -10   4    8.65    1.33
  -3 -10  -4    5.94    1.46
   3  10   4    7.42    0.48
  -3  10  -4    7.00    0.67
  -3  10  -4    7.49    0.42
  -4 -10  -4   78.09    5.76
   4 -10   4   72.23    5.57
   4  10   4   87.50    5.34
  -4  10  -4   76.49    4.21
   4  10   4   77.94    3.56
   5 -10   4   42.87    3.53
  -5 -10  -4   46.85    3.89
   5  10   4   44.16    3.25
  -5  10  -4   43.87    2.55
   5  10   4   43.63    2.09
  -6 -10  -4    0.71    0.74
   6 -10   4    1.42    0.73
   6  10   4    1.14    0.22
  -6  10  -4    0.42    0.31
   7 -10   4    0.29    0.62
   7  10   4    0.19    0.17
  -7  10  -4    0.44    0.34
   8 -10   4   25.53    2.71
  -8  10  -4   29.62    1.94
   8  10   4   30.04    1.53
   9 -10   4    9.80    1.77
  -9  10  -4   11.49    1.10
   9  10   4   12.26    0.81
  10 -10   4    1.20    0.81
 -10  10  -4    2.97    0.65
  10  10   4    3.10    0.42
  11 -10   4    1.26    0.93
  11  10   4    1.63    0.35
  12 -11  -4    9.03    1.66
  12  11  -4    9.31    0.74
  11 -11  -4    1.99    0.87
  11  11  -4    2.77    0.42
  10 -11  -4    2.02    0.77
  10  11  -4    1.68    0.32
   9 -11  -4   31.07    3.11
   9 -11  -4   29.94    2.61
   9  11  -4   31.02    1.60
   8 -11  -4    3.48    1.28
   8 -11  -4    4.66    0.92
   8  11  -4    5.63    0.87
   8  11  -4    4.87    0.44
   7 -11  -4    1.12    0.48
   7 -11  -4    1.10    0.88
   7  11  -4    0.84    0.39
   7  11  -4    1.00    0.21
   6 -11  -4   33.06    2.95
   6 -11  -4   27.61    2.21
   6  11  -4   27.05    1.41
   6  11  -4   27.27    1.92
  -6  11   4   29.97    1.43
   5 -11  -4   99.80    6.44
   5 -11  -4   95.81    6.79
   5  11  -4   98.46    4.41
  -5  11   4  100.68    4.42
   5  11  -4   96.02    5.34
   4 -11  -4   36.62    2.53
   4 -11  -4   35.27    3.22
   4  11  -4   35.09    1.68
  -4  11   4   35.20    1.70
   3 -11  -4    1.51    0.97
   3 -11  -4    3.02    0.48
  -3  11   4    2.05    0.25
   3  11  -4    2.18    0.23
   2 -11  -4    5.64    1.37
  -2  11   4    5.84    0.38
   2  11  -4    5.29    0.35
   2  11  -4    4.95    0.62
  -2  11   4    5.09    0.38
  -1 -11   4   64.82    5.17
   1  11  -4   82.34    4.20
  -1  11   4   84.51    3.52
   1  11  -4   80.10    3.46
   0 -11   4    0.97    0.49
   0 -11  -4    2.86    1.12
   0  11   4    2.26    0.24
   0  11  -4    2.24    0.39
   0  11  -4    2.05    0.20
  -1 -11  -4    0.13    0.72
   1 -11   4    0.33    0.44
   1  11   4    0.31    0.12
  -1  11  -4    0.33    0.09
  -1  11  -4    0.30    0.20
   2 -11   4   24.60    2.25
  -2 -11  -4   25.58    2.74
   2  11   4   25.56    1.25
  -2  11  -4   25.46    1.18
  -2  11  -4   23.68    1.54
   3 -11   4   58.43    4.34
  -3 -11  -4   57.96    4.66
  -3  11  -4   58.38    2.59
  -3  11  -4   56.77    3.17
   3  11   4   56.69    2.65
   4 -11   4    2.72    0.83
  -4 -11  -4    2.23    1.04
   4  11   4    2.92    0.64
   4  11   4    2.68    0.31
  -4  11  -4    2.40    0.45
   5 -11   4    5.55    1.15
  -5 -11  -4    3.89    1.33
  -5  11  -4    4.31    0.63
   5  11   4    4.64    0.40
   6 -11   4   31.70    2.97
  -6 -11  -4   34.45    3.42
  -6  11  -4   34.65    2.11
   6  11   4   34.62    1.71
   7 -11   4   66.09    5.19
  -7  11  -4   68.87    3.81
   7  11   4   68.43    3.19
   8 -11   4    6.15    1.38
  -8  11  -4    6.26    0.86
   8  11   4    5.97    0.53
   9 -11   4    7.98    1.63
   9  11   4    8.62    0.67
  -9  11  -4    9.85    0.99
  10 -11   4    3.49    1.22
  10  11   4    3.81    0.48
 -10  11  -4    3.78    0.73
  11 -11   4   13.00    2.26
  11  11   4   12.94    0.91
  11 -12  -4    2.55    0.96
  11  12  -4    4.59    0.52
  10 -12  -4   25.98    2.49
  10  12  -4   27.42    1.48
   9 -12  -4   -0.43    0.82
   9 -12  -4   -0.14    0.42
   9  12  -4   -0.11    0.32
   9  12  -4   -0.06    0.16
   8 -12  -4   13.09    2.13
   8 -12  -4    9.78    1.25
   8  12  -4   11.95    1.16
   8  12  -4   11.36    0.73
   7 -12  -4   10.09    1.94
   7 -12  -4    9.72    1.14
   7  12  -4   11.24    1.09
   7  12  -4   10.91    0.69
   6 -12  -4   50.46    3.65
   6 -12  -4   47.62    4.20
   6  12  -4   53.92    3.14
   6  12  -4   51.46    2.42
  -6  12   4   52.59    2.43
   5 -12  -4    2.57    1.17
   5 -12  -4    2.93    0.61
   5  12  -4    2.90    0.57
   5  12  -4    3.43    0.34
  -5  12   4    3.72    0.33
   4 -12  -4   68.42    5.20
   4 -12  -4   67.38    4.50
   4  12  -4   67.43    3.06
   4  12  -4   64.30    3.79
  -4  12   4   69.78    3.09
   3 -12  -4    6.43    0.71
   3 -12  -4    6.72    1.57
  -3  12   4    7.49    0.48
   3  12  -4    7.37    0.45
   2 -12  -4   97.26    6.83
   2 -12  -4   97.46    6.13
   2  12  -4   96.99    5.12
   2  12  -4   91.57    4.24
  -2  12   4   97.86    4.29
   1 -12  -4    0.03    0.35
  -1 -12   4    1.62    0.56
   1  12  -4    3.09    0.47
  -1  12   4    2.80    0.28
   1  12  -4    2.77    0.23
   0 -12  -4   85.77    5.94
   0 -12   4   66.87    5.27
   0  12  -4   74.40    3.43
   0  12  -4   81.29    4.17
   0  12   4   82.95    3.50
   1 -12   4   11.26    1.40
  -1 -12  -4   12.63    2.14
  -1  12  -4   13.39    0.98
   1  12   4   12.55    0.72
  -1  12  -4   14.11    0.68
  -2 -12  -4   54.05    4.45
   2 -12   4   45.03    3.85
   2  12   4   50.63    2.39
  -2  12  -4   54.54    2.90
  -2  12  -4   53.32    2.33
   3 -12   4    3.04    0.87
  -3 -12  -4    3.68    1.32
  -3  12  -4    3.46    0.52
  -3  12  -4    3.92    0.29
   3  12   4    3.84    0.34
   4 -12   4   77.63    6.00
  -4 -12  -4   87.87    6.46
  -4  12  -4   87.82    4.57
   4  12   4   85.87    3.85
   5 -12   4    6.91    1.31
  -5 -12  -4   10.23    2.03
   5  12   4    7.60    0.54
  -5  12  -4    7.07    0.80
  -6 -12  -4   25.80    3.00
   6 -12   4   23.69    2.41
  -6  12  -4   25.05    1.66
   6  12   4   25.21    1.32
   7 -12   4    1.67    0.80
  -7  12  -4    1.37    0.44
   7  12   4    1.80    0.31
   8 -12   4   52.04    4.55
   8  12   4   59.10    2.76
  -8  12  -4   56.83    3.30
   9 -12   4    0.19    0.69
   9  12   4    0.94    0.26
  -9  12  -4    0.18    0.39
  10 -12   4    2.27    1.06
  10  12   4    3.16    0.44
  11 -12   4    0.15    0.84
  11  12   4    0.22    0.23
  11 -13  -4    0.57    0.68
  11  13  -4    0.81    0.28
  11  13  -4    1.97    0.65
  10 -13  -4    0.97    0.69
  10  13  -4    1.22    0.31
  10  13  -4    0.79    0.49
   9 -13  -4   50.07    3.89
   9 -13  -4   46.60    4.37
   9  13  -4   52.55    3.28
   9  13  -4   50.28    2.46
   8 -13  -4   -0.57    0.78
   8 -13  -4    0.05    0.39
   8  13  -4    0.12    0.16
   8  13  -4    0.01    0.33
   7 -13  -4    2.15    1.16
   7 -13  -4    1.86    0.59
   7  13  -4    3.67    0.39
   7  13  -4    2.88    0.64
   6 -13  -4    5.27    0.88
   6 -13  -4    3.79    1.35
  -6  13   4    5.97    0.46
   6  13  -4    6.18    0.47
   6  13  -4    5.51    0.82
   5 -13  -4  124.30    7.88
   5 -13  -4  117.75    8.32
   5  13  -4  118.27    6.51
   5  13  -4  121.98    5.41
  -5  13   4  122.22    5.42
   4 -13  -4    0.76    0.94
   4 -13  -4    0.66    0.33
  -4  13   4    0.35    0.15
   4  13  -4    0.56    0.29
   4  13  -4    0.61    0.16
   3 -13  -4    1.04    1.04
   3 -13  -4    1.96    0.43
   3  13  -4    1.83    0.42
   3  13  -4    1.83    0.23
  -3  13   4    1.42    0.22
   2 -13  -4   13.18    1.07
   2 -13  -4   11.59    2.12
   2  13  -4   13.65    1.04
   2  13  -4   12.84    0.69
  -2  13   4   12.70    0.73
  -1 -13   4  152.41   11.62
   1  13  -4  194.27    9.44
  -1  13   4  192.19    8.09
   1  13  -4  196.68    8.03
   0 -13  -4    4.81    1.43
   0 -13   4    3.01    0.79
   0  13   4    4.88    0.36
   0  13  -4    4.34    0.32
   0  13  -4    4.81    0.60
  -1 -13  -4    3.00    1.29
   1 -13   4    3.46    0.84
   1  13   4    4.06    0.32
  -1  13  -4    3.03    0.26
  -1  13  -4    3.68    0.52
   2 -13   4    2.39    0.77
  -2 -13  -4    0.00    0.84
  -2  13  -4    1.59    0.36
  -2  13  -4    1.82    0.20
   2  13   4    1.84    0.25
   3 -13   4   93.53    6.74
  -3 -13  -4   95.22    7.13
  -3  13  -4   91.19    5.09
   3  13   4   99.67    4.35
  -3  13  -4  100.34    4.28
  -4 -13  -4    2.70    1.15
   4 -13   4    2.34    0.81
  -4  13  -4    3.42    0.54
  -4  13  -4    2.54    0.26
   4  13   4    2.03    0.29
   5 -13   4    9.50    1.52
  -5 -13  -4    7.48    1.80
   5  13   4   10.16    0.65
  -5  13  -4    9.40    0.86
  -6 -13  -4    0.73    0.79
   6 -13   4    0.17    0.55
  -6  13  -4    0.20    0.29
   6  13   4    0.20    0.16
   7 -13   4   90.48    6.95
   7  13   4   98.63    4.43
  -7  13  -4   97.52    5.21
   8 -13   4    4.37    1.19
  -8  13  -4    2.14    0.56
   8  13   4    2.80    0.40
   9 -13   4   11.33    2.00
   9  13   4   14.38    0.93
  10 -13   4    0.54    0.75
  10  13   4   -0.04    0.19
  11 -14  -4    6.32    1.39
  11  14  -4    5.99    0.64
  11  14  -4    5.94    1.08
  10 -14  -4   36.02    3.10
  10  14  -4   35.43    2.56
  10  14  -4   33.90    1.83
   9 -14  -4    0.14    0.50
   9  14  -4    0.35    0.43
   9  14  -4    0.10    0.20
   8 -14  -4   12.56    2.26
   8 -14  -4   12.71    1.47
   8  14  -4   13.42    0.86
   8  14  -4   14.63    1.35
   7 -14  -4   10.12    1.21
   7 -14  -4    9.07    1.93
   7  14  -4   10.29    0.69
   7  14  -4   11.08    1.11
   6 -14  -4   53.87    3.90
   6 -14  -4   51.54    4.63
  -6  14   4   54.23    2.58
   6  14  -4   55.40    3.33
   6  14  -4   56.96    2.60
   5 -14  -4   -0.15    0.25
   5 -14  -4   -0.10    0.81
   5  14  -4    0.21    0.27
  -5  14   4    0.12    0.14
   5  14  -4    0.12    0.13
   4 -14  -4   38.63    3.83
   4 -14  -4   41.31    2.91
  -4  14   4   41.90    1.96
   4  14  -4   40.19    1.94
   4  14  -4   40.94    2.54
   3 -14  -4    8.24    0.82
   3 -14  -4   13.56    2.33
   3  14  -4    8.41    0.82
  -3  14   4    7.34    0.52
   3  14  -4    7.67    0.51
   2 -14  -4   40.22    3.73
   2 -14  -4   35.46    2.46
   2  14  -4   35.49    1.67
   2  14  -4   34.26    2.17
  -2  14   4   35.49    1.71
   1 -14  -4    2.01    1.17
   1 -14  -4    2.20    0.40
   1  14  -4    2.02    0.42
  -1  14   4    1.96    0.27
   1  14  -4    1.82    0.22
   0 -14  -4  144.77    9.64
   0  14   4  134.17    6.13
   0  14  -4  141.75    7.19
   0  14  -4  137.02    6.07
  -1 -14  -4    2.94    1.27
   1 -14   4    2.57    0.77
  -1  14  -4    3.69    0.55
  -1  14  -4    3.10    0.29
   1  14   4    3.30    0.35
  -2 -14  -4   50.55    4.48
   2 -14   4   46.49    3.75
  -2  14  -4   50.44    2.21
   2  14   4   47.29    2.27
  -2  14  -4   46.50    2.74
   3 -14   4    0.08    0.48
  -3 -14  -4    0.44    0.82
  -3  14  -4   -0.11    0.20
   3  14   4    0.27    0.15
  -3  14  -4   -0.01    0.10
  -4 -14  -4   49.71    4.61
   4 -14   4   47.09    3.95
  -4  14  -4   48.57    2.88
  -4  14  -4   52.25    2.33
   4  14   4   52.59    2.41
  -5 -14  -4   16.66    2.75
   5 -14   4   17.05    1.90
  -5  14  -4   15.31    1.20
   5  14   4   16.67    0.95
  -6 -14  -4    3.90    1.49
   6 -14   4    2.27    0.89
   6  14   4    1.82    0.31
  -6  14  -4    2.26    0.50
   7 -14   4    6.02    1.34
   7  14   4    4.66    0.50
  -7  14  -4    4.99    0.72
   8 -14   4   50.77    4.50
   8  14   4   57.46    2.72
  -8  14  -4   55.25    3.25
   9 -14   4    3.57    1.16
   9  14   4    2.69    0.41
  10 -14   4    5.01    1.40
  10  14   4    3.43    0.49
  10 -15  -4    8.28    1.49
  10  15  -4    9.45    0.73
  10  15  -4    9.86    1.34
   9 -15  -4   53.05    4.15
   9  15  -4   54.09    2.64
   9  15  -4   53.91    3.47
   8 -15  -4   23.99    3.36
   8 -15  -4   26.67    2.39
   8  15  -4   26.73    1.46
   8  15  -4   30.00    2.11
   7 -15  -4    1.36    0.58
   7 -15  -4    1.05    1.03
   7  15  -4    1.54    0.51
   7  15  -4    1.41    0.28
  -7  15   4    1.50    0.28
   6 -15  -4    9.78    1.13
   6 -15  -4    9.10    2.06
   6  15  -4    9.95    0.68
   6  15  -4   10.72    1.07
  -6  15   4   11.24    0.69
   5 -15  -4   59.99    4.17
   5 -15  -4   51.73    4.93
   5  15  -4   60.11    2.79
   5  15  -4   61.94    3.58
  -5  15   4   61.48    2.81
   4 -15  -4    4.12    1.49
   4 -15  -4    6.23    0.85
   4  15  -4    5.51    0.43
  -4  15   4    5.44    0.44
   4  15  -4    5.98    0.80
   3 -15  -4    0.02    0.90
   3 -15  -4    0.63    0.33
  -3  15   4    0.62    0.18
   3  15  -4    0.36    0.14
   3  15  -4    0.28    0.26
   2 -15  -4   26.72    1.92
   2 -15  -4   29.27    3.22
   2  15  -4   25.02    1.28
   2  15  -4   27.46    1.77
  -2  15   4   26.17    1.33
   1 -15  -4   42.53    2.84
   1 -15  -4   37.02    3.92
   1  15  -4   42.15    1.96
  -1  15   4   44.32    2.02
   1  15  -4   40.84    2.50
   0 -15  -4   19.42    2.96
   0  15  -4   18.83    0.99
   0  15   4   21.39    1.33
   0  15  -4   20.23    1.38
   0  15   4   19.82    1.05
  -1 -15  -4    1.16    1.02
  -1  15  -4    1.64    0.40
  -1  15  -4    1.22    0.19
   1  15   4    1.00    0.21
  -2 -15  -4   22.17    3.29
   2 -15   4   20.61    2.19
  -2  15  -4   25.90    1.59
  -2  15  -4   23.86    1.16
   2  15   4   23.87    1.23
  -3 -15  -4   37.46    4.06
   3 -15   4   43.28    3.50
  -3  15  -4   44.06    2.50
   3  15   4   41.11    2.03
  -3  15  -4   42.57    1.96
   4 -15   4    6.22    1.27
  -4 -15  -4    8.14    1.96
  -4  15  -4    7.53    0.76
  -4  15  -4    7.71    0.49
   4  15   4    7.34    0.54
  -5 -15  -4    6.44    1.88
   5 -15   4    6.67    1.31
   5  15   4    5.99    0.50
  -5  15  -4    6.25    0.77
   6 -15   4   11.80    1.83
  -6 -15  -4   13.41    2.65
  -6  15  -4   11.07    0.99
   6  15   4   11.10    0.75
   7 -15   4   71.61    5.79
   7  15   4   78.46    3.61
  -7  15  -4   77.25    4.26
   8 -15   4    0.23    0.64
   8  15   4    0.12    0.20
   9 -15   4    1.56    0.92
   9  15   4    2.36    0.41
  10 -15   4   12.88    2.27
  10  15   4   15.56    1.04
  10 -16  -4    8.99    1.57
  10  16  -4    9.16    1.31
  10  16  -4    9.37    0.74
   9 -16  -4    4.73    1.08
   9  16  -4    5.60    0.95
   9  16  -4    3.76    0.49
   8 -16  -4   11.43    1.40
   8 -16  -4    8.13    1.99
   8  16  -4   12.22    0.80
   8  16  -4   10.91    1.35
   7 -16  -4   35.58    2.85
   7 -16  -4   32.83    3.65
  -7  16   4   36.32    1.79
   7  16  -4   35.18    1.79
   7  16  -4   34.05    2.42
   6 -16  -4    7.63    1.12
   6 -16  -4    6.70    1.86
   6  16  -4    7.47    1.01
  -6  16   4    7.66    0.57
   6  16  -4    8.47    0.59
   5 -16  -4    0.75    0.43
   5 -16  -4    2.34    1.25
   5  16  -4    1.10    0.23
   5  16  -4    1.35    0.45
  -5  16   4    1.10    0.24
   4 -16  -4   17.80    2.88
   4 -16  -4   20.14    1.64
   4  16  -4   16.85    1.42
  -4  16   4   19.64    1.05
   4  16  -4   19.04    1.03
   3 -16  -4   52.80    4.78
   3 -16  -4   53.36    3.60
   3  16  -4   50.75    2.43
   3  16  -4   54.50    3.13
  -3  16   4   51.56    2.46
   2 -16  -4   17.52    1.36
   2 -16  -4   19.31    2.99
   2  16  -4   16.78    1.29
  -2  16   4   15.80    0.91
   2  16  -4   16.21    0.88
   1 -16  -4    0.74    1.01
  -1  16   4    0.87    0.21
   1  16  -4    1.28    0.38
   1  16  -4    0.77    0.17
   0 -16  -4   16.77    2.74
   0  16   4   14.00    0.80
   0  16  -4   13.55    0.74
   0  16  -4   12.79    1.07
  -1 -16  -4   85.67    6.61
  -1  16  -4   78.10    3.57
   1  16   4   79.26    3.65
  -1  16  -4   80.42    4.35
  -2 -16  -4   17.58    2.89
   2  16   4   15.94    0.93
  -2  16  -4   17.59    0.88
  -2  16  -4   16.27    1.22
   3 -16   4    2.17    0.79
  -3 -16  -4    2.41    1.30
  -3  16  -4    1.59    0.41
  -3  16  -4    1.92    0.25
   3  16   4    1.51    0.27
   4 -16   4   23.60    2.37
  -4 -16  -4   22.43    3.44
   4  16   4   23.23    1.26
  -4  16  -4   23.64    1.60
  -4  16  -4   24.29    1.19
   5 -16   4   10.80    1.72
  -5 -16  -4   11.04    2.42
   5  16   4   11.25    0.74
  -5  16  -4   10.86    0.97
  -6 -16  -4    6.34    2.00
   6 -16   4    6.94    1.40
   6  16   4    6.36    0.55
  -6  16  -4    6.95    0.86
   7 -16   4    4.82    1.29
   7  16   4    5.81    0.58
   8 -16   4   15.52    2.31
   8  16   4   16.11    1.03
   9 -16   4   22.23    2.64
   9  16   4   23.04    1.36
   9 -17  -4    3.13    0.95
   9  17  -4    3.63    0.48
   9  17  -4    3.70    0.81
   8 -17  -4   23.26    3.44
   8 -17  -4   22.03    2.18
   8  17  -4   22.72    1.88
   8  17  -4   24.47    1.33
   7 -17  -4    0.32    0.89
   7 -17  -4   -0.27    0.39
   7  17  -4   -0.01    0.17
   7  17  -4    0.07    0.35
  -7  17   4   -0.08    0.14
   6 -17  -4   16.65    2.84
   6 -17  -4   19.89    1.80
   6  17  -4   20.07    1.60
  -6  17   4   18.07    1.06
   6  17  -4   19.14    1.08
   5 -17  -4    8.96    1.05
   5 -17  -4    7.01    1.85
   5  17  -4    7.13    0.99
   5  17  -4    8.91    0.60
  -5  17   4    7.52    0.58
   4 -17  -4   18.12    1.57
   4 -17  -4   18.86    2.98
   4  17  -4   19.12    1.47
  -4  17   4   17.94    1.02
   4  17  -4   18.26    1.00
   3 -17  -4    2.52    1.26
   3  17  -4    0.98    0.21
  -3  17   4    0.91    0.21
   3  17  -4    1.39    0.42
   2 -17  -4   23.12    3.39
   2  17  -4   24.36    1.23
  -2  17   4   23.73    1.27
   2  17  -4   26.10    1.74
   1 -17  -4   22.97    3.32
  -1  17   4   23.12    1.19
   1  17  -4   22.17    1.56
   1  17  -4   22.01    1.13
   0 -17  -4   27.55    3.84
   0  17  -4   27.51    1.82
   0  17  -4   28.69    1.37
   0  17   4   27.51    1.42
  -1 -17  -4    0.18    0.76
  -1  17  -4   -0.18    0.10
   1  17   4   -0.26    0.12
  -1  17  -4    0.30    0.26
  -2 -17  -4   53.17    5.15
  -2  17  -4   56.00    2.54
   2  17   4   56.19    2.62
  -2  17  -4   53.69    3.15
  -3 -17  -4   15.14    2.81
  -3  17  -4   15.97    0.85
  -3  17  -4   15.74    1.19
   3  17   4   15.21    0.91
   4 -17   4    5.19    1.20
  -4 -17  -4    6.02    1.85
  -4  17  -4    4.82    0.69
   4  17   4    4.44    0.47
  -4  17  -4    5.32    0.40
   5 -17   4    0.50    0.62
  -5 -17  -4    1.34    1.16
   5  17   4    0.36    0.19
  -5  17  -4   -0.12    0.29
  -6 -17  -4   22.33    3.87
   6 -17   4   26.58    2.70
  -6  17  -4   27.30    1.81
   6  17   4   26.40    1.44
   7 -17   4    3.15    1.08
   7  17   4    5.02    0.53
   8 -17   4    5.67    1.41
   8  17   4    4.52    0.54
   9 -17   4    3.51    1.18
   9  17   4    2.01    0.40
   9  18  -4    0.29    0.46
   8 -18  -4    2.57    1.27
   8 -18  -4    0.33    0.58
   8  18  -4    1.06    0.54
   8  18  -4    1.18    0.30
   7 -18  -4   35.23    3.85
   7 -18  -4   31.51    2.72
  -7  18   4   32.23    1.69
   7  18  -4   32.96    1.71
   7  18  -4   33.84    2.38
   6 -18  -4    1.26    0.58
   6 -18  -4    2.32    1.24
   6  18  -4    1.26    0.48
  -6  18   4    0.64    0.21
   6  18  -4    0.88    0.24
   5 -18  -4    2.68    1.37
   5 -18  -4    1.65    0.57
   5  18  -4    2.05    0.57
  -5  18   4    2.13    0.33
   5  18  -4    2.55    0.34
   4 -18  -4    0.26    0.91
   4  18  -4    0.72    0.39
  -4  18   4    0.85    0.23
   4  18  -4    0.67    0.20
   3 -18  -4   46.54    4.63
   3  18  -4   45.34    2.20
   3  18  -4   44.97    2.85
  -3  18   4   48.47    2.25
   2 -18  -4    1.59    1.15
   2  18  -4    1.02    0.21
   2  18  -4    1.74    0.46
  -2  18   4    1.68    0.27
   1 -18  -4    0.00    0.76
   1  18  -4    0.46    0.15
   1  18  -4    0.69    0.33
  -1  18   4    0.78    0.20
   0 -18  -4    4.45    1.65
   0  18  -4    2.16    0.26
   0  18   4    2.07    0.30
   0  18  -4    2.99    0.54
  -1 -18  -4   38.88    4.34
  -1  18  -4   40.91    2.51
   1  18   4   42.69    2.04
  -1  18  -4   41.72    1.96
  -2 -18  -4    1.16    1.04
  -2  18  -4    0.80    0.19
  -2  18  -4    0.94    0.36
   2  18   4    0.60    0.20
  -3 -18  -4    4.06    1.67
  -3  18  -4    5.66    0.42
   3  18   4    4.93    0.46
  -3  18  -4    6.05    0.76
  -4 -18  -4    1.83    1.28
  -4  18  -4    2.68    0.30
   4  18   4    2.18    0.34
  -4  18  -4    2.00    0.49
  -5 -18  -4   47.30    4.98
  -5  18  -4   44.90    2.67
   5  18   4   43.13    2.19
  -6 -18  -4    0.31    0.98
   6 -18   4    0.61    0.68
   6  18   4    0.30    0.21
   7 -18   4    3.83    1.16
   7  18   4    3.50    0.46
   8 -18   4    1.00    0.83
   8  18   4    0.32    0.25
   8 -19  -4   17.93    1.94
   8 -19  -4   19.89    3.27
   8  19  -4   18.23    1.11
   8  19  -4   17.36    1.65
   7 -19  -4   -0.24    0.83
   7 -19  -4    0.21    0.50
  -7  19   4   -0.12    0.17
   7  19  -4    0.14    0.19
   7  19  -4   -0.02    0.38
   6 -19  -4   16.95    3.03
  -6  19   4   21.80    1.17
   6  19  -4   20.83    1.71
   6  19  -4   19.45    1.15
   5 -19  -4    1.11    1.05
  -5  19   4    0.10    0.18
   5  19  -4    0.23    0.33
   5  19  -4    0.27    0.18
   4 -19  -4   13.48    2.66
   4  19  -4   11.97    0.76
   4  19  -4   12.41    1.19
  -4  19   4   12.61    0.79
   3 -19  -4    1.45    1.10
   3  19  -4    1.30    0.45
  -3  19   4    0.63    0.21
   3  19  -4    0.56    0.19
   2 -19  -4   41.20    4.53
  -2  19   4   46.44    2.18
   2  19  -4   43.17    2.11
   2  19  -4   45.44    2.77
   1 -19  -4    1.02    1.01
  -1  19   4    0.05    0.14
   1  19  -4    0.04    0.16
   1  19  -4    0.03    0.27
   0 -19  -4   33.67    4.46
   0  19  -4   28.72    1.87
   0  19  -4   26.83    1.37
   0  19   4   26.98    1.42
  -1 -19  -4    0.66    0.93
  -1  19  -4    0.20    0.15
   1  19   4    0.50    0.20
  -1  19  -4    0.88    0.35
  -2 -19  -4   31.75    4.37
   2  19   4   31.61    1.64
  -2  19  -4   31.78    2.06
  -2  19  -4   32.96    1.57
  -3 -19  -4   -0.07    0.89
  -3  19  -4   -0.05    0.24
  -3  19  -4   -0.01    0.14
   3  19   4    0.15    0.17
  -4 -19  -4   13.07    2.88
  -4  19  -4   13.92    1.14
  -4  19  -4   13.64    0.78
   4  19   4   12.64    0.84
  -5 -19  -4    0.97    1.20
  -5  19  -4    0.46    0.18
   5  19   4    0.24    0.20
  -6 -19  -4   26.21    4.28
   6  19   4   24.42    1.38
   7 -19   4    0.91    0.80
   7  19   4    0.18    0.21
   7 -20  -4   36.32    4.25
   7  20  -4   37.62    1.97
  -7  20   4   39.02    1.97
   7  20  -4   39.67    2.74
   6 -20  -4    2.74    1.43
  -6  20   4    2.18    0.35
   6  20  -4    1.97    0.59
   6  20  -4    1.49    0.31
   5 -20  -4    1.73    1.13
   5  20  -4    0.49    0.21
  -5  20   4    0.81    0.25
   5  20  -4    0.61    0.41
   4 -20  -4    3.35    1.48
   4  20  -4    1.53    0.28
  -4  20   4    1.45    0.29
   4  20  -4    1.75    0.53
   3 -20  -4   55.23    5.42
  -3  20   4   54.78    2.63
   3  20  -4   56.00    3.36
   3  20  -4   54.12    2.59
   2 -20  -4    1.84    1.18
   2  20  -4    0.55    0.35
   2  20  -4    0.49    0.19
  -2  20   4    0.47    0.20
   1 -20  -4    0.31    0.84
   1  20  -4   -0.06    0.14
   1  20  -4   -0.05    0.26
  -1  20   4   -0.03    0.14
   0 -20  -4    4.37    1.71
   0  20  -4    2.95    0.56
   0  20   4    3.01    0.38
   0  20  -4    3.15    0.35
  -1 -20  -4   29.51    4.27
  -1  20  -4   30.08    2.01
  -1  20  -4   31.97    1.51
   1  20   4   29.19    1.56
  -2 -20  -4    2.20    1.35
  -2  20  -4    0.60    0.36
  -2  20  -4    0.42    0.17
   2  20   4    0.45    0.20
  -3 -20  -4    1.77    1.32
   3  20   4    1.99    0.33
  -3  20  -4    2.11    0.50
  -3  20  -4    1.57    0.25
  -4 -20  -4    0.11    1.10
  -4  20  -4    0.43    0.35
  -4  20  -4   -0.02    0.15
   4  20   4    0.25    0.20
  -5 -20  -4   36.05    5.11
  -5  20  -4   31.54    1.55
   5  20   4   29.29    1.63
  -6 -20  -4    0.54    1.34
   6  20   4    0.58    0.24
   6 -21  -4    8.41    2.33
  -6  21   4    9.83    0.72
   6  21  -4    9.71    0.73
   6  21  -4   11.19    1.33
   5 -21  -4    9.41    2.38
  -5  21   4   13.06    0.82
   5  21  -4   12.23    1.24
   5  21  -4   11.48    0.78
   4 -21  -4   10.61    2.55
  -4  21   4   11.05    0.74
   4  21  -4   10.58    1.23
   4  21  -4   10.21    0.71
   3 -21  -4    0.40    0.99
  -3  21   4    0.11    0.19
   3  21  -4    0.32    0.36
   3  21  -4    0.01    0.15
   2 -21  -4   34.72    4.67
   2  21  -4   27.66    2.06
  -2  21   4   32.44    1.60
   2  21  -4   29.70    1.53
   1 -21  -4    7.92    2.20
   1  21  -4    6.91    0.54
   1  21  -4    7.74    0.95
  -1  21   4    8.28    0.60
   0 -21  -4    7.79    2.28
   0  21   4   11.22    0.74
   0  21  -4   11.01    1.03
   0  21  -4   10.58    0.68
  -1 -21  -4    0.77    1.09
  -1  21  -4    0.67    0.21
  -1  21  -4    1.39    0.46
   1  21   4    0.88    0.24
  -2 -21  -4   16.87    3.27
   2  21   4   15.18    0.92
  -2  21  -4   14.29    1.21
  -2  21  -4   14.44    0.84
  -3 -21  -4    7.99    2.41
  -3  21  -4    7.86    0.54
   3  21   4    6.96    0.59
  -3  21  -4    7.36    0.90
  -4 -21  -4   12.03    2.93
   4  21   4    8.53    0.67
  -4  21  -4    8.52    0.59
  -5 -21  -4    0.74    1.41
  -5  21  -4    0.30    0.19
   5  21   4    0.18    0.21
  -6 -21  -4   13.54    3.39
   6  21   4   14.92    0.98
   5 -22  -4    0.66    1.10
   5  22  -4   -0.08    0.36
   5  22  -4   -0.04    0.19
  -5  22   4   -0.06    0.18
   4 -22  -4    9.74    2.51
   4  22  -4    8.02    0.60
  -4  22   4    6.86    0.60
   4  22  -4    8.31    1.12
   3 -22  -4   27.87    4.27
   3  22  -4   28.14    2.07
   3  22  -4   28.77    1.50
  -3  22   4   29.72    1.55
   2 -22  -4    7.79    2.33
   2  22  -4    6.68    0.54
  -2  22   4    7.67    0.59
   2  22  -4    7.91    1.01
   1 -22  -4    1.71    1.18
  -1  22   4    2.23    0.34
   1  22  -4    1.64    0.28
   1  22  -4    1.64    0.51
   0 -22  -4   12.32    2.96
   0  22   4   14.35    0.88
   0  22  -4   13.39    0.81
   0  22  -4   14.08    1.22
  -1 -22  -4   15.54    3.31
  -1  22  -4   18.84    1.48
   1  22   4   18.78    1.10
  -1  22  -4   19.88    1.05
  -2 -22  -4    5.26    1.99
   2  22   4    3.27    0.42
  -2  22  -4    3.33    0.37
  -2  22  -4    3.25    0.63
  -3 -22  -4    0.37    1.18
   3  22   4   -0.01    0.18
  -4 -22  -4   11.11    2.96
   4  22   4   11.23    0.80
   3 -23  -4    0.60    1.09
   3  23  -4    0.31    0.38
  -3  23   4   -0.19    0.17
   2 -23  -4   12.82    3.04
   2  23  -4   13.22    1.26
  -2  23   4   13.52    0.88
   1 -23  -4   18.30    3.61
  -1  23   4   20.75    1.17
   1  23  -4   19.38    1.59
   0 -23  -4    5.51    2.09
   0  23  -4    5.41    0.82
   0  23   4    4.66    0.51
  -1 -23  -4    1.33    1.36
  -1  23  -4    1.80    0.50
   1  23   4    1.28    0.28
  -2 -23  -4    6.79    2.32
   2  23   4    9.81    0.70
  -3 -23  -4   17.19    3.70
   3  23   4   19.52    1.16
  13   0  -5   32.76    2.99
  12   0  -5   -0.56    0.45
  11   0  -5   16.40    1.70
  10   0  -5    0.03    0.38
   9   0  -5   60.45    3.97
   9   0  -5   56.76    4.11
   8   0  -5   -0.08    0.25
   8   0  -5   -0.41    0.32
   7   0  -5   39.31    2.71
   7   0  -5   37.67    2.18
   7   0  -5   37.08    2.70
   6   0  -5    0.16    0.16
   6   0  -5    0.09    0.24
   5   0  -5  148.17    8.80
   5   0  -5  147.61    7.47
   4   0  -5    0.05    0.12
   4   0  -5   -0.59    0.16
   3   0  -5   17.59    1.43
   3   0  -5   18.23    1.05
   2   0  -5   -0.38    0.18
   2   0  -5    0.01    0.12
  -1   0   5   58.37    2.52
   1   0  -5   51.00    3.61
   1   0  -5   63.52    3.03
   0   0  -5   -0.16    0.19
   0   0   5    0.07    0.03
   0   0  -5    0.05    0.13
   0   0   5   -0.12    0.10
   1   0   5  128.59    5.76
   1   0   5  147.72    8.78
  -1   0  -5  127.02    6.74
   2   0   5    1.12    0.12
   2   0   5   -0.19    0.31
  -2   0  -5    0.82    0.26
  -2   0  -5   -0.17    0.23
   3   0   5  226.34   10.09
   3   0   5  255.67   15.06
  -3   0  -5  229.91   11.72
  -3   0  -5  225.24   13.38
  -4   0  -5   -0.04    0.21
   4   0   5   -0.14    0.31
   4   0   5   -0.17    0.07
  -4   0  -5   -0.12    0.21
  -5   0  -5   98.66    6.05
   5   0   5  106.85    4.55
   5   0   5  102.65    7.18
  -6   0  -5    0.06    0.11
   6   0   5   -0.06    0.43
   6   0   5    0.16    0.11
   7   0   5   56.97    2.63
  -7   0  -5   55.14    3.32
   7   0   5   59.78    4.55
  -8   0  -5   -0.49    0.31
   8   0   5   -0.05    0.16
   8   0   5    0.16    0.57
   9   0   5   26.33    2.84
  -9   0  -5   35.48    2.22
   9   0   5   29.62    1.53
  10   0   5   -0.38    0.51
  10   0   5    0.00    0.15
 -10   0  -5   -0.34    0.30
 -11   0  -5   27.87    2.03
  11   0   5   19.87    2.53
  11   0   5   23.02    1.28
  12   0   5   -0.23    0.19
  12   0   5    1.31    0.92
  13  -1  -5   -0.09    0.60
  13   1  -5    0.17    0.61
  13   1  -5    0.16    0.22
  12  -1  -5   45.88    3.79
  12   1  -5   49.94    2.39
  12   1  -5   47.36    3.79
  11  -1  -5    1.41    0.65
  11   1  -5    2.52    0.76
  10  -1  -5    9.59    1.18
  10   1  -5    9.75    1.17
   9  -1  -5    0.40    0.39
   9  -1  -5   -0.12    0.42
   9   1  -5   -0.17    0.37
   9   1  -5    0.65    0.42
   8  -1  -5   78.69    4.95
   8  -1  -5   74.40    5.14
   8   1  -5   78.11    4.90
   8   1  -5   74.82    5.11
   7  -1  -5    2.64    0.54
   7  -1  -5    2.36    0.63
   7  -1  -5    2.45    0.39
   7   1  -5    1.89    0.55
   7   1  -5    2.47    0.43
   7   1  -5    2.66    0.51
   6  -1  -5    4.43    0.49
   6  -1  -5    4.92    0.79
   6   1  -5    4.14    0.53
   6   1  -5    4.95    0.76
   5  -1  -5    2.48    0.33
   5  -1  -5    1.95    0.55
   5   1  -5    2.50    0.37
   5   1  -5    2.07    0.54
   4  -1  -5  221.93   12.55
   4  -1  -5  213.50   10.68
   4   1  -5  218.32   12.54
   4   1  -5  207.15   10.73
   3  -1  -5    0.67    0.15
   3  -1  -5    0.09    0.22
   3   1  -5    0.02    0.20
   3   1  -5   -0.08    0.08
   2  -1  -5   53.85    3.57
   2  -1  -5   58.76    2.90
   2   1  -5   56.70    2.93
   2   1  -5   53.14    3.56
  -1  -1   5    0.15    0.26
   1  -1  -5    0.21    0.21
   1  -1  -5    0.27    0.13
  -1   1   5    0.25    0.05
   1   1  -5    0.42    0.25
   1   1  -5    0.57    0.17
   0  -1  -5  429.91   21.37
   0  -1  -5  420.04   24.63
   0   1   5  480.26   26.99
   0   1   5  410.30   18.68
   0   1  -5  428.48   24.62
   0   1  -5  433.94   21.39
   1  -1   5    0.08    0.17
  -1  -1  -5    1.62    0.29
   1  -1   5    1.50    0.10
   1   1   5    2.25    0.14
   1   1   5    1.83    0.51
  -1   1  -5    1.71    0.30
   2  -1   5   59.70    4.08
  -2  -1  -5   54.38    2.94
   2  -1   5   54.81    2.40
  -2  -1  -5   53.19    3.45
   2   1   5   54.25    2.42
  -2   1  -5   53.28    3.40
  -2   1  -5   52.68    2.95
   2   1   5   56.08    3.98
   3  -1   5    3.41    0.82
  -3  -1  -5    3.13    0.57
   3  -1   5    3.02    0.22
  -3  -1  -5    3.08    0.47
  -3   1  -5    3.22    0.46
  -3   1  -5    2.30    0.45
   3   1   5    4.00    0.85
  -4  -1  -5  170.09    8.90
   4  -1   5  177.80    7.60
  -4  -1  -5  168.60   10.15
   4  -1   5  176.96   11.53
  -4   1  -5  170.17   10.06
   4   1   5  187.95   11.54
   4   1   5  173.68    7.61
  -5  -1  -5   32.80    2.41
   5  -1   5   36.55    3.09
  -5  -1  -5   33.78    2.17
   5  -1   5   37.20    1.70
   5   1   5   38.92    1.71
   5   1   5   37.83    3.09
  -5   1  -5   37.72    2.33
  -5   1  -5   35.56    2.19
   6  -1   5   14.44    0.78
   6  -1   5   14.91    1.75
  -6   1  -5   14.40    1.17
   6   1   5   15.67    1.76
   6   1   5   14.61    0.79
   7  -1   5    0.32    0.15
  -7  -1  -5    0.39    0.36
   7  -1   5    0.59    0.56
   7   1   5    0.66    0.59
   7   1   5    0.16    0.15
  -7   1  -5    0.34    0.33
   8  -1   5  119.76    5.24
  -8  -1  -5  116.35    6.35
   8  -1   5  112.59    8.27
   8   1   5  106.86    8.20
   8   1   5  124.83    5.26
  -8   1  -5  117.31    6.35
  -9  -1  -5   -0.20    0.31
   9  -1   5    0.08    0.16
   9  -1   5    0.16    0.62
  -9   1  -5    0.31    0.42
   9   1   5    0.34    0.61
   9   1   5    0.15    0.16
 -10  -1  -5    5.40    0.92
  10  -1   5    4.82    1.31
  10  -1   5    4.46    0.45
  10   1   5    4.56    0.46
 -10   1  -5    5.04    0.86
  10   1   5    4.02    1.18
  11  -1   5    3.01    1.08
  11  -1   5    2.35    0.35
 -11   1  -5    3.31    0.76
  11   1   5    1.71    0.32
  11   1   5    0.68    0.82
  12  -1   5   43.43    4.31
  12  -1   5   47.71    2.34
  12   1   5   48.36    2.34
  12   1   5   45.37    4.33
  13  -2  -5   25.07    2.48
  13   2  -5   23.39    1.37
  13   2  -5   23.87    2.39
  12  -2  -5    1.12    0.71
  12   2  -5    1.36    0.31
  12   2  -5    2.66    0.85
  11  -2  -5   13.96    1.61
  11   2  -5   16.67    0.95
  11   2  -5   14.28    1.58
  10  -2  -5   23.02    2.04
  10   2  -5   22.27    1.97
   9  -2  -5  123.96    8.58
   9  -2  -5  134.24    8.12
   9   2  -5  139.75    8.04
   9   2  -5  128.64    8.54
   8  -2  -5   -0.25    0.25
   8  -2  -5   -0.47    0.36
   8   2  -5   -0.39    0.32
   8   2  -5    0.17    0.30
   7  -2  -5   43.44    3.06
   7  -2  -5   46.14    2.40
   7  -2  -5   38.69    2.98
   7   2  -5   41.70    2.49
   7   2  -5   44.89    3.01
   7   2  -5   43.15    3.01
   6  -2  -5   12.83    1.24
   6  -2  -5   13.30    0.84
   6   2  -5   12.35    0.93
   6   2  -5   12.19    1.18
   5  -2  -5  115.48    5.75
   5  -2  -5  114.13    6.96
   5   2  -5  113.44    5.87
   5   2  -5  113.10    6.92
   4  -2  -5    1.05    0.17
   4  -2  -5    0.69    0.37
   4   2  -5    0.55    0.34
   4   2  -5    0.83    0.22
   3  -2  -5  102.57    5.01
   3  -2  -5   98.20    6.09
   3   2  -5   98.49    5.11
   2  -2  -5   47.89    2.38
   2  -2  -5   43.22    3.02
   2   2  -5   45.97    2.45
  -2   2   5   45.09    2.03
  -1  -2   5  124.87    9.05
   1  -2  -5  143.45    8.37
   1  -2  -5  150.12    7.06
  -1   2   5  138.69    6.11
   1   2  -5  147.17    7.12
   0  -2  -5    3.88    0.66
   0  -2  -5    3.74    0.39
   0  -2   5    4.42    0.79
   0   2   5    4.35    0.24
   0   2  -5    4.80    0.43
   0   2   5    5.56    0.83
   1  -2   5  217.91   13.41
  -1  -2  -5  199.18   10.43
  -1   2  -5  209.18   10.48
   1   2   5  201.87    9.03
   1   2   5  220.01   13.32
  -2  -2  -5   16.63    1.11
   2  -2   5   17.70    0.79
   2   2   5   16.52    1.60
  -2   2  -5   18.50    1.14
   2   2   5   16.59    0.81
  -3  -2  -5   69.60    4.48
   3  -2   5   73.09    3.17
   3  -2   5   75.29    5.21
  -3  -2  -5   71.48    3.83
  -3   2  -5   71.11    3.84
   3   2   5   74.57    5.11
  -3   2  -5   69.91    4.34
  -4  -2  -5    0.16    0.24
   4  -2   5    0.37    0.10
  -4  -2  -5    0.04    0.35
   4  -2   5    0.19    0.41
   4   2   5    0.32    0.11
  -4   2  -5   -0.03    0.17
   4   2   5    0.76    0.50
  -4   2  -5    0.28    0.23
  -5  -2  -5   69.18    3.70
  -5  -2  -5   64.51    4.17
   5  -2   5   69.06    5.00
   5   2   5   63.09    4.88
  -5   2  -5   66.66    3.99
   5   2   5   66.90    3.00
  -5   2  -5   67.12    3.69
   6  -2   5   47.44    3.75
  -6   2  -5   43.59    2.67
   6   2   5   44.80    2.12
   6   2   5   47.46    3.73
   7  -2   5   43.08    3.65
   7  -2   5   43.05    2.04
  -7  -2  -5   42.80    2.66
  -7   2  -5   42.87    2.65
   7   2   5   44.33    2.07
   7   2   5   44.92    3.68
   8  -2   5    0.46    0.17
  -8  -2  -5    0.42    0.39
   8  -2   5    0.74    0.66
   8   2   5    0.17    0.17
   8   2   5    1.19    0.76
  -8   2  -5   -0.03    0.36
   9  -2   5   62.53    5.35
   9  -2   5   66.03    3.18
  -9  -2  -5   72.58    4.11
  -9   2  -5   73.33    4.07
   9   2   5   69.34    5.42
   9   2   5   70.15    3.21
  10  -2   5    7.98    0.58
 -10  -2  -5   10.14    1.27
  10  -2   5    7.69    1.62
  10   2   5    8.47    0.60
 -10   2  -5    6.94    1.03
  10   2   5    7.27    1.58
  11  -2   5    6.47    1.57
  11  -2   5    7.61    0.57
 -11   2  -5    7.28    1.09
  11   2   5    6.40    0.56
  11   2   5    6.67    1.59
  12  -2   5    1.27    0.95
  12  -2   5    1.68    0.32
  12   2   5    1.25    0.32
 -12   2  -5    1.40    0.64
  12   2   5    0.92    0.91
  13  -3  -5    0.73    0.72
  13   3  -5    1.04    0.30
  13   3  -5    0.81    0.72
  12  -3  -5   21.70    2.24
  12   3  -5   22.14    2.15
  12   3  -5   23.89    1.30
  11  -3  -5   23.87    2.25
  11   3  -5   26.18    1.37
  11   3  -5   23.90    2.18
  10  -3  -5    0.97    0.52
  10   3  -5    1.55    0.56
  10   3  -5    0.96    0.24
   9  -3  -5   12.94    1.29
   9  -3  -5   11.45    1.51
   9   3  -5   10.26    1.13
   9   3  -5   11.61    1.22
   9   3  -5   10.34    0.68
   8  -3  -5  131.75    8.15
   8  -3  -5  130.43    8.59
   8   3  -5  130.73    5.88
   8   3  -5  133.11    8.52
   8   3  -5  136.74    8.06
   7  -3  -5   58.05    2.97
   7  -3  -5   53.62    3.82
   7  -3  -5   54.73    3.80
   7   3  -5   57.49    3.77
   7   3  -5   53.85    3.13
   7   3  -5   55.65    3.71
   6  -3  -5    0.53    0.31
   6  -3  -5    0.42    0.37
   6  -3  -5    0.76    0.19
   6   3  -5    0.84    0.26
   6   3  -5    0.32    0.29
   5  -3  -5   18.76    1.06
   5  -3  -5   17.35    1.58
   5   3  -5   20.16    1.24
   4  -3  -5  181.09   10.34
   4  -3  -5  172.16    8.62
   4   3  -5  170.29    8.79
   3  -3  -5  172.79    8.00
   3  -3  -5  172.04    9.62
   3   3  -5  164.17    7.00
  -3   3   5  144.00    7.02
   3   3  -5  156.96    8.14
   2  -3  -5   37.24    1.81
   2  -3  -5   33.08    2.42
  -2   3   5   33.04    1.56
   2   3  -5   34.16    1.52
   2   3  -5   34.89    1.92
   1  -3  -5  126.25    6.28
  -1  -3   5  132.44    8.19
   1  -3  -5  122.20    7.53
   1   3  -5  124.62    6.37
  -1   3   5  123.28    5.45
   0  -3   5  104.66    6.82
   0  -3  -5   96.15    5.17
   0  -3  -5  102.34    6.24
   0   3   5  100.26    4.45
   0   3  -5   97.41    5.23
   0   3   5  117.11    6.82
  -1  -3  -5   21.01    1.73
  -1  -3  -5   21.57    1.30
   1  -3   5   18.35    1.87
   1   3   5   26.60    1.94
  -1   3  -5   22.99    1.35
   1   3   5   22.90    1.03
   2  -3   5   31.63    2.64
  -2  -3  -5   30.38    1.80
   2   3   5   34.09    2.53
  -2   3  -5   31.15    1.83
  -3  -3  -5   40.12    3.19
  -3  -3  -5   52.41    2.74
   3  -3   5   51.63    3.81
   3   3   5   49.75    2.21
   3   3   5   52.73    3.70
  -4  -3  -5  145.69    7.61
  -4  -3  -5  144.17    8.82
   4   3   5  146.87    6.49
  -4   3  -5  145.75    7.62
   4   3   5  160.86    9.88
  -5  -3  -5   26.67    1.66
   5  -3   5   26.97    2.40
  -5  -3  -5   23.78    1.96
   5   3   5   24.80    1.22
  -5   3  -5   21.47    1.58
  -5   3  -5   24.87    1.66
   5   3   5   26.69    2.34
   6  -3   5    5.19    1.15
  -6   3  -5    5.54    0.75
   6   3   5    7.10    1.29
   6   3   5    5.66    0.42
  -7  -3  -5   51.80    3.07
   7  -3   5   46.23    4.07
   7   3   5   51.86    2.40
  -7   3  -5   52.89    3.04
   7   3   5   51.74    4.13
  -8  -3  -5   97.16    5.33
   8  -3   5   93.56    6.97
  -8   3  -5   97.81    5.29
   8   3   5   88.11    6.88
   8   3   5   98.67    4.34
   9  -3   5   10.00    1.83
   9  -3   5   12.35    0.73
  -9  -3  -5   13.37    1.28
   9   3   5   12.10    0.76
  -9   3  -5   11.02    1.27
   9   3   5   11.23    1.89
  10  -3   5    5.52    1.41
  10  -3   5    5.10    0.44
  10   3   5    4.75    0.49
 -10   3  -5    4.98    0.85
  10   3   5    4.10    1.22
  11  -3   5   16.62    0.96
  11  -3   5   15.93    2.46
  11   3   5   14.86    0.97
 -11   3  -5   18.98    1.58
  11   3   5   14.63    2.36
  12  -3   5   28.62    1.46
  12  -3   5   23.63    2.96
  12   3   5   26.22    1.47
 -12   3  -5   26.70    2.14
  12   3   5   24.93    2.93
  13  -4  -5    9.94    1.69
  13   4  -5   10.57    0.78
  12  -4  -5    5.57    1.20
  12   4  -5    4.02    0.48
  12   4  -5    4.63    1.02
  11  -4  -5    5.50    1.10
  11   4  -5    5.89    0.53
  11   4  -5    7.37    1.14
  10  -4  -5   47.71    3.59
  10   4  -5   47.15    3.46
  10   4  -5   46.24    2.27
   9  -4  -5   14.74    1.46
   9  -4  -5   14.73    1.64
   9   4  -5   14.77    1.42
   9   4  -5   15.01    1.39
   9   4  -5   14.46    0.86
   8  -4  -5   32.07    2.44
   8  -4  -5   30.74    2.53
   8   4  -5   32.80    2.41
   8   4  -5   32.19    2.35
   8   4  -5   30.19    1.55
   7  -4  -5   14.84    1.57
   7  -4  -5   16.43    1.41
   7   4  -5   15.84    0.87
   7   4  -5   15.34    1.19
   7   4  -5   16.66    1.33
   7   4  -5   15.26    1.43
   6  -4  -5  136.70    7.84
   6  -4  -5  143.36    6.37
   6  -4  -5   81.39    7.99
   6   4  -5  141.24    5.61
   6   4  -5  134.39    6.63
   5  -4  -5   80.00    5.19
   5  -4  -5   80.78    4.06
   5   4  -5   80.58    3.61
   5   4  -5   83.43    4.33
   4  -4  -5   16.72    0.86
   4  -4  -5   15.57    1.46
   4   4  -5   14.98    0.78
   4   4  -5   16.69    1.08
   3  -4  -5   44.49    3.05
   3  -4  -5   44.48    2.20
   3   4  -5   41.53    2.39
   3   4  -5   42.54    1.94
  -3   4   5   44.33    1.97
   2  -4  -5  368.85   17.68
   2  -4  -5  371.30   20.74
   2   4  -5  355.47   15.48
   2   4  -5  344.13   17.82
   1  -4  -5    6.70    0.42
   1  -4  -5    7.43    0.96
  -1  -4   5    5.03    0.81
   1   4  -5    6.11    0.49
  -1   4   5    4.02    0.28
   0  -4   5   28.14    2.27
   0  -4  -5   26.51    1.53
   0  -4  -5   31.28    2.19
   0   4   5   27.49    1.28
   0   4  -5   28.46    1.62
  -1  -4  -5   57.86    4.02
  -1  -4  -5   58.23    3.23
   1  -4   5   61.29    4.45
   1   4   5   74.55    4.39
  -1   4  -5   60.12    3.29
   2  -4   5  276.38   17.05
  -2  -4  -5  270.95   15.51
  -2  -4  -5  250.84   13.26
   2   4   5  273.52   11.52
   2   4   5  260.34   16.79
   3  -4   5   65.24    4.66
  -3  -4  -5   61.62    3.36
   3   4   5   60.38    2.78
  -3   4  -5   59.73    3.37
   3   4   5   67.53    4.49
  -4  -4  -5    0.20    0.22
   4  -4   5   -0.20    0.29
  -4  -4  -5    0.29    0.35
  -4   4  -5    0.18    0.23
   4   4   5    0.10    0.09
   4   4   5    0.17    0.39
  -5  -4  -5   31.37    2.52
  -5  -4  -5   33.97    2.06
   5   4   5   33.14    2.82
   5   4   5   33.48    1.58
  -5   4  -5   33.54    2.04
  -6  -4  -5   78.24    4.40
   6   4   5   83.04    3.61
   6   4   5   78.10    5.77
  -6   4  -5   78.25    4.37
  -7  -4  -5    7.05    0.89
   7  -4   5    6.59    1.37
   7   4   5    7.73    0.52
  -7   4  -5    5.70    0.82
   7   4   5    7.06    1.36
   8  -4   5    6.93    1.45
  -8  -4  -5   10.05    1.17
   8   4   5    7.41    0.55
  -8   4  -5    7.77    0.98
   8   4   5    6.79    1.40
   9  -4   5   22.62    2.51
   9   4   5   24.23    1.29
  -9   4  -5   24.83    1.80
   9   4   5   22.81    2.51
  10  -4   5   34.01    3.48
 -10   4  -5   40.70    2.57
  10   4   5   34.25    3.45
  10   4   5   39.51    1.92
  11  -4   5   15.02    0.87
  11  -4   5   11.88    2.14
  11   4   5   14.44    0.91
 -11   4  -5   12.89    1.49
  11   4   5   10.88    2.03
  12  -4   5    3.80    1.34
  12  -4   5    4.74    0.51
  12   4   5    4.92    0.54
 -12   4  -5    4.47    0.92
  12   4   5    5.78    1.53
  13  -5  -5    5.29    1.27
  13   5  -5    4.39    0.53
  12  -5  -5    8.19    1.45
  12   5  -5    7.48    0.62
  11  -5  -5   30.44    2.63
  11   5  -5   31.03    1.58
  11   5  -5   27.63    2.44
  10  -5  -5    0.52    0.49
  10   5  -5    0.17    0.18
  10   5  -5    0.71    0.45
   9  -5  -5   33.88    2.68
   9  -5  -5   33.02    2.77
   9   5  -5   32.62    1.67
   9   5  -5   34.45    2.55
   9   5  -5   34.20    2.55
   8  -5  -5    1.66    0.73
   8  -5  -5    3.47    0.71
   8   5  -5    2.70    0.64
   8   5  -5    2.95    0.57
   8   5  -5    2.28    0.30
   7  -5  -5  184.86   11.23
   7  -5  -5  183.52   11.84
   7   5  -5  186.54   11.71
   7   5  -5  185.75    9.61
   7   5  -5  191.08    8.19
   6  -5  -5   -0.08    0.39
   6  -5  -5   -0.04    0.08
   6   5  -5   -0.16    0.10
   6   5  -5    0.15    0.20
   5  -5  -5   34.74    2.62
   5   5  -5   33.78    1.59
   5   5  -5   33.94    2.03
   4  -5  -5   23.34    1.94
  -4   5   5   21.81    1.09
   4   5  -5   22.93    1.07
   4   5  -5   22.64    1.43
   3  -5  -5   73.25    4.78
   3   5  -5   73.73    3.88
  -3   5   5   72.60    3.25
   3   5  -5   73.41    3.22
   2  -5  -5    0.20    0.35
   2  -5  -5    0.23    0.09
   2   5  -5    0.20    0.06
  -2   5   5    0.34    0.09
   2   5  -5    0.48    0.19
  -1  -5   5  193.57   13.89
   1  -5  -5  238.58   13.04
   1  -5  -5  222.26   10.88
   1   5  -5  226.16   11.03
   1   5  -5  217.10    9.47
  -1   5   5  224.44    9.53
   0  -5  -5  100.51    5.79
   0  -5   5   89.72    6.11
   0  -5  -5   91.67    4.58
   0   5   5   76.58    3.96
   0   5  -5   98.58    4.71
  -1  -5  -5   52.46    2.79
  -1  -5  -5   55.24    3.66
   1  -5   5   40.88    3.77
   1   5   5   61.64    3.81
  -1   5  -5   53.11    2.86
   1   5   5   53.43    2.36
  -2  -5  -5    0.31    0.46
   2  -5   5   -0.17    0.35
  -2  -5  -5    0.16    0.18
   2   5   5    0.25    0.33
  -2   5  -5    0.21    0.18
   2   5   5    0.16    0.09
   3  -5   5  211.75   13.72
  -3  -5  -5  213.72   12.53
  -3  -5  -5  208.46   10.61
   3   5   5  198.74    9.15
   3   5   5  234.92   13.54
  -3   5  -5  200.15   10.62
  -4  -5  -5   15.32    1.78
   4  -5   5   21.99    2.09
  -4  -5  -5   20.37    1.37
  -4   5  -5   21.79    1.40
   4   5   5   20.37    1.91
   4   5   5   21.96    1.03
  -5  -5  -5   26.60    1.68
   5   5   5   24.53    2.29
   5   5   5   24.58    1.24
  -5   5  -5   25.23    1.64
   6  -5   5    0.38    0.29
  -6  -5  -5    2.97    0.56
  -6   5  -5    1.56    0.44
   6   5   5    2.54    0.82
   6   5   5    1.57    0.23
   7  -5   5   47.84    4.20
  -7  -5  -5   53.09    3.18
  -7   5  -5   51.46    3.09
   7   5   5   58.44    4.31
   7   5   5   53.40    2.49
   8  -5   5    4.81    1.24
   8   5   5    4.24    0.43
   8   5   5    3.18    1.02
  -8   5  -5    3.14    0.63
   9  -5   5    7.64    1.60
   9   5   5    8.71    1.67
  -9   5  -5   11.28    1.08
   9   5   5    9.53    0.67
  10  -5   5    4.21    1.21
 -10   5  -5    6.22    0.94
  10   5   5    5.08    0.52
  10   5   5    3.67    1.19
  11  -5   5   46.26    4.55
  11   5   5   53.12    4.62
  11   5   5   52.58    2.60
 -11   5  -5   58.22    3.41
  12  -5   5   11.17    2.18
  12  -5   5   11.04    0.78
  12   5   5   12.03    0.84
 -12   5  -5   12.66    1.49
  12   5   5   11.88    2.11
  13   6  -5    0.12    0.22
  12  -6  -5    8.56    1.47
  12   6  -5    8.30    0.66
  11  -6  -5    1.07    0.65
  11   6  -5    0.35    0.22
  10  -6  -5   63.29    4.70
  10   6  -5   67.22    3.06
  10   6  -5   63.31    4.52
   9  -6  -5   -0.59    0.55
   9  -6  -5    0.53    0.44
   9   6  -5    0.27    0.17
   9   6  -5    1.00    0.44
   9   6  -5    0.67    0.44
   8  -6  -5    0.17    0.33
   8  -6  -5    0.91    0.62
   8   6  -5    0.55    0.18
   8   6  -5    0.40    0.33
   8   6  -5    0.30    0.29
   7  -6  -5    0.01    0.56
   7  -6  -5   -0.06    0.25
   7   6  -5    0.36    0.25
   7   6  -5   -0.31    0.12
   7   6  -5    0.12    0.24
   6  -6  -5  171.36   10.80
   6   6  -5  183.92    9.21
   6   6  -5  179.75    7.83
   5  -6  -5    3.00    0.78
   5   6  -5    4.20    0.55
   5   6  -5    3.07    0.27
   4  -6  -5    0.54    0.44
   4   6  -5    0.11    0.08
   4   6  -5    0.29    0.20
  -4   6   5   -0.03    0.08
   3  -6  -5    5.33    0.95
  -3   6   5    4.88    0.32
   3   6  -5    4.52    0.29
   3   6  -5    5.63    0.53
   2  -6  -5  203.41   11.26
   2  -6  -5  184.37    9.18
  -2   6   5  182.44    8.10
   2   6  -5  177.32    9.39
   2   6  -5  188.14    8.06
   1  -6  -5    6.56    1.07
  -1  -6   5    6.22    0.95
   1  -6  -5    5.84    0.45
   1   6  -5    6.81    0.59
  -1   6   5    7.98    0.41
   1   6  -5    7.18    0.34
   0  -6  -5    0.97    0.55
   0  -6  -5    0.16    0.14
   0  -6   5    0.72    0.42
   0   6  -5    0.27    0.17
   0   6   5    0.45    0.11
   0   6  -5    0.37    0.06
   1  -6   5    1.47    0.58
  -1  -6  -5    1.36    0.25
  -1  -6  -5    1.13    0.59
   1   6   5    1.50    0.17
   1   6   5    1.71    0.53
  -2  -6  -5  196.34   11.71
   2  -6   5  189.71   12.66
  -2  -6  -5  186.36    9.75
  -2   6  -5  192.94    9.82
   2   6   5  210.47   12.44
   2   6   5  191.17    8.46
  -3  -6  -5   10.31    0.79
   3  -6   5    9.05    1.44
  -3  -6  -5    8.40    1.34
   3   6   5    9.17    1.09
   3   6   5    9.79    0.55
  -3   6  -5    9.71    0.81
   4  -6   5   21.33    2.11
  -4  -6  -5   20.77    1.37
  -4  -6  -5   19.12    1.98
   4   6   5   20.58    1.03
  -4   6  -5   19.57    1.37
   4   6   5   22.05    1.93
   5  -6   5    0.39    0.52
  -5  -6  -5    0.28    0.25
  -5  -6  -5   -0.08    0.60
  -5   6  -5    0.59    0.32
   5   6   5    0.53    0.14
   5   6   5   -0.12    0.41
   6  -6   5  105.84    7.49
   6   6   5  111.91    4.76
   6   6   5   92.88    7.26
  -6   6  -5  110.45    5.67
   7  -6   5    3.61    1.06
  -7   6  -5    3.79    0.65
   7   6   5    3.11    0.94
   7   6   5    4.03    0.40
   8  -6   5   14.33    2.14
   8   6   5   14.94    1.93
   8   6   5   15.53    0.92
  -8   6  -5   17.88    1.35
   9  -6   5    0.03    0.61
  -9   6  -5    0.32    0.38
   9   6   5    0.04    0.16
   9   6   5    0.37    0.66
  10  -6   5   54.66    5.18
  10   6   5   67.04    5.29
 -10   6  -5   70.50    3.93
  10   6   5   65.89    3.11
  11  -6   5    0.96    0.81
  11   6   5    0.32    0.80
 -11   6  -5    0.50    0.46
  11   6   5    0.09    0.21
  12  -6   5    3.60    1.35
 -12   6  -5    3.01    0.79
  12   6   5    3.25    0.46
  12  -7  -5    0.88    0.72
  12   7  -5    1.19    0.30
  11  -7  -5   51.84    4.10
  11   7  -5   53.34    2.58
  10  -7  -5    5.21    1.05
  10   7  -5    5.13    0.51
   9  -7  -5   22.91    2.02
   9  -7  -5   22.79    2.32
   9   7  -5   22.33    1.22
   9   7  -5   23.12    1.86
   8  -7  -5    1.45    0.51
   8  -7  -5    1.49    0.78
   8   7  -5    0.75    0.36
   8   7  -5    1.24    0.23
   8   7  -5    1.54    0.44
   7  -7  -5  158.66    9.81
   7  -7  -5  147.41   10.09
   7   7  -5  157.92    8.25
   7   7  -5  161.49    6.96
   7   7  -5  162.07    9.94
   6  -7  -5    0.14    0.26
   6  -7  -5   -0.30    0.50
   6   7  -5   -0.01    0.12
   6   7  -5   -0.11    0.19
   5  -7  -5   20.08    1.89
   5   7  -5   16.35    0.88
   5   7  -5   16.74    1.23
  -5   7   5   18.11    0.91
   4  -7  -5   17.24    1.74
   4   7  -5   16.00    1.15
   4   7  -5   16.39    0.82
  -4   7   5   16.50    0.84
   3  -7  -5   13.23    1.54
   3   7  -5   14.79    0.71
  -3   7   5   13.83    0.74
   3   7  -5   15.52    1.04
   2  -7  -5    6.08    1.14
   2   7  -5    6.00    0.56
   2   7  -5    5.65    0.32
  -2   7   5    5.54    0.36
  -1  -7   5  191.22   12.71
   1  -7  -5  213.76   12.11
   1   7  -5  186.54    8.62
  -1   7   5  211.66    8.69
   1   7  -5  198.77   10.06
   0  -7   5   10.22    1.23
   0  -7  -5   12.91    1.48
   0   7  -5   10.82    0.51
   0   7   5   10.40    0.58
  -1  -7  -5  139.65    6.98
   1  -7   5  123.24    9.11
  -1  -7  -5  140.27    8.66
   1   7   5  142.39    6.06
  -1   7  -5  138.14    5.98
  -1   7  -5  143.29    7.08
  -2  -7  -5   13.77    0.99
   2  -7   5   15.58    1.66
  -2  -7  -5   13.76    1.81
   2   7   5   19.10    1.51
  -2   7  -5   14.84    1.03
   2   7   5   13.68    0.75
  -3  -7  -5  145.36    7.45
  -3  -7  -5  143.24    9.10
   3  -7   5  149.29    9.79
   3   7   5  142.55    9.44
  -3   7  -5  145.52    7.48
   3   7   5  146.11    6.38
   4  -7   5    5.26    1.13
  -4  -7  -5    4.59    1.16
  -4   7  -5    4.72    0.61
   4   7   5    5.35    0.37
   4   7   5    3.23    0.81
  -5  -7  -5   81.28    5.57
   5  -7   5   85.74    5.94
  -5   7  -5   85.12    4.38
   5   7   5   62.44    5.50
   5   7   5   87.03    3.65
  -6  -7  -5   14.04    1.88
   6  -7   5   13.05    1.90
   6   7   5   10.64    1.66
  -6   7  -5   12.21    1.06
   6   7   5   13.71    0.77
   7  -7   5   50.32    4.28
  -7   7  -5   56.87    3.14
   7   7   5   49.21    4.14
   7   7   5   54.07    2.52
   8  -7   5    0.75    0.68
   8   7   5    0.19    0.65
   8   7   5    0.56    0.20
  -8   7  -5    0.40    0.35
   9  -7   5    9.96    1.80
  -9   7  -5   10.52    1.06
   9   7   5   10.14    0.71
   9   7   5   10.38    1.78
  10  -7   5    1.05    0.80
 -10   7  -5   -0.13    0.37
  10   7   5    0.16    0.20
  11  -7   5   25.55    2.99
  11   7   5   26.77    1.50
 -11   7  -5   28.93    2.08
  12  -7   5    3.29    1.34
 -12   7  -5    3.43    0.79
  12   7   5    3.58    0.49
  12  -8  -5    7.57    1.45
  12   8  -5    8.10    0.66
  11  -8  -5    0.08    0.48
  11   8  -5    0.28    0.21
  10  -8  -5   52.24    3.92
  10   8  -5   50.22    2.47
   9  -8  -5   19.38    2.22
   9  -8  -5   19.46    1.86
   9   8  -5   20.40    1.11
   9   8  -5   19.32    1.56
   8  -8  -5    4.21    1.15
   8  -8  -5    3.14    0.73
   8   8  -5    3.83    0.69
   8   8  -5    4.03    0.65
   8   8  -5    4.55    0.43
   7  -8  -5    9.67    1.05
   7  -8  -5    9.35    1.57
   7   8  -5    9.09    0.88
   7   8  -5    9.13    0.93
   7   8  -5    9.22    0.60
   6  -8  -5  118.26    7.47
   6  -8  -5  107.56    7.41
   6   8  -5  116.39    5.11
   6   8  -5  115.28    6.13
   5  -8  -5    8.45    1.42
   5  -8  -5    6.60    0.74
   5   8  -5    5.90    0.41
   5   8  -5    5.87    0.73
  -5   8   5    5.94    0.42
   4  -8  -5    1.23    0.71
   4   8  -5    1.83    0.38
  -4   8   5    0.96    0.17
   4   8  -5    1.61    0.18
   3  -8  -5    8.47    1.39
  -3   8   5    7.57    0.46
   3   8  -5    7.95    0.70
   3   8  -5    7.43    0.43
   2  -8  -5  189.25   11.31
  -2   8   5  187.88    8.03
   2   8  -5  176.48    9.33
   2   8  -5  183.51    7.97
  -1  -8   5   67.17    5.21
   1  -8  -5   85.17    5.39
  -1   8   5   79.35    3.44
   1   8  -5   79.14    4.10
   1   8  -5   77.54    3.38
   0  -8   5   -0.06    0.33
   0  -8  -5    0.69    0.66
   0   8  -5   -0.02    0.13
   0   8  -5    0.04    0.05
   0   8   5   -0.05    0.06
  -1  -8  -5    8.12    1.41
   1  -8   5    6.82    1.21
   1   8   5    8.58    0.49
  -1   8  -5    8.10    0.41
  -1   8  -5    8.26    0.69
   2  -8   5  141.99   10.04
  -2  -8  -5  143.61    9.48
   2   8   5  150.07    6.63
  -2   8  -5  145.16    7.72
   2   8   5  173.55    9.84
   3  -8   5   13.39    1.63
  -3  -8  -5   13.31    1.91
   3   8   5   14.08    0.77
  -3   8  -5   14.30    1.06
   3   8   5   17.12    1.48
  -4  -8  -5    2.07    0.98
   4  -8   5    1.61    0.67
   4   8   5    1.87    0.24
  -4   8  -5    1.82    0.41
   4   8   5    1.41    0.56
   5  -8   5   34.47    3.04
  -5  -8  -5   39.00    3.19
   5   8   5   29.86    2.75
   5   8   5   36.17    1.69
  -5   8  -5   35.92    2.15
  -6  -8  -5   73.83    5.37
   6  -8   5   74.40    5.58
   6   8   5   60.52    5.23
   6   8   5   80.70    3.42
  -6   8  -5   79.31    4.14
   7  -8   5    0.05    0.55
  -7   8  -5    0.06    0.31
   7   8   5    0.17    0.58
   7   8   5    0.37    0.17
   8  -8   5    6.67    1.39
   8   8   5    5.65    1.30
  -8   8  -5    5.58    0.82
   8   8   5    5.37    0.48
   9  -8   5    7.81    1.62
   9   8   5    8.26    0.63
  -9   8  -5    9.42    1.09
  10  -8   5   32.26    3.41
 -10   8  -5   36.25    2.43
  10   8   5   36.62    1.86
  11  -8   5    1.08    0.89
  11   8   5    0.47    0.24
 -11   8  -5    0.30    0.45
  12  -8   5    1.32    0.96
  12   8   5    1.14    0.31
  12  -9  -5   17.79    2.05
  12   9  -5   17.85    1.09
  12   9  -5   16.04    1.57
  11  -9  -5   21.83    2.26
  11   9  -5   23.91    1.32
  11   9  -5   23.61    1.86
  10  -9  -5    8.04    1.31
  10   9  -5    7.05    1.02
  10   9  -5    6.83    0.58
   9  -9  -5    8.85    1.70
   9  -9  -5   10.85    1.28
   9   9  -5   10.37    0.70
   9   9  -5    9.95    1.18
   8  -9  -5   25.73    2.58
   8  -9  -5   25.17    2.13
   8   9  -5   27.44    1.87
   8   9  -5   24.64    1.32
   7  -9  -5   28.47    2.28
   7  -9  -5   31.60    2.80
   7   9  -5   28.55    1.45
   7   9  -5   29.76    1.98
   6  -9  -5   -0.47    0.63
   6  -9  -5    0.13    0.27
   6   9  -5    0.25    0.22
   6   9  -5    0.04    0.22
   6   9  -5   -0.18    0.11
   5  -9  -5   17.27    1.46
   5  -9  -5   15.34    2.11
   5   9  -5   18.36    1.32
   5   9  -5   17.66    0.92
  -5   9   5   19.29    0.95
   4  -9  -5   36.88    3.13
   4   9  -5   38.07    2.24
   4   9  -5   37.24    1.71
  -4   9   5   35.80    1.74
   3  -9  -5   41.63    3.42
  -3   9   5   41.99    1.97
   3   9  -5   43.50    1.94
   3   9  -5   42.62    2.47
   2  -9  -5    3.41    1.01
   2   9  -5    3.49    0.25
   2   9  -5    3.61    0.51
  -2   9   5    3.71    0.29
  -1  -9   5   48.43    3.83
   1  -9  -5   62.71    4.26
  -1   9   5   58.69    2.48
   1   9  -5   51.84    2.40
   0  -9   5   50.43    4.02
   0  -9  -5   59.11    4.28
   0   9  -5   53.02    2.45
   0   9  -5   57.77    3.06
   0   9   5   58.94    2.53
  -1  -9  -5   14.77    2.01
   1  -9   5   13.11    1.56
   1   9   5   14.58    0.78
  -1   9  -5   15.89    0.72
  -1   9  -5   14.89    1.05
  -2  -9  -5    2.74    1.04
   2  -9   5    1.47    0.67
  -2   9  -5    2.38    0.18
  -2   9  -5    2.21    0.40
   2   9   5    1.90    0.24
   3  -9   5   72.34    5.17
  -3  -9  -5   62.33    5.03
   3   9   5   66.50    3.12
  -3   9  -5   68.23    3.76
   3   9   5   75.48    4.82
  -4  -9  -5   81.70    6.16
   4  -9   5   89.47    6.38
   4   9   5   97.30    6.07
  -4   9  -5   87.10    4.73
   4   9   5   85.97    3.98
   5  -9   5   13.10    1.64
  -5  -9  -5   13.51    2.11
  -5   9  -5   13.55    1.09
   5   9   5   13.92    0.78
   5   9   5   12.27    1.43
  -6  -9  -5    2.65    0.97
   6  -9   5    0.97    0.69
   6   9   5    2.02    0.71
  -6   9  -5    2.11    0.50
   6   9   5    2.49    0.31
   7  -9   5   22.44    2.39
  -7   9  -5   22.77    1.60
   7   9   5   18.95    2.12
   7   9   5   23.36    1.21
   8  -9   5   13.60    2.12
  -8   9  -5   17.96    1.38
   8   9   5   16.73    0.99
   9  -9   5    6.87    1.57
  -9   9  -5    7.87    0.98
   9   9   5    6.56    0.57
  10  -9   5    1.89    0.97
  10   9   5   -0.26    0.17
 -10   9  -5    0.37    0.43
  11  -9   5   17.06    2.74
  11   9   5   19.04    1.19
 -11   9  -5   21.93    1.71
  12 -10  -5    2.30    0.94
  12  10  -5    1.50    0.34
  12  10  -5    1.18    0.59
  11 -10  -5    4.23    1.07
  11  10  -5    4.39    0.85
  11  10  -5    4.05    0.48
  10 -10  -5   14.56    1.64
  10  10  -5   14.67    1.38
  10  10  -5   14.33    0.91
   9 -10  -5   14.34    1.52
   9 -10  -5   11.01    1.97
   9  10  -5   12.55    1.25
   9  10  -5   13.72    0.84
   8 -10  -5    0.20    0.78
   8 -10  -5    0.99    0.51
   8  10  -5    1.28    0.46
   8  10  -5    1.02    0.23
   7 -10  -5   16.45    2.27
   7 -10  -5   15.30    1.48
   7  10  -5   16.26    0.90
   7  10  -5   15.87    1.31
   6 -10  -5   21.68    2.40
   6 -10  -5   22.58    1.82
   6  10  -5   22.46    1.59
  -6  10   5   20.22    1.13
   6  10  -5   23.14    1.14
   5 -10  -5   18.51    1.46
   5 -10  -5   17.03    2.23
  -5  10   5   16.50    0.91
   5  10  -5   16.86    1.29
   5  10  -5   16.69    0.89
   4 -10  -5    1.24    0.36
   4 -10  -5    1.44    0.85
  -4  10   5    1.05    0.19
   4  10  -5    0.87    0.16
   4  10  -5    1.54    0.38
   3 -10  -5   32.37    3.03
  -3  10   5   35.06    1.64
   3  10  -5   34.45    1.60
   2 -10  -5   21.15    2.23
  -1 -10   5   42.48    3.57
  -1  10   5   55.36    2.32
   1  10  -5   51.05    2.24
   0 -10  -5    1.05    0.84
   0 -10   5    0.05    0.37
   0  10  -5   -0.03    0.05
   0  10   5    0.22    0.10
   0  10  -5    0.03    0.16
   1 -10   5   13.29    1.59
  -1 -10  -5   12.67    2.02
   1  10   5   14.24    0.78
  -1  10  -5   15.84    0.72
  -1  10  -5   14.34    1.04
   2 -10   5   56.78    4.51
  -2 -10  -5   59.13    4.68
   2  10   5   58.07    2.74
  -2  10  -5   62.36    2.67
  -2  10  -5   62.42    3.32
   3 -10   5   29.33    2.71
  -3 -10  -5   30.32    3.01
   3  10   5   30.35    1.47
  -3  10  -5   30.41    1.86
   4 -10   5    0.08    0.48
  -4 -10  -5    1.18    0.89
  -4  10  -5    0.37    0.27
   4  10   5    0.09    0.12
   4  10   5    0.13    0.40
   5 -10   5   38.97    3.33
  -5 -10  -5   36.05    3.45
  -5  10  -5   39.06    2.31
   5  10   5   38.80    1.86
   5  10   5   36.67    2.97
   6 -10   5   24.91    2.53
  -6 -10  -5   26.76    2.78
  -6  10  -5   26.97    1.74
   6  10   5   27.01    1.33
   6  10   5   20.70    2.19
   7 -10   5   18.71    2.19
   7  10   5   19.21    1.09
  -7  10  -5   20.49    1.48
   8 -10   5    1.10    0.81
  -8  10  -5    3.51    0.66
   8  10   5    2.42    0.37
   9 -10   5   29.43    3.09
  -9  10  -5   31.51    2.13
   9  10   5   31.03    1.65
  10 -10   5   11.55    2.09
 -10  10  -5   14.05    1.28
  10  10   5   12.88    0.89
  11 -10   5    5.82    1.59
 -11  10  -5    6.61    1.01
  11  10   5    6.52    0.65
  11 -11  -5    8.66    1.53
  11  11  -5    8.25    1.19
  11  11  -5    8.76    0.68
  10 -11  -5    5.27    1.09
  10  11  -5    5.93    0.94
  10  11  -5    4.66    0.52
   9 -11  -5    3.76    1.31
   9 -11  -5    4.79    0.99
   9  11  -5    3.10    0.70
   9  11  -5    4.36    0.47
   8 -11  -5   30.30    3.27
   8 -11  -5   37.91    2.94
   8  11  -5   37.40    1.85
   8  11  -5   41.09    2.53
   7 -11  -5   20.80    2.50
   7 -11  -5   25.77    2.06
   7  11  -5   24.09    1.26
   7  11  -5   24.10    1.76
   6 -11  -5    3.97    0.71
   6 -11  -5    2.36    1.08
   6  11  -5    2.94    0.32
   6  11  -5    2.60    0.55
  -6  11   5    2.55    0.32
   5 -11  -5    8.52    1.69
   5 -11  -5   10.37    1.01
   5  11  -5    9.81    0.94
   5  11  -5   10.39    0.60
  -5  11   5    9.28    0.60
   4 -11  -5  126.43    8.00
   4 -11  -5  122.93    8.33
   4  11  -5  122.25    5.51
  -4  11   5  127.83    5.55
   4  11  -5  124.84    6.61
   3 -11  -5   10.43    1.83
  -3  11   5   10.84    0.64
   3  11  -5   11.44    0.61
   2 -11  -5   -0.12    0.42
   2  11  -5    0.04    0.11
  -2  11   5    0.53    0.14
   2  11  -5    0.30    0.10
   1  11  -5   11.39    0.56
   1  11  -5    8.86    0.82
  -1  11   5   11.09    0.62
   0 -11   5   38.03    3.24
   0 -11  -5   45.87    3.80
   0  11  -5   43.17    1.91
   0  11  -5   44.33    2.46
   0  11   5   42.27    1.99
  -1 -11  -5   20.44    2.77
   1 -11   5   18.52    2.03
   1  11   5   22.10    1.11
  -1  11  -5   23.35    1.04
  -1  11  -5   21.31    1.41
   2 -11   5    1.24    0.67
  -2 -11  -5    1.97    1.14
  -2  11  -5    1.33    0.34
  -2  11  -5    1.54    0.17
   2  11   5    1.43    0.22
   3 -11   5   24.20    2.35
  -3 -11  -5   23.10    2.73
   3  11   5   24.11    1.22
  -3  11  -5   24.24    1.57
  -4 -11  -5   77.49    5.99
   4 -11   5   74.37    5.84
   4  11   5   89.98    5.53
   4  11   5   77.96    3.64
  -4  11  -5   79.70    4.35
   5 -11   5    4.61    1.14
  -5 -11  -5    5.03    1.40
  -5  11  -5    5.41    0.71
   5  11   5    5.56    0.44
  -6 -11  -5    1.19    0.86
   6 -11   5    0.93    0.66
  -6  11  -5    0.55    0.35
   6  11   5    0.48    0.19
   7 -11   5    8.75    1.63
   7  11   5    7.72    0.59
  -7  11  -5    7.40    0.93
   8 -11   5   70.99    5.93
  -8  11  -5   76.25    4.36
   8  11   5   82.48    3.65
   9 -11   5    4.09    1.28
  -9  11  -5    5.38    0.86
   9  11   5    5.08    0.55
  10 -11   5    4.03    1.24
  10  11   5    2.18    0.39
 -10  11  -5    4.11    0.78
  11 -11   5    1.61    0.99
  11  11   5    2.58    0.43
  11 -12  -5    9.76    1.58
  11  12  -5    8.34    0.68
  11  12  -5    8.80    1.23
  10 -12  -5   16.15    1.76
  10  12  -5   15.42    0.96
  10  12  -5   12.98    1.37
   9 -12  -5   56.50    4.85
   9 -12  -5   57.03    4.36
   9  12  -5   61.22    3.66
   9  12  -5   59.82    2.82
   8 -12  -5   -0.72    0.73
   8 -12  -5   -0.15    0.35
   8  12  -5    0.15    0.32
   8  12  -5   -0.05    0.15
   7 -12  -5   17.01    2.45
   7 -12  -5   16.41    1.57
   7  12  -5   15.98    0.93
   7  12  -5   17.94    1.42
   6 -12  -5    5.21    1.43
   6 -12  -5    7.38    0.90
   6  12  -5    7.68    0.52
  -6  12   5    7.27    0.51
   6  12  -5    7.18    0.93
   5 -12  -5   83.38    5.37
   5 -12  -5   81.63    5.97
   5  12  -5   82.17    4.52
  -5  12   5   76.65    3.65
   5  12  -5   80.18    3.64
   4 -12  -5    2.25    1.10
   4 -12  -5    1.21    0.38
  -4  12   5    0.99    0.19
   4  12  -5    1.08    0.19
   4  12  -5    1.04    0.37
   3 -12  -5   24.82    2.75
   3  12  -5   23.33    1.17
   3  12  -5   23.54    1.62
  -3  12   5   25.44    1.22
   2 -12  -5    0.36    0.83
  -2  12   5    0.61    0.17
   2  12  -5    0.57    0.23
   2  12  -5    0.84    0.14
  -1 -12   5   88.15    6.69
  -1  12   5  109.03    4.53
   1  12  -5  103.50    5.37
   1  12  -5  101.99    4.44
   0 -12  -5   -0.47    0.75
   0 -12   5    0.01    0.40
   0  12  -5   -0.02    0.18
   0  12   5   -0.03    0.10
   0  12  -5   -0.09    0.07
   1 -12   5   39.00    3.58
  -1 -12  -5   50.85    4.25
  -1  12  -5   48.60    2.12
   1  12   5   48.74    2.21
  -1  12  -5   47.64    2.69
   2 -12   5   22.98    2.32
  -2 -12  -5   20.39    2.89
   2  12   5   26.63    1.25
  -2  12  -5   23.01    1.55
  -2  12  -5   24.40    1.15
   3 -12   5   67.75    5.15
  -3 -12  -5   64.74    5.39
  -3  12  -5   70.76    3.05
   3  12   5   65.76    3.12
  -3  12  -5   70.06    3.77
  -4 -12  -5    0.07    0.73
   4 -12   5   -0.15    0.48
   4  12   5    0.11    0.13
  -4  12  -5    0.24    0.28
   5 -12   5   57.82    4.52
  -5 -12  -5   54.75    4.77
   5  12   5   56.57    2.66
  -5  12  -5   56.02    3.22
  -6 -12  -5    0.74    0.87
   6 -12   5    1.79    0.85
  -6  12  -5    1.68    0.46
   6  12   5    1.51    0.28
   7 -12   5   35.12    3.38
   7  12   5   37.55    1.89
  -7  12  -5   38.76    2.38
   8 -12   5    0.74    0.78
   8  12   5    0.76    0.25
  -8  12  -5    0.90    0.45
   9 -12   5   43.31    4.19
   9  12   5   48.59    2.41
  -9  12  -5   50.66    3.01
  10 -12   5    0.81    0.81
  10  12   5    3.17    0.46
 -10  12  -5    2.97    0.69
  11 -13  -5    0.52    0.68
  11  13  -5    0.45    0.47
  11  13  -5    0.75    0.29
  10 -13  -5    7.86    1.36
  10  13  -5    7.23    1.11
  10  13  -5    8.03    0.65
   9 -13  -5    0.00    0.47
   9 -13  -5   -0.70    0.88
   9  13  -5   -0.05    0.32
   9  13  -5   -0.11    0.17
   8 -13  -5   56.13    4.76
   8 -13  -5   56.35    4.13
   8  13  -5   53.72    3.44
   8  13  -5   56.81    2.67
   7 -13  -5    0.73    0.99
   7 -13  -5    1.89    0.58
   7  13  -5    1.90    0.54
   7  13  -5    1.51    0.27
   6 -13  -5    8.82    1.82
   6 -13  -5    8.67    1.00
   6  13  -5    7.84    0.56
   6  13  -5    9.04    1.05
  -6  13   5    8.06    0.57
   5 -13  -5    0.34    0.30
   5 -13  -5   -0.14    0.78
   5  13  -5   -0.07    0.23
   5  13  -5    0.24    0.13
  -5  13   5    0.10    0.13
   4 -13  -5  130.78    8.17
   4 -13  -5  124.77    8.71
   4  13  -5  123.73    6.75
  -4  13   5  129.29    5.66
   4  13  -5  125.79    5.62
   3 -13  -5    9.91    0.93
   3 -13  -5    8.99    1.87
  -3  13   5   10.47    0.61
   3  13  -5    9.53    0.57
   3  13  -5    9.64    0.89
   2 -13  -5    1.14    1.04
   2  13  -5    0.91    0.31
  -2  13   5    0.68    0.17
   2  13  -5    0.83    0.15
   1 -13  -5    0.67    0.96
  -1 -13   5    0.49    0.57
   1  13  -5    1.79    0.39
  -1  13   5    1.13    0.22
   1  13  -5    1.23    0.17
   0 -13   5  175.21   12.40
   0 -13  -5  204.34   12.59
   0  13  -5  193.10    9.81
   0  13   5  199.92    8.43
   0  13  -5  190.48    8.34
  -1 -13  -5   -0.38    0.86
   1 -13   5   -0.10    0.50
  -1  13  -5    0.04    0.10
  -1  13  -5    0.39    0.25
   1  13   5    0.43    0.15
   2 -13   5   -0.21    0.51
  -2 -13  -5   -0.33    0.87
  -2  13  -5   -0.02    0.21
  -2  13  -5    0.00    0.09
   2  13   5    0.38    0.14
  -3 -13  -5   -0.48    0.71
   3 -13   5   -0.53    0.46
  -3  13  -5    0.32    0.25
   3  13   5    0.11    0.13
  -3  13  -5    0.17    0.11
  -4 -13  -5   68.58    5.78
   4 -13   5   78.09    5.57
  -4  13  -5   71.54    4.02
   4  13   5   72.74    3.35
  -5 -13  -5    1.86    1.03
   5 -13   5    0.46    0.66
  -5  13  -5    0.60    0.34
   5  13   5    0.61    0.19
   6 -13   5    0.27    0.59
  -6 -13  -5    0.54    0.87
  -6  13  -5    0.58    0.36
   6  13   5   -0.05    0.15
   7 -13   5    0.94    0.84
  -7  13  -5    1.23    0.46
   7  13   5    1.19    0.28
   8 -13   5   59.17    5.26
  -8  13  -5   69.16    3.86
   8  13   5   68.59    3.20
   9 -13   5    0.33    0.72
  -9  13  -5    0.22    0.40
   9  13   5    0.34    0.21
  10 -13   5    3.12    1.21
  10  13   5    3.28    0.48
  10 -14  -5   11.82    1.76
  10  14  -5   12.37    0.86
  10  14  -5   14.84    1.42
   9 -14  -5   27.58    3.54
   9 -14  -5   27.33    2.45
   9  14  -5   26.61    1.47
   9  14  -5   28.15    2.11
   8 -14  -5    0.79    1.02
   8 -14  -5    0.45    0.47
   8  14  -5    0.38    0.21
   8  14  -5    0.48    0.42
   7 -14  -5   16.35    1.58
   7 -14  -5   17.07    2.62
   7  14  -5   15.25    0.92
   7  14  -5   14.76    1.36
  -7  14   5   16.48    0.94
   6 -14  -5   17.83    2.70
   6 -14  -5   17.48    1.58
   6  14  -5   16.99    1.42
  -6  14   5   17.16    0.97
   6  14  -5   16.92    0.96
   5 -14  -5   51.53    3.74
   5 -14  -5   49.15    4.55
  -5  14   5   56.14    2.53
   5  14  -5   54.11    2.50
   5  14  -5   53.22    3.22
   4 -14  -5    2.05    0.50
   4 -14  -5    1.03    1.12
   4  14  -5    2.57    0.53
   4  14  -5    1.81    0.25
  -4  14   5    1.98    0.28
   3 -14  -5   37.48    2.68
   3 -14  -5   38.27    3.78
  -3  14   5   39.70    1.84
   3  14  -5   37.34    1.79
   3  14  -5   37.25    2.35
   2 -14  -5   16.34    1.28
   2 -14  -5   14.27    2.48
   2  14  -5   15.00    0.81
  -2  14   5   16.18    0.88
   2  14  -5   16.46    1.22
   1 -14  -5   32.09    3.51
   1  14  -5   33.37    1.60
   1  14  -5   32.42    2.10
  -1  14   5   37.62    1.69
   0 -14   5    1.00    0.61
   0 -14  -5    0.56    0.99
   0  14  -5    0.85    0.33
   0  14   5    1.05    0.20
   0  14  -5    0.99    0.16
  -1 -14  -5   67.87    5.58
   1 -14   5   58.56    4.85
  -1  14  -5   69.86    2.98
  -1  14  -5   68.47    3.70
   1  14   5   66.29    3.06
  -2 -14  -5    6.03    1.71
   2 -14   5    5.01    1.14
  -2  14  -5    4.82    0.64
   2  14   5    4.46    0.40
  -2  14  -5    4.85    0.34
   3 -14   5   43.91    4.06
  -3 -14  -5   51.51    4.71
  -3  14  -5   56.69    2.39
  -3  14  -5   53.36    3.01
   3  14   5   51.34    2.46
   4 -14   5    3.11    1.01
  -4 -14  -5    3.19    1.31
  -4  14  -5    4.26    0.62
   4  14   5    3.13    0.37
  -5 -14  -5   38.31    3.83
   5 -14   5   32.89    3.12
   5  14   5   33.78    1.73
  -5  14  -5   35.37    2.18
  -6 -14  -5   14.54    2.67
   6 -14   5   16.69    2.05
  -6  14  -5   17.35    1.33
   6  14   5   17.62    1.02
   7 -14   5   11.60    1.98
  -7  14  -5   13.78    1.19
   7  14   5   13.77    0.88
   8 -14   5    0.32    0.73
  -8  14  -5   -0.07    0.36
   8  14   5    0.52    0.24
   9 -14   5   24.97    2.87
   9  14   5   26.70    1.50
  10 -14   5    3.74    1.32
  10  14   5    3.95    0.54
  10 -15  -5   -0.15    0.54
  10  15  -5   -0.06    0.20
  10  15  -5   -0.22    0.36
   9 -15  -5    2.70    0.82
   9 -15  -5    0.79    1.05
   9  15  -5    1.76    0.34
   9  15  -5    2.00    0.63
   8 -15  -5   31.45    3.64
   8 -15  -5   36.39    2.91
   8  15  -5   36.37    2.49
   8  15  -5   34.82    1.80
   7 -15  -5   14.84    2.61
   7 -15  -5   12.74    1.37
  -7  15   5   12.61    0.79
   7  15  -5   12.56    1.23
   7  15  -5   11.78    0.79
   6 -15  -5    2.10    0.61
   6 -15  -5    2.05    1.26
   6  15  -5    2.12    0.30
  -6  15   5    2.34    0.32
   6  15  -5    2.57    0.63
   5 -15  -5   13.13    1.25
   5 -15  -5   10.93    2.22
   5  15  -5   12.51    0.75
   5  15  -5   11.37    1.13
  -5  15   5   13.44    0.78
   4 -15  -5   58.69    3.99
   4 -15  -5   57.04    5.03
   4  15  -5   57.97    2.69
   4  15  -5   56.33    3.41
  -4  15   5   59.53    2.73
   3 -15  -5   27.09    1.92
   3 -15  -5   19.92    3.11
  -3  15   5   25.95    1.29
   3  15  -5   24.18    1.71
   3  15  -5   23.69    1.23
   2 -15  -5    0.52    0.28
   2 -15  -5    1.32    1.16
  -2  15   5    0.62    0.18
   2  15  -5    0.68    0.30
   2  15  -5    0.51    0.14
   1 -15  -5    2.11    0.39
   1 -15  -5    2.51    1.24
   1  15  -5    1.39    0.19
  -1  15   5    1.34    0.24
   1  15  -5    1.18    0.37
   0 -15  -5   32.72    3.71
   0  15  -5   37.28    1.69
   0  15   5   36.53    1.77
   0  15  -5   35.46    2.21
  -1 -15  -5   21.06    3.09
   1  15   5   21.32    1.14
  -1  15  -5   21.77    1.07
  -1  15  -5   22.34    1.50
   2 -15   5    0.35    0.58
  -2 -15  -5    0.84    0.94
  -2  15  -5    0.07    0.10
  -2  15  -5    0.16    0.24
   2  15   5    0.00    0.13
   3 -15   5   14.68    1.84
  -3 -15  -5   13.83    2.61
  -3  15  -5   15.88    0.82
   3  15   5   15.23    0.90
  -3  15  -5   16.75    1.22
   4 -15   5   66.87    5.24
  -4 -15  -5   65.16    5.79
   4  15   5   66.91    3.17
  -4  15  -5   71.25    3.83
   5 -15   5    7.05    1.44
  -5 -15  -5    5.54    1.68
  -5  15  -5    6.08    0.80
   5  15   5    6.52    0.52
  -6 -15  -5    0.44    0.95
   6 -15   5    0.58    0.69
  -6  15  -5    0.57    0.37
   6  15   5    0.41    0.21
   7 -15   5   22.99    2.57
  -7  15  -5   23.61    1.68
   7  15   5   22.59    1.30
   8 -15   5   34.51    3.41
  -8  15  -5   36.25    2.32
   8  15   5   33.69    1.83
   9 -15   5    0.81    0.87
   9  15   5    1.01    0.29
   9 -16  -5   14.92    1.74
   9 -16  -5   13.33    2.60
   9  16  -5   15.56    1.51
   9  16  -5   16.03    0.99
   8 -16  -5    6.99    1.96
   8 -16  -5    8.20    1.29
   8  16  -5    7.95    0.63
   8  16  -5    8.42    1.16
   7 -16  -5    8.05    2.02
   7 -16  -5    8.67    1.29
  -7  16   5    9.54    0.66
   7  16  -5    9.79    0.67
   7  16  -5    8.88    1.19
   6 -16  -5   32.60    3.71
   6 -16  -5   35.66    2.78
   6  16  -5   36.52    2.45
   6  16  -5   35.84    1.78
  -6  16   5   35.93    1.79
   5 -16  -5    9.61    1.04
   5 -16  -5    9.17    2.06
   5  16  -5    8.64    1.05
   5  16  -5    8.24    0.59
  -5  16   5    8.78    0.61
   4 -16  -5    0.11    0.31
   4 -16  -5    0.48    0.95
  -4  16   5   -0.11    0.14
   4  16  -5    0.21    0.15
   4  16  -5    0.48    0.31
   3 -16  -5   12.12    2.46
   3 -16  -5   10.45    1.03
   3  16  -5   10.77    1.01
  -3  16   5   10.73    0.68
   3  16  -5   10.26    0.63
   2 -16  -5   43.15    2.96
   2 -16  -5   40.46    4.21
  -2  16   5   43.50    2.07
   2  16  -5   47.18    2.66
   2  16  -5   40.56    2.00
   1 -16  -5   22.98    3.26
   1  16  -5   18.55    0.96
  -1  16   5   18.91    1.03
   1  16  -5   19.98    1.42
   0 -16  -5    0.29    0.91
   0  16   5   -0.13    0.11
   0  16  -5   -0.06    0.20
   0  16  -5    0.03    0.11
  -1 -16  -5   10.49    2.33
   1  16   5   11.79    0.72
  -1  16  -5   11.46    0.64
  -1  16  -5   11.14    0.97
  -2 -16  -5   61.67    5.54
  -2  16  -5   63.77    2.80
  -2  16  -5   61.61    3.49
   2  16   5   59.53    2.88
   3 -16   5   18.42    2.03
  -3 -16  -5   18.21    3.06
  -3  16  -5   16.86    1.26
  -3  16  -5   17.04    0.88
   3  16   5   15.24    0.94
  -4 -16  -5    5.07    1.67
   4 -16   5    3.84    1.11
  -4  16  -5    3.95    0.35
   4  16   5    4.10    0.44
  -4  16  -5    4.46    0.66
   5 -16   5   18.60    2.20
  -5 -16  -5   18.71    3.15
  -5  16  -5   19.45    1.43
   5  16   5   18.91    1.09
  -6 -16  -5   21.69    3.51
   6 -16   5   21.13    2.39
  -6  16  -5   19.94    1.51
   6  16   5   20.33    1.17
   7 -16   5   11.85    2.00
  -7  16  -5   11.95    1.11
   7  16   5   12.06    0.83
   8 -16   5    1.27    0.87
   8  16   5    0.93    0.29
   9 -16   5   13.28    2.31
   9  16   5   14.07    0.96
   9 -17  -5    7.04    1.98
   9 -17  -5    5.39    1.16
   9  17  -5    5.16    0.56
   9  17  -5    3.46    0.83
   8 -17  -5    7.92    2.08
   8 -17  -5    9.56    1.46
   8  17  -5    8.88    1.24
   8  17  -5   10.56    0.73
   7 -17  -5   24.72    2.12
   7 -17  -5   21.26    3.34
  -7  17   5   22.85    1.27
   7  17  -5   21.55    1.82
   7  17  -5   22.67    1.26
   6 -17  -5    0.37    0.42
   6 -17  -5    0.03    0.95
   6  17  -5    0.00    0.29
   6  17  -5    0.02    0.16
  -6  17   5   -0.02    0.15
   5 -17  -5   33.28    2.61
   5 -17  -5   32.63    3.75
   5  17  -5   33.33    2.30
  -5  17   5   35.48    1.73
   5  17  -5   34.03    1.70
   4 -17  -5   18.61    1.61
   4 -17  -5   15.44    2.86
  -4  17   5   18.08    1.03
   4  17  -5   19.56    1.01
   4  17  -5   17.99    1.47
   3 -17  -5   34.53    3.96
  -3  17   5   39.54    1.90
   3  17  -5   38.18    1.85
   3  17  -5   39.75    2.49
   2 -17  -5    0.25    0.91
   2  17  -5    0.00    0.13
   2  17  -5    0.29    0.28
  -2  17   5    0.01    0.15
   1 -17  -5   24.44    3.59
   1  17  -5   26.31    1.35
  -1  17   5   29.22    1.44
   1  17  -5   29.72    1.89
   0 -17  -5   15.99    2.86
   0  17  -5   12.98    0.71
   0  17   5   12.82    0.78
   0  17  -5   12.53    1.07
  -1 -17  -5   35.75    3.87
   1  17   5   29.30    1.56
  -1  17  -5   32.91    2.01
  -1  17  -5   30.78    1.49
  -2 -17  -5   -0.55    0.75
   2  17   5    0.84    0.23
  -2  17  -5    0.70    0.18
  -2  17  -5    0.56    0.33
  -3 -17  -5   36.59    4.17
  -3  17  -5   40.46    1.84
   3  17   5   36.19    1.91
  -3  17  -5   41.07    2.42
  -4 -17  -5    7.35    2.05
   4 -17   5    6.09    1.39
   4  17   5    7.62    0.58
  -4  17  -5    7.46    0.91
  -4  17  -5    8.28    0.52
   5 -17   5    3.05    1.05
  -5 -17  -5    2.53    1.34
  -5  17  -5    3.40    0.63
   5  17   5    3.56    0.43
   6 -17   5    0.67    0.74
  -6 -17  -5    1.49    1.22
  -6  17  -5    0.26    0.36
   6  17   5    0.93    0.26
   7 -17   5   24.28    2.77
   7  17   5   26.39    1.45
   8 -17   5    9.58    1.88
   8  17   5    9.60    0.75
   8 -18  -5    1.52    0.70
   8 -18  -5    3.40    1.50
   8  18  -5    1.15    0.30
   8  18  -5    1.52    0.59
   7 -18  -5    2.18    0.73
  -7  18   5    2.78    0.38
   7  18  -5    2.00    0.34
   7  18  -5    2.73    0.71
   6 -18  -5   51.57    4.79
   6 -18  -5   44.67    3.41
  -6  18   5   43.33    2.20
   6  18  -5   47.34    2.21
   6  18  -5   41.78    2.90
   5 -18  -5    1.33    0.52
   5 -18  -5    1.63    1.21
   5  18  -5    1.48    0.27
  -5  18   5    0.89    0.24
   5  18  -5    1.19    0.44
   4 -18  -5    0.80    1.04
   4  18  -5   -0.09    0.28
   4  18  -5   -0.16    0.14
  -4  18   5    0.00    0.15
   3 -18  -5    2.53    1.44
  -3  18   5    2.48    0.33
   3  18  -5    2.70    0.60
   3  18  -5    2.43    0.30
   2 -18  -5   65.59    5.78
   2  18  -5   63.32    3.66
  -2  18   5   64.54    2.95
   2  18  -5   60.04    2.86
   1 -18  -5    4.91    1.71
  -1  18   5    4.73    0.42
   1  18  -5    4.52    0.70
   1  18  -5    4.87    0.39
   0 -18  -5    0.60    1.05
   0  18  -5    2.03    0.47
   0  18  -5    1.41    0.23
   0  18   5    1.35    0.25
  -1 -18  -5    0.32    0.97
  -1  18  -5   -0.01    0.23
   1  18   5   -0.13    0.12
  -1  18  -5    0.18    0.14
  -2 -18  -5   35.80    4.24
  -2  18  -5   40.09    1.87
  -2  18  -5   39.07    2.43
   2  18   5   40.37    1.97
  -3 -18  -5    1.26    1.06
  -3  18  -5    1.19    0.21
   3  18   5    0.96    0.23
  -3  18  -5    1.13    0.41
  -4 -18  -5    7.22    2.16
   4  18   5    6.41    0.53
  -4  18  -5    6.11    0.82
  -5 -18  -5    3.23    1.54
  -5  18  -5    2.17    0.54
   5  18   5    2.05    0.34
   6 -18   5   44.27    4.00
  -6 -18  -5   47.45    5.06
  -6  18  -5   44.34    2.74
   6  18   5   44.46    2.25
   7 -18   5    3.13    1.13
   7  18   5    1.97    0.37
   8 -18   5    0.88    0.84
   8  18   5    0.60    0.26
   7 -19  -5   19.55    3.33
   7 -19  -5   22.07    2.07
   7  19  -5   20.91    1.79
  -7  19   5   22.04    1.24
   6 -19  -5   -0.10    0.95
  -6  19   5   -0.07    0.16
   6  19  -5    0.19    0.36
   5 -19  -5   22.49    3.49
  -5  19   5   20.66    1.17
   5  19  -5   20.81    1.69
   4 -19  -5   -0.21    0.82
   4  19  -5   -0.09    0.26
  -4  19   5    0.17    0.17
   3 -19  -5   32.04    4.44
  -3  19   5   37.88    1.85
   3  19  -5   36.30    2.41
   2 -19  -5   -0.61    0.87
   2  19  -5   -0.07    0.26
  -2  19   5    0.24    0.16
   1 -19  -5    7.74    2.14
  -1  19   5    9.62    0.65
   1  19  -5    9.85    0.98
   0 -19  -5    0.41    0.90
   0  19   5   -0.05    0.13
   0  19  -5    0.15    0.27
  -1 -19  -5   19.33    3.34
  -1  19  -5   20.39    1.45
   1  19   5   17.89    1.05
  -2 -19  -5   -0.55    0.78
   2  19   5   -0.05    0.15
  -2  19  -5    0.17    0.28
  -3 -19  -5   18.76    3.40
  -3  19  -5   21.11    1.48
   3  19   5   18.00    1.08
  -4 -19  -5    4.49    1.79
  -4  19  -5    1.89    0.51
   4  19   5    2.60    0.37
  -5 -19  -5   12.82    2.87
   5  19   5   10.41    0.75
  -5  19  -5   11.03    1.04
  -6 -19  -5    0.94    1.27
   6  19   5    0.40    0.22
   7  19   5   26.41    1.50
   7 -20  -5    0.99    1.11
  -7  20   5    0.14    0.20
   7  20  -5   -0.13    0.37
   6 -20  -5   40.46    4.40
  -6  20   5   35.46    1.87
   6  20  -5   37.46    2.58
   5 -20  -5    5.69    1.93
  -5  20   5    4.62    0.51
   5  20  -5    5.46    0.90
   4 -20  -5    0.85    1.08
   4  20  -5    0.41    0.38
  -4  20   5    0.55    0.22
   3 -20  -5    0.22    1.00
  -3  20   5    0.07    0.18
   3  20  -5    0.32    0.33
   2 -20  -5   46.93    4.95
   2  20  -5   44.70    2.88
  -2  20   5   47.72    2.28
   1 -20  -5   -0.37    0.84
  -1  20   5    0.21    0.17
   1  20  -5    0.04    0.30
   0 -20  -5    0.94    1.06
   0  20  -5   -0.10    0.28
   0  20   5    0.09    0.17
  -1 -20  -5    2.90    1.43
   1  20   5    2.93    0.38
  -1  20  -5    3.18    0.60
  -2 -20  -5   30.71    4.60
   2  20   5   28.78    1.54
  -2  20  -5   30.05    1.99
  -3 -20  -5    0.74    1.09
   3  20   5    0.70    0.23
  -3  20  -5    0.39    0.34
  -4 -20  -5    4.12    1.74
   4  20   5    2.54    0.37
  -4  20  -5    1.88    0.53
  -5 -20  -5    0.74    1.24
   5  20   5    0.69    0.26
  -6 -20  -5   24.40    4.39
   6  20   5   33.45    1.75
   6 -21  -5    2.19    1.34
   6  21  -5    0.37    0.43
  -6  21   5    0.74    0.26
   5 -21  -5   10.51    2.47
   5  21  -5   12.77    1.28
  -5  21   5   12.50    0.83
   4 -21  -5   10.73    2.58
   4  21  -5   10.57    1.26
  -4  21   5    9.41    0.70
   3 -21  -5   26.37    4.09
  -3  21   5   25.99    1.43
   3  21  -5   27.54    1.97
   2 -21  -5    1.07    1.17
  -2  21   5    0.47    0.22
   2  21  -5    0.40    0.37
   1 -21  -5   18.68    3.51
   1  21  -5   20.79    1.59
  -1  21   5   20.47    1.16
   0 -21  -5    5.62    2.02
   0  21  -5    6.43    0.87
   0  21   5    5.14    0.53
  -1 -21  -5   15.98    3.26
   1  21   5   18.15    1.04
  -1  21  -5   16.69    1.37
  -2 -21  -5    0.32    1.04
   2  21   5   -0.14    0.15
  -2  21  -5   -0.04    0.28
  -3 -21  -5   12.06    2.91
  -3  21  -5   13.59    1.18
   3  21   5   12.93    0.85
  -4 -21  -5    7.11    2.39
   4  21   5    7.89    0.63
  -5 -21  -5    6.11    2.22
   5  21   5    6.75    0.60
   4 -22  -5    0.63    1.10
  -4  22   5    0.52    0.24
   4  22  -5    0.99    0.47
   3 -22  -5    8.59    2.44
   3  22  -5    7.49    1.04
  -3  22   5    8.76    0.66
   2 -22  -5   29.48    4.53
   2  22  -5   35.66    2.36
  -2  22   5   34.07    1.77
   1 -22  -5   10.92    2.70
  -1  22   5    8.36    0.65
   1  22  -5    8.87    1.07
   0 -22  -5    0.88    1.13
   0  22   5    0.11    0.18
  -1 -22  -5   10.05    2.65
  -1  22  -5   10.11    1.03
   1  22   5    9.15    0.68
  -2 -22  -5   23.23    4.08
   2  22   5   17.86    1.10
  -2  22  -5   20.57    1.52
  -3 -22  -5    5.99    2.25
   3  22   5    3.19    0.43
  -3  22  -5    3.72    0.69
  -4 -22  -5    0.41    1.20
   4  22   5   -0.06    0.17
   2 -23  -5    1.21    1.28
  -2  23   5   -0.02    0.19
   2  23  -5    0.81    0.44
   1 -23  -5    6.31    2.20
   1  23  -5    6.67    0.93
  -1  23   5    5.73    0.58
   0 -23  -5   21.48    4.03
   0  23   5   21.16    1.23
   0  23  -5   22.22    1.70
  -1 -23  -5    3.62    1.77
  -1  23  -5    4.18    0.76
   1  23   5    4.14    0.49
  13   0  -6   -0.26    0.57
  12   0  -6   56.02    4.29
  11   0  -6   -0.23    0.43
  10   0  -6    8.89    1.29
  10   0  -6    7.80    1.17
   9   0  -6    0.37    0.38
   9   0  -6   -0.59    0.31
   8   0  -6   77.11    5.16
   8   0  -6   75.15    4.11
   8   0  -6   77.67    5.01
   7   0  -6   -0.02    0.16
   7   0  -6   -0.59    0.33
   6   0  -6   39.56    2.81
   6   0  -6   39.06    2.19
   5   0  -6    0.03    0.26
   5   0  -6    0.13    0.13
   4   0  -6  223.98   11.18
   4   0  -6  224.95   13.15
   3   0  -6   -0.43    0.26
   3   0  -6    0.07    0.12
   1   0  -6    0.08    0.14
   1   0  -6   -0.24    0.16
  -1   0   6   -0.06    0.04
   0   0  -6  244.51   14.40
   0   0   6  242.32   10.71
   0   0  -6  260.34   12.43
   1   0   6    0.13    0.06
  -1   0  -6   -0.57    0.20
   1   0   6    0.12    0.35
  -1   0  -6    0.07    0.20
   2   0   6  142.48    8.59
  -2   0  -6  127.62    6.51
  -2   0  -6  120.76    7.51
   2   0   6  120.16    5.49
  -3   0  -6    0.19    0.22
   3   0   6   -0.21    0.37
  -3   0  -6   -0.10    0.15
   3   0   6    0.23    0.08
  -4   0  -6   81.23    5.10
  -4   0  -6   82.96    4.51
   4   0   6   85.57    3.70
   4   0   6   84.39    6.05
   5   0   6    0.09    0.10
   5   0   6   -0.09    0.45
  -5   0  -6   -0.01    0.10
  -5   0  -6   -0.07    0.28
   6   0   6   90.98    4.18
   6   0   6   99.12    6.89
  -7   0  -6   -0.09    0.30
   7   0   6   -0.09    0.11
   7   0   6   -0.09    0.48
  -8   0  -6   62.70    3.76
   8   0   6   63.74    5.11
   8   0   6   63.42    2.93
   9   0   6    0.31    0.59
   9   0   6   -0.19    0.16
  -9   0  -6   -0.28    0.39
 -10   0  -6   26.59    2.01
  10   0   6   24.89    1.34
  10   0   6   24.36    2.80
  11   0   6    0.34    0.77
 -11   0  -6   -0.04    0.38
  11   0   6   -0.07    0.15
  12   0   6   24.34    3.03
  12   0   6   26.60    1.44
  13  -1  -6   10.12    1.65
  13   1  -6   11.21    1.70
  13   1  -6   10.22    0.77
  12  -1  -6    0.02    0.53
  12   1  -6   -0.11    0.19
  12   1  -6    0.22    0.54
  11  -1  -6   61.49    4.53
  11   1  -6   61.35    4.49
  10  -1  -6   30.88    2.53
  10  -1  -6   31.15    2.57
  10   1  -6   29.53    2.48
  10   1  -6   31.87    2.52
   9  -1  -6   33.06    2.56
   9  -1  -6   30.34    2.47
   9   1  -6   31.49    1.98
   9   1  -6   30.99    2.45
   9   1  -6   32.58    2.50
   8  -1  -6    0.62    0.50
   8  -1  -6    0.82    0.28
   8  -1  -6    1.12    0.45
   8   1  -6    0.72    0.39
   8   1  -6    0.95    0.32
   8   1  -6    0.49    0.46
   7  -1  -6  202.24   11.69
   7  -1  -6  198.94   12.39
   7  -1  -6  195.17    9.86
   7   1  -6  192.89   11.63
   7   1  -6  190.69    9.92
   6  -1  -6    5.70    0.51
   6  -1  -6    5.22    0.89
   6   1  -6    5.88    0.56
   6   1  -6    5.85    0.91
   5  -1  -6    0.33    0.33
   5  -1  -6    0.41    0.16
   5   1  -6    0.84    0.39
   5   1  -6    0.75    0.22
   4  -1  -6    5.23    0.45
   4  -1  -6    6.42    0.97
   4   1  -6    5.76    0.91
   4   1  -6    5.74    0.49
   3  -1  -6  239.17   13.76
   3  -1  -6  235.34   11.69
   3   1  -6  239.71   13.75
   3   1  -6  229.24   11.73
   1  -1  -6   -0.12    0.19
   1  -1  -6    0.21    0.17
  -1  -1   6   -0.03    0.31
  -1   1   6    0.06    0.05
   1   1  -6    0.02    0.13
   1   1  -6    0.09    0.23
   0  -1  -6    3.97    0.46
   0  -1   6    3.83    0.77
   0  -1  -6    4.03    0.71
   0   1  -6    4.34    0.69
   0   1   6    4.05    0.80
   0   1   6    3.81    0.22
   0   1  -6    4.86    0.46
  -1  -1  -6  359.55   17.83
  -1  -1  -6  349.87   20.56
   1  -1   6  366.81   15.45
   1   1   6  370.02   22.60
  -1   1  -6  354.27   17.84
  -1   1  -6  346.88   20.52
   1   1   6  365.27   15.47
  -2  -1  -6   20.16    1.61
  -2  -1  -6   22.17    1.33
   2  -1   6   20.60    0.92
   2  -1   6   19.58    1.92
  -2   1  -6   19.03    1.53
   2   1   6   22.46    1.96
   2   1   6   19.48    0.94
  -2   1  -6   18.82    1.30
   3  -1   6    3.27    0.89
   3  -1   6    4.65    0.27
  -3  -1  -6    4.26    0.57
   3   1   6    3.22    0.87
  -3   1  -6    3.62    0.54
  -4  -1  -6    0.54    0.29
   4  -1   6    1.49    0.67
   4  -1   6    0.63    0.13
  -4  -1  -6   -0.11    0.28
  -4   1  -6    0.83    0.34
   4   1   6    0.37    0.47
   4   1   6    0.74    0.13
  -4   1  -6    0.57    0.29
  -5  -1  -6   75.05    4.34
  -5  -1  -6   75.46    4.91
   5  -1   6   77.59    5.87
   5  -1   6   82.95    3.55
  -5   1  -6   78.13    4.83
   5   1   6   82.97    5.90
   5   1   6   83.23    3.56
   6  -1   6   19.27    2.05
   6  -1   6   20.63    0.90
  -6  -1  -6    8.33    1.21
   6   1   6   19.60    0.90
   6   1   6   20.02    2.05
  -6   1  -6    9.96    1.14
   7  -1   6    2.32    0.29
   7  -1   6    2.28    0.95
  -7  -1  -6    2.75    0.61
   7   1   6    2.68    0.98
   7   1   6    2.70    0.31
  -7   1  -6    2.06    0.56
   8  -1   6    3.28    1.10
   8  -1   6    3.19    0.36
  -8  -1  -6    2.95    0.70
   8   1   6    3.07    0.36
  -8   1  -6    4.24    0.78
   8   1   6    3.97    1.15
   9  -1   6  101.74    4.57
  -9  -1  -6  106.24    5.74
   9  -1   6   92.86    7.45
  -9   1  -6  103.49    5.69
   9   1   6   96.98    7.48
   9   1   6  101.90    4.58
 -10  -1  -6    1.67    0.64
  10  -1   6    2.34    0.99
  10  -1   6    3.56    0.40
  10   1   6    3.11    0.38
  10   1   6    2.73    1.09
 -10   1  -6    3.45    0.76
 -11  -1  -6    0.22    0.43
  11  -1   6    0.38    0.82
  11  -1   6    0.06    0.16
 -11   1  -6    0.28    0.45
  11   1   6    0.10    0.18
  11   1   6   -0.02    0.69
  12  -1   6    3.78    0.46
  12  -1   6    2.67    1.23
 -12   1  -6    4.48    0.99
  12   1   6    4.31    0.50
  12   1   6    4.38    1.46
  13  -2  -6    6.19    1.32
  13   2  -6    5.41    0.59
  13   2  -6    5.62    1.22
  12  -2  -6   40.68    3.35
  12   2  -6   37.78    3.23
  12   2  -6   41.47    2.05
  11  -2  -6    1.08    0.61
  11   2  -6    0.98    0.27
  11   2  -6    0.65    0.55
  10  -2  -6   12.84    1.65
  10  -2  -6   12.36    1.33
  10   2  -6   13.45    1.41
  10   2  -6   11.09    1.26
  10   2  -6    9.92    1.01
   9  -2  -6   32.91    2.62
   9  -2  -6   31.52    2.53
   9   2  -6   32.43    2.49
   9   2  -6   32.52    2.04
   9   2  -6   31.48    2.49
   8  -2  -6  139.05    8.45
   8  -2  -6  135.22    8.86
   8   2  -6  137.21    7.13
   8   2  -6  138.49    8.82
   8   2  -6  134.61    8.36
   7  -2  -6    5.71    1.05
   7  -2  -6    7.48    0.86
   7  -2  -6    6.73    0.59
   7   2  -6    7.36    0.69
   7   2  -6    5.93    0.99
   6  -2  -6   26.70    1.99
   6  -2  -6   21.67    1.30
   6   2  -6   22.25    1.84
   6   2  -6   21.26    1.42
   5  -2  -6   29.17    2.18
   5  -2  -6   27.15    1.52
   5   2  -6   27.44    2.12
   5   2  -6   27.00    1.63
   4  -2  -6  105.21    6.49
   4  -2  -6  106.17    5.28
   4   2  -6  103.52    5.39
   4   2  -6  104.21    6.46
   3  -2  -6   37.58    2.73
   3  -2  -6   41.02    2.05
   3   2  -6   36.92    2.69
   3   2  -6   37.36    2.12
   1  -2  -6   67.14    3.24
  -1  -2   6   55.53    4.33
   1  -2  -6   63.58    4.03
   1   2  -6   61.30    3.97
   1   2  -6   61.76    3.28
  -1   2   6   61.42    2.72
   0  -2   6  102.12    6.45
   0  -2  -6   89.52    5.78
   0  -2  -6   94.21    4.82
   0   2  -6   90.53    5.73
   0   2   6   87.72    4.09
   0   2   6  106.04    6.42
   0   2  -6   93.19    4.86
  -1  -2  -6   -0.10    0.28
  -1  -2  -6   -0.10    0.17
   1  -2   6    0.56    0.42
   1   2   6    0.23    0.38
   1   2   6    0.16    0.07
  -1   2  -6    0.06    0.16
  -1   2  -6   -0.43    0.20
   2  -2   6  114.57    5.16
  -2  -2  -6  114.14    7.18
  -2  -2  -6  121.52    6.14
  -2   2  -6  120.03    7.10
   2   2   6  119.18    5.19
   2   2   6  131.16    8.05
  -2   2  -6  115.98    6.15
  -3  -2  -6   19.86    1.65
   3  -2   6   20.92    0.94
   3  -2   6   18.37    1.97
  -3  -2  -6   21.09    1.36
   3   2   6   20.20    0.96
   3   2   6   23.45    2.04
  -3   2  -6   16.43    1.45
  -3   2  -6   20.96    1.35
   4  -2   6  106.57    4.41
  -4  -2  -6  101.02    5.33
   4  -2   6  112.60    7.23
  -4   2  -6   71.78    5.21
   4   2   6  105.46    4.43
   4   2   6  109.64    7.10
  -5  -2  -6    0.97    0.36
   5  -2   6    0.43    0.13
  -5  -2  -6    0.07    0.50
   5  -2   6    0.98    0.64
   5   2   6    0.20    0.53
  -5   2  -6    0.66    0.30
  -5   2  -6    0.02    0.11
   5   2   6    0.39    0.13
  -6  -2  -6   70.31    4.09
   6  -2   6   71.25    3.28
   6  -2   6   73.98    5.57
   6   2   6   75.11    5.54
  -6   2  -6   75.57    4.11
   6   2   6   73.19    3.31
   7  -2   6   67.61    3.05
   7  -2   6   65.67    5.24
  -7  -2  -6   66.61    3.88
   7   2   6   67.00    3.08
   7   2   6   68.39    5.25
  -7   2  -6   66.19    3.85
  -8  -2  -6   24.91    1.97
   8  -2   6   29.40    1.42
   8  -2   6   29.18    2.91
   8   2   6   28.72    2.87
  -8   2  -6   26.93    1.99
   8   2   6   28.85    1.44
  -9  -2  -6   -0.23    0.39
   9  -2   6    0.05    0.17
   9  -2   6   -0.19    0.54
   9   2   6    0.60    0.68
  -9   2  -6    0.08    0.43
   9   2   6    0.31    0.20
  10  -2   6   25.42    1.36
  10  -2   6   24.45    2.83
 -10  -2  -6   24.84    2.03
  10   2   6   26.99    2.89
 -10   2  -6   28.57    2.04
  10   2   6   25.34    1.38
  11  -2   6    7.67    0.59
  11  -2   6    6.26    1.64
  11   2   6    6.44    1.70
  11   2   6    8.02    0.61
 -11   2  -6    7.27    1.11
  12  -2   6   12.47    0.81
  12  -2   6    9.55    2.04
  12   2   6   10.90    0.79
  12   2   6   11.19    2.20
 -12   2  -6   11.21    1.50
  13  -3  -6    3.59    1.10
  13   3  -6    4.52    0.53
  13   3  -6    3.66    1.04
  12  -3  -6    0.69    0.59
  12   3  -6    0.82    0.26
  12   3  -6    1.08    0.63
  11  -3  -6   30.29    2.70
  11   3  -6   34.04    1.69
  11   3  -6   31.60    2.64
  10  -3  -6   11.64    1.33
  10   3  -6   12.82    1.37
  10   3  -6    9.25    1.19
  10   3  -6   11.01    1.04
  10   3  -6   11.89    0.74
   9  -3  -6   12.86    1.62
   9  -3  -6   10.55    1.22
   9   3  -6   11.68    1.18
   9   3  -6   11.01    1.27
   9   3  -6   12.30    1.04
   9   3  -6   10.69    0.70
   8  -3  -6    1.99    0.72
   8  -3  -6    2.45    0.61
   8   3  -6    2.53    0.67
   8   3  -6    2.54    0.51
   8   3  -6    1.99    0.53
   8   3  -6    3.05    0.32
   7  -3  -6  123.31    7.72
   7  -3  -6  121.72    8.01
   7   3  -6  125.66    7.63
   7   3  -6  125.26    6.48
   6  -3  -6   35.17    1.88
   6  -3  -6   33.34    2.62
   6   3  -6   36.03    2.60
   6   3  -6   35.18    2.08
   5  -3  -6    9.94    1.14
   5  -3  -6   10.70    0.65
   5   3  -6   10.06    1.09
   5   3  -6   10.00    0.79
   4  -3  -6   16.41    1.53
   4  -3  -6   17.14    0.97
   4   3  -6   17.16    1.11
   3  -3  -6   21.27    1.12
   3  -3  -6   21.43    1.74
  -3   3   6   18.84    0.95
   3   3  -6   19.89    0.93
   3   3  -6   19.52    1.23
   2  -3  -6   72.48    3.50
   2   3  -6   67.80    2.96
   2   3  -6   63.93    3.57
   1  -3  -6    8.47    0.99
  -1  -3   6    7.61    1.14
   1  -3  -6    9.10    0.63
  -1   3   6    8.78    0.45
   1   3  -6    9.56    0.69
   0  -3  -6   34.88    2.58
   0  -3  -6   34.85    1.98
   0  -3   6   37.71    2.88
   0   3   6   36.03    1.62
   0   3  -6   35.57    2.04
   0   3   6   38.77    2.82
  -1  -3  -6  118.29    7.64
  -1  -3  -6  119.61    6.42
   1  -3   6  124.33    8.45
   1   3   6  146.04    8.43
  -1   3  -6  124.40    6.47
   1   3   6  126.71    5.50
   2  -3   6   28.81    2.63
  -2  -3  -6   27.08    2.27
  -2  -3  -6   30.58    1.81
   2  -3   6   31.61    1.37
  -2   3  -6   32.14    1.85
   2   3   6   33.08    2.58
   3  -3   6    4.57    0.27
  -3  -3  -6    3.17    0.72
  -3  -3  -6    4.93    0.59
   3  -3   6    5.12    1.08
   3   3   6    4.34    0.92
  -3   3  -6    4.07    0.57
   3   3   6    4.07    0.29
  -4  -3  -6   28.23    1.86
   4   3   6   33.47    2.73
   5  -3   6  112.37    4.64
  -5  -3  -6   76.27    6.35
  -5  -3  -6  109.51    5.64
  -5   3  -6  105.99    6.24
   5   3   6  111.39    4.68
   5   3   6  114.78    7.47
   6  -3   6   18.47    2.07
  -6  -3  -6   16.50    1.33
   6  -3   6   17.58    0.89
   6   3   6   14.80    1.88
   6   3   6   17.95    0.93
  -6   3  -6   15.89    1.31
  -7  -3  -6    3.87    0.72
   7  -3   6    2.09    0.89
   7  -3   6    2.51    0.29
   7   3   6    3.41    1.10
   7   3   6    3.33    0.35
  -7   3  -6    2.39    0.58
   8  -3   6   31.12    1.54
   8  -3   6   29.30    3.04
  -8  -3  -6   33.71    2.23
  -8   3  -6   31.67    2.16
   8   3   6   31.04    3.04
   8   3   6   30.91    1.58
   9  -3   6   45.90    4.41
  -9  -3  -6   56.28    3.39
   9  -3   6   54.03    2.50
   9   3   6   56.29    2.55
   9   3   6   44.87    4.36
  -9   3  -6   55.54    3.32
  10  -3   6    5.72    1.48
 -10  -3  -6    4.26    0.88
  10  -3   6    4.82    0.47
  10   3   6    3.43    1.25
  10   3   6    4.30    0.46
 -10   3  -6    3.85    0.80
  11  -3   6    0.48    0.21
  11  -3   6    0.68    0.85
 -11   3  -6   -0.15    0.41
  11   3   6   -0.15    0.79
  11   3   6    0.39    0.22
  12  -3   6   15.65    2.68
  12  -3   6   17.98    1.05
  12   3   6   16.20    1.05
  12   3   6   14.45    2.51
 -12   3  -6   18.64    1.70
  12  -4  -6   19.60    2.09
  12   4  -6   20.19    1.18
  12   4  -6   19.92    1.97
  11  -4  -6   13.10    1.51
  11   4  -6   10.65    1.35
  11   4  -6   13.24    0.83
  11   4  -6   12.60    1.18
  10  -4  -6    4.01    0.89
  10   4  -6    3.94    0.44
  10   4  -6    3.33    0.64
  10   4  -6    4.86    0.95
  10   4  -6    4.50    0.85
   9  -4  -6   40.84    3.20
   9  -4  -6   40.33    3.11
   9   4  -6   40.84    1.99
   9   4  -6   43.09    3.04
   9   4  -6   40.08    3.00
   9   4  -6   41.27    2.53
   8  -4  -6   13.42    1.74
   8  -4  -6   15.48    1.40
   8   4  -6   14.03    1.43
   8   4  -6   14.97    1.32
   8   4  -6   13.59    1.14
   8   4  -6   15.05    0.83
   7  -4  -6   28.35    2.17
   7  -4  -6   30.11    2.42
   7   4  -6   27.80    2.23
   7   4  -6   27.03    1.38
   7   4  -6   28.30    1.80
   6  -4  -6    0.08    0.38
   6   4  -6   -0.11    0.10
   6   4  -6    0.10    0.17
   6   4  -6    0.06    0.28
   5  -4  -6   74.81    4.95
   5  -4  -6   77.22    3.79
   5   4  -6   72.74    4.03
   5   4  -6   75.57    3.35
   4  -4  -6   34.17    2.60
   4  -4  -6   36.31    1.79
   4   4  -6   33.98    1.57
   4   4  -6   32.75    1.99
   3  -4  -6    1.54    0.20
   3  -4  -6    1.02    0.47
   3   4  -6    1.14    0.13
  -3   4   6    1.29    0.16
   3   4  -6    1.32    0.27
   2  -4  -6   95.52    4.74
   2   4  -6   91.88    4.87
   2   4  -6   93.67    4.08
  -2   4   6   95.17    4.13
   1  -4  -6  238.85   13.33
  -1  -4   6  195.76   14.29
   1  -4  -6  235.98   11.19
   1   4  -6  230.33   11.30
   0  -4  -6   79.45    5.04
   0  -4   6   73.77    5.41
   0  -4  -6   77.76    4.01
   0   4  -6   79.73    4.10
  -1  -4  -6    6.20    1.00
   1  -4   6    4.77    1.02
  -1  -4  -6    7.81    0.60
   1   4   6    5.72    0.98
  -1   4  -6    7.09    0.62
   2  -4   6   22.84    2.28
  -2  -4  -6   24.26    2.06
  -2  -4  -6   25.06    1.54
   2   4   6   27.33    2.21
   2   4   6   26.11    1.19
  -2   4  -6   24.73    1.57
   3  -4   6  156.74    9.85
  -3  -4  -6  139.02    7.40
  -3  -4  -6  135.40    8.75
   3   4   6  148.22    9.56
   3   4   6  143.68    6.30
  -4  -4  -6   51.21    2.97
  -4  -4  -6   53.44    3.71
   4   4   6   52.05    2.39
   4   4   6   53.92    4.04
  -5  -4  -6    4.69    0.66
  -5  -4  -6    0.38    0.45
   5   4   6    3.51    0.30
  -5   4  -6    4.16    0.62
   5   4   6    3.60    0.95
  -6  -4  -6   25.97    1.76
   6  -4   6   24.65    2.52
   6   4   6   23.17    2.43
  -6   4  -6   25.03    1.72
   6   4   6   24.79    1.26
   7  -4   6   54.78    4.58
  -7  -4  -6   57.91    3.38
   7   4   6   56.94    2.62
   7   4   6   52.18    4.46
  -7   4  -6   56.51    3.32
   8  -4   6    4.74    1.26
  -8  -4  -6    5.02    0.83
   8   4   6    5.56    0.46
  -8   4  -6    5.18    0.83
   8   4   6    3.71    1.17
   9  -4   6    0.53    0.69
  -9  -4  -6   -0.11    0.39
   9  -4   6    0.27    0.17
  -9   4  -6    1.01    0.51
   9   4   6    0.56    0.71
   9   4   6    0.46    0.20
  10  -4   6   10.77    2.03
  10  -4   6   12.36    0.75
  10   4   6   12.41    0.80
 -10   4  -6   10.22    1.29
  10   4   6   10.90    2.03
  11  -4   6   34.91    3.78
  11  -4   6   40.48    1.96
  11   4   6   39.04    3.82
 -11   4  -6   39.81    2.72
  11   4   6   38.64    2.00
  12  -4   6   13.13    0.84
  12  -4   6   11.30    2.24
  12   4   6   12.14    0.87
  12   4   6   10.70    2.15
 -12   4  -6   12.83    1.58
  12  -5  -6    1.97    0.85
  12   5  -6    3.03    0.42
  11  -5  -6    4.25    0.99
  11   5  -6    4.36    0.48
  11   5  -6    4.65    0.91
  11   5  -6    5.99    0.87
  10  -5  -6   49.08    3.76
  10   5  -6   51.49    2.41
  10   5  -6   47.07    3.01
  10   5  -6   47.91    3.59
  10   5  -6   52.40    3.59
   9  -5  -6   -0.09    0.33
   9  -5  -6   -0.44    0.50
   9   5  -6    0.38    0.43
   9   5  -6    0.29    0.27
   9   5  -6    0.01    0.15
   9   5  -6    0.11    0.36
   8  -5  -6    6.87    1.25
   8  -5  -6    8.38    0.99
   8   5  -6    9.69    1.25
   8   5  -6    8.01    0.54
   8   5  -6    7.77    0.90
   8   5  -6    7.31    0.85
   7  -5  -6   42.99    3.08
   7  -5  -6   39.28    3.20
   7   5  -6   43.62    2.01
   7   5  -6   42.47    2.54
   6  -5  -6  154.85    9.49
   6   5  -6  159.26    7.99
   6   5  -6  149.74    6.77
   5  -5  -6    3.78    0.87
   5   5  -6    2.76    0.26
   5   5  -6    2.98    0.48
   4  -5  -6   12.90    1.37
   4   5  -6   11.39    0.61
  -4   5   6   12.43    0.64
   4   5  -6   11.39    0.88
   3  -5  -6   53.70    3.79
   3  -5  -6   54.57    2.76
   3   5  -6   54.41    2.42
  -3   5   6   55.26    2.46
   3   5  -6   55.07    2.99
   2  -5  -6  235.96   11.43
   2   5  -6  228.67   11.61
   2   5  -6  229.26    9.97
  -2   5   6  231.86   10.03
   1  -5  -6   15.44    1.56
   1  -5  -6   16.27    0.96
  -1  -5   6   14.98    1.54
   1   5  -6   18.06    1.10
  -1   5   6   15.92    0.79
   0  -5   6   79.63    5.46
   0  -5  -6   76.04    3.99
   0  -5  -6   79.43    5.11
   0   5  -6   75.18    4.09
   0   5   6   78.74    3.43
  -1  -5  -6   17.32    1.72
   1  -5   6   17.66    1.86
  -1  -5  -6   17.31    1.16
   1   5   6   22.71    1.82
   1   5   6   20.37    0.93
  -1   5  -6   18.22    1.23
  -2  -5  -6  149.83    7.49
  -2  -5  -6  142.27    9.01
   2  -5   6  149.95    9.91
   2   5   6  149.04    6.42
   2   5   6  167.95    9.71
  -2   5  -6  125.69    7.50
  -3  -5  -6    4.96    1.06
   3  -5   6    6.01    1.26
  -3  -5  -6    6.03    0.62
   3   5   6    5.09    0.99
  -3   5  -6    5.52    0.68
   3   5   6    5.62    0.37
   4  -5   6   94.85    6.31
  -4  -5  -6   80.24    5.55
  -4  -5  -6   80.90    4.54
  -4   5  -6   83.94    4.56
   4   5   6   83.92    3.78
   4   5   6   86.86    5.98
  -5  -5  -6    9.41    0.90
  -5  -5  -6    8.31    1.36
   5   5   6    9.48    0.57
   5   5   6   10.18    1.54
  -5   5  -6    9.34    0.90
  -6  -5  -6  127.51    6.43
   6  -5   6  120.58    8.46
   6   5   6  118.98    5.30
   6   5   6  107.49    8.20
  -6   5  -6  119.99    6.35
   7  -5   6    1.67    0.82
  -7  -5  -6    2.16    0.55
   7   5   6    1.51    0.26
  -7   5  -6    0.70    0.40
   7   5   6    1.22    0.77
  -8  -5  -6   47.06    3.06
   8  -5   6   46.53    4.15
   8   5   6   48.17    2.33
   8   5   6   51.79    4.21
  -8   5  -6   48.47    2.99
   9  -5   6    9.27    1.85
  -9   5  -6   10.90    1.29
   9   5   6   11.02    1.97
   9   5   6   11.68    0.75
  10  -5   6   19.83    1.09
  10  -5   6   17.61    2.67
  10   5   6   19.07    1.13
  10   5   6   21.81    2.54
 -10   5  -6   19.96    1.66
  11  -5   6    0.35    0.82
  11  -5   6   -0.08    0.17
  11   5   6   -0.15    0.20
  11   5   6    0.09    0.85
 -11   5  -6    0.41    0.49
  12  -5   6   27.33    3.34
  12  -5   6   29.47    1.59
 -12   5  -6   31.18    2.36
  12   5   6   30.86    1.65
  12  -6  -6    0.09    0.59
  12   6  -6    0.04    0.19
  12   6  -6   -0.03    0.35
  11  -6  -6    4.16    0.99
  11   6  -6    5.77    0.56
  11   6  -6    6.00    0.91
  10  -6  -6    1.11    0.61
  10   6  -6    1.64    0.51
  10   6  -6    1.14    0.61
  10   6  -6    1.54    0.56
  10   6  -6    1.47    0.29
   9  -6  -6   61.79    4.42
   9  -6  -6   55.51    4.26
   9   6  -6   61.24    4.14
   9   6  -6   56.19    3.48
   9   6  -6   63.09    4.15
   9   6  -6   61.18    2.81
   8  -6  -6    0.58    0.57
   8  -6  -6    0.19    0.34
   8   6  -6    0.18    0.14
   8   6  -6    0.28    0.30
   8   6  -6    0.09    0.26
   7  -6  -6   19.07    1.68
   7  -6  -6   20.04    2.01
   7   6  -6   22.65    1.49
   7   6  -6   20.20    1.58
   7   6  -6   19.67    1.05
   6  -6  -6    4.16    0.98
   6   6  -6    3.68    0.57
   6   6  -6    3.26    0.32
   5  -6  -6  126.94    8.12
   5   6  -6  130.61    5.70
   5   6  -6  131.06    6.76
   4  -6  -6    0.44    0.46
   4   6  -6    0.63    0.12
   4   6  -6    1.17    0.29
  -4   6   6    0.60    0.13
   3  -6  -6   32.78    2.54
  -3   6   6   30.25    1.44
   3   6  -6   30.40    1.39
   3   6  -6   30.44    1.83
   2  -6  -6   26.00    1.37
   2   6  -6   27.19    1.58
  -2   6   6   24.92    1.21
   2   6  -6   25.38    1.15
  -1  -6   6  150.56    9.82
   1  -6  -6  146.42    7.49
   1  -6  -6  155.00    9.26
  -1   6   6  148.99    6.55
   1   6  -6  151.65    7.66
   0  -6  -6    6.69    0.54
   0  -6   6    5.78    1.08
   0  -6  -6    7.53    1.23
   0   6  -6    7.53    0.65
   0   6   6    7.73    0.42
  -1  -6  -6    8.63    0.70
  -1  -6  -6    9.28    1.38
   1  -6   6    7.76    1.34
   1   6   6    9.69    0.53
  -1   6  -6   10.30    0.79
   1   6   6   11.07    1.19
  -2  -6  -6    0.17    0.57
   2  -6   6    0.00    0.49
  -2  -6  -6    0.45    0.22
   2   6   6    0.91    0.48
  -2   6  -6    0.04    0.10
   2   6   6    0.83    0.14
   3  -6   6  174.38   11.10
  -3  -6  -6  161.18    8.38
  -3  -6  -6  156.88   10.09
   3   6   6  164.30    7.18
   3   6   6  167.90   10.73
  -3   6  -6  161.01    8.41
   4  -6   6    2.45    0.84
  -4  -6  -6    2.25    0.91
  -4  -6  -6    2.23    0.45
  -4   6  -6    2.24    0.47
   4   6   6    2.00    0.24
   4   6   6    2.51    0.74
   5  -6   6   -0.19    0.48
  -5  -6  -6    0.32    0.28
  -5  -6  -6   -0.25    0.68
   5   6   6   -0.02    0.43
  -5   6  -6    0.50    0.33
   5   6   6    0.25    0.13
  -6  -6  -6    0.56    0.35
   6  -6   6    0.45    0.62
   6   6   6    0.70    0.65
   6   6   6    0.75    0.18
  -6   6  -6    0.72    0.38
   7  -6   6  121.48    9.43
  -7  -6  -6  143.63    7.36
  -7   6  -6  139.18    7.26
   7   6   6  143.30    9.47
   7   6   6  132.67    6.06
   8  -6   6    1.76    0.85
   8   6   6    2.74    1.04
  -8   6  -6    2.17    0.57
   8   6   6    2.39    0.34
   9  -6   6    6.59    1.51
   9   6   6    7.85    1.64
  -9   6  -6    6.94    0.98
   9   6   6    7.21    0.57
  10  -6   6    0.68    0.85
 -10   6  -6    0.57    0.44
  10   6   6    0.63    0.24
  10   6   6   -0.02    0.75
  11  -6   6   42.18    4.18
  11  -6   6   46.06    2.17
  11   6   6   41.83    4.09
 -11   6  -6   41.63    2.92
  11   6   6   44.54    2.24
  12  -7  -6    3.56    1.05
  12   7  -6    3.36    0.45
  12   7  -6    2.94    0.69
  11  -7  -6    0.08    0.51
  11   7  -6    0.91    0.46
  11   7  -6    0.91    0.26
  10  -7  -6   46.72    3.68
  10   7  -6   46.43    2.98
  10   7  -6   47.28    2.32
  10   7  -6   51.53    3.54
   9  -7  -6    2.94    0.75
   9  -7  -6    2.39    0.98
   9   7  -6    3.09    0.65
   9   7  -6    3.11    0.75
   9   7  -6    2.38    0.34
   9   7  -6    2.65    0.59
   8  -7  -6   12.09    1.28
   8  -7  -6    9.45    1.63
   8   7  -6   12.97    0.76
   8   7  -6   12.91    1.16
   8   7  -6   14.07    1.15
   7  -7  -6    0.11    0.28
   7  -7  -6   -0.18    0.57
   7   7  -6   -0.02    0.12
   7   7  -6   -0.19    0.20
   7   7  -6    0.08    0.24
   6  -7  -6   98.40    6.85
   6  -7  -6  107.60    6.93
   6   7  -6  109.05    5.69
   6   7  -6  106.78    4.71
   5  -7  -6   -0.37    0.47
  -5   7   6    0.06    0.10
   5   7  -6   -0.11    0.10
   5   7  -6    0.26    0.22
   4  -7  -6   16.87    1.81
   4   7  -6   17.84    1.24
  -4   7   6   18.50    0.91
   4   7  -6   17.34    0.87
   3  -7  -6   22.64    2.08
   3   7  -6   23.32    1.42
   3   7  -6   21.30    1.00
  -3   7   6   19.85    1.04
   2   7  -6   59.95    3.22
  -2   7   6   59.16    2.64
   2   7  -6   57.57    2.57
   1  -7  -6    2.59    0.84
   1  -7  -6    2.73    0.31
  -1  -7   6    2.35    0.70
  -1   7   6    2.62    0.23
   1   7  -6    2.00    0.38
   1   7  -6    2.80    0.16
   0  -7   6   30.26    2.79
   0  -7  -6   39.10    2.98
   0  -7  -6   35.03    1.93
   0   7  -6   35.34    2.06
   0   7   6   36.38    1.64
   0   7  -6   35.83    1.55
  -1  -7  -6   15.42    1.02
   1  -7   6   13.07    1.64
  -1  -7  -6   18.20    1.89
   1   7   6   16.70    0.81
  -2  -7  -6   96.93    6.82
  -2  -7  -6   99.34    5.40
   2  -7   6  105.17    7.35
  -2   7  -6  101.42    5.47
   2   7   6  119.39    7.09
   2   7   6  104.92    4.62
  -3  -7  -6    1.14    0.32
   3  -7   6    0.69    0.59
  -3  -7  -6    0.47    0.70
   3   7   6    1.18    0.18
   3   7   6    1.22    0.53
  -3   7  -6    0.93    0.32
   4  -7   6   70.84    5.08
  -4  -7  -6   66.80    3.60
  -4  -7  -6   62.02    4.66
   4   7   6   60.52    4.64
   4   7   6   64.38    2.93
  -4   7  -6   63.02    3.58
   5  -7   6   12.83    1.92
  -5  -7  -6   12.60    1.09
  -5  -7  -6   12.13    1.86
   5   7   6   14.64    1.62
   5   7   6   12.80    0.74
  -5   7  -6   13.85    1.10
   6  -7   6   17.06    2.14
   6   7   6   20.90    1.07
  -6   7  -6   19.54    1.47
   6   7   6   20.55    2.13
   7  -7   6    0.78    0.67
   7   7   6   -0.02    0.57
  -7   7  -6   -0.26    0.30
   7   7   6    0.20    0.16
   8  -7   6   42.41    3.94
  -8   7  -6   45.60    2.81
   8   7   6   44.64    3.86
   8   7   6   44.98    2.19
   9  -7   6    0.08    0.57
  -9   7  -6    0.54    0.41
   9   7   6   -0.07    0.69
   9   7   6    0.24    0.19
  10  -7   6   12.71    2.26
  10   7   6   16.17    0.96
 -10   7  -6   13.40    1.35
  11  -7   6    0.88    0.89
  11   7   6   -0.17    0.20
 -11   7  -6   -0.40    0.38
  12  -8  -6    3.41    1.06
  12   8  -6    4.34    0.83
  12   8  -6    3.95    0.49
  11  -8  -6   17.39    1.86
  11   8  -6   16.90    1.02
  11   8  -6   14.92    1.43
  10  -8  -6   -0.16    0.38
  10   8  -6   -0.07    0.17
  10   8  -6   -0.18    0.30
  10   8  -6    0.35    0.47
   9  -8  -6   45.59    3.48
   9  -8  -6   46.25    3.80
   9   8  -6   43.40    2.84
   9   8  -6   46.84    2.22
   8  -8  -6   11.10    1.78
   8  -8  -6   12.92    1.30
   8   8  -6   11.88    0.73
   8   8  -6   11.77    1.10
   8   8  -6   11.41    1.10
   7  -8  -6   10.60    1.16
   7  -8  -6    9.89    1.64
   7   8  -6   11.57    1.04
   7   8  -6   11.91    0.69
   7   8  -6   13.03    1.08
   6  -8  -6   15.59    2.06
   6  -8  -6   15.57    1.38
   6   8  -6   15.86    0.84
   6   8  -6   15.51    1.24
   5  -8  -6   73.21    5.33
   5   8  -6   78.42    4.25
   5   8  -6   79.33    3.46
  -5   8   6   76.35    3.48
   4  -8  -6   10.40    1.56
  -4   8   6    8.80    0.53
   4   8  -6    8.32    0.79
   4   8  -6    8.97    0.50
   3  -8  -6    0.56    0.63
  -3   8   6    0.75    0.15
   3   8  -6    0.80    0.13
   3   8  -6    1.09    0.30
   2  -8  -6   -0.29    0.24
   2   8  -6    3.34    0.46
  -2   8   6    1.93    0.21
   2   8  -6    2.11    0.15
  -1  -8   6  148.86   10.75
   1  -8  -6  179.91   10.46
  -1   8   6  179.95    7.28
   1   8  -6  159.73    7.18
   1   8  -6  165.94    8.49
   0  -8  -6   24.77    2.37
   0  -8   6   20.74    2.07
   0   8  -6   14.97    1.35
   0   8  -6   25.84    1.04
   0   8   6   26.51    1.14
   1  -8   6   17.60    1.97
  -1  -8  -6   19.60    2.16
   1   8   6   20.72    1.00
   2  -8   6    4.52    1.10
  -2  -8  -6    5.02    1.26
  -2   8  -6    4.96    0.63
   2   8   6    5.22    0.37
   2   8   6    7.61    1.08
  -3  -8  -6   85.18    6.39
   3  -8   6   90.81    6.80
  -3   8  -6   98.98    5.08
   3   8   6  102.44    6.50
   3   8   6   93.64    4.23
   4  -8   6    2.32    0.85
  -4  -8  -6    4.27    1.25
   4   8   6    4.73    0.36
   4   8   6    4.02    0.89
  -4   8  -6    4.35    0.64
   5  -8   6    0.10    0.55
  -5  -8  -6    0.04    0.81
   5   8   6    0.19    0.48
   5   8   6    0.18    0.13
  -5   8  -6    0.12    0.30
   6  -8   6    3.18    1.01
  -6   8  -6    2.97    0.60
   6   8   6    2.23    0.85
   6   8   6    3.15    0.35
   7  -8   6   57.31    4.75
   7   8   6   48.64    4.44
   7   8   6   62.20    2.76
  -7   8  -6   61.27    3.44
   8  -8   6    0.24    0.63
  -8   8  -6    1.68    0.51
   8   8   6    0.35    0.69
   8   8   6    1.42    0.27
   9  -8   6   -0.11    0.55
   9   8   6    0.41    0.22
  -9   8  -6    0.44    0.41
  10  -8   6    3.20    1.19
  10   8   6    3.25    0.45
 -10   8  -6    3.93    0.79
  11  -8   6   35.39    3.79
 -11   8  -6   37.60    2.61
  11   8   6   37.42    1.96
  12  -9  -6    1.27    0.81
  12   9  -6    2.32    0.40
  12   9  -6    1.84    0.63
  11  -9  -6   16.69    1.80
  11   9  -6   15.15    0.97
  11   9  -6   15.31    1.43
  10  -9  -6   35.93    3.07
  10   9  -6   35.23    2.50
  10   9  -6   40.06    1.92
   9  -9  -6    6.84    1.11
   9  -9  -6    6.11    1.50
   9   9  -6    6.73    0.93
   9   9  -6    5.65    0.51
   8  -9  -6    4.49    1.23
   8  -9  -6    2.92    0.75
   8   9  -6    3.85    0.40
   8   9  -6    4.57    0.74
   7  -9  -6   15.50    2.12
   7  -9  -6   15.55    1.45
   7   9  -6   15.99    1.29
   7   9  -6   15.67    0.87
   6  -9  -6   23.35    2.42
   6  -9  -6   23.22    1.88
   6   9  -6   23.18    1.17
   6   9  -6   23.18    1.65
   5  -9  -6    0.19    0.72
  -5   9   6    0.33    0.14
   5   9  -6    0.50    0.14
   5   9  -6    0.54    0.29
   4  -9  -6   29.32    2.75
  -4   9   6   30.60    1.43
   4   9  -6   29.07    1.87
   4   9  -6   28.93    1.39
   3  -9  -6   76.80    5.42
   3   9  -6   75.27    4.13
  -3   9   6   77.49    3.42
   3   9  -6   75.17    3.36
   2   9  -6  151.05    7.79
   2   9  -6  145.83    6.57
  -2   9   6  157.75    6.65
  -1  -9   6    7.77    1.21
   1  -9  -6    8.91    1.56
   1   9  -6    8.55    0.43
  -1   9   6    8.55    0.51
   0  -9  -6   23.65    2.42
   0  -9   6   21.34    2.04
   0   9   6   22.84    1.08
   0   9  -6   20.35    0.98
   1  -9   6   20.75    2.31
  -1  -9  -6   26.83    2.70
  -1   9  -6   26.67    1.19
   1   9   6   28.69    1.30
  -2  -9  -6   80.81    5.62
   2  -9   6   71.71    5.61
   2   9   6   76.94    3.45
  -2   9  -6   77.07    4.14
  -3  -9  -6    0.85    0.92
   3  -9   6    0.91    0.59
   3   9   6    0.96    0.18
   3   9   6    1.09    0.54
  -3   9  -6    0.42    0.29
   4  -9   6   42.34    3.60
  -4  -9  -6   39.24    3.60
   4   9   6   49.35    3.33
  -4   9  -6   39.07    2.45
   4   9   6   38.95    1.95
  -5  -9  -6   17.61    2.47
   5  -9   6   18.99    2.17
   5   9   6   19.01    1.03
  -5   9  -6   19.30    1.41
   5   9   6   21.10    1.98
   6  -9   6   46.34    4.02
  -6   9  -6   48.44    2.85
   6   9   6   51.86    2.28
   6   9   6   39.75    3.63
   7  -9   6    2.39    0.94
  -7   9  -6    2.23    0.57
   7   9   6    2.76    0.92
   7   9   6    2.53    0.35
   8  -9   6   28.09    3.01
  -8   9  -6   31.13    2.12
   8   9   6   31.13    1.60
   9  -9   6   13.44    2.24
   9   9   6   14.66    0.91
  -9   9  -6   13.13    1.28
  10  -9   6    9.71    1.95
 -10   9  -6   10.61    1.28
  10   9   6   10.46    0.77
  11  -9   6    1.87    1.05
 -11   9  -6    0.60    0.53
  11   9   6    0.35    0.25
  11 -10  -6    6.22    1.28
  11  10  -6    5.29    0.56
  11  10  -6    5.56    0.95
  10 -10  -6    2.23    0.76
  10  10  -6    1.36    0.52
  10  10  -6    1.28    0.29
   9 -10  -6   32.13    3.18
   9 -10  -6   31.20    2.68
   9  10  -6   29.83    2.20
   9  10  -6   34.48    1.67
   8 -10  -6   60.41    4.34
   8 -10  -6   60.29    4.75
   8  10  -6   60.69    2.84
   8  10  -6   60.50    3.61
   7 -10  -6    3.38    0.70
   7 -10  -6    2.65    1.05
   7  10  -6    2.81    0.34
   7  10  -6    3.99    0.68
   6 -10  -6   28.76    2.88
   6 -10  -6   29.41    2.31
   6  10  -6   30.57    1.48
   6  10  -6   31.02    2.03
  -6  10   6   30.11    1.50
   5 -10  -6   25.84    2.75
   5 -10  -6   29.17    2.22
  -5  10   6   29.69    1.45
   5  10  -6   29.68    1.93
   5  10  -6   30.35    1.42
   4 -10  -6   65.65    4.90
   4  10  -6   65.03    3.64
   4  10  -6   65.05    2.91
  -4  10   6   63.89    2.95
   3 -10  -6    3.57    1.19
   3  10  -6    4.27    0.59
   3  10  -6    3.72    0.27
  -3  10   6    3.96    0.32
  -1 -10   6   47.77    3.80
   1  10  -6   51.71    2.29
  -1  10   6   54.48    2.39
   0 -10   6   24.48    2.41
   0  10  -6   27.68    1.26
   0  10   6   29.45    1.36
  -1 -10  -6   12.01    2.00
   1 -10   6    9.46    1.62
   1  10   6   12.87    0.70
  -1  10  -6   12.78    0.98
  -1  10  -6   12.82    0.61
   2 -10   6   27.43    2.72
  -2 -10  -6   29.54    3.02
   2  10   6   31.45    1.46
  -2  10  -6   28.91    1.85
  -3 -10  -6   41.13    3.71
   3 -10   6   41.69    3.54
  -3  10  -6   40.02    2.42
   3  10   6   41.00    1.94
   4 -10   6   30.09    2.89
  -4 -10  -6   29.43    3.10
   4  10   6   28.83    1.49
   4  10   6   34.67    2.60
  -4  10  -6   29.79    1.93
  -5 -10  -6    0.47    0.83
   5 -10   6   -0.02    0.54
  -5  10  -6   -0.07    0.26
   5  10   6    0.18    0.15
   5  10   6   -0.25    0.45
   6 -10   6   32.37    3.18
   6  10   6   34.30    1.72
  -6  10  -6   34.03    2.21
   6  10   6   37.03    2.99
   7 -10   6   33.12    3.39
   7  10   6   39.04    1.90
  -7  10  -6   39.27    2.44
   8 -10   6   15.73    2.42
   8  10   6   19.87    1.10
  -8  10  -6   17.37    1.46
   9 -10   6    0.48    0.72
  -9  10  -6    0.45    0.43
   9  10   6    0.24    0.21
  10 -10   6   17.89    2.75
  10  10   6   19.51    1.20
 -10  10  -6   22.66    1.73
  11 -10   6    9.21    2.00
 -11  10  -6    9.70    1.28
  11  10   6   10.14    0.78
  11 -11  -6   43.11    3.58
  11  11  -6   42.80    2.89
  11  11  -6   42.00    2.15
  10 -11  -6   22.89    2.27
  10  11  -6   24.42    1.33
  10  11  -6   24.84    1.91
   9 -11  -6   17.69    2.54
   9 -11  -6   19.16    1.83
   9  11  -6   18.24    1.52
   9  11  -6   17.01    1.02
   8 -11  -6    1.21    0.98
   8 -11  -6    0.47    0.46
   8  11  -6    1.13    0.46
   8  11  -6    0.33    0.19
   7 -11  -6   49.33    4.04
   7 -11  -6   45.35    3.42
   7  11  -6   46.63    2.22
   7  11  -6   46.51    2.91
   6 -11  -6    4.81    1.35
   6 -11  -6    4.22    0.75
  -6  11   6    4.57    0.40
   6  11  -6    4.34    0.72
   6  11  -6    5.15    0.40
   5 -11  -6    7.70    0.86
   5 -11  -6    8.59    1.68
   5  11  -6    7.80    0.50
  -5  11   6    6.93    0.52
   5  11  -6    9.15    0.86
   4 -11  -6    3.58    1.27
   4  11  -6    3.97    0.64
  -4  11   6    5.01    0.39
   4  11  -6    5.46    0.37
   3 -11  -6  126.11    8.31
  -3  11   6  117.69    5.43
   3  11  -6  127.66    6.49
   3  11  -6  121.57    5.37
   2 -11  -6    2.98    1.14
  -2  11   6    8.50    0.49
   2  11  -6    7.19    0.41
   1 -11  -6    3.66    1.25
  -1 -11   6    3.45    0.88
  -1  11   6    4.49    0.36
   1  11  -6    5.07    0.29
   0 -11  -6    4.09    1.33
   0 -11   6    4.65    1.05
   0  11   6    4.28    0.35
   0  11  -6    4.13    0.58
   0  11  -6    4.83    0.29
   1 -11   6  101.50    8.54
  -1 -11  -6  130.04    8.69
  -1  11  -6  128.68    6.64
   1  11   6  134.24    5.65
  -1  11  -6  136.31    5.55
  -2 -11  -6   41.26    3.82
   2 -11   6   37.71    3.48
  -2  11  -6   42.76    1.88
  -2  11  -6   41.67    2.46
   2  11   6   42.48    1.98
  -3 -11  -6    0.50    0.99
   3 -11   6    0.35    0.63
  -3  11  -6    0.50    0.31
  -4 -11  -6    2.41    1.17
   4 -11   6    1.31    0.78
   4  11   6    3.28    0.79
   4  11   6    1.58    0.25
  -4  11  -6    1.45    0.42
  -5 -11  -6  101.99    7.73
   5 -11   6  114.11    8.01
   5  11   6  111.06    4.99
  -5  11  -6  113.20    5.93
   6 -11   6    0.80    0.71
   6  11   6    1.19    0.25
  -6  11  -6    1.03    0.42
   7 -11   6    0.84    0.73
  -7  11  -6    0.47    0.38
   7  11   6    0.70    0.22
   8 -11   6    5.64    1.45
  -8  11  -6    4.49    0.78
   8  11   6    3.86    0.46
   9 -11   6   45.72    4.45
   9  11   6   54.93    2.55
  -9  11  -6   49.07    3.15
  10 -11   6    5.70    1.51
 -10  11  -6    6.41    0.98
  10  11   6    5.08    0.58
  11 -12  -6    0.23    0.63
  11  12  -6    0.21    0.24
  11  12  -6    0.34    0.48
  10 -12  -6    3.67    0.96
  10  12  -6    3.00    0.71
  10  12  -6    3.79    0.46
   9 -12  -6    2.14    1.12
   9 -12  -6    0.85    0.55
   9  12  -6    1.07    0.48
   9  12  -6    1.62    0.30
   8 -12  -6   39.62    3.84
   8 -12  -6   41.29    3.27
   8  12  -6   44.17    2.80
   8  12  -6   43.87    2.09
   7 -12  -6   -0.04    0.84
   7 -12  -6    0.91    0.47
   7  12  -6    0.71    0.40
   7  12  -6    0.79    0.22
   6 -12  -6   25.06    2.93
   6 -12  -6   27.77    2.27
  -6  12   6   30.51    1.48
   6  12  -6   29.50    2.02
   6  12  -6   29.62    1.45
   5 -12  -6    1.10    0.93
   5 -12  -6    2.41    0.55
   5  12  -6    2.71    0.29
  -5  12   6    2.68    0.32
   5  12  -6    1.70    0.47
   4 -12  -6   92.15    5.85
   4 -12  -6   85.86    6.45
  -4  12   6   89.46    4.02
   4  12  -6   87.25    3.96
   4  12  -6   88.79    4.88
   3 -12  -6    0.09    0.87
   3  12  -6    0.57    0.13
  -3  12   6    0.62    0.16
   3  12  -6    1.47    0.38
   2 -12  -6   23.42    2.68
   2  12  -6   21.99    1.50
  -2  12   6   23.11    1.13
   2  12  -6   20.77    1.04
  -1 -12   6   -0.06    0.50
   1 -12  -6   -0.35    0.83
   1  12  -6    0.08    0.08
   1  12  -6    0.26    0.24
  -1  12   6    0.56    0.17
   0 -12   6   86.36    6.70
   0 -12  -6  101.94    7.13
   0  12  -6   96.96    5.19
   0  12  -6  100.60    4.27
   0  12   6   99.82    4.36
   1 -12   6    3.02    0.91
  -1 -12  -6    3.04    1.33
  -1  12  -6    2.69    0.48
   1  12   6    2.87    0.32
  -1  12  -6    3.08    0.24
   2 -12   6   41.11    3.78
  -2 -12  -6   48.76    4.30
   2  12   6   46.21    2.20
  -2  12  -6   47.05    2.73
  -2  12  -6   49.29    2.11
   3 -12   6    1.94    0.88
  -3 -12  -6    1.90    1.20
   3  12   6    2.60    0.30
  -3  12  -6    3.58    0.57
   4 -12   6   44.36    3.90
  -4 -12  -6   44.48    4.18
   4  12   6   45.94    2.20
  -4  12  -6   47.89    2.75
  -5 -12  -6    1.41    0.96
   5 -12   6    0.65    0.68
   5  12   6    0.78    0.21
  -5  12  -6    0.00    0.28
   6 -12   6   19.88    2.36
  -6  12  -6   22.17    1.58
   6  12   6   21.24    1.17
   7 -12   6    3.16    1.09
  -7  12  -6    4.34    0.75
   7  12   6    4.94    0.51
   8 -12   6   22.67    2.77
   8  12   6   29.16    1.51
  -8  12  -6   28.05    1.96
   9 -12   6    1.11    0.90
  -9  12  -6   -0.03    0.38
   9  12   6    0.24    0.21
  10 -12   6   22.15    2.88
  10  12   6   25.92    1.49
 -10  12  -6   27.94    2.02
  10 -13  -6    2.89    0.87
  10  13  -6    3.40    0.44
  10  13  -6    2.63    0.69
   9 -13  -6    8.14    1.90
   9 -13  -6    7.89    1.28
   9  13  -6    6.22    1.01
   9  13  -6    8.20    0.61
   8 -13  -6    0.70    0.48
   8 -13  -6    1.29    1.12
   8  13  -6    0.59    0.22
   8  13  -6    0.57    0.41
   7 -13  -6   39.90    3.00
   7 -13  -6   35.89    3.67
   7  13  -6   40.94    1.91
   7  13  -6   35.57    2.52
   6 -13  -6   11.46    2.15
   6 -13  -6   12.94    1.25
   6  13  -6   11.52    1.12
   6  13  -6   12.28    0.73
  -6  13   6   11.75    0.74
   5 -13  -6   13.74    1.30
   5 -13  -6   15.00    2.37
   5  13  -6   14.39    0.80
   5  13  -6   15.48    1.24
  -5  13   6   13.90    0.83
   4 -13  -6    4.08    1.40
   4 -13  -6    4.16    0.67
   4  13  -6    3.29    0.60
  -4  13   6    3.69    0.38
   4  13  -6    3.93    0.33
   3 -13  -6  115.18    7.87
   3  13  -6  110.14    5.88
  -3  13   6  109.35    4.90
   3  13  -6  106.87    4.83
   2 -13  -6    0.51    0.91
   2  13  -6    0.08    0.10
  -2  13   6    0.10    0.11
   2  13  -6    0.23    0.22
  -1 -13   6    0.28    0.52
   1 -13  -6    0.17    0.97
   1  13  -6    0.55    0.27
   1  13  -6    0.50    0.12
  -1  13   6    0.35    0.15
   0 -13  -6    2.32    1.30
   0 -13   6    0.07    0.57
   0  13   6    1.40    0.23
   0  13  -6    1.49    0.17
   0  13  -6    1.79    0.42
   1 -13   6  115.22    9.25
  -1 -13  -6  141.57    9.60
  -1  13  -6  142.86    6.01
   1  13   6  148.63    6.13
  -1  13  -6  136.38    7.18
   2 -13   6    0.76    0.72
  -2 -13  -6    2.17    1.25
  -2  13  -6    0.94    0.16
  -2  13  -6    1.53    0.39
   2  13   6    1.24    0.22
  -3 -13  -6    0.92    1.02
   3 -13   6    0.59    0.69
  -3  13  -6    0.33    0.28
   3  13   6    0.55    0.18
   4 -13   6    2.45    0.93
  -4 -13  -6    0.86    0.94
   4  13   6    2.13    0.30
  -4  13  -6    1.68    0.46
  -5 -13  -6   39.40    3.97
   5 -13   6   36.16    3.54
   5  13   6   41.27    1.99
  -5  13  -6   42.38    2.51
   6 -13   6    2.96    1.08
  -6  13  -6    4.34    0.71
   6  13   6    3.30    0.41
   7 -13   6   -0.02    0.61
   7  13   6    0.18    0.19
  -7  13  -6   -0.01    0.38
   8 -13   6   -0.45    0.62
   8  13   6    0.24    0.21
  -8  13  -6    0.46    0.39
   9 -13   6   30.80    3.44
  -9  13  -6   34.89    2.39
   9  13   6   36.55    1.87
  10 -13   6    0.75    0.90
  10  13   6    0.39    0.24
 -10  13  -6    0.67    0.51
  10 -14  -6    3.98    1.04
  10  14  -6    3.29    0.45
  10  14  -6    3.53    0.81
   9 -14  -6    2.26    0.77
   9 -14  -6    2.10    1.37
   9  14  -6    2.45    0.36
   9  14  -6    1.99    0.61
   8 -14  -6   43.94    4.18
   8 -14  -6   43.00    3.35
   8  14  -6   42.07    2.11
   8  14  -6   44.56    2.88
   7 -14  -6    2.47    1.33
   7 -14  -6    4.71    0.87
  -7  14   6    3.78    0.43
   7  14  -6    3.51    0.40
   7  14  -6    3.98    0.77
   6 -14  -6   16.65    2.76
   6 -14  -6   21.92    1.82
   6  14  -6   19.91    1.09
   6  14  -6   20.13    1.59
  -6  14   6   21.12    1.12
   5 -14  -6    4.71    0.79
   5 -14  -6    4.14    1.48
  -5  14   6    5.09    0.44
   5  14  -6    5.73    0.42
   5  14  -6    5.02    0.78
   4 -14  -6  107.76    7.06
   4 -14  -6  106.15    7.85
   4  14  -6  109.03    5.90
   4  14  -6  109.74    4.83
  -4  14   6  109.13    4.88
   3 -14  -6    5.33    1.69
   3 -14  -6    5.32    0.67
   3  14  -6    4.30    0.67
   3  14  -6    5.32    0.38
  -3  14   6    5.63    0.43
   2 -14  -6   13.85    2.45
  -2  14   6   11.95    0.70
   2  14  -6   10.74    0.62
   2  14  -6   12.39    1.03
   1 -14  -6    7.88    1.94
   1  14  -6    5.54    0.37
   1  14  -6    7.22    0.81
  -1  14   6    5.95    0.45
   0 -14  -6   17.14    2.73
   0 -14   6   11.92    1.78
   0  14  -6   13.89    1.11
   0  14   6   15.46    0.83
   1 -14   6    0.34    0.62
  -1 -14  -6    0.00    0.96
   1  14   6    0.43    0.16
  -1  14  -6    0.24    0.24
  -2 -14  -6   47.06    4.49
   2 -14   6   45.71    3.90
   2  14   6   46.71    2.22
  -2  14  -6   46.68    2.74
  -3 -14  -6   21.73    3.15
   3 -14   6   16.11    2.11
   3  14   6   19.82    1.07
  -3  14  -6   21.29    1.44
   4 -14   6   36.91    3.46
  -4 -14  -6   39.47    4.00
  -4  14  -6   41.00    2.43
   4  14   6   37.75    1.90
   5 -14   6    0.33    0.66
  -5 -14  -6    0.61    0.93
  -5  14  -6    0.09    0.32
   5  14   6    0.37    0.19
   6 -14   6   23.84    2.65
   6  14   6   22.94    1.31
  -6  14  -6   26.44    1.77
   7 -14   6   12.06    2.11
  -7  14  -6   14.09    1.23
   7  14   6   13.24    0.87
   8 -14   6   15.69    2.55
  -8  14  -6   20.70    1.60
   8  14   6   21.23    1.21
   9 -14   6    0.94    0.88
   9  14   6    0.97    0.29
  -9  14  -6    0.36    0.47
  10  15  -6    5.87    1.01
   9 -15  -6    2.01    0.74
   9 -15  -6    1.34    1.27
   9  15  -6    1.77    0.62
   8 -15  -6    4.24    1.60
   8 -15  -6    4.69    0.96
   8  15  -6    4.32    0.84
   7 -15  -6   28.72    3.53
   7 -15  -6   33.01    2.71
  -7  15   6   34.60    1.73
   7  15  -6   36.00    2.40
   6 -15  -6   20.68    3.07
   6 -15  -6   24.32    2.01
  -6  15   6   22.67    1.25
   6  15  -6   24.51    1.80
   5 -15  -6    8.27    2.00
   5 -15  -6    6.82    0.85
   5  15  -6    6.01    0.88
  -5  15   6    6.52    0.51
   4 -15  -6    2.07    0.51
   4 -15  -6    2.24    1.37
   4  15  -6    2.31    0.54
  -4  15   6    1.43    0.27
   3 -15  -6   83.85    6.52
   3 -15  -6   81.10    5.35
  -3  15   6   85.03    3.72
   3  15  -6   75.31    4.50
   2 -15  -6   16.76    2.74
  -2  15   6   17.94    0.97
   2  15  -6   16.94    1.33
   1 -15  -6    1.20    1.17
  -1  15   6    2.30    0.31
   1  15  -6    2.66    0.52
   0 -15  -6    4.72    1.65
   0  15   6    3.38    0.37
   0  15  -6    3.87    0.61
  -1 -15  -6   45.56    4.63
   1  15   6   51.09    2.36
  -1  15  -6   48.85    2.90
  -2 -15  -6   16.94    2.80
   2 -15   6    9.92    1.82
   2  15   6   13.41    0.80
  -2  15  -6   14.81    1.12
   3 -15   6    1.11    0.75
  -3 -15  -6    2.10    1.22
  -3  15  -6    1.58    0.45
   3  15   6    1.14    0.24
   4 -15   6   23.49    2.58
  -4 -15  -6   22.48    3.42
   4  15   6   24.21    1.28
  -4  15  -6   23.83    1.67
  -5 -15  -6   44.44    4.57
   5 -15   6   45.65    4.11
  -5  15  -6   48.19    2.87
   5  15   6   48.55    2.32
   6 -15   6   15.02    2.35
   6  15   6   16.29    1.01
  -6  15  -6   19.42    1.43
   7 -15   6    0.20    0.75
  -7  15  -6    0.55    0.42
   7  15   6    0.35    0.23
   8 -15   6    6.42    1.64
  -8  15  -6    7.40    1.02
   8  15   6    9.25    0.70
   9 -15   6   23.58    3.00
   9  15   6   29.92    1.60
   9 -16  -6   21.23    2.11
   9 -16  -6   16.32    3.03
   9  16  -6   21.86    1.83
   8 -16  -6   18.73    1.84
   8 -16  -6   14.92    2.79
   8  16  -6   17.44    1.58
   7 -16  -6    6.12    1.06
   7 -16  -6    6.59    1.92
   7  16  -6    7.08    1.03
  -7  16   6    6.24    0.54
   6 -16  -6   14.27    1.46
   6 -16  -6   12.26    2.48
   6  16  -6   15.19    1.36
  -6  16   6   15.72    0.91
   5 -16  -6   29.38    2.25
   5 -16  -6   25.01    3.55
   5  16  -6   27.82    2.00
  -5  16   6   27.73    1.45
   4 -16  -6   19.37    1.63
   4 -16  -6   19.69    3.03
   4  16  -6   18.89    1.50
  -4  16   6   19.24    1.06
   3 -16  -6    1.89    0.48
   3 -16  -6    2.17    1.40
   3  16  -6    1.99    0.49
  -3  16   6    1.60    0.28
   2 -16  -6   11.17    2.42
   2 -16  -6   12.12    1.13
   2  16  -6   13.84    1.15
  -2  16   6   13.88    0.80
   1 -16  -6   46.04    4.62
   1  16  -6   47.19    2.84
  -1  16   6   48.13    2.27
   0 -16  -6   12.05    2.43
   0  16  -6   10.69    0.98
   0  16   6   10.61    0.68
  -1 -16  -6    1.79    1.26
  -1  16  -6    0.89    0.36
   1  16   6    0.73    0.20
  -2 -16  -6   12.84    2.65
  -2  16  -6   13.64    1.12
   2  16   6   13.66    0.82
  -3 -16  -6   47.23    4.76
   3 -16   6   46.29    4.07
  -3  16  -6   48.27    2.86
   3  16   6   48.56    2.31
   4 -16   6   15.30    2.31
  -4 -16  -6   17.58    3.08
  -4  16  -6   18.61    1.39
   4  16   6   17.56    1.02
   5 -16   6    0.51    0.68
  -5 -16  -6   -0.15    0.80
  -5  16  -6   -0.18    0.29
   5  16   6   -0.05    0.15
   6 -16   6    9.41    1.82
   6  16   6   10.01    0.72
  -6  16  -6   10.90    1.05
   7 -16   6   14.52    2.40
  -7  16  -6   15.70    1.39
   7  16   6   19.21    1.10
   8 -16   6    4.94    1.48
   8  16   6    7.56    0.65
  -8  16  -6    8.42    1.06
   8 -17  -6    7.07    2.05
   8 -17  -6    6.68    1.21
   8  17  -6    8.27    1.14
   7 -17  -6    9.00    2.23
   7 -17  -6   10.32    1.24
   7  17  -6    8.91    1.18
  -7  17   6    9.18    0.67
   6 -17  -6   52.74    3.76
   6 -17  -6   45.35    4.76
  -6  17   6   50.67    2.46
   6  17  -6   50.99    3.22
   5 -17  -6    0.24    0.36
   5 -17  -6   -0.42    0.95
   5  17  -6    0.05    0.27
  -5  17   6    0.12    0.16
   4 -17  -6   17.57    2.99
   4 -17  -6   15.72    1.40
  -4  17   6   14.05    0.88
   4  17  -6   14.87    1.31
   3 -17  -6   11.89    2.54
  -3  17   6   13.16    0.79
   3  17  -6   11.44    1.10
   2 -17  -6   30.41    4.09
   2  17  -6   31.93    2.09
  -2  17   6   30.79    1.58
   1 -17  -6    1.00    1.15
  -1  17   6   -0.05    0.14
   1  17  -6    0.08    0.28
   0 -17  -6    9.12    2.30
   0  17  -6    8.85    0.91
   0  17   6   10.43    0.66
  -1 -17  -6    8.83    2.19
   1  17   6    8.72    0.60
  -1  17  -6    8.51    0.87
  -2 -17  -6   26.99    3.90
   2  17   6   29.04    1.47
  -2  17  -6   27.37    1.87
  -3 -17  -6    1.96    1.25
   3  17   6    0.84    0.23
  -3  17  -6    1.24    0.42
   4 -17   6   20.17    2.41
  -4 -17  -6   20.21    3.40
  -4  17  -6   21.88    1.60
   4  17   6   22.80    1.22
   5 -17   6    9.57    1.85
  -5 -17  -6    9.72    2.43
  -5  17  -6   12.09    1.10
   5  17   6   12.32    0.80
   6 -17   6    6.59    1.57
   6  17   6    8.49    0.66
  -6  17  -6    9.66    1.08
   7 -17   6    1.91    1.00
   7  17   6    1.71    0.34
  -7  17  -6    0.90    0.49
   8 -17   6   16.12    2.56
   8  17   6   15.68    1.04
   8 -18  -6    0.90    0.61
   8 -18  -6    1.51    1.24
   8  18  -6    0.42    0.43
   7 -18  -6    6.12    1.97
   7 -18  -6    6.25    1.10
   7  18  -6    7.18    1.05
  -7  18   6    6.38    0.61
   6 -18  -6    2.01    1.30
   6 -18  -6    1.07    0.55
  -6  18   6    0.94    0.25
   6  18  -6    0.74    0.43
   5 -18  -6   35.58    4.09
   5 -18  -6   36.77    2.79
  -5  18   6   35.71    1.82
   5  18  -6   35.78    2.45
   4 -18  -6    2.02    1.37
   4  18  -6    1.58    0.51
  -4  18   6    1.49    0.28
   3 -18  -6    3.14    1.64
   3  18  -6    2.59    0.57
  -3  18   6    2.05    0.31
   2 -18  -6   -0.16    0.95
   2  18  -6    1.75    0.47
  -2  18   6    0.55    0.21
   1 -18  -6   34.18    3.93
  -1  18   6   31.26    1.61
   1  18  -6   31.94    2.11
   0 -18  -6    5.10    1.74
   0  18   6    7.00    0.53
   0  18  -6    7.00    0.86
  -1 -18  -6    2.19    1.35
  -1  18  -6    2.10    0.49
   1  18   6    1.94    0.30
  -2 -18  -6   -0.04    0.93
   2  18   6    0.52    0.21
  -2  18  -6    0.58    0.33
  -3 -18  -6   60.02    5.69
  -3  18  -6   59.97    3.36
   3  18   6   53.79    2.70
  -4 -18  -6    2.01    1.30
  -4  18  -6    0.73    0.40
   4  18   6    1.45    0.28
  -5 -18  -6    2.66    1.46
   5  18   6    2.36    0.37
  -5  18  -6    2.13    0.58
   6 -18   6    1.52    0.93
   6  18   6    0.68    0.25
  -6  18  -6    0.29    0.38
   7 -18   6   28.44    3.24
   7  18   6   33.22    1.74
   7 -19  -6   -0.61    0.38
   7 -19  -6    0.95    1.14
  -7  19   6   -0.07    0.16
   7  19  -6   -0.15    0.34
   6 -19  -6   27.27    3.99
  -6  19   6   30.35    1.60
   6  19  -6   30.93    2.25
   5 -19  -6    0.50    1.13
  -5  19   6    0.83    0.24
   5  19  -6    0.57    0.41
   4 -19  -6    8.50    2.21
   4  19  -6    6.94    0.98
  -4  19   6    6.19    0.53
   3 -19  -6    1.34    1.22
  -3  19   6    0.46    0.22
   3  19  -6    0.38    0.33
   2 -19  -6   23.33    3.71
   2  19  -6   24.31    1.80
  -2  19   6   25.27    1.34
   1 -19  -6    1.15    1.13
  -1  19   6    1.60    0.30
   1  19  -6    1.48    0.46
   0 -19  -6   10.69    2.65
   0  19  -6   11.08    1.06
   0  19   6   12.06    0.77
  -1 -19  -6    1.37    1.24
  -1  19  -6    0.53    0.34
   1  19   6    0.25    0.19
  -2 -19  -6   20.13    3.50
   2  19   6   20.01    1.13
  -2  19  -6   19.39    1.48
  -3 -19  -6    0.85    1.08
   3  19   6    0.31    0.20
  -3  19  -6    0.50    0.36
  -4 -19  -6   28.05    4.29
   4  19   6   29.54    1.59
  -4  19  -6   31.76    2.08
  -5 -19  -6    1.06    1.32
  -5  19  -6    0.80    0.44
   5  19   6    1.06    0.28
  -6  19  -6   26.39    1.88
   6  19   6   25.59    1.46
   6 -20  -6    2.05    1.35
   6  20  -6    0.17    0.40
  -6  20   6    0.17    0.19
   5 -20  -6   14.80    3.09
  -5  20   6   23.53    1.27
   5  20  -6   23.13    1.84
   4 -20  -6    2.64    1.50
   4  20  -6    4.85    0.81
  -4  20   6    3.39    0.43
   3 -20  -6    4.79    1.84
   3  20  -6    2.84    0.64
  -3  20   6    3.45    0.43
   2 -20  -6    1.15    1.06
   2  20  -6    0.47    0.37
  -2  20   6    0.29    0.21
   1 -20  -6   51.10    5.46
  -1  20   6   56.29    2.67
   1  20  -6   56.30    3.36
   0 -20  -6    0.69    1.07
   0  20  -6    0.85    0.41
   0  20   6    0.68    0.23
  -1 -20  -6    2.27    1.43
  -1  20  -6    0.93    0.41
   1  20   6    0.99    0.24
  -2 -20  -6    1.96    1.41
   2  20   6    0.34    0.20
  -2  20  -6    0.13    0.31
  -3 -20  -6   37.85    5.18
  -3  20  -6   35.69    2.34
   3  20   6   36.03    1.85
  -4 -20  -6    0.69    1.12
  -4  20  -6    0.45    0.42
   4  20   6    0.09    0.19
  -5 -20  -6    2.72    1.56
  -5  20  -6    0.39    0.41
   5  20   6    0.51    0.25
   5 -21  -6    2.25    1.39
   5  21  -6    0.96    0.51
  -5  21   6    1.08    0.28
   4 -21  -6    2.40    1.47
   4  21  -6    3.78    0.74
  -4  21   6    2.39    0.37
   3 -21  -6   12.96    2.91
   3  21  -6   16.47    1.44
  -3  21   6   16.42    1.00
   2 -21  -6   29.44    4.56
  -2  21   6   28.40    1.56
   2  21  -6   31.66    2.14
   1 -21  -6    2.53    1.49
  -1  21   6    0.79    0.25
   1  21  -6    1.16    0.47
   0 -21  -6   13.17    2.90
   0  21   6   10.26    0.72
   0  21  -6    9.63    1.14
  -1 -21  -6    9.71    2.60
  -1  21  -6   10.87    1.05
   1  21   6    9.61    0.70
  -2 -21  -6   18.53    3.57
  -2  21  -6   18.81    1.44
   2  21   6   16.14    1.02
  -3 -21  -6    0.52    1.14
   3  21   6    0.02    0.18
  -3  21  -6   -0.12    0.32
  -4 -21  -6   12.25    2.96
   4  21   6   10.65    0.80
  -4  21  -6   13.69    1.20
   3 -22  -6    1.62    1.36
   3  22  -6    3.18    0.69
  -3  22   6    2.12    0.36
   2 -22  -6    4.57    1.89
  -2  22   6    6.33    0.55
   2  22  -6    4.92    0.85
   1 -22  -6   16.85    3.34
   1  22  -6   15.49    1.40
  -1  22   6   16.42    1.00
   0 -22  -6   10.33    2.70
   0  22   6    8.14    0.64
   0  22  -6    9.06    1.08
  -1 -22  -6   -0.36    0.94
   1  22   6   -0.17    0.16
  -1  22  -6    0.19    0.38
  -2 -22  -6   10.12    2.86
  -2  22  -6    9.47    1.10
   2  22   6    9.14    0.69
  12   0  -7   -0.39    0.46
  11   0  -7   89.51    6.24
  10   0  -7    0.33    0.45
  10   0  -7    0.28    0.53
   9   0  -7    0.35    0.40
   9   0  -7    0.26    0.45
   8   0  -7    0.24    0.33
   8   0  -7   -0.64    0.37
   7   0  -7   93.34    6.03
   7   0  -7   94.65    4.92
   6   0  -7    0.27    0.42
   6   0  -7    0.20    0.17
   5   0  -7  104.02    6.29
   5   0  -7   95.89    5.09
   4   0  -7   -0.02    0.25
   4   0  -7    0.18    0.14
   3   0  -7  401.21   23.24
   3   0  -7  406.31   19.97
   2   0  -7   -0.72    0.21
   2   0  -7   -0.20    0.12
   1   0  -7   44.87    3.22
   1   0  -7   49.64    2.60
   0   0  -7    0.00    0.17
   0   0  -7   -0.21    0.22
   0   0   7   -0.06    0.17
   0   0   7    0.10    0.04
   1   0   7  308.54   20.06
  -1   0  -7  308.01   18.22
   1   0   7  322.25   13.61
  -1   0  -7  323.36   15.78
  -2   0  -7   -0.18    0.25
  -2   0  -7   -0.42    0.31
   2   0   7    0.27    0.09
   2   0   7    0.17    0.47
   3   0   7   93.99    6.51
  -3   0  -7   86.92    5.57
  -3   0  -7   90.81    4.84
  -4   0  -7   -0.31    0.22
   4   0   7    0.15    0.09
  -4   0  -7   -0.05    0.27
   4   0   7   -0.35    0.46
  -5   0  -7   49.35    2.87
   5   0   7   46.11    2.18
   5   0   7   49.06    4.02
   6   0   7   -0.02    0.13
   6   0   7    0.22    0.60
  -6   0  -7    0.11    0.37
   7   0   7   64.69    3.06
  -7   0  -7   65.40    3.92
   7   0   7   73.69    5.48
   8   0   7   -0.01    0.63
   8   0   7   -0.01    0.13
  -8   0  -7   -0.01    0.35
   9   0   7   43.71    2.14
  -9   0  -7   46.87    2.97
   9   0   7   41.92    4.04
 -10   0  -7   -0.18    0.40
  10   0   7    0.18    0.77
  10   0   7   -0.15    0.18
  11   0   7    8.51    0.64
  11   0   7    6.11    1.73
 -11   0  -7   10.23    1.37
  12  -1  -7   10.89    1.58
  12   1  -7    9.27    1.47
  12   1  -7    9.85    0.73
  11  -1  -7   -0.18    0.38
  11   1  -7   -0.15    0.45
  10  -1  -7   66.04    4.83
  10  -1  -7   69.08    4.78
  10   1  -7   71.29    4.75
  10   1  -7   67.34    4.81
   9  -1  -7   28.56    2.34
   9  -1  -7   28.83    2.45
   9   1  -7   30.15    2.35
   9   1  -7   29.27    2.41
   8  -1  -7  121.07    7.61
   8  -1  -7  117.82    7.86
   8   1  -7  124.66    7.57
   8   1  -7  121.99    6.29
   8   1  -7  117.53    7.84
   7  -1  -7    0.16    0.18
   7  -1  -7   -0.22    0.34
   7   1  -7    0.08    0.19
   7   1  -7   -0.29    0.28
   6  -1  -7  106.16    6.56
   6  -1  -7  101.33    5.30
   6   1  -7  104.64    5.38
   6   1  -7  102.66    6.52
   5  -1  -7    1.45    0.26
   5  -1  -7    0.56    0.45
   5   1  -7    0.84    0.47
   5   1  -7    1.43    0.28
   4  -1  -7    1.78    0.56
   4  -1  -7    3.21    0.37
   4   1  -7    2.09    0.59
   4   1  -7    2.96    0.39
   3  -1  -7   -0.14    0.35
   3  -1  -7    0.24    0.16
   3   1  -7   -0.63    0.25
   3   1  -7    0.40    0.18
   2  -1  -7  219.91   10.59
   2  -1  -7  206.05   12.48
   2   1  -7  216.12   10.62
   2   1  -7  203.52   12.45
   1  -1  -7    2.32    0.58
  -1  -1   7    1.65    0.63
   1  -1  -7    2.40    0.35
   1   1  -7    2.07    0.35
   1   1  -7    1.84    0.53
  -1   1   7    1.98    0.15
   0  -1  -7   16.60    1.44
   0  -1  -7   17.75    1.08
   0  -1   7   13.01    1.52
   0   1   7   15.61    1.61
   0   1  -7   16.02    1.41
   0   1  -7   17.38    1.10
   0   1   7   15.08    0.73
  -1  -1  -7    1.78    0.36
  -1  -1  -7    1.72    0.53
   1  -1   7   -0.08    0.19
  -1   1  -7    1.56    0.48
   1   1   7    2.13    0.15
  -1   1  -7    1.30    0.34
   1   1   7    2.81    0.76
   2  -1   7  340.58   20.79
  -2  -1  -7  324.17   16.25
   2  -1   7  323.37   14.00
  -2  -1  -7  321.68   18.76
   2   1   7  327.62   20.69
   2   1   7  331.16   14.02
  -2   1  -7  320.38   16.26
  -2   1  -7  311.16   18.68
  -3  -1  -7    1.66    0.54
   3  -1   7    1.90    0.75
   3  -1   7    1.68    0.16
  -3  -1  -7    1.29    0.37
  -3   1  -7    1.21    0.37
  -3   1  -7    1.11    0.42
   3   1   7    0.76    0.12
   3   1   7    1.47    0.70
   4  -1   7    1.03    0.66
  -4  -1  -7    0.71    0.43
   4  -1   7    1.25    0.16
  -4  -1  -7    1.48    0.43
   4   1   7    1.09    0.15
   4   1   7    1.21    0.68
  -4   1  -7    1.33    0.41
  -4   1  -7    0.61    0.35
  -5  -1  -7    0.01    0.34
   5  -1   7    3.09    0.28
  -5  -1  -7    2.56    0.57
   5  -1   7    3.19    1.01
  -5   1  -7    2.88    0.58
   5   1   7    2.19    0.90
   5   1   7    2.96    0.28
   6  -1   7  140.74    6.10
  -6  -1  -7  134.88    7.35
   6  -1   7  138.86    9.71
   6   1   7  140.88    6.11
  -6   1  -7  133.97    7.34
   6   1   7  139.36    9.68
   7  -1   7   30.14    1.54
   7  -1   7   33.29    3.19
  -7  -1  -7   31.32    2.19
  -7   1  -7   33.16    2.20
   7   1   7   32.12    3.14
   7   1   7   31.70    1.56
  -8  -1  -7   -0.34    0.35
   8  -1   7   -0.30    0.60
   8  -1   7    0.20    0.15
   8   1   7    0.35    0.76
  -8   1  -7    0.20    0.42
   8   1   7    0.14    0.15
   9  -1   7    1.08    0.24
   9  -1   7    0.99    0.84
  -9  -1  -7    1.74    0.63
   9   1   7    1.19    0.26
  -9   1  -7    0.87    0.51
   9   1   7    0.47    0.78
 -10  -1  -7   49.88    3.28
  10  -1   7   46.35    4.45
  10  -1   7   49.90    2.37
  10   1   7   50.52    2.39
 -10   1  -7   48.95    3.23
  10   1   7   45.17    4.41
  11  -1   7    0.39    0.83
 -11  -1  -7    0.69    0.56
  11  -1   7    0.91    0.26
  11   1   7    0.96    0.26
 -11   1  -7   -0.21    0.41
  11   1   7    0.35    0.88
  12  -2  -7    8.84    1.47
  12   2  -7    8.95    0.69
  12   2  -7   10.17    1.49
  11  -2  -7   67.92    5.02
  11   2  -7   69.87    3.26
  11   2  -7   69.47    4.96
  10  -2  -7    6.71    1.30
  10  -2  -7    8.64    1.23
  10   2  -7    8.49    1.31
  10   2  -7    7.12    1.11
   9  -2  -7    2.11    0.76
   9  -2  -7    3.05    0.71
   9   2  -7    1.96    0.45
   9   2  -7    2.83    0.76
   9   2  -7    2.90    0.67
   8  -2  -7   36.73    2.76
   8  -2  -7   32.89    2.83
   8   2  -7   38.75    2.23
   8   2  -7   36.96    2.71
   8   2  -7   36.06    2.80
   7  -2  -7   44.49    3.41
   7   2  -7   46.53    3.36
   7   2  -7   49.65    2.70
   6  -2  -7    7.44    1.22
   6  -2  -7    9.37    0.66
   6   2  -7    9.80    1.30
   6   2  -7    9.67    0.77
   5  -2  -7   23.79    1.34
   5  -2  -7   25.41    2.04
   5   2  -7   21.93    1.42
   5   2  -7   23.01    1.94
   4  -2  -7   37.26    2.81
   4  -2  -7   38.87    2.06
   4   2  -7   38.56    2.79
   4   2  -7   38.28    2.15
   3  -2  -7   89.41    5.84
   3  -2  -7   95.54    4.71
   3   2  -7   90.61    4.78
   3   2  -7   92.92    5.82
   2  -2  -7    0.98    0.22
   2  -2  -7    0.49    0.42
   2   2  -7    0.57    0.43
  -2   2   7    0.59    0.10
   2   2  -7    1.01    0.25
   1  -2  -7   31.66    1.76
   1  -2  -7   28.29    2.31
  -1  -2   7   29.39    2.54
   1   2  -7   29.25    1.78
  -1   2   7   32.67    1.40
   1   2  -7   32.53    2.33
   0  -2   7   82.27    5.70
   0  -2  -7   77.35    5.12
   0  -2  -7   83.61    4.22
   0   2   7   88.16    5.69
   0   2  -7   78.17    5.07
   0   2  -7   85.20    4.27
   0   2   7   73.47    3.52
   1  -2   7   81.13    5.81
  -1  -2  -7   76.67    5.16
  -1  -2  -7   85.36    4.31
   1   2   7   82.80    5.72
   1   2   7   83.94    3.57
  -1   2  -7   76.99    5.07
  -1   2  -7   81.42    4.32
   2  -2   7    0.41    0.39
  -2  -2  -7    0.39    0.29
   2  -2   7    0.51    0.08
  -2  -2  -7   -0.26    0.36
   2   2   7    0.13    0.05
  -2   2  -7    0.96    0.32
   2   2   7    0.47    0.48
  -2   2  -7    0.10    0.32
  -3  -2  -7   56.14    3.08
   3  -2   7   53.13    2.41
  -3  -2  -7   52.30    3.68
   3   2   7   59.79    4.27
   3   2   7   52.34    2.43
  -3   2  -7   56.87    3.09
  -3   2  -7   52.75    3.52
  -4  -2  -7   34.29    2.06
   4  -2   7   34.78    1.49
  -4  -2  -7   33.53    2.48
   4   2   7   34.24    2.94
   4   2   7   32.68    1.51
  -4   2  -7   31.46    2.25
  -4   2  -7   23.57    1.92
  -5  -2  -7  103.97    5.68
   5  -2   7  108.72    4.65
  -5  -2  -7   96.24    6.52
   5  -2   7  111.76    7.70
   5   2   7  111.82    7.60
   5   2   7  102.53    4.67
   6  -2   7    0.71    0.71
  -6  -2  -7   -0.38    0.29
   6  -2   7    0.29    0.14
   6   2   7    0.14    0.15
   6   2   7   -0.30    0.57
  -6   2  -7   -0.04    0.34
   7  -2   7   43.06    1.96
   7  -2   7   40.30    3.76
  -7  -2  -7   39.72    2.65
   7   2   7   43.83    3.80
  -7   2  -7   43.05    2.68
   7   2   7   38.64    1.97
   8  -2   7   38.24    3.83
  -8  -2  -7   40.89    2.78
   8  -2   7   44.35    2.05
  -8   2  -7   42.42    2.78
   8   2   7   41.83    3.88
   8   2   7   44.41    2.08
   9  -2   7   28.66    3.29
  -9  -2  -7   37.46    2.51
   9  -2   7   33.55    1.70
   9   2   7   33.65    3.41
  -9   2  -7   31.87    2.37
   9   2   7   36.66    1.74
 -10  -2  -7    0.15    0.42
  10  -2   7    0.10    0.76
  10  -2   7   -0.01    0.17
 -10   2  -7   -0.03    0.42
  10   2   7    0.03    0.18
  10   2   7    0.88    0.90
 -11  -2  -7   14.34    1.68
  11  -2   7    9.90    0.70
  11  -2   7   10.43    2.08
  11   2   7   10.17    0.73
  11   2   7    7.49    1.88
 -11   2  -7    9.64    1.33
  12  -3  -7   10.61    1.57
  12   3  -7    9.23    1.42
  12   3  -7    8.88    0.70
  11  -3  -7    1.28    0.65
  11   3  -7    0.82    0.27
  11   3  -7    0.87    0.57
  10  -3  -7   22.65    2.24
  10  -3  -7   21.04    1.97
  10   3  -7   21.86    1.17
  10   3  -7   19.84    1.87
  10   3  -7   21.84    2.00
   9  -3  -7   20.33    1.92
   9  -3  -7   22.83    2.17
   9   3  -7   23.55    1.90
   9   3  -7   23.36    1.58
   9   3  -7   22.26    2.00
   9   3  -7   22.45    1.19
   8  -3  -7   28.63    2.26
   8  -3  -7   27.18    2.44
   8   3  -7   28.62    1.41
   8   3  -7   28.54    1.83
   8   3  -7   28.52    2.20
   8   3  -7   27.09    2.29
   7  -3  -7    7.30    1.19
   7   3  -7    8.50    1.19
   7   3  -7    7.26    0.73
   6  -3  -7   34.30    2.75
   6   3  -7   35.67    2.10
   6   3  -7   36.53    2.70
   5  -3  -7   93.27    4.66
   5  -3  -7   94.09    5.94
   5   3  -7   89.92    5.85
   5   3  -7   90.49    4.83
   4  -3  -7   10.60    0.65
   4  -3  -7   10.72    1.40
   4   3  -7    9.96    0.77
   4   3  -7   10.21    1.14
   4   3  -7    9.21    0.52
   3  -3  -7   16.31    1.60
   3  -3  -7   18.56    1.03
   3   3  -7   17.73    1.12
  -3   3   7   15.99    0.82
   3   3  -7   16.83    0.79
   3   3  -7   16.80    1.55
   2  -3  -7  154.43    7.40
   2  -3  -7  135.98    8.90
   2   3  -7  149.08    7.49
  -1  -3   7  188.97   11.06
   1  -3  -7  180.16    8.43
   1  -3  -7  157.81   10.04
  -1   3   7  151.07    7.27
   1   3  -7  165.18    8.49
   0  -3  -7   10.05    0.74
   0  -3   7    8.65    1.34
   0  -3  -7    9.72    1.11
   0   3  -7    8.96    0.75
   0   3   7   10.44    1.21
   0   3   7    9.01    0.48
  -1  -3  -7   28.89    1.68
   1  -3   7   25.41    2.45
  -1  -3  -7   26.44    2.21
   1   3   7   30.78    2.46
  -1   3  -7   28.47    1.73
   2  -3   7   94.17    4.13
  -2  -3  -7   96.03    5.02
  -2  -3  -7   92.90    6.04
   2  -3   7   91.97    6.75
  -2   3  -7   93.42    5.85
  -2   3  -7   93.56    5.04
   2   3   7   97.42    4.19
   2   3   7  103.47    6.68
  -3  -3  -7   84.15    5.54
   3  -3   7   87.48    3.76
  -3  -3  -7   85.07    4.60
  -3   3  -7   82.06    5.29
   3   3   7   93.40    6.18
   3   3   7   84.64    3.80
  -3   3  -7   85.35    4.62
   4  -3   7   -0.05    0.07
  -4  -3  -7    0.08    0.48
   4  -3   7   -0.05    0.25
  -4  -3  -7    0.04    0.27
  -4   3  -7    0.02    0.13
   4   3   7    0.24    0.10
  -4   3  -7    0.05    0.23
   4   3   7   -0.07    0.44
  -5  -3  -7   19.04    1.88
   5  -3   7   19.59    0.96
  -5  -3  -7   21.14    1.48
   5  -3   7   20.76    2.24
   5   3   7   22.82    2.23
   5   3   7   19.14    0.98
  -5   3  -7   18.90    1.50
  -5   3  -7   14.86    1.34
  -6  -3  -7   75.42    4.26
   6  -3   7   75.31    5.83
   6  -3   7   74.06    3.36
  -6   3  -7   73.52    4.24
   6   3   7   76.64    5.75
   6   3   7   74.55    3.39
  -7  -3  -7   31.45    2.18
   7  -3   7   30.83    1.53
   7  -3   7   30.41    3.12
   7   3   7   31.28    3.09
   7   3   7   32.49    1.57
  -7   3  -7   31.72    2.16
   8  -3   7   -0.09    0.15
  -8  -3  -7    0.17    0.42
   8  -3   7    0.52    0.74
   8   3   7   -0.04    0.15
   8   3   7   -0.07    0.66
  -8   3  -7    0.05    0.38
  -9  -3  -7   15.17    1.45
   9  -3   7   12.20    2.23
   9  -3   7   15.10    0.88
   9   3   7   16.53    2.47
   9   3   7   15.67    0.92
  -9   3  -7   14.94    1.43
 -10  -3  -7   21.99    1.94
  10  -3   7   23.19    1.25
  10  -3   7   21.12    2.73
  10   3   7   24.53    1.30
  10   3   7   22.52    2.75
 -10   3  -7   24.23    1.94
  11  -3   7   15.93    2.67
  11  -3   7   17.07    1.00
  11   3   7   16.19    1.01
 -11   3  -7   16.26    1.60
  11   3   7   16.38    2.65
  12  -4  -7   14.04    1.78
  12   4  -7   16.23    1.77
  12   4  -7   17.12    1.02
  11  -4  -7   20.83    2.02
  11   4  -7   20.23    1.14
  11   4  -7   18.00    1.82
  10  -4  -7    4.02    0.89
  10  -4  -7    3.49    1.10
  10   4  -7    4.00    0.91
  10   4  -7    3.35    0.64
  10   4  -7    4.51    0.45
  10   4  -7    5.26    0.90
   9  -4  -7    0.15    0.57
   9  -4  -7    0.70    0.46
   9   4  -7    0.75    0.35
   9   4  -7    0.95    0.23
   9   4  -7    1.52    0.61
   9   4  -7    1.08    0.46
   8  -4  -7   36.20    2.94
   8  -4  -7   37.65    2.74
   8   4  -7   35.52    2.63
   8   4  -7   35.43    1.73
   8   4  -7   34.27    2.73
   8   4  -7   34.93    2.22
   7  -4  -7   14.62    1.69
   7   4  -7   17.20    0.90
   7   4  -7   17.25    1.64
   7   4  -7   17.33    1.25
   6  -4  -7   33.37    2.69
   6   4  -7   33.53    2.01
   6   4  -7   33.86    2.57
   6   4  -7   31.97    1.56
   5  -4  -7    1.83    0.67
   5   4  -7    1.92    0.60
   5   4  -7    2.02    0.40
   5   4  -7    1.65    0.20
   4  -4  -7   75.85    5.13
   4  -4  -7   81.92    3.94
   4   4  -7   74.08    4.12
   4   4  -7   77.70    3.43
   3  -4  -7   87.99    5.66
   3  -4  -7   89.83    4.41
   3   4  -7   87.50    3.80
   3   4  -7   83.82    4.57
  -3   4   7   86.19    3.84
   2  -4  -7   80.18    3.61
   2  -4  -7   41.57    4.38
   2   4  -7   76.95    3.75
  -2   4   7   75.35    3.10
   1  -4  -7   22.81    1.25
   1  -4  -7   20.56    1.85
  -1  -4   7   19.28    1.88
  -1   4   7   19.25    0.96
   1   4  -7   21.43    1.32
   0  -4  -7   98.08    6.16
   0  -4  -7   98.92    4.96
   0  -4   7   89.89    6.62
   0   4  -7   96.35    5.03
  -1  -4  -7   60.55    4.34
  -1  -4  -7   62.22    3.46
   1  -4   7   62.64    4.81
   1   4   7   73.83    4.76
  -1   4  -7   63.69    3.52
   1   4   7   66.13    2.88
   2  -4   7   16.66    0.77
  -2  -4  -7   15.91    1.15
  -2  -4  -7   17.46    1.70
   2  -4   7   14.79    1.83
   2   4   7   18.60    1.78
   2   4   7   17.56    0.84
  -2   4  -7   17.37    1.21
   3  -4   7   10.90    1.73
   3  -4   7    9.75    0.50
  -3  -4  -7    9.43    0.86
  -3  -4  -7    9.04    1.34
   3   4   7   11.08    1.33
   3   4   7    9.99    0.55
  -4  -4  -7   56.69    3.15
   4  -4   7   47.54    2.43
  -4  -4  -7   58.82    3.96
  -4   4  -7   56.87    3.55
   4   4   7   54.47    2.49
   4   4   7   61.45    4.34
   5  -4   7   23.19    2.45
   5  -4   7   23.00    1.10
  -5  -4  -7   21.69    2.14
  -5  -4  -7   22.76    1.62
  -5   4  -7   22.03    1.61
   5   4   7   23.63    2.36
  -5   4  -7   21.35    1.70
   5   4   7   23.73    1.15
  -6  -4  -7   12.26    1.13
   6  -4   7   10.93    1.90
   6  -4   7   11.60    0.66
   6   4   7   12.06    0.70
  -6   4  -7   12.11    1.12
   6   4   7   11.89    1.90
  -7  -4  -7    7.24    1.01
   7  -4   7    7.08    0.48
   7  -4   7    5.97    1.48
   7   4   7    7.79    1.58
   7   4   7    6.15    0.50
  -7   4  -7    8.18    1.03
   8  -4   7   48.64    4.59
   8  -4   7   56.59    2.56
  -8  -4  -7   53.93    3.42
   8   4   7   55.35    2.61
  -8   4  -7   55.26    3.38
   8   4   7   56.68    4.71
   9  -4   7    6.23    0.49
  -9  -4  -7    6.31    1.02
   9  -4   7    5.22    1.46
   9   4   7    6.83    1.66
   9   4   7    6.43    0.53
  -9   4  -7    6.87    1.00
  10  -4   7    0.31    0.84
  10  -4   7    1.02    0.23
 -10   4  -7    0.25    0.46
  10   4   7    1.53    1.07
  10   4   7    1.04    0.27
  11  -4   7    0.67    0.92
  11  -4   7    0.74    0.24
  11   4   7    0.13    0.92
  11   4   7    0.59    0.25
 -11   4  -7    0.84    0.58
  12  -5  -7    0.29    0.56
  12   5  -7   -0.28    0.18
  11  -5  -7   -0.06    0.45
  11   5  -7    0.32    0.47
  11   5  -7    0.27    0.33
  11   5  -7    0.05    0.19
  10  -5  -7    2.48    0.99
  10  -5  -7    3.39    0.85
  10   5  -7    3.75    0.67
  10   5  -7    4.08    0.79
  10   5  -7    3.39    0.40
  10   5  -7    4.12    0.89
   9  -5  -7   38.40    3.28
   9  -5  -7   41.46    3.13
   9   5  -7   40.59    2.99
   9   5  -7   42.37    1.99
   9   5  -7   40.21    2.52
   9   5  -7   39.00    3.05
   8  -5  -7   12.22    1.75
   8  -5  -7   12.99    1.33
   8   5  -7   12.76    0.78
   8   5  -7   13.64    1.47
   8   5  -7   14.47    1.28
   8   5  -7   14.51    1.15
   7  -5  -7    6.53    1.25
   7   5  -7    7.47    0.49
   7   5  -7    7.77    1.14
   7   5  -7    6.69    0.82
   6  -5  -7    6.08    1.17
   6   5  -7    6.89    0.68
   6   5  -7    5.57    0.41
   5  -5  -7  111.50    7.12
   5   5  -7  112.37    4.89
   5   5  -7  109.32    5.83
   4  -5  -7    0.13    0.41
   4   5  -7   -0.16    0.08
  -4   5   7    0.15    0.09
   4   5  -7    0.14    0.17
   3  -5  -7    4.15    0.36
   3  -5  -7    4.51    0.93
   3   5  -7    3.87    0.52
  -3   5   7    4.68    0.30
   3   5  -7    3.60    0.25
   2  -5  -7   28.30    1.54
   2   5  -7   28.23    1.70
  -2   5   7   28.19    1.32
   1  -5  -7  145.04    7.05
  -1  -5   7  135.74    9.28
   1  -5  -7  142.38    8.70
   1   5  -7  141.61    7.19
  -1   5   7  135.91    6.11
   0  -5  -7    6.34    0.55
   0  -5  -7    6.01    1.09
   0  -5   7    5.80    1.12
   0   5  -7    6.97    0.63
   0   5   7    5.79    0.36
  -1  -5  -7    7.45    1.22
   1  -5   7    8.05    1.37
  -1  -5  -7    8.07    0.68
  -1   5  -7    7.02    0.70
   1   5   7   11.61    1.24
   1   5   7    8.04    0.46
  -2  -5  -7    3.96    0.97
   2  -5   7    4.73    1.15
   2  -5   7    4.90    0.26
  -2  -5  -7    4.23    0.57
   2   5   7    5.23    0.34
   2   5   7    5.57    1.01
  -2   5  -7    5.19    0.65
  -3  -5  -7   56.20    4.14
   3  -5   7   57.74    4.61
  -3  -5  -7   58.14    3.23
   3   5   7   57.74    2.62
   3   5   7   58.87    4.35
   4  -5   7    0.16    0.50
  -4  -5  -7   -0.15    0.23
  -4  -5  -7    0.15    0.66
   4   5   7    0.33    0.12
  -4   5  -7   -0.07    0.10
   4   5   7   -0.12    0.45
  -5  -5  -7   19.04    1.43
   5  -5   7   21.74    2.32
  -5  -5  -7   17.71    2.02
   5   5   7   17.22    2.01
  -5   5  -7   17.55    1.41
   5   5   7   20.06    1.00
   6  -5   7   10.61    1.87
  -6  -5  -7   13.48    1.19
   6   5   7   13.15    0.74
   6   5   7   12.43    1.92
  -6   5  -7   11.26    1.11
  -7  -5  -7   63.81    3.65
   7  -5   7   56.49    4.92
   7   5   7   63.07    2.81
   7   5   7   52.95    4.74
  -7   5  -7   59.74    3.56
   8  -5   7    0.07    0.62
  -8  -5  -7    0.36    0.43
   8  -5   7    0.19    0.15
   8   5   7    0.16    0.70
  -8   5  -7   -0.36    0.35
   8   5   7    0.31    0.19
   9  -5   7   21.76    1.16
  -9  -5  -7   19.69    1.79
   9  -5   7   19.47    2.52
   9   5   7   22.50    1.22
   9   5   7   23.27    2.68
  -9   5  -7   23.85    1.81
  10  -5   7    5.20    0.45
  10  -5   7    4.60    1.45
  10   5   7    4.93    0.53
  10   5   7    5.34    1.52
 -10   5  -7    4.73    0.90
  11  -5   7   13.80    2.52
  11  -5   7   17.95    0.98
  11   5   7   12.46    2.37
  11   5   7   16.32    1.02
 -11   5  -7   13.38    1.63
  12  -6  -7   31.09    2.90
  12   6  -7   32.73    1.71
  11  -6  -7    2.19    0.79
  11   6  -7    2.94    0.40
  11   6  -7    2.93    0.64
  10  -6  -7   17.59    2.38
  10  -6  -7   22.47    2.01
  10   6  -7   20.73    1.16
  10   6  -7   21.18    1.60
  10   6  -7   20.96    1.97
  10   6  -7   20.69    1.83
   9  -6  -7    0.81    0.49
   9  -6  -7   -0.31    0.62
   9   6  -7    0.46    0.52
   9   6  -7    0.34    0.19
   9   6  -7    0.71    0.35
   9   6  -7    0.43    0.40
   8  -6  -7   64.50    4.65
   8  -6  -7   62.75    4.49
   8   6  -7   66.01    4.36
   8   6  -7   62.36    2.95
   8   6  -7   65.00    3.69
   8   6  -7   64.07    4.40
   7  -6  -7    5.27    1.14
   7  -6  -7    7.70    0.88
   7   6  -7    6.09    0.45
   7   6  -7    7.34    0.86
   6  -6  -7   36.31    2.96
   6   6  -7   36.36    1.70
   6   6  -7   35.52    2.20
   5  -6  -7    0.12    0.51
   5   6  -7    0.06    0.19
   5   6  -7   -0.04    0.10
   4  -6  -7   89.51    6.11
   4   6  -7   93.20    4.08
   4   6  -7   96.57    4.95
  -4   6   7   91.89    4.13
   3  -6  -7    0.91    0.56
   3  -6  -7    0.88    0.15
   3   6  -7    0.81    0.26
   3   6  -7    0.83    0.11
  -3   6   7    0.99    0.16
   2  -6  -7   11.40    0.69
  -2   6   7    9.98    0.58
   2   6  -7   12.03    0.87
  -1  -6   7    7.54    1.24
   1  -6  -7    6.38    1.19
   1  -6  -7    8.60    0.62
   1   6  -7    8.65    0.73
  -1   6   7    8.82    0.48
   0  -6   7  111.85    7.75
   0  -6  -7  108.65    5.76
   0  -6  -7  115.01    7.28
   0   6  -7  114.69    5.90
   0   6   7  115.92    4.97
   1  -6   7    0.13    0.47
  -1  -6  -7    0.17    0.18
  -1  -6  -7    0.54    0.55
   1   6   7    0.15    0.09
  -1   6  -7    0.17    0.22
  -2  -6  -7    8.57    1.45
   2  -6   7    8.48    1.55
  -2  -6  -7    9.00    0.78
   2   6   7    9.88    1.21
   2   6   7    9.18    0.53
  -3  -6  -7    0.89    0.33
  -3  -6  -7    0.36    0.72
   3  -6   7    0.58    0.66
   3   6   7    1.58    0.65
   3   6   7    1.09    0.17
  -3   6  -7   -0.08    0.10
  -4  -6  -7  154.72    7.75
  -4  -6  -7  138.38    9.32
   4  -6   7  144.70   10.26
   4   6   7  149.09    6.54
  -4   6  -7  144.72    7.74
   4   6   7  157.88   10.01
  -5  -6  -7    1.13    0.85
   5  -6   7    1.28    0.75
  -5  -6  -7    2.21    0.52
  -5   6  -7    1.28    0.45
   5   6   7    2.20    0.27
   5   6   7    2.68    0.87
  -6  -6  -7    1.36    0.48
   6  -6   7    0.97    0.77
  -6   6  -7    2.68    0.58
   6   6   7    1.61    0.83
   6   6   7    2.36    0.29
   7  -6   7    0.18    0.63
  -7  -6  -7    0.33    0.41
  -7   6  -7    0.13    0.37
   7   6   7    0.39    0.18
   7   6   7    0.27    0.64
   8  -6   7   69.95    6.01
   8   6   7   76.65    6.01
  -8   6  -7   77.41    4.45
   8   6   7   79.77    3.57
   9  -6   7    0.85    0.83
   9   6   7    1.65    0.30
   9   6   7    1.80    1.05
  -9   6  -7    0.94    0.51
  10  -6   7   -0.14    0.71
  10  -6   7    0.53    0.20
  10   6   7   -0.27    0.81
 -10   6  -7    0.49    0.48
  10   6   7    0.46    0.22
  11  -6   7    0.44    0.94
 -11   6  -7    1.06    0.59
  11   6   7    0.09    0.22
  12  -7  -7    1.17    0.76
  12   7  -7    0.48    0.28
  12   7  -7    0.66    0.46
  11  -7  -7    1.62    0.74
  11   7  -7    0.88    0.26
  11   7  -7    1.30    0.48
  10  -7  -7   -1.48    0.63
  10  -7  -7    0.32    0.48
  10   7  -7   -0.03    0.16
  10   7  -7    0.52    0.36
  10   7  -7   -0.37    0.39
   9  -7  -7   54.28    3.88
   9  -7  -7   46.02    4.01
   9   7  -7   51.08    3.14
   9   7  -7   51.97    3.65
   9   7  -7   54.78    2.48
   9   7  -7   49.16    3.72
   8  -7  -7   -0.51    0.58
   8  -7  -7    0.15    0.34
   8   7  -7    0.36    0.32
   8   7  -7    0.19    0.28
   8   7  -7   -0.28    0.13
   7  -7  -7   23.25    1.98
   7  -7  -7   25.44    2.42
   7   7  -7   24.20    1.69
   7   7  -7   24.84    1.23
   6  -7  -7    2.66    0.91
   6   7  -7    1.34    0.20
   6   7  -7    1.97    0.45
   5  -7  -7  141.95    9.07
  -5   7   7  136.41    6.32
   5   7  -7  147.69    6.29
   5   7  -7  148.25    7.49
   4  -7  -7    2.18    0.84
   4   7  -7    2.43    0.43
  -4   7   7    1.47    0.21
   4   7  -7    2.01    0.20
   3  -7  -7   12.00    1.61
   3   7  -7    9.37    0.50
  -3   7   7   10.29    0.57
   3   7  -7   10.44    0.84
   2  -7  -7   -0.13    0.23
   2  -7  -7    1.71    0.21
   2   7  -7    0.75    0.27
  -2   7   7    0.86    0.15
  -1  -7   7   85.99    6.24
   1  -7  -7   92.11    4.59
   1  -7  -7   93.04    6.09
  -1   7   7   91.65    4.00
   1   7  -7   87.83    4.77
   0  -7  -7    0.27    0.62
   0  -7   7    0.54    0.49
   0  -7  -7    0.24    0.18
   0   7  -7    0.38    0.24
   0   7   7    0.47    0.11
  -1  -7  -7    4.80    0.56
   1  -7   7    4.45    1.08
  -1  -7  -7    5.95    1.24
   1   7   7    6.26    0.38
  -2  -7  -7    1.95    0.93
  -2  -7  -7    3.05    0.47
   2  -7   7    1.97    0.85
   2   7   7    3.11    0.27
   2   7   7    2.78    0.74
   3  -7   7   97.25    7.21
  -3  -7  -7   88.98    6.62
  -3  -7  -7   98.74    5.26
   3   7   7  108.77    6.91
   3   7   7  100.45    4.42
  -4  -7  -7   15.28    2.17
   4  -7   7   17.05    2.07
  -4  -7  -7   16.25    1.27
   4   7   7   17.80    0.91
  -4   7  -7   16.63    1.29
   4   7   7   16.58    1.78
   5  -7   7   30.79    3.09
  -5  -7  -7   27.12    2.89
  -5  -7  -7   35.86    2.17
   5   7   7   33.38    2.91
   5   7   7   33.42    1.60
  -5   7  -7   32.82    2.12
  -6  -7  -7    0.43    0.37
   6  -7   7    0.90    0.68
  -6   7  -7    0.11    0.32
   6   7   7    0.93    0.21
   6   7   7    0.59    0.69
   7  -7   7   89.11    6.84
   7   7   7   90.84    4.09
   7   7   7   87.86    6.61
  -7   7  -7   89.15    5.00
   8  -7   7    0.44    0.66
   8   7   7    1.36    0.98
  -8   7  -7    1.72    0.56
   8   7   7    1.22    0.27
   9  -7   7   22.24    2.72
   9   7   7   23.44    1.31
   9   7   7   22.72    2.68
  -9   7  -7   25.14    1.89
  10  -7   7    0.04    0.74
 -10   7  -7    0.23    0.43
  10   7   7    0.03    0.19
  11  -7   7   30.80    3.59
  11   7   7   34.95    1.81
 -11   7  -7   33.00    2.48
  12   8  -7   28.54    1.59
  12   8  -7   30.02    2.17
  11  -8  -7    0.90    0.66
  11   8  -7    2.48    0.62
  11   8  -7    1.90    0.33
  10  -8  -7   21.39    2.02
  10  -8  -7   17.93    2.53
  10   8  -7   21.24    2.02
  10   8  -7   20.09    1.15
  10   8  -7   21.38    1.65
   9  -8  -7   -0.78    0.69
   9  -8  -7    0.06    0.37
   9   8  -7   -0.29    0.38
   9   8  -7    0.00    0.29
   9   8  -7    0.08    0.17
   8  -8  -7   52.29    4.47
   8  -8  -7   62.61    4.32
   8   8  -7   60.39    3.55
   8   8  -7   60.67    4.08
   8   8  -7   61.22    2.80
   7  -8  -7   21.40    1.82
   7  -8  -7   20.63    2.28
   7   8  -7   20.83    1.10
   7   8  -7   22.25    1.57
   6  -8  -7   27.78    2.52
   6   8  -7   23.76    1.21
   6   8  -7   24.23    1.67
   5  -8  -7   -0.09    0.58
  -5   8   7    0.16    0.13
   5   8  -7   -0.02    0.10
   5   8  -7   -0.09    0.21
   4  -8  -7   88.18    6.22
  -4   8   7   92.98    4.11
   4   8  -7   91.86    4.94
   4   8  -7   92.78    4.05
   3  -8  -7   12.66    1.88
   3   8  -7   13.75    1.08
  -3   8   7   15.69    0.79
   3   8  -7   14.75    0.71
   2   8  -7   12.29    0.96
  -2   8   7   12.08    0.66
  -1  -8   7    4.52    1.01
   1  -8  -7    6.54    0.50
   1  -8  -7    5.90    1.29
  -1   8   7    6.26    0.40
   1   8  -7    5.53    0.67
   0  -8  -7   96.26    4.62
   0  -8  -7   99.52    6.28
   0  -8   7   88.56    6.33
   0   8   7  102.64    4.00
   0   8  -7   62.80    4.65
  -1  -8  -7   12.44    1.91
  -1  -8  -7   13.77    0.95
   1  -8   7   11.68    1.80
   1   8   7   14.16    0.74
  -2  -8  -7   26.45    1.61
   2  -8   7   20.29    2.40
  -2  -8  -7   28.35    2.71
   2   8   7   27.13    1.28
   3  -8   7    2.98    1.02
  -3  -8  -7    3.32    1.19
  -3  -8  -7    2.59    0.48
  -3   8  -7    2.54    0.51
   3   8   7    2.60    0.29
   3   8   7    4.47    0.95
  -4  -8  -7   82.77    6.07
   4  -8   7   81.39    6.39
  -4  -8  -7   86.49    4.68
  -4   8  -7   86.47    4.68
   4   8   7   90.73    6.09
   4   8   7   84.18    3.86
  -5  -8  -7   10.34    1.86
   5  -8   7   10.86    1.88
  -5   8  -7   11.13    1.04
   5   8   7   11.70    1.69
   5   8   7   11.05    0.68
   6  -8   7    9.28    1.75
  -6   8  -7    9.50    1.08
   6   8   7    9.08    1.56
   6   8   7    8.79    0.60
   7  -8   7    4.97    1.34
   7   8   7    7.45    1.50
  -7   8  -7    5.73    0.87
   7   8   7    5.91    0.49
   8  -8   7   53.51    5.01
   8   8   7   58.80    2.88
  -8   8  -7   65.33    3.70
   8   8   7   65.74    5.03
   9  -8   7    0.40    0.71
  -9   8  -7    0.32    0.42
   9   8   7    0.36    0.22
  10  -8   7    2.02    1.08
  10   8   7    0.70    0.26
 -10   8  -7    0.48    0.48
  11  -8   7    5.52    1.62
 -11   8  -7    6.30    1.07
  11   8   7    5.29    0.59
  11  -9  -7    0.32    0.54
  11   9  -7    0.22    0.22
  11   9  -7    0.08    0.37
  10  -9  -7   13.94    1.58
  10  -9  -7   12.09    2.11
  10   9  -7   13.45    1.28
  10   9  -7   12.82    1.69
  10   9  -7   13.66    0.86
   9  -9  -7   52.74    3.92
   9  -9  -7   52.35    4.31
   9   9  -7   50.97    3.21
   9   9  -7   52.34    2.49
   8  -9  -7    3.42    1.20
   8  -9  -7    4.07    0.80
   8   9  -7    2.92    0.63
   8   9  -7    3.77    0.40
   7  -9  -7    6.99    1.54
   7  -9  -7   10.12    1.10
   7   9  -7    9.32    0.60
   7   9  -7    9.27    0.95
   6  -9  -7   37.18    3.38
   6  -9  -7   41.40    2.96
   6   9  -7   38.38    1.88
   6   9  -7   42.67    2.51
   5  -9  -7   55.11    4.21
   5   9  -7   55.07    3.11
  -5   9   7   51.42    2.46
   5   9  -7   52.76    2.42
   4  -9  -7   19.06    2.20
   4   9  -7   18.52    0.91
  -4   9   7   17.69    0.95
   4   9  -7   19.45    1.35
   3  -9  -7   20.84    2.30
  -3   9   7   21.78    1.06
   3   9  -7   19.16    1.40
   2   9  -7   57.61    3.22
  -2   9   7   57.15    2.61
   1  -9  -7  168.17   10.58
  -1  -9   7  155.82   10.87
  -1   9   7  172.33    7.26
   1   9  -7  164.99    8.51
   0  -9   7    1.63    0.75
   0  -9  -7    1.82    0.98
   0   9   7    2.15    0.24
   1  -9   7    6.38    1.35
  -1  -9  -7    8.42    1.65
   1   9   7    8.20    0.50
   2  -9   7   55.45    4.80
  -2  -9  -7   61.50    4.81
  -2   9  -7   62.91    3.47
   2   9   7   64.90    2.84
  -3  -9  -7   35.85    3.54
   3  -9   7   37.94    3.55
   3   9   7   40.80    1.92
   3   9   7   47.47    3.33
  -3   9  -7   39.01    2.44
   4  -9   7    0.10    0.66
  -4  -9  -7   -0.60    0.81
   4   9   7    0.28    0.14
   4   9   7   -0.17    0.46
  -4   9  -7   -0.39    0.22
   5  -9   7   29.77    2.98
  -5  -9  -7   27.68    3.00
   5   9   7   29.23    2.66
  -5   9  -7   30.67    1.99
   5   9   7   30.33    1.50
   6  -9   7   54.35    4.73
   6   9   7   58.34    2.68
   6   9   7   51.64    4.37
  -6   9  -7   60.02    3.38
   7  -9   7   19.12    2.46
   7   9   7   23.12    2.38
   7   9   7   22.34    1.20
  -7   9  -7   21.06    1.64
   8  -9   7    0.87    0.81
  -8   9  -7    0.59    0.48
   8   9   7    1.03    0.26
   9  -9   7   15.15    2.47
  -9   9  -7   17.33    1.49
   9   9   7   15.59    0.99
  10  -9   7   13.80    2.50
  10   9   7   19.29    1.13
 -10   9  -7   18.87    1.63
  11 -10  -7   47.32    3.79
  11  10  -7   45.28    3.02
  10 -10  -7   11.27    2.15
  10 -10  -7    9.80    1.48
  10  10  -7    9.35    1.17
  10  10  -7    9.05    0.68
   9 -10  -7    0.86    0.96
   9 -10  -7    0.53    0.50
   9  10  -7    0.81    0.42
   9  10  -7    0.23    0.20
   8 -10  -7   23.97    2.13
   8 -10  -7   25.50    2.78
   8  10  -7   24.62    1.29
   8  10  -7   25.27    1.84
   7 -10  -7  120.15    7.87
   7 -10  -7  114.83    8.06
   7  10  -7  122.29    6.47
   7  10  -7  118.55    5.32
   6 -10  -7    7.21    1.02
   6 -10  -7    8.32    1.64
   6  10  -7    8.12    0.96
  -6  10   7    7.61    0.53
   6  10  -7    7.32    0.49
   5 -10  -7    5.50    1.40
  -5  10   7    6.79    0.47
   5  10  -7    6.22    0.81
   4 -10  -7   28.34    2.75
   4  10  -7   22.78    1.67
  -4  10   7   26.32    1.27
   3 -10  -7   23.60    2.63
  -3  10   7   25.81    1.26
   3  10  -7   25.17    1.67
   2 -10  -7   11.28    1.93
   2  10  -7   11.05    0.93
  -2  10   7   10.86    0.63
  -1 -10   7   32.07    2.92
   1 -10  -7   37.68    3.40
   1  10  -7   36.45    2.19
  -1  10   7   37.88    1.73
   0 -10  -7   66.32    5.07
   0 -10   7   55.48    4.76
   0  10   7   70.21    2.97
  -1 -10  -7   99.69    6.92
   1 -10   7   84.10    6.81
   1  10   7  101.32    4.31
  -1  10  -7   97.52    5.14
   2 -10   7    7.54    1.53
  -2 -10  -7    6.64    1.69
  -2  10  -7    9.33    0.85
   2  10   7    9.73    0.58
  -3 -10  -7   43.22    3.81
   3 -10   7   38.73    3.55
   3  10   7   38.94    1.88
  -3  10  -7   39.09    2.41
   4 -10   7   30.71    3.05
  -4 -10  -7   28.10    3.14
   4  10   7   35.73    2.76
  -4  10  -7   28.90    1.98
   4  10   7   30.84    1.53
  -5 -10  -7   35.66    3.53
   5 -10   7   31.87    3.32
   5  10   7   36.99    1.80
  -5  10  -7   36.84    2.33
   5  10   7   40.44    3.15
   6 -10   7    2.52    1.02
   6  10   7    1.32    0.27
   6  10   7    1.90    0.83
  -6  10  -7    1.61    0.50
   7 -10   7   19.75    2.50
  -7  10  -7   22.91    1.69
   7  10   7   21.65    1.20
   8 -10   7   26.98    3.12
   8  10   7   31.69    1.62
  -8  10  -7   30.67    2.14
   9 -10   7   14.33    2.43
  -9  10  -7   16.94    1.49
   9  10   7   17.17    1.04
  10 -10   7    0.09    0.75
  10  10   7    0.20    0.23
 -10  10  -7    0.31    0.48
  11 -11  -7    0.12    0.57
  11  11  -7    0.04    0.42
  10 -11  -7   34.34    2.97
  10 -11  -7   35.50    3.58
  10  11  -7   33.96    2.42
   9 -11  -7    9.88    1.41
   9 -11  -7    9.59    1.96
   9  11  -7    8.75    1.15
   8 -11  -7   16.54    2.50
   8 -11  -7   14.30    1.51
   8  11  -7   16.20    1.39
   7 -11  -7    4.40    1.40
   7 -11  -7    4.55    0.84
   7  11  -7    4.56    0.76
   6 -11  -7   62.93    4.52
   6 -11  -7   70.88    5.21
  -6  11   7   67.00    3.05
   6  11  -7   64.29    3.80
   5 -11  -7   11.65    1.96
   5  11  -7   12.20    1.05
  -5  11   7   10.72    0.67
   4 -11  -7   19.58    2.59
  -4  11   7   18.21    1.00
   4  11  -7   19.72    1.42
   3 -11  -7    0.80    0.91
   3  11  -7    0.69    0.31
  -3  11   7    0.78    0.18
   2 -11  -7   76.09    5.92
  -2  11   7   81.85    3.63
   2  11  -7   81.15    4.40
   1 -11  -7    2.45    1.17
  -1 -11   7    3.53    0.91
  -1  11   7    3.89    0.33
   1  11  -7    2.95    0.52
   0 -11   7    9.53    1.60
   0 -11  -7   10.86    2.10
   0  11  -7   12.72    0.99
   0  11   7   12.22    0.69
  -1 -11  -7   -0.11    0.88
   1 -11   7    0.55    0.68
  -1  11  -7    0.19    0.23
   1  11   7    0.14    0.13
   2 -11   7   96.19    7.32
  -2 -11  -7  100.28    7.33
   2  11   7  104.68    4.56
  -2  11  -7  102.25    5.44
  -3 -11  -7   27.29    3.15
   3 -11   7   27.25    2.86
  -3  11  -7   28.25    1.89
   3  11   7   31.05    1.47
   4 -11   7    1.30    0.83
  -4 -11  -7    1.35    1.09
   4  11   7    1.25    0.23
   4  11   7    0.69    0.61
  -4  11  -7    1.36    0.44
   5 -11   7   -0.03    0.61
  -5 -11  -7    0.85    0.93
   5  11   7    1.03    0.23
  -5  11  -7    0.91    0.42
   5  11   7    0.76    0.63
   6 -11   7   29.49    3.25
   6  11   7   35.97    1.75
  -6  11  -7   35.35    2.27
   7 -11   7   12.59    2.20
  -7  11  -7   16.50    1.38
   7  11   7   15.81    0.95
   8 -11   7    0.81    0.87
   8  11   7    0.47    0.22
  -8  11  -7    0.06    0.39
   9 -11   7    0.74    0.89
   9  11   7    0.46    0.24
  -9  11  -7    0.72    0.47
  10 -11   7   30.41    3.61
  10  11   7   38.51    1.95
 -10  11  -7   36.28    2.55
  10 -12  -7   -0.14    0.43
  10  12  -7   -0.17    0.36
   9 -12  -7    0.82    1.06
   9 -12  -7    0.54    0.48
   9  12  -7    0.77    0.46
   8 -12  -7    1.77    0.63
   8 -12  -7    0.83    1.02
   8  12  -7    1.79    0.56
   7 -12  -7   61.38    4.33
   7 -12  -7   62.17    5.02
   7  12  -7   58.63    3.60
   6 -12  -7    0.01    0.87
   6 -12  -7    0.89    0.42
   6  12  -7   -0.11    0.26
  -6  12   7    0.69    0.20
   5 -12  -7    8.55    0.97
   5 -12  -7   11.14    2.02
  -5  12   7    8.93    0.60
   5  12  -7    9.49    0.95
   4 -12  -7    5.44    1.45
   4  12  -7    3.91    0.65
  -4  12   7    4.63    0.39
   3 -12  -7  158.00   10.52
  -3  12   7  163.45    7.03
   3  12  -7  154.53    8.28
   2 -12  -7   -0.32    0.78
  -2  12   7    0.37    0.15
   2  12  -7    0.15    0.25
   1 -12  -7   11.05    2.08
  -1  12   7   12.63    0.72
   1  12  -7   11.65    0.99
   0 -12   7    0.07    0.61
   0 -12  -7    0.91    1.04
   0  12   7    0.70    0.19
   0  12  -7    1.21    0.35
   1 -12   7   76.55    5.99
  -1 -12  -7   82.26    6.29
  -1  12  -7   81.54    4.44
   1  12   7   83.23    3.69
  -2 -12  -7    8.67    1.93
   2 -12   7    8.11    1.61
  -2  12  -7    8.59    0.83
   2  12   7    8.58    0.57
  -3 -12  -7   36.40    3.63
   3 -12   7   31.93    3.13
  -3  12  -7   31.85    2.06
   3  12   7   31.52    1.59
   4 -12   7    1.06    0.85
  -4 -12  -7    1.61    1.14
   4  12   7    1.67    0.27
  -4  12  -7    1.40    0.44
   5 -12   7   32.86    3.25
  -5 -12  -7   34.63    3.53
  -5  12  -7   33.87    2.16
   5  12   7   31.77    1.65
   6 -12   7   -0.07    0.64
   6  12   7    0.21    0.18
  -6  12  -7    0.15    0.35
   7 -12   7   23.76    2.81
   7  12   7   25.52    1.40
  -7  12  -7   27.31    1.92
   8 -12   7    2.52    1.06
   8  12   7    3.04    0.42
  -8  12  -7    1.47    0.56
   9 -12   7   14.03    2.51
  -9  12  -7   18.38    1.59
   9  12   7   20.59    1.18
  10 -13  -7   23.25    2.29
  10  13  -7   22.72    1.89
   9 -13  -7    0.37    0.53
   9 -13  -7    2.74    1.29
   9  13  -7    1.09    0.52
   8 -13  -7   11.90    2.30
   8 -13  -7   11.77    1.35
   8  13  -7   10.51    1.27
   7 -13  -7   -0.07    0.36
   7 -13  -7    0.48    0.98
   7  13  -7    0.16    0.32
   6 -13  -7   50.10    3.49
   6 -13  -7   43.74    4.22
   6  13  -7   46.53    2.96
  -6  13   7   47.76    2.29
   5 -13  -7    1.16    1.06
   5 -13  -7    1.20    0.45
   5  13  -7    0.69    0.36
  -5  13   7    0.96    0.22
   4 -13  -7   37.63    3.64
  -4  13   7   35.95    1.74
   4  13  -7   34.12    2.27
   3 -13  -7    0.02    0.84
   3  13  -7    0.05    0.23
  -3  13   7   -0.03    0.13
   2 -13  -7   94.23    6.99
   2  13  -7   91.73    5.06
  -2  13   7   93.97    4.20
   1 -13  -7   -0.17    0.88
  -1 -13   7    0.02    0.52
   1  13  -7    0.18    0.26
  -1  13   7    0.59    0.17
   0 -13  -7    0.84    1.00
   0 -13   7    0.18    0.56
   0  13   7    0.20    0.15
   0  13  -7    0.46    0.27
   1 -13   7    1.18    0.80
  -1 -13  -7    1.22    1.09
  -1  13  -7    0.99    0.34
   1  13   7    0.80    0.20
  -2 -13  -7  125.02    9.04
   2 -13   7  121.01    8.92
  -2  13  -7  126.09    6.70
   2  13   7  132.14    5.67
   3 -13   7    0.30    0.67
   3  13   7    0.93    0.21
  -3  13  -7    0.85    0.37
   4 -13   7    7.04    1.58
  -4 -13  -7    7.39    1.90
   4  13   7    7.85    0.55
  -4  13  -7    6.67    0.87
  -5 -13  -7    0.80    0.94
   5 -13   7   -0.07    0.63
   5  13   7    0.70    0.22
  -5  13  -7    0.64    0.39
   6 -13   7   50.93    4.68
  -6  13  -7   55.78    3.31
   6  13   7   57.06    2.67
   7 -13   7    1.41    0.90
   7  13   7    1.27    0.29
  -7  13  -7    1.67    0.54
   8 -13   7    0.85    0.85
   8  13   7    0.15    0.20
  -8  13  -7   -0.02    0.37
   9 -13   7    0.54    0.90
   9  13   7    0.07    0.22
  -9  13  -7    0.81    0.53
  10 -14  -7    2.14    0.81
  10  14  -7    1.81    0.63
   9 -14  -7    1.23    1.33
   9 -14  -7    1.95    0.76
   9  14  -7    1.40    0.55
   8 -14  -7    6.58    1.12
   8 -14  -7    2.23    1.39
   8  14  -7    5.50    0.91
   7 -14  -7   49.38    4.56
   7 -14  -7   50.54    3.70
   7  14  -7   48.89    3.13
   6 -14  -7    1.09    0.49
   6 -14  -7    1.17    1.13
  -6  14   7    1.14    0.25
   6  14  -7    0.92    0.43
   5 -14  -7    8.22    1.93
   5 -14  -7    6.68    0.84
  -5  14   7    5.19    0.47
   5  14  -7    8.32    1.01
   4 -14  -7    5.17    1.60
   4 -14  -7    7.69    0.85
   4  14  -7    7.03    0.90
  -4  14   7    6.53    0.51
   3 -14  -7   70.30    5.85
  -3  14   7   74.97    3.34
   3  14  -7   70.14    4.09
   2 -14  -7    1.35    1.17
  -2  14   7    0.95    0.22
   2  14  -7    1.07    0.41
   1 -14  -7   11.34    2.34
  -1  14   7   16.94    0.92
   1  14  -7   16.71    1.26
   0 -14   7    2.28    0.96
   0 -14  -7    5.20    1.71
   0  14  -7    3.48    0.58
   0  14   7    3.95    0.39
   1 -14   7   29.82    2.99
  -1 -14  -7   31.69    3.62
  -1  14  -7   34.02    2.09
   1  14   7   32.75    1.62
   2 -14   7    1.30    0.89
  -2 -14  -7    0.86    1.20
   2  14   7    1.41    0.25
  -2  14  -7    0.80    0.36
  -3 -14  -7   21.98    3.33
   3 -14   7   20.21    2.44
  -3  14  -7   22.66    1.58
   3  14   7   22.07    1.17
  -4 -14  -7   17.51    2.93
   4 -14   7   15.11    2.34
  -4  14  -7   16.94    1.33
   4  14   7   15.92    0.94
  -5 -14  -7   36.02    3.95
   5 -14   7   35.98    3.58
  -5  14  -7   39.65    2.46
   5  14   7   38.99    1.92
   6 -14   7    0.64    0.79
   6  14   7    0.24    0.19
  -6  14  -7    0.19    0.37
   7 -14   7    8.48    1.86
   7  14   7   13.33    0.86
  -7  14  -7   13.55    1.23
   8 -14   7    2.02    1.11
  -8  14  -7    4.60    0.82
   8  14   7    4.31    0.51
   9 -14   7   16.19    2.69
  -9  14  -7   18.06    1.60
   9  14   7   20.16    1.20
   9 -15  -7   12.97    2.64
   9 -15  -7   17.78    1.85
   9  15  -7   17.19    1.57
   8 -15  -7    3.98    0.90
   8 -15  -7    4.13    1.66
   8  15  -7    4.07    0.82
   7 -15  -7    0.10    1.04
   7 -15  -7   -0.03    0.37
   7  15  -7    0.35    0.38
  -7  15   7    0.05    0.18
   6 -15  -7   25.03    3.51
   6 -15  -7   25.17    2.12
  -6  15   7   24.91    1.34
   6  15  -7   25.98    1.90
   5 -15  -7   12.85    1.24
   5 -15  -7    8.23    2.06
   5  15  -7   11.86    1.15
  -5  15   7   12.15    0.76
   4 -15  -7   15.40    1.36
   4 -15  -7   16.19    2.79
  -4  15   7   14.26    0.86
   4  15  -7   13.83    1.23
   3 -15  -7    2.17    1.35
   3  15  -7    2.30    0.52
  -3  15   7    2.46    0.33
   2 -15  -7   33.05    3.68
  -2  15   7   35.15    1.68
   2  15  -7   31.14    2.15
   1 -15  -7   14.02    2.68
  -1  15   7   15.18    0.85
   1  15  -7   13.58    1.16
   0 -15  -7    1.60    1.30
   0  15  -7    1.07    0.38
   0  15   7    1.84    0.27
  -1 -15  -7    3.82    1.72
  -1  15  -7    4.20    0.66
   1  15   7    4.21    0.43
   2 -15   7   29.39    3.16
  -2 -15  -7   39.97    4.12
   2  15   7   37.03    1.75
  -2  15  -7   34.27    2.21
   3 -15   7   17.93    2.32
  -3 -15  -7   22.46    3.43
  -3  15  -7   20.04    1.49
   3  15   7   21.23    1.13
  -4 -15  -7    2.17    1.24
   4 -15   7    0.51    0.73
   4  15   7    0.65    0.22
  -4  15  -7    0.76    0.42
  -5 -15  -7   10.56    2.27
   5 -15   7    5.55    1.45
  -5  15  -7    6.73    0.89
   5  15   7    6.39    0.54
   6 -15   7   30.56    3.25
   6  15   7   34.49    1.68
  -6  15  -7   28.09    2.10
   7 -15   7    6.19    1.60
   7  15   7    6.38    0.63
  -7  15  -7    6.77    0.96
   8 -15   7    0.03    0.79
  -8  15  -7    0.75    0.48
   8  15   7    1.15    0.31
   8 -16  -7   17.18    3.00
   8 -16  -7   15.13    1.67
   8  16  -7   15.69    1.48
   7 -16  -7   21.89    3.30
   7 -16  -7   24.05    2.12
  -7  16   7   22.71    1.28
   7  16  -7   23.70    1.85
   6 -16  -7    7.73    2.00
   6 -16  -7    7.06    1.08
   6  16  -7    8.41    1.07
  -6  16   7    7.06    0.57
   5 -16  -7    3.59    1.52
   5 -16  -7    3.45    0.71
   5  16  -7    2.63    0.63
  -5  16   7    3.35    0.39
   4 -16  -7   15.25    1.40
   4 -16  -7   11.93    2.48
  -4  16   7   16.53    0.92
   4  16  -7   13.67    1.26
   3 -16  -7   31.54    2.26
   3 -16  -7   22.16    3.48
  -3  16   7   28.70    1.51
   3  16  -7   30.68    2.04
   2 -16  -7    2.69    1.44
   2  16  -7    2.76    0.58
  -2  16   7    3.72    0.40
   1 -16  -7    5.25    1.82
  -1  16   7    4.35    0.43
   1  16  -7    4.14    0.67
   0 -16  -7   21.05    3.32
   0  16  -7   19.60    1.48
   0  16   7   20.57    1.10
  -1 -16  -7   16.29    2.95
  -1  16  -7   12.31    1.10
   1  16   7   13.94    0.82
  -2 -16  -7    2.27    1.40
   2  16   7    3.60    0.40
  -2  16  -7    3.42    0.62
   3 -16   7    9.16    1.82
  -3 -16  -7   11.11    2.38
   3  16   7    9.43    0.67
  -3  16  -7   11.82    1.03
   4 -16   7   22.42    2.65
  -4 -16  -7   24.56    3.67
  -4  16  -7   27.05    1.81
   4  16   7   23.40    1.30
   5 -16   7   16.59    2.60
  -5 -16  -7   21.63    3.43
  -5  16  -7   22.47    1.62
   5  16   7   20.97    1.18
   6 -16   7    1.39    1.03
  -6  16  -7    3.12    0.67
   6  16   7    2.86    0.40
   7 -16   7    6.07    1.62
  -7  16  -7    7.51    1.03
   7  16   7    7.80    0.64
   8 -16   7   12.42    2.31
  -8  16  -7   12.67    1.27
   8  16   7   13.67    0.93
   8 -17  -7    0.30    1.20
   8 -17  -7    1.05    0.59
   8  17  -7   -0.20    0.38
   7 -17  -7    0.70    0.51
   7 -17  -7   -0.15    1.17
   7  17  -7    1.16    0.52
  -7  17   7    0.28    0.22
   6 -17  -7    7.29    2.06
   6 -17  -7    8.74    1.10
   6  17  -7    8.45    1.12
  -6  17   7    9.11    0.65
   5 -17  -7   35.01    2.69
   5 -17  -7   32.78    3.88
  -5  17   7   35.47    1.77
   5  17  -7   33.90    2.38
   4 -17  -7    0.34    0.33
   4 -17  -7   -0.28    1.09
  -4  17   7    0.28    0.19
   4  17  -7    0.36    0.30
   3 -17  -7    6.37    0.79
   3 -17  -7    4.53    1.83
   3  17  -7    5.74    0.85
  -3  17   7    7.08    0.54
   2 -17  -7   24.28    3.63
  -2  17   7   26.46    1.38
   2  17  -7   25.87    1.84
   1 -17  -7   20.70    3.36
   1  17  -7   22.17    1.60
  -1  17   7   20.76    1.15
   0 -17  -7    1.60    1.24
   0  17  -7    1.24    0.43
   0  17   7    1.50    0.27
  -1 -17  -7    8.79    2.34
  -1  17  -7    7.92    0.94
   1  17   7    8.28    0.59
  -2 -17  -7   14.41    2.86
   2  17   7   13.56    0.83
  -2  17  -7   12.62    1.13
  -3 -17  -7   43.36    4.54
  -3  17  -7   38.48    2.43
   3  17   7   37.00    1.91
  -4 -17  -7    0.75    0.97
   4  17   7    0.44    0.22
  -4  17  -7   -0.19    0.32
  -5 -17  -7    9.28    2.28
   5 -17   7    9.71    1.89
  -5  17  -7    8.74    1.06
   5  17   7    8.68    0.66
   6 -17   7    7.91    1.80
  -6  17  -7    9.65    1.12
   6  17   7    8.80    0.68
   7 -17   7    9.17    2.00
  -7  17  -7   10.20    1.21
   7  17   7   11.96    0.82
   7 -18  -7    4.58    0.96
   7 -18  -7    2.45    1.53
  -7  18   7    4.37    0.48
   7  18  -7    3.81    0.79
   6 -18  -7    7.26    2.11
   6 -18  -7    7.95    1.18
  -6  18   7    7.67    0.61
   6  18  -7    7.99    1.10
   5 -18  -7    1.07    0.49
   5 -18  -7    0.90    1.18
   5  18  -7    0.81    0.43
  -5  18   7    0.84    0.24
   4 -18  -7   28.99    4.13
  -4  18   7   33.17    1.65
   4  18  -7   30.18    2.20
   3 -18  -7    0.92    1.26
  -3  18   7    3.20    0.39
   3  18  -7    2.69    0.60
   2 -18  -7    3.67    1.65
   2  18  -7    3.12    0.63
  -2  18   7    3.18    0.39
   1 -18  -7    1.16    1.24
   1  18  -7    0.58    0.35
  -1  18   7    1.51    0.28
   0 -18  -7   46.44    5.01
   0  18   7   49.20    2.35
   0  18  -7   47.83    2.94
  -1 -18  -7    6.02    1.98
   1  18   7    6.33    0.51
  -1  18  -7    5.32    0.79
  -2 -18  -7    4.11    1.66
  -2  18  -7    3.88    0.66
   2  18   7    3.50    0.42
  -3 -18  -7    0.65    1.07
   3  18   7    0.59    0.22
  -3  18  -7    0.64    0.39
  -4 -18  -7   51.00    5.22
  -4  18  -7   47.91    2.95
   4  18   7   46.30    2.33
  -5 -18  -7    1.44    1.17
   5  18   7    0.33    0.21
  -5  18  -7   -0.16    0.32
   6 -18   7    0.08    0.80
  -6  18  -7    0.04    0.36
   6  18   7    0.17    0.19
   6 -19  -7   -0.15    1.05
   6  19  -7   -0.39    0.30
  -6  19   7   -0.06    0.18
   5 -19  -7   26.16    4.15
   5  19  -7   27.95    2.12
  -5  19   7   29.94    1.55
   4 -19  -7   -0.25    1.05
  -4  19   7   -0.38    0.14
   4  19  -7    0.33    0.35
   3 -19  -7    8.80    2.36
  -3  19   7    9.57    0.68
   3  19  -7    9.05    1.10
   2 -19  -7   -0.05    1.02
  -2  19   7    0.03    0.18
   2  19  -7    0.13    0.31
   1 -19  -7   33.45    4.64
   1  19  -7   33.88    2.30
  -1  19   7   35.60    1.77
   0 -19  -7    1.41    1.26
   0  19  -7    1.65    0.50
   0  19   7    1.45    0.29
  -1 -19  -7   13.48    2.95
   1  19   7   11.16    0.75
  -1  19  -7   11.74    1.10
  -2 -19  -7    1.48    1.29
   2  19   7   -0.22    0.15
  -2  19  -7    0.01    0.31
  -3 -19  -7   34.81    4.98
  -3  19  -7   36.28    2.39
   3  19   7   37.92    1.90
  -4 -19  -7    0.62    1.08
  -4  19  -7   -0.19    0.33
   4  19   7    0.28    0.21
  -5 -19  -7   10.78    2.69
  -5  19  -7   10.24    1.19
   5  19   7   10.30    0.75
   5 -20  -7    0.28    1.15
  -5  20   7    0.22    0.22
   5  20  -7    0.38    0.41
   4 -20  -7   26.15    4.06
   4  20  -7   24.38    1.91
  -4  20   7   24.86    1.37
   3 -20  -7   13.15    2.89
  -3  20   7   11.46    0.80
   3  20  -7   13.12    1.22
   2 -20  -7    8.30    2.37
  -2  20   7    5.78    0.53
   2  20  -7    5.85    0.88
   1 -20  -7    1.56    1.28
  -1  20   7    0.14    0.20
   1  20  -7    0.17    0.32
   0 -20  -7   28.17    4.35
   0  20   7   32.14    1.64
   0  20  -7   30.99    2.15
  -1 -20  -7    4.08    1.79
   1  20   7    2.43    0.37
  -1  20  -7    2.44    0.59
  -2 -20  -7    7.23    2.22
  -2  20  -7    4.03    0.71
   2  20   7    4.14    0.47
  -3 -20  -7    0.57    1.29
   3  20   7   -0.06    0.18
  -3  20  -7    0.41    0.39
  -4 -20  -7   26.50    4.41
  -4  20  -7   29.15    2.00
   4  20   7   25.80    1.47
   4 -21  -7    2.75    1.62
   4  21  -7    3.55    0.75
  -4  21   7    3.01    0.42
   3 -21  -7    1.06    1.23
  -3  21   7    0.92    0.27
   3  21  -7    1.74    0.53
   2 -21  -7   13.89    3.02
   2  21  -7   13.41    1.29
  -2  21   7   13.70    0.89
   1 -21  -7   27.27    4.24
   1  21  -7   20.99    1.76
  -1  21   7   25.30    1.34
   0 -21  -7    2.69    1.62
   0  21   7    1.95    0.34
   0  21  -7    2.39    0.60
  -1 -21  -7    5.65    1.99
  -1  21  -7    5.83    0.87
   1  21   7    5.66    0.57
  -2 -21  -7    9.38    2.63
   2  21   7    7.53    0.62
  -2  21  -7    9.22    1.07
  -3 -21  -7   21.25    3.98
  -3  21  -7   24.97    1.80
   3  21   7   23.39    1.34
   1 -22  -7    2.51    1.63
   0 -22  -7   19.84    3.80
   0  22   7   18.68    1.12
  12   0  -8    0.27    0.52
  11   0  -8   -0.24    0.40
  10   0  -8   51.56    3.83
  10   0  -8   51.22    3.87
   9   0  -8   -0.29    0.40
   9   0  -8    0.25    0.38
   8   0  -8    1.53    0.64
   7   0  -8   -0.24    0.34
   7   0  -8    0.20    0.20
   6   0  -8  135.28    8.22
   6   0  -8  128.73    6.71
   5   0  -8    0.09    0.15
   5   0  -8   -0.49    0.33
   4   0  -8   47.30    2.60
   4   0  -8   49.00    3.43
   3   0  -8    0.06    0.19
   3   0  -8    0.11    0.16
   2   0  -8  168.84   10.66
   2   0  -8  186.09    8.99
   1   0  -8   -0.45    0.30
   1   0  -8    0.46    0.23
   0   0  -8   18.27    1.56
   0   0  -8   16.62    1.15
   0   0   8   16.54    0.76
  -1   0  -8    0.01    0.32
  -1   0  -8    0.21    0.24
   1   0   8   -0.41    0.29
   1   0   8    0.08    0.05
  -2   0  -8  302.97   18.41
  -2   0  -8  319.66   15.96
   2   0   8  328.80   20.44
   2   0   8  320.83   13.71
   3   0   8    0.65    0.63
  -3   0  -8   -0.43    0.36
   3   0   8    0.01    0.04
  -3   0  -8   -0.11    0.32
   4   0   8   22.97    1.13
  -4   0  -8   23.72    1.67
  -4   0  -8   22.98    1.93
   4   0   8   26.75    2.59
   5   0   8    0.13    0.11
  -5   0  -8    0.38    0.35
   5   0   8   -0.32    0.57
   6   0   8   20.44    2.40
  -6   0  -8   19.99    1.58
   6   0   8   19.28    1.01
   7   0   8    0.13    0.18
   7   0   8    0.02    0.73
  -7   0  -8    0.04    0.44
   8   0   8   35.76    1.74
   8   0   8   35.83    3.54
  -8   0  -8   33.62    2.45
   9   0   8   -0.04    0.77
  -9   0  -8    0.08    0.41
   9   0   8   -0.06    0.14
 -10   0  -8   32.63    2.52
  10   0   8   35.90    1.75
  10   0   8   31.42    3.53
 -11   0  -8    0.14    0.53
  11   0   8    0.59    1.02
  11   0   8   -0.25    0.20
  12  -1  -8    2.38    0.83
  12   1  -8    3.75    0.95
  12   1  -8    3.38    0.44
  11  -1  -8   25.26    2.27
  11   1  -8   23.94    2.21
  10  -1  -8    4.13    0.88
  10  -1  -8    3.20    0.99
  10   1  -8    3.93    0.86
  10   1  -8    5.21    1.08
   9  -1  -8   33.01    2.77
   9  -1  -8   32.38    2.62
   9   1  -8   35.87    2.78
   9   1  -8   32.09    2.58
   8  -1  -8   18.56    1.88
   8   1  -8   19.24    1.85
   7  -1  -8   46.20    3.40
   7   1  -8   44.00    3.31
   7   1  -8   44.80    2.54
   6  -1  -8   -0.25    0.34
   6  -1  -8    0.45    0.20
   6   1  -8    0.57    0.46
   5  -1  -8  107.64    5.59
   5  -1  -8  114.23    6.97
   5   1  -8  107.79    6.91
   5   1  -8  109.15    5.65
   4  -1  -8    2.39    0.34
   4  -1  -8    1.98    0.64
   4   1  -8    1.92    0.34
   4   1  -8    0.93    0.48
   2  -1  -8    4.31    0.49
   2  -1  -8    3.14    0.76
   2   1  -8    4.37    0.51
   2   1  -8    3.43    0.77
   1  -1  -8   95.68    6.19
   1  -1  -8   98.22    5.08
  -1  -1   8  110.18    6.91
  -1   1   8   91.15    4.26
   1   1  -8   98.44    5.11
   1   1  -8  100.60    6.19
   0  -1   8    3.81    0.91
   0  -1  -8    5.10    0.58
   0  -1  -8    5.50    0.93
   0   1  -8    3.54    0.74
   0   1  -8    4.05    0.55
   0   1   8    4.91    1.03
   0   1   8    4.33    0.24
  -1  -1  -8   25.03    1.60
  -1  -1  -8   24.21    2.04
  -1   1  -8   24.94    1.61
  -1   1  -8   27.36    2.05
   1   1   8   25.61    2.37
   2  -1   8    4.51    0.26
  -2  -1  -8    3.37    0.80
  -2  -1  -8    3.61    0.60
   2   1   8    4.04    1.03
   2   1   8    3.93    0.28
  -2   1  -8    4.03    0.77
  -2   1  -8    3.49    0.58
  -3  -1  -8  184.03    9.45
   3  -1   8  184.69    7.97
   3  -1   8  135.23   12.06
  -3  -1  -8  190.54   11.01
  -3   1  -8  190.86   10.91
  -3   1  -8  189.88    9.48
   3   1   8  188.54    7.99
   3   1   8  205.35   12.40
  -4  -1  -8   17.74    1.40
  -4  -1  -8   18.70    1.74
   4  -1   8   16.72    2.10
   4  -1   8   19.58    0.93
  -4   1  -8   17.59    1.60
   4   1   8   19.28    0.94
  -4   1  -8   20.12    1.44
   4   1   8   19.36    2.16
   5  -1   8    8.23    1.69
   5  -1   8    8.52    0.51
  -5  -1  -8    8.55    1.03
   5   1   8    7.65    1.62
  -5   1  -8   10.44    1.01
   5   1   8    8.62    0.52
  -6  -1  -8    3.31    0.70
   6  -1   8    5.01    1.40
   6  -1   8    3.47    0.34
   6   1   8    3.66    0.35
   6   1   8    3.48    1.23
   7  -1   8  112.40    4.98
   7  -1   8  110.51    8.26
  -7  -1  -8  114.24    6.20
  -7   1  -8  108.36    6.15
   7   1   8  113.21    8.28
   7   1   8  110.43    4.99
   8  -1   8    1.78    1.06
  -8  -1  -8    2.38    0.69
   8  -1   8    2.31    0.30
   8   1   8    2.29    0.32
   8   1   8    3.58    1.27
  -8   1  -8    1.44    0.59
  -9  -1  -8    1.76    0.64
   9  -1   8    2.20    1.12
   9  -1   8    2.18    0.32
  -9   1  -8    2.97    0.76
   9   1   8    2.69    0.36
   9   1   8    2.03    1.10
  10  -1   8    0.51    0.88
 -10  -1  -8   -0.35    0.37
  10  -1   8    0.09    0.18
  10   1   8   -0.34    0.79
  10   1   8    0.19    0.19
 -10   1  -8    0.35    0.50
 -11  -1  -8   57.66    3.71
  11  -1   8   54.03    5.06
  11   1   8   52.53    5.01
 -11   1  -8   56.08    3.67
  11   1   8   51.96    2.63
  12  -2  -8    0.35    0.59
  12   2  -8    0.48    0.64
  12   2  -8    0.91    0.29
  11  -2  -8    6.16    1.17
  11   2  -8    6.87    1.18
  11   2  -8    6.92    0.57
  10  -2  -8   75.24    5.49
  10  -2  -8   77.49    5.55
  10   2  -8   77.69    5.49
  10   2  -8   80.97    5.41
  10   2  -8   82.94    3.67
   9  -2  -8   11.06    1.62
   9  -2  -8   10.33    1.20
   9   2  -8    8.60    1.37
   9   2  -8   10.96    1.17
   8  -2  -8    1.88    0.74
   8   2  -8    2.68    0.77
   8   2  -8    2.80    0.49
   7  -2  -8   22.97    2.14
   7   2  -8   23.71    2.08
   7   2  -8   22.74    1.50
   6  -2  -8   83.06    5.42
   6   2  -8   79.79    4.28
   6   2  -8   79.26    5.31
   5  -2  -8    6.15    0.51
   5  -2  -8    4.82    1.00
   5   2  -8    4.99    0.98
   5   2  -8    6.40    0.59
   4  -2  -8    4.60    0.92
   4  -2  -8    4.17    0.44
   4   2  -8    3.98    0.51
   4   2  -8    3.59    0.79
   2  -2  -8  145.30    7.11
  -2   2   8  131.19    6.09
   2   2  -8  145.95    7.18
  -1  -2   8   23.04    2.21
   1  -2  -8   23.67    2.05
   1  -2  -8   24.72    1.47
   1   2  -8   24.58    1.51
   1   2  -8   25.64    2.03
  -1   2   8   24.08    1.11
   0  -2  -8    3.30    0.76
   0  -2  -8    2.56    0.43
   0  -2   8    3.79    0.90
   0   2   8    4.06    0.92
   0   2   8    2.62    0.19
   0   2  -8    2.63    0.66
   0   2  -8    2.73    0.47
   1  -2   8   72.13    5.48
  -1  -2  -8   74.24    4.01
  -1  -2  -8   74.65    4.93
  -1   2  -8   73.30    4.04
   1   2   8   76.54    3.29
   1   2   8   82.61    5.50
  -1   2  -8   71.22    4.79
  -2  -2  -8  135.16    8.30
  -2  -2  -8  140.07    7.02
  -2   2  -8  133.25    7.02
   2   2   8  135.52    9.18
  -2   2  -8  130.54    8.15
  -3  -2  -8    5.19    1.04
   3  -2   8    7.18    0.39
  -3  -2  -8    6.29    0.81
   3   2   8    7.37    0.43
  -3   2  -8    7.08    1.00
  -3   2  -8    7.71    0.87
   3   2   8    7.36    1.39
   4  -2   8   22.80    2.43
  -4  -2  -8   20.36    1.91
  -4  -2  -8   20.37    1.50
   4  -2   8   19.58    0.99
   4   2   8   20.34    1.02
  -4   2  -8   21.05    1.52
   4   2   8   26.92    2.44
  -4   2  -8   20.63    1.70
  -5  -2  -8   25.45    1.82
   5  -2   8   26.27    1.24
   5  -2   8   24.24    2.68
   5   2   8   28.02    2.74
   5   2   8   25.49    1.26
  -5   2  -8   24.87    1.80
   6  -2   8  107.06    7.73
   6  -2   8  102.02    4.56
  -6  -2  -8  102.97    5.68
   6   2   8  101.27    7.57
  -6   2  -8  102.01    5.66
   6   2   8  101.79    4.58
  -7  -2  -8   -0.17    0.41
   7  -2   8   -0.17    0.67
   7  -2   8    0.51    0.18
  -7   2  -8   -0.21    0.39
   7   2   8    0.55    0.80
   7   2   8    0.43    0.19
   8  -2   8   15.32    2.47
   8  -2   8   16.56    0.92
  -8  -2  -8   15.69    1.51
   8   2   8   15.11    2.47
   8   2   8   16.71    0.94
  -8   2  -8   17.39    1.52
  -9  -2  -8   22.79    1.90
   9  -2   8   21.55    2.73
   9  -2   8   23.00    1.20
   9   2   8   20.35    2.65
  -9   2  -8   21.25    1.84
   9   2   8   22.74    1.23
 -10  -2  -8    9.66    1.39
  10  -2   8    8.17    1.92
  10   2   8   11.21    0.74
 -10   2  -8   11.07    1.46
  10   2   8   10.82    2.17
  11  -2   8    0.39    0.98
 -11  -2  -8    1.00    0.65
  11   2   8    0.63    1.08
  11   2   8    0.29    0.25
 -11   2  -8    0.24    0.57
  12  -3  -8   31.19    2.77
  12   3  -8   32.10    1.63
  12   3  -8   26.04    2.56
  11  -3  -8   14.58    1.66
  11   3  -8   16.04    1.66
  11   3  -8   16.32    0.97
  10  -3  -8    1.05    0.55
  10  -3  -8    0.87    0.77
  10   3  -8    1.68    0.60
  10   3  -8    1.16    0.27
  10   3  -8    1.37    0.65
   9  -3  -8    6.17    1.24
   9  -3  -8    5.12    0.94
   9   3  -8    5.28    0.44
   9   3  -8    4.83    0.85
   9   3  -8    4.57    0.68
   9   3  -8    5.02    1.02
   8  -3  -8   55.03    3.99
   8  -3  -8   56.85    3.86
   8   3  -8   50.39    3.78
   8   3  -8   53.04    2.47
   8   3  -8   49.96    3.01
   7  -3  -8   10.18    1.51
   7   3  -8    8.99    0.57
   7   3  -8    9.88    0.86
   7   3  -8   11.12    1.47
   6  -3  -8    0.97    0.58
   6   3  -8    1.02    0.17
   6   3  -8    1.07    0.53
   6   3  -8    1.22    0.32
   5  -3  -8   29.87    2.50
   5   3  -8   29.64    1.39
   5   3  -8   28.50    1.78
   5   3  -8   31.41    2.45
   4  -3  -8  131.64    8.24
   4  -3  -8  135.89    6.63
   4   3  -8  130.89    8.15
   4   3  -8  128.71    6.77
   4   3  -8  131.26    5.74
   2  -3  -8    6.10    0.50
   2   3  -8    5.29    0.57
   2   3  -8    0.65    0.43
  -2   3   8    4.06    0.25
   1  -3  -8   20.76    1.32
  -1  -3   8   22.29    2.11
   1  -3  -8   22.64    1.95
   1   3  -8   21.50    1.38
   1   3  -8   21.37    1.84
   0  -3   8  120.04    9.20
   0  -3  -8  141.99    8.53
   0  -3  -8  146.16    7.06
   0   3  -8  137.06    8.38
   0   3  -8  141.56    7.12
   1  -3   8   14.09    1.78
  -1  -3  -8   19.51    1.23
  -1  -3  -8   17.92    1.72
   1   3   8   18.00    1.81
  -1   3  -8   16.19    1.53
  -1   3  -8   17.30    1.23
  -2  -3  -8   24.53    2.24
  -2  -3  -8   28.17    1.73
  -2   3  -8   26.40    2.09
  -2   3  -8   26.79    1.73
   2   3   8   26.40    2.44
   2   3   8   27.22    1.26
  -3  -3  -8   30.55    1.89
  -3  -3  -8   25.83    2.38
  -3   3  -8   28.13    1.88
   3   3   8   30.49    2.71
   3   3   8   30.27    1.38
  -3   3  -8   28.05    2.17
   4  -3   8   29.65    2.88
  -4  -3  -8   28.40    1.89
  -4  -3  -8   27.85    2.42
   4   3   8   27.29    1.36
   4   3   8   33.98    2.87
  -4   3  -8   28.19    1.91
  -4   3  -8   28.23    2.13
   5  -3   8   31.62    1.49
   5  -3   8   32.54    3.18
  -5  -3  -8   31.12    2.12
   5   3   8   31.62    1.53
  -5   3  -8   32.76    2.14
   5   3   8   32.19    3.06
  -6  -3  -8   17.54    1.42
   6  -3   8   15.43    0.82
   6  -3   8   15.83    2.41
   6   3   8   16.76    2.40
  -6   3  -8   13.18    1.29
   6   3   8   14.86    0.84
   7  -3   8   68.89    3.15
  -7  -3  -8   70.29    4.11
   7  -3   8   66.74    5.62
  -7   3  -8   68.76    4.07
   7   3   8   67.88    3.18
   7   3   8   73.43    5.66
   8  -3   8   37.82    3.83
  -8  -3  -8   41.15    2.75
  -8   3  -8   40.87    2.70
   8   3   8   39.67    1.96
   8   3   8   39.61    3.82
  -9  -3  -8    0.86    0.53
   9  -3   8    1.54    1.06
   9   3   8    0.98    0.97
  -9   3  -8    1.62    0.61
   9   3   8    1.23    0.28
  10  -3   8    7.41    1.88
 -10  -3  -8    7.06    1.17
 -10   3  -8    6.48    1.08
  10   3   8    7.62    0.60
  10   3   8    8.47    1.92
  11  -3   8   21.89    3.35
 -11   3  -8   26.23    2.19
  11   3   8   24.91    3.17
  11   3   8   27.67    1.46
  12  -4  -8    1.13    0.71
  12   4  -8    0.55    0.62
  12   4  -8    0.20    0.25
  11  -4  -8   20.16    2.01
  11   4  -8   20.50    1.15
  11   4  -8   18.83    1.88
  10  -4  -8    6.60    1.15
  10  -4  -8    5.00    1.30
  10   4  -8    7.59    1.12
  10   4  -8    8.39    1.31
  10   4  -8    7.50    0.56
   9  -4  -8   18.64    1.80
   9  -4  -8   17.12    2.05
   9   4  -8   17.88    1.87
   9   4  -8   20.54    1.49
   9   4  -8   22.10    1.11
   9   4  -8   22.24    1.80
   8  -4  -8    1.58    0.55
   8  -4  -8    1.50    0.75
   8   4  -8    2.22    0.73
   8   4  -8    2.80    0.53
   8   4  -8    2.21    0.29
   7  -4  -8   39.72    3.30
   7   4  -8   41.75    1.98
   7   4  -8   44.00    2.52
   7   4  -8   42.75    3.19
   6  -4  -8   31.43    2.69
   6   4  -8   32.23    2.58
   6   4  -8   31.30    1.96
   6   4  -8   32.35    1.51
   5  -4  -8   60.42    4.24
   5   4  -8   59.13    2.65
   5   4  -8   60.18    3.27
   5   4  -8   56.21    4.08
   4  -4  -8    0.02    0.42
   4   4  -8    0.61    0.26
   4   4  -8    0.62    0.48
   2  -4  -8   11.62    0.77
  -2   4   8   10.52    0.57
   2   4  -8   11.28    0.86
   1  -4  -8   17.40    1.73
  -1  -4   8   14.70    1.71
   1  -4  -8   18.70    1.12
   1   4  -8   18.38    1.20
  -1   4   8   16.78    0.83
   0  -4  -8    3.37    0.85
   0  -4   8    3.34    0.93
   0  -4  -8    4.54    0.53
   0   4   8    3.92    0.27
   0   4  -8    4.60    0.58
   1  -4   8   76.97    5.49
  -1  -4  -8   68.78    3.88
  -1  -4  -8   68.94    4.89
   1   4   8   81.06    5.34
  -1   4  -8   70.11    3.95
   1   4   8   72.71    3.22
  -2  -4  -8   33.55    1.97
  -2  -4  -8   30.26    2.63
   2  -4   8   30.11    2.91
   2   4   8   34.17    1.50
  -2   4  -8   28.25    2.33
   2   4   8   31.64    2.75
  -2   4  -8   32.13    1.99
  -3  -4  -8    1.50    0.41
  -3  -4  -8    1.65    0.71
   3  -4   8    1.27    0.75
   3   4   8    0.98    0.17
  -3   4  -8    0.73    0.39
   3   4   8    1.00    0.62
  -3   4  -8    1.00    0.39
   4  -4   8    3.95    1.17
  -4  -4  -8    4.39    1.08
  -4  -4  -8    4.09    0.69
   4   4   8    3.95    0.33
   4   4   8    5.90    1.27
  -4   4  -8    4.13    0.74
  -4   4  -8    4.00    0.66
  -5  -4  -8   53.78    4.44
   5  -4   8   65.55    5.23
  -5  -4  -8   64.01    3.70
   5   4   8   62.99    2.90
   5   4   8   73.28    5.15
  -5   4  -8   64.28    3.70
   6  -4   8   17.62    2.26
  -6  -4  -8   17.52    1.46
   6   4   8   17.59    2.15
   6   4   8   17.39    0.95
  -6   4  -8   17.31    1.44
  -7  -4  -8   17.96    1.53
   7  -4   8   15.42    2.49
  -7   4  -8   17.10    1.49
   7   4   8   17.43    0.97
   7   4   8   18.14    2.26
   8  -4   8    1.32    0.95
  -8  -4  -8    2.40    0.69
   8   4   8    1.79    0.31
   8   4   8    1.90    1.05
  -8   4  -8    2.54    0.68
   9  -4   8   24.88    3.16
  -9  -4  -8   32.51    2.37
   9   4   8   27.45    3.19
  -9   4  -8   34.21    2.34
   9   4   8   31.79    1.61
  10  -4   8    7.57    1.81
 -10  -4  -8    6.45    1.13
 -10   4  -8    5.68    1.03
  10   4   8    8.35    1.92
  10   4   8    6.25    0.55
  11  -4   8    0.24    0.96
  11   4   8    0.43    1.05
 -11   4  -8    0.92    0.59
  11   4   8    0.51    0.26
  12  -5  -8   36.93    3.23
  11  -5  -8    5.44    1.13
  11   5  -8    4.45    0.50
  11   5  -8    4.40    0.93
  10  -5  -8    1.15    0.89
  10  -5  -8    0.70    0.49
  10   5  -8    0.48    0.35
  10   5  -8    0.29    0.19
  10   5  -8    0.85    0.48
  10   5  -8    1.13    0.58
   9  -5  -8   -0.20    0.33
   9  -5  -8    0.04    0.64
   9   5  -8   -0.12    0.41
   9   5  -8    0.12    0.17
   9   5  -8    0.04    0.28
   9   5  -8    0.12    0.36
   8  -5  -8   56.12    4.28
   8  -5  -8   58.17    4.10
   8   5  -8   57.45    3.30
   8   5  -8   55.35    4.05
   8   5  -8   57.49    2.65
   7  -5  -8    0.60    0.62
   7   5  -8    0.85    0.19
   7   5  -8    0.38    0.45
   7   5  -8    1.10    0.36
   6  -5  -8    0.77    0.59
   6   5  -8    0.99    0.17
   6   5  -8    1.18    0.57
   6   5  -8    1.18    0.35
   5  -5  -8    8.75    1.39
   5   5  -8    9.04    0.78
   5   5  -8    7.17    1.18
   4  -5  -8  129.29    7.98
   4   5  -8  121.21    6.47
   3  -5  -8    7.64    0.54
  -3   5   8    6.60    0.42
   3   5  -8    8.05    0.71
   2  -5  -8    8.29    0.60
  -2   5   8    7.69    0.44
   2   5  -8    6.63    0.67
   1  -5  -8   23.00    1.35
  -1  -5   8   24.62    2.22
   1  -5  -8   21.67    2.08
   1   5  -8   22.20    1.45
  -1   5   8   22.16    1.07
   0  -5  -8  112.79    5.58
   0  -5   8  102.28    7.50
   0  -5  -8  108.05    7.01
   0   5  -8  109.49    5.68
   0   5   8  106.65    4.74
   1  -5   8    0.95    0.65
  -1  -5  -8    0.55    0.27
  -1  -5  -8    0.76    0.60
  -1   5  -8    1.07    0.34
   1   5   8    1.42    0.66
   1   5   8    0.73    0.14
  -2  -5  -8   11.18    0.92
  -2  -5  -8   11.22    1.60
   2  -5   8    8.93    1.66
   2   5   8   11.24    0.61
   2   5   8   14.04    1.51
  -2   5  -8    9.70    0.93
  -3  -5  -8    4.99    0.70
   3  -5   8    5.42    1.34
  -3  -5  -8    5.48    1.20
   3   5   8    6.62    1.26
  -3   5  -8    6.24    0.81
   3   5   8    6.36    0.41
   4  -5   8   62.80    5.11
  -4  -5  -8   59.80    4.56
  -4  -5  -8   63.21    3.60
  -4   5  -8   61.80    3.60
   4   5   8   65.25    2.87
  -4   5  -8   61.03    4.09
   4   5   8   65.10    4.87
   5  -5   8    0.32    0.70
  -5  -5  -8   -0.27    0.29
  -5  -5  -8   -0.01    0.74
   5   5   8    0.32    0.14
   5   5   8   -0.16    0.57
  -5   5  -8   -0.24    0.31
   6  -5   8    4.22    1.31
  -6  -5  -8    5.83    0.89
  -6   5  -8    8.33    1.04
   6   5   8    9.44    1.68
   6   5   8    6.04    0.47
  -7  -5  -8   10.48    1.25
   7  -5   8    9.86    1.88
  -7   5  -8    9.27    1.14
   7   5   8    9.39    1.81
   7   5   8    9.08    0.62
  -8  -5  -8   47.20    2.96
   8  -5   8   36.22    3.90
   8   5   8   37.96    3.86
   8   5   8   45.53    2.12
  -8   5  -8   44.01    2.84
   9  -5   8    0.34    0.79
  -9  -5  -8   -0.05    0.43
   9   5   8    0.39    0.22
  -9   5  -8   -0.23    0.39
   9   5   8   -0.26    0.83
  10  -5   8    5.20    1.58
 -10   5  -8    6.17    1.09
  10   5   8    7.03    0.58
  10   5   8    6.55    1.74
  11  -5   8   10.67    2.21
  11   5   8   10.52    0.77
  11   5   8    7.11    1.94
 -11   5  -8   12.25    1.53
  11  -6  -8   20.02    2.06
  10  -6  -8   -0.40    0.70
  10  -6  -8    0.73    0.56
  10   6  -8    1.08    0.52
  10   6  -8    1.38    0.64
  10   6  -8    1.24    0.47
   9  -6  -8   22.03    1.95
   9  -6  -8   19.82    2.25
   9   6  -8   21.67    1.80
   9   6  -8   18.29    1.93
   9   6  -8   22.64    1.61
   8  -6  -8    1.20    0.80
   8  -6  -8    2.05    0.61
   8   6  -8    0.73    0.36
   8   6  -8    0.97    0.24
   8   6  -8    1.19    0.65
   7  -6  -8   47.81    3.64
   7   6  -8   43.97    3.35
   7   6  -8   43.84    2.69
   6  -6  -8    1.11    0.68
   6   6  -8    1.32    0.38
   5  -6  -8   39.02    3.09
   5   6  -8   35.03    2.19
   4  -6  -8   -0.56    0.40
  -4   6   8    0.16    0.11
   4   6  -8    0.43    0.24
  -3   6   8  111.43    4.92
   3   6  -8  111.96    5.85
   2  -6  -8   30.33    1.70
   2   6  -8   31.95    1.91
  -2   6   8   31.34    1.46
   1  -6  -8   70.90    3.48
  -1  -6   8   56.03    4.79
   1  -6  -8   68.35    4.72
  -1   6   8   67.24    2.95
   1   6  -8   65.39    3.61
   0  -6  -8    0.87    0.62
   0  -6   8    0.53    0.58
   0  -6  -8    0.30    0.21
   0   6   8    0.62    0.13
   0   6  -8    0.57    0.27
   1  -6   8   76.06    5.68
  -1  -6  -8   74.90    4.02
  -1  -6  -8   67.04    5.18
   1   6   8   78.63    3.38
  -1   6  -8   77.29    4.12
  -2  -6  -8    2.14    0.89
   2  -6   8    1.44    0.80
  -2  -6  -8    1.50    0.39
  -2   6  -8    1.12    0.37
   2   6   8    1.76    0.22
   2   6   8    1.92    0.72
   3  -6   8    4.54    1.22
  -3  -6  -8    3.66    1.17
  -3  -6  -8    5.04    0.69
   3   6   8    5.37    0.37
  -3   6  -8    3.62    0.63
   3   6   8    4.76    1.04
  -4  -6  -8    0.92    0.39
   4  -6   8    0.78    0.80
  -4  -6  -8    0.80    0.89
   4   6   8    0.75    0.17
   4   6   8    0.23    0.53
  -4   6  -8    0.22    0.33
  -5  -6  -8  106.74    7.71
   5  -6   8  117.64    8.62
  -5  -6  -8  125.97    6.41
   5   6   8  119.68    5.27
   5   6   8  121.15    8.33
  -5   6  -8  115.84    6.36
   6  -6   8   -0.19    0.60
  -6  -6  -8    0.40    0.38
   6   6   8    0.18    0.71
  -6   6  -8    0.13    0.36
   6   6   8   -0.04    0.12
  -7  -6  -8   17.91    1.52
   7  -6   8   13.33    2.30
  -7   6  -8   17.27    1.46
   7   6   8   16.80    0.96
   7   6   8   17.79    2.20
   8  -6   8    0.47    0.70
  -8  -6  -8   -0.02    0.40
   8   6   8    0.73    0.23
   8   6   8    0.04    0.76
  -8   6  -8    0.75    0.46
   9  -6   8   41.21    4.32
  -9   6  -8   51.65    3.20
   9   6   8   51.38    2.38
   9   6   8   43.28    4.29
  10  -6   8    1.64    1.04
  10   6   8   -0.03    0.92
 -10   6  -8    0.27    0.50
  10   6   8    0.96    0.28
  11  -7  -8    0.29    0.52
  11   7  -8    0.18    0.38
  10  -7  -8    0.26    0.88
  10  -7  -8    0.73    0.50
  10   7  -8    0.52    0.51
  10   7  -8    0.95    0.42
   9  -7  -8    0.46    0.80
   9  -7  -8    2.58    0.73
   9   7  -8    3.41    0.87
   9   7  -8    2.34    0.55
   9   7  -8    2.40    0.61
   8  -7  -8  110.36    7.18
   8  -7  -8   96.23    7.13
   8   7  -8  108.61    5.81
   8   7  -8  109.55    6.95
   7  -7  -8    0.94    0.75
   7   7  -8    0.51    0.32
   6  -7  -8    2.17    0.84
   6   7  -8    1.30    0.40
   5  -7  -8    0.59    0.62
   5   7  -8    0.29    0.26
   4  -7  -8  126.47    8.20
  -4   7   8  126.47    5.58
   4   7  -8  126.05    6.62
   3  -7  -8   -0.02    0.56
   3   7  -8    0.51    0.25
  -3   7   8    0.25    0.12
  -2   7   8   10.45    0.56
   2   7  -8    8.25    0.80
   1  -7  -8    0.19    0.58
  -1  -7   8    1.23    0.64
   1  -7  -8    0.14    0.17
  -1   7   8    0.25    0.11
   1   7  -8    0.18    0.22
   0  -7   8  158.96   10.84
   0  -7  -8  165.38    8.17
   0  -7  -8  160.73   10.19
   0   7  -8  158.84    8.30
   0   7   8  162.03    7.06
  -1  -7  -8    0.19    0.21
   1  -7   8    0.46    0.59
  -1  -7  -8    0.05    0.67
   1   7   8    0.39    0.12
  -1   7  -8   -0.07    0.22
  -2  -7  -8   12.37    1.94
  -2  -7  -8   14.06    1.09
   2  -7   8   18.39    2.06
  -2   7  -8   11.84    1.11
   2   7   8   18.78    1.78
   2   7   8   15.61    0.80
  -3  -7  -8    4.28    1.30
  -3  -7  -8    5.79    0.74
   3  -7   8    4.31    1.26
   3   7   8    5.89    1.15
   3   7   8    5.07    0.39
  -3   7  -8    5.73    0.75
  -4  -7  -8  100.40    7.70
   4  -7   8  120.25    8.55
  -4  -7  -8  119.17    6.25
   4   7   8  117.53    5.20
  -4   7  -8  116.53    6.26
   4   7   8  124.72    8.16
   5  -7   8    0.00    0.61
  -5  -7  -8    0.71    0.87
  -5  -7  -8    0.28    0.35
   5   7   8    0.30    0.16
  -5   7  -8    0.02    0.32
   5   7   8   -0.54    0.54
   6  -7   8   16.80    2.59
  -6  -7  -8   20.57    1.59
   6   7   8   18.65    1.05
   6   7   8   19.91    2.23
  -6   7  -8   21.35    1.59
  -7  -7  -8    1.06    0.52
   7  -7   8    0.55    0.73
  -7   7  -8    0.93    0.47
   7   7   8    0.58    0.80
   7   7   8    0.82    0.22
   8  -7   8   43.69    4.41
   8   7   8   57.96    4.55
   8   7   8   50.51    2.42
  -8   7  -8   47.70    3.14
   9  -7   8    1.12    0.95
  -9   7  -8    0.43    0.49
   9   7   8    0.59    0.24
   9   7   8    0.68    0.93
  10  -7   8    8.64    2.05
 -10   7  -8    8.93    1.28
  10   7   8   11.84    0.79
  11  -8  -8   30.77    2.70
  11   8  -8   26.52    2.04
  10  -8  -8    6.36    1.18
  10  -8  -8    5.76    1.55
  10   8  -8    6.52    1.20
  10   8  -8    6.96    0.99
   9  -8  -8   38.36    3.57
   9  -8  -8   39.49    3.18
   9   8  -8   43.27    2.65
   9   8  -8   40.04    3.20
   8  -8  -8    2.26    0.61
   8  -8  -8    1.39    0.96
   8   8  -8    1.74    0.49
   7  -8  -8   71.09    4.80
   7  -8  -8   63.88    5.05
   7   8  -8   69.25    3.93
   6  -8  -8   17.81    2.01
   6   8  -8   14.80    1.22
   5  -8  -8   36.59    3.17
   5   8  -8   38.32    2.25
  -5   8   8   34.34    1.72
   4  -8  -8    0.30    0.71
  -4   8   8    1.22    0.20
   4   8  -8    1.22    0.36
   3  -8  -8  103.47    7.07
   3   8  -8  100.59    5.56
  -3   8   8  109.17    4.66
   2  -8  -8   30.10    2.83
  -2   8   8   31.99    1.48
   2   8  -8   29.79    1.91
  -1  -8   8   29.90    2.81
   1  -8  -8   34.21    1.83
   1  -8  -8   33.42    3.00
   1   8  -8   32.70    2.01
  -1   8   8   32.31    1.54
   0  -8  -8    1.23    0.30
   0  -8  -8    1.51    0.90
   0  -8   8    2.59    0.89
   0   8   8    1.64    0.22
   0   8  -8    1.98    0.43
  -1  -8  -8   80.52    6.09
  -1  -8  -8   89.09    4.59
   1  -8   8   86.93    6.44
   1   8   8   91.65    3.90
  -1   8  -8   82.63    4.68
  -2  -8  -8   16.87    1.18
  -2  -8  -8   14.59    2.24
   2  -8   8   15.93    2.03
   2   8   8   16.62    0.87
  -2   8  -8   16.04    1.24
   3  -8   8    9.27    1.82
  -3  -8  -8    9.80    1.88
  -3  -8  -8   13.01    1.01
   3   8   8   11.44    1.65
   3   8   8   11.00    0.66
  -3   8  -8   11.72    1.02
  -4  -8  -8    0.22    0.30
  -4  -8  -8    0.54    0.90
   4  -8   8   -0.14    0.64
   4   8   8    0.50    0.60
   4   8   8    0.48    0.16
  -4   8  -8    0.08    0.32
  -5  -8  -8   92.35    7.15
   5  -8   8  107.45    7.86
  -5  -8  -8  106.01    5.73
  -5   8  -8  101.34    5.69
   5   8   8  112.75    7.48
   5   8   8  105.08    4.70
   6  -8   8   14.54    2.38
  -6  -8  -8   17.36    1.45
   6   8   8   16.07    0.93
   6   8   8   18.06    2.04
  -6   8  -8   15.34    1.37
   7  -8   8    2.94    1.18
  -7   8  -8    4.22    0.76
   7   8   8    3.25    1.13
   7   8   8    4.35    0.45
   8  -8   8    4.22    1.37
   8   8   8    4.34    1.34
   8   8   8    4.32    0.47
  -8   8  -8    5.56    0.94
   9  -8   8   31.07    3.58
  -9   8  -8   37.38    2.56
   9   8   8   37.73    1.88
  10  -8   8    1.42    1.05
 -10   8  -8    2.02    0.68
  10   8   8    3.42    0.45
  11  -9  -8   13.24    1.66
  11   9  -8   15.06    1.39
  10  -9  -8   -0.11    0.94
  10  -9  -8    0.06    0.47
  10   9  -8   -0.14    0.32
  10   9  -8    0.16    0.52
   9  -9  -8   14.07    2.29
   9  -9  -8   16.81    1.71
   9   9  -8   16.58    1.80
   9   9  -8   17.53    1.44
   8  -9  -8   69.91    5.42
   8  -9  -8   73.39    5.06
   8   9  -8   71.03    4.13
   7  -9  -8   27.34    2.84
   7  -9  -8   28.20    2.28
   7   9  -8   27.30    1.92
   6  -9  -8    3.76    1.20
   6   9  -8    4.20    0.69
   5  -9  -8   18.44    2.45
  -5   9   8   19.76    1.03
   5   9  -8   20.13    1.45
   4  -9  -8   85.50    6.14
  -4   9   8   88.60    3.90
   4   9  -8   84.79    4.72
   3  -9  -8   18.27    2.40
  -3   9   8   17.51    0.90
   3   9  -8   16.15    1.25
   2  -9  -8   27.49    2.73
   2   9  -8   24.44    1.69
  -2   9   8   27.31    1.30
  -1  -9   8   61.65    4.76
   1  -9  -8   65.72    4.91
   1   9  -8   60.51    3.51
  -1   9   8   65.31    2.88
   0  -9   8  122.70    8.58
   0  -9  -8  124.06    8.32
   0   9   8  128.76    5.47
   0   9  -8  117.73    6.47
  -1  -9  -8   17.68    2.47
  -1  -9  -8   19.74    1.25
   1  -9   8   14.40    2.20
   1   9   8   19.36    0.97
  -1   9  -8   16.87    1.30
  -2  -9  -8    9.97    1.93
  -2  -9  -8   10.59    0.89
   2  -9   8   10.80    1.88
   2   9   8    9.66    0.60
  -2   9  -8    9.63    0.92
  -3  -9  -8   58.99    4.89
  -3  -9  -8   61.31    3.46
   3  -9   8   56.53    4.97
  -3   9  -8   58.75    3.49
   3   9   8   63.37    2.83
   3   9   8   65.63    4.66
  -4  -9  -8   31.70    3.30
   4  -9   8   32.85    3.33
  -4   9  -8   31.12    2.16
   4   9   8   36.75    3.01
   4   9   8   35.28    1.67
  -5  -9  -8    6.09    1.67
   5  -9   8    6.68    1.62
   5   9   8    9.51    0.62
   5   9   8   10.63    1.64
  -5   9  -8    9.21    1.05
   6  -9   8   15.64    2.41
   6   9   8   14.71    2.12
  -6   9  -8   15.00    1.34
   6   9   8   16.61    0.93
   7  -9   8   11.00    2.06
  -7   9  -8   12.95    1.23
   7   9   8   11.71    1.98
   7   9   8   12.22    0.79
   8  -9   8   15.31    2.67
   8   9   8   22.14    1.22
  -8   9  -8   23.23    1.77
   9  -9   8    0.63    0.85
  -9   9  -8    0.39    0.49
   9   9   8    0.07    0.20
  10  -9   8    4.19    1.51
 -10   9  -8    4.48    0.92
  10   9   8    4.15    0.51
  11 -10  -8    6.01    1.29
  11  10  -8    7.58    1.07
  10 -10  -8   36.30    3.76
  10 -10  -8   42.58    3.34
  10  10  -8   37.21    2.63
  10  10  -8   42.11    3.30
   9 -10  -8   11.33    2.11
   9 -10  -8   13.75    1.50
   9  10  -8   12.28    1.23
   8 -10  -8    0.10    0.39
   8 -10  -8   -0.40    0.82
   8  10  -8    0.14    0.32
   7 -10  -8   17.14    2.49
   7 -10  -8   19.25    1.74
   7  10  -8   18.99    1.50
   6 -10  -8   65.24    5.23
   6  10  -8   70.98    3.97
   5 -10  -8   13.39    2.11
   5  10  -8   13.37    1.11
  -5  10   8   12.13    0.73
   4 -10  -8   -0.10    0.78
  -4  10   8    0.61    0.17
   4  10  -8    0.41    0.28
   3 -10  -8   37.54    3.49
  -3  10   8   40.28    1.86
   3  10  -8   37.68    2.37
   2 -10  -8   29.63    2.98
  -2  10   8   28.59    1.42
   2  10  -8   29.61    1.88
  -1 -10   8    1.73    0.80
   1 -10  -8    1.16    0.98
  -1  10   8    1.65    0.23
   1  10  -8    1.82    0.43
   0 -10   8   13.34    1.73
   0 -10  -8   12.25    2.14
   0  10   8   15.04    0.79
   0  10  -8   13.55    1.10
  -1 -10  -8   33.90    3.37
   1 -10   8   31.31    3.09
   1  10   8   34.41    1.62
  -1  10  -8   32.93    2.09
   2 -10   8   78.56    6.26
  -2 -10  -8   81.86    6.22
   2  10   8   84.16    3.73
  -2  10  -8   82.95    4.53
  -3 -10  -8    1.15    1.07
   3 -10   8    2.37    1.00
  -3  10  -8    3.12    0.59
   3  10   8    2.85    0.32
  -4 -10  -8   15.41    2.53
   4 -10   8   17.12    2.50
   4  10   8   15.86    0.90
  -4  10  -8   14.31    1.27
   4  10   8   19.10    1.91
   5 -10   8   38.15    3.67
  -5 -10  -8   37.64    3.70
   5  10   8   36.58    3.20
   5  10   8   37.95    1.84
  -5  10  -8   36.91    2.41
   6 -10   8   34.43    3.68
  -6  10  -8   39.41    2.55
   6  10   8   42.05    3.48
   6  10   8   40.07    1.95
   7 -10   8    3.64    1.27
   7  10   8    3.75    0.43
  -7  10  -8    3.00    0.71
   8 -10   8   18.12    2.78
   8  10   8   19.49    1.13
  -8  10  -8   19.07    1.63
   9 -10   8   12.64    2.37
  -9  10  -8   13.52    1.40
   9  10   8   15.43    0.96
  10  10   8   33.02    1.79
  10 -11  -8    0.40    1.11
  10 -11  -8    0.35    0.57
  10  11  -8    0.49    0.48
   9 -11  -8   27.11    3.14
   9 -11  -8   27.73    2.50
   9  11  -8   30.23    2.12
   8 -11  -8   23.17    2.05
   8 -11  -8   19.94    2.82
   8  11  -8   22.55    1.73
   7 -11  -8   26.82    2.22
   7 -11  -8   26.18    2.95
   7  11  -8   25.75    1.89
   6 -11  -8    0.61    0.37
   6 -11  -8    0.14    0.86
   6  11  -8    0.82    0.40
  -6  11   8    0.79    0.20
   5 -11  -8   49.05    4.32
   5  11  -8   50.65    3.06
  -5  11   8   52.10    2.41
   4 -11  -8   11.01    1.98
   4  11  -8   12.84    1.07
  -4  11   8   10.83    0.68
   3 -11  -8   13.18    2.22
  -3  11   8   14.12    0.83
   3  11  -8   17.64    1.25
   2 -11  -8    1.20    0.96
  -2  11   8    1.21    0.21
   2  11  -8    1.30    0.41
  -1 -11   8   44.23    3.82
   1 -11  -8   50.63    4.29
  -1  11   8   51.18    2.28
   1  11  -8   47.35    2.84
   0 -11   8    2.10    0.88
   0 -11  -8    1.60    1.08
   0  11   8    2.56    0.29
   0  11  -8    2.30    0.48
  -1 -11  -8   17.35    2.69
   1 -11   8   14.60    2.27
   1  11   8   19.97    1.02
  -1  11  -8   20.01    1.40
   2 -11   8    1.56    0.98
  -2 -11  -8    2.12    1.18
  -2  11  -8    3.80    0.61
   2  11   8    3.89    0.38
   3 -11   8   93.74    6.96
  -3 -11  -8   89.51    6.82
  -3  11  -8   89.64    4.97
   3  11   8   89.45    4.09
  -4 -11  -8   26.02    3.50
   4 -11   8   23.99    2.86
   4  11   8   31.38    1.49
  -4  11  -8   29.38    1.97
  -5 -11  -8    3.22    1.38
   5 -11   8    0.94    0.88
  -5  11  -8    2.49    0.60
   5  11   8    2.39    0.33
   5  11   8    2.62    0.92
   6 -11   8    0.74    0.84
   6  11   8    1.28    0.27
  -6  11  -8    1.39    0.49
   7 -11   8   46.44    4.53
  -7  11  -8   54.25    3.21
   7  11   8   50.62    2.48
   8 -11   8    9.86    2.04
  -8  11  -8    9.78    1.25
   8  11   8   12.09    0.81
   9 -11   8    0.16    0.81
   9  11   8    0.01    0.21
  -9  11  -8    0.46    0.49
  10 -12  -8   47.23    3.81
  10 -12  -8   48.75    4.56
  10  12  -8   46.84    3.10
   9 -12  -8    0.09    0.96
   9 -12  -8    1.26    0.61
   9  12  -8   -0.05    0.33
   8 -12  -8    0.31    0.99
   8 -12  -8    1.25    0.57
   8  12  -8    1.14    0.47
   7 -12  -8    0.18    0.96
   7 -12  -8    0.91    0.49
   7  12  -8    0.75    0.41
   6 -12  -8   62.36    5.05
   6 -12  -8   60.51    4.25
  -6  12   8   58.67    2.81
   6  12  -8   60.40    3.59
   5 -12  -8   -0.67    0.78
   5  12  -8    0.12    0.26
  -5  12   8    0.01    0.13
   4 -12  -8    1.19    0.98
  -4  12   8    1.43    0.25
   4  12  -8    1.15    0.39
   3 -12  -8    0.28    0.87
   3  12  -8    0.50    0.31
  -3  12   8    0.39    0.16
   2 -12  -8  103.70    7.48
   2  12  -8  102.05    5.55
  -2  12   8  103.49    4.62
   1 -12  -8    2.79    1.28
  -1 -12   8    3.75    1.04
   1  12  -8    3.16    0.57
  -1  12   8    3.96    0.35
   0 -12   8    6.68    1.42
   0 -12  -8    8.74    1.94
   0  12  -8    8.98    0.86
   0  12   8    9.31    0.58
   1 -12   8   -0.52    0.67
  -1 -12  -8    0.19    0.98
  -1  12  -8    0.10    0.24
   1  12   8    0.19    0.15
   2 -12   8   73.63    5.85
  -2 -12  -8   77.69    6.09
  -2  12  -8   72.27    4.15
   2  12   8   75.56    3.42
   3 -12   8    2.16    1.05
  -3 -12  -8    0.86    1.14
   3  12   8    2.45    0.32
  -3  12  -8    1.92    0.50
   4 -12   8    9.98    1.97
  -4 -12  -8   13.24    2.44
  -4  12  -8   12.66    1.13
   4  12   8   12.20    0.75
   5 -12   8    4.64    1.36
  -5 -12  -8    3.63    1.46
   5  12   8    4.24    0.45
  -5  12  -8    3.90    0.70
   6 -12   8   45.22    4.43
  -6  12  -8   51.37    3.12
   6  12   8   52.12    2.45
   7 -12   8    1.89    1.10
   7  12   8    0.92    0.26
  -7  12  -8    0.62    0.46
   8 -12   8    9.93    2.10
  -8  12  -8   12.46    1.38
   8  12   8   11.89    0.82
   9 -12   8    3.75    1.37
  -9  12  -8    0.20    0.48
   9  12   8    0.40    0.25
   9 -13  -8   29.42    3.43
   9 -13  -8   31.68    2.68
   9  13  -8   28.79    2.19
   8 -13  -8    0.41    0.46
   8 -13  -8    1.26    1.13
   8  13  -8    0.24    0.36
   7 -13  -8   19.24    1.70
   7 -13  -8   13.47    2.44
   7  13  -8   15.45    1.41
   6 -13  -8    0.06    0.28
   6 -13  -8    0.61    1.03
   6  13  -8    0.11    0.31
  -6  13   8    0.10    0.15
   5 -13  -8   36.32    3.69
   5  13  -8   36.80    2.41
  -5  13   8   36.99    1.81
   4 -13  -8   -0.04    0.82
   4  13  -8   -0.01    0.24
  -4  13   8    0.10    0.16
   3 -13  -8   39.92    4.08
   3  13  -8   42.95    2.73
  -3  13   8   48.12    2.17
   2 -13  -8    0.14    0.96
   2  13  -8    0.33    0.31
  -2  13   8    0.41    0.18
   1 -13  -8   59.06    5.03
  -1 -13   8   50.48    4.33
  -1  13   8   62.49    2.67
   1  13  -8   53.65    3.28
   0 -13  -8    1.84    1.28
   0 -13   8    1.24    0.79
   0  13  -8    2.10    0.47
   0  13   8    1.60    0.26
   1 -13   8    5.59    1.40
  -1 -13  -8   10.29    2.16
  -1  13  -8    7.71    0.89
   1  13   8    7.54    0.53
   2 -13   8    0.04    0.76
  -2 -13  -8   -0.70    0.98
   2  13   8    0.01    0.14
  -2  13  -8    0.10    0.25
  -3 -13  -8   73.72    6.14
   3 -13   8   64.30    5.71
  -3  13  -8   75.02    4.15
   3  13   8   75.78    3.38
  -4 -13  -8    1.19    1.18
   4 -13   8   -0.05    0.72
  -4  13  -8   -0.28    0.27
   4  13   8   -0.06    0.14
  -5 -13  -8    9.08    2.08
   5 -13   8    4.97    1.48
   5  13   8    8.10    0.59
  -5  13  -8    9.36    1.06
   6 -13   8   -0.01    0.76
   6  13   8    1.10    0.27
   7 -13   8   32.15    3.57
  -7  13  -8   35.98    2.43
   7  13   8   36.68    1.85
   8 -13   8    0.15    0.80
  -8  13  -8    0.37    0.45
   8  13   8    0.36    0.23
   9 -14  -8    1.94    1.43
   9 -14  -8    4.58    1.02
   9  14  -8    3.68    0.78
   8 -14  -8    0.13    0.45
   8 -14  -8    0.94    1.20
   8  14  -8    0.95    0.47
   7 -14  -8    7.12    1.12
   7 -14  -8    6.93    1.89
   7  14  -8    7.44    1.03
   6 -14  -8   22.13    3.27
   6 -14  -8   24.03    1.99
  -6  14   8   21.55    1.22
   6  14  -8   23.21    1.76
   5 -14  -8    1.93    0.55
   5 -14  -8    2.08    1.28
  -5  14   8    1.59    0.28
   5  14  -8    1.77    0.50
   4 -14  -8    1.25    1.13
   4  14  -8    1.17    0.44
  -4  14   8    2.34    0.32
   3 -14  -8    1.55    1.25
   3  14  -8    0.88    0.39
  -3  14   8    1.41    0.26
   2 -14  -8   57.41    5.33
  -2  14   8   67.63    2.97
   2  14  -8   60.73    3.64
   1 -14  -8    2.55    1.31
   1  14  -8    3.37    0.60
  -1  14   8    2.50    0.32
   0 -14   8    2.65    1.04
   0 -14  -8    3.59    1.55
   0  14   8    4.91    0.40
   0  14  -8    4.50    0.68
   1 -14   8    6.95    1.57
  -1 -14  -8    9.45    2.23
   1  14   8   10.65    0.65
  -1  14  -8    8.95    0.90
  -2 -14  -8   41.40    4.21
   2 -14   8   31.93    3.39
   2  14   8   38.16    1.82
  -2  14  -8   35.69    2.31
  -3 -14  -8    2.47    1.49
   3 -14   8    1.29    0.95
  -3  14  -8    1.60    0.47
   3  14   8    1.82    0.29
   4 -14   8    1.74    0.97
  -4 -14  -8    1.18    1.24
   4  14   8    2.70    0.35
  -4  14  -8    2.28    0.56
  -5 -14  -8    3.55    1.49
   5 -14   8    3.68    1.32
  -5  14  -8    4.12    0.75
   5  14   8    3.99    0.44
   6 -14   8   31.01    3.47
   6  14   8   34.98    1.78
  -6  14  -8   36.04    2.35
   7 -14   8    0.17    0.81
  -7  14  -8   -0.07    0.39
   7  14   8    0.09    0.19
   8 -14   8    5.28    1.61
  -8  14  -8    8.51    1.15
   8  14   8    9.16    0.70
   8 -15  -8    9.51    2.22
   8 -15  -8    7.71    1.28
   8  15  -8    8.70    1.17
   7 -15  -8    6.90    1.12
   7 -15  -8    4.77    1.73
   7  15  -8    7.91    1.08
  -7  15   8    6.82    0.57
   6 -15  -8    0.01    0.36
   6 -15  -8   -0.02    1.01
   6  15  -8   -0.22    0.30
  -6  15   8   -0.07    0.16
   5 -15  -8   13.49    2.58
   5 -15  -8   14.85    1.44
  -5  15   8   16.67    0.93
   5  15  -8   14.62    1.33
   4 -15  -8    9.93    2.19
   4 -15  -8   11.92    1.19
   4  15  -8   12.05    1.13
  -4  15   8   12.04    0.76
   3 -15  -8   10.67    2.31
  -3  15   8   13.62    0.82
   3  15  -8   14.32    1.22
   2 -15  -8    0.06    1.08
  -2  15   8    1.25    0.25
   2  15  -8    1.65    0.46
   1 -15  -8   27.08    3.72
   1  15  -8   26.90    1.94
  -1  15   8   31.23    1.50
   0 -15  -8   16.05    2.89
   0  15  -8   12.76    1.12
   0  15   8   13.25    0.80
  -1 -15  -8    2.71    1.50
  -1  15  -8    4.64    0.70
   1  15   8    3.88    0.41
   2 -15   8    0.36    0.74
  -2 -15  -8   -0.40    0.99
   2  15   8    0.33    0.18
  -2  15  -8    0.05    0.30
   3 -15   8   39.30    3.75
  -3 -15  -8   39.17    4.32
   3  15   8   39.22    1.93
  -3  15  -8   37.92    2.46
   4 -15   8    4.61    1.45
  -4 -15  -8    7.83    2.11
   4  15   8    6.54    0.53
  -4  15  -8    7.23    0.93
   5 -15   8    4.69    1.44
  -5 -15  -8    7.26    1.86
  -5  15  -8    4.95    0.83
   5  15   8    4.88    0.50
   6 -15   8    2.62    1.22
  -6  15  -8    4.68    0.80
   6  15   8    4.42    0.49
   7 -15   8   20.06    2.97
  -7  15  -8   22.46    1.74
   7  15   8   21.17    1.25
   8 -16  -8    0.12    1.19
   8 -16  -8    0.35    0.50
   8  16  -8    0.27    0.41
   7 -16  -8   14.08    1.53
   7 -16  -8   10.45    2.47
  -7  16   8   15.12    0.91
   7  16  -8   14.01    1.38
   6 -16  -8   20.86    1.85
   6 -16  -8   20.70    3.30
  -6  16   8   18.88    1.12
   6  16  -8   20.90    1.67
   5 -16  -8    9.97    2.32
   5 -16  -8   11.49    1.20
   5  16  -8   10.90    1.12
  -5  16   8   10.50    0.72
   4 -16  -8    0.78    0.40
   4 -16  -8    1.56    1.37
  -4  16   8    0.20    0.19
   4  16  -8    0.57    0.37
   3 -16  -8   11.76    2.54
  -3  16   8   13.01    0.82
   3  16  -8   14.08    1.22
   2 -16  -8   29.20    4.23
   2  16  -8   36.90    2.44
  -2  16   8   41.02    1.91
   1 -16  -8    0.23    1.17
  -1  16   8    1.74    0.29
   1  16  -8    1.78    0.49
   0 -16  -8    0.63    1.27
   0  16   8    2.72    0.36
   0  16  -8    2.81    0.57
  -1 -16  -8   24.66    3.74
   1  16   8   25.26    1.32
  -1  16  -8   24.06    1.74
  -2 -16  -8   16.61    3.14
   2  16   8   18.59    1.04
  -2  16  -8   17.25    1.40
  -3 -16  -8   11.60    2.58
   3 -16   8   11.02    2.05
  -3  16  -8   11.69    1.09
   3  16   8   10.91    0.74
   4 -16   8    3.10    1.22
  -4 -16  -8    2.73    1.45
  -4  16  -8    2.48    0.59
   4  16   8    2.51    0.37
   5 -16   8    9.12    2.00
  -5 -16  -8   12.11    2.61
  -5  16  -8   12.46    1.16
   5  16   8   11.37    0.77
   6 -16   8   24.23    2.89
  -6  16  -8   20.34    1.69
   6  16   8   22.24    1.26
   7 -16   8    0.04    0.86
   7  16   8    0.38    0.24
  -7  16  -8   -0.43    0.35
   7 -17  -8    2.61    0.75
   7 -17  -8    2.94    1.71
  -7  17   8    2.25    0.36
   7  17  -8    1.95    0.63
   6 -17  -8    0.28    0.43
   6 -17  -8   -0.63    1.03
   6  17  -8    0.09    0.38
  -6  17   8   -0.22    0.16
   5 -17  -8    6.47    2.03
   5 -17  -8    6.16    0.97
  -5  17   8    6.14    0.53
   5  17  -8    6.93    0.98
   4 -17  -8   41.51    3.06
   4 -17  -8   41.59    4.50
   4  17  -8   40.33    2.69
  -4  17   8   42.14    2.06
   3 -17  -8    1.89    1.39
  -3  17   8    2.53    0.35
   3  17  -8    2.78    0.62
   2 -17  -8    3.43    1.67
  -2  17   8    5.44    0.48
   2  17  -8    5.19    0.79
   1 -17  -8   14.17    2.89
   1  17  -8   14.83    1.29
  -1  17   8   15.84    0.92
   0 -17  -8   40.47    4.60
   0  17   8   43.28    2.06
   0  17  -8   39.26    2.59
  -1 -17  -8    6.24    2.07
   1  17   8    4.50    0.47
  -1  17  -8    4.46    0.73
  -2 -17  -8    3.51    1.69
  -2  17  -8    2.90    0.62
   2  17   8    3.06    0.38
  -3 -17  -8    7.73    2.28
   3  17   8    7.81    0.59
  -3  17  -8    6.02    0.88
  -4 -17  -8   26.43    4.01
   4  17   8   27.02    1.45
  -4  17  -8   27.05    1.93
  -5 -17  -8    3.96    1.58
   5 -17   8    1.44    1.01
  -5  17  -8    0.46    0.43
   5  17   8    1.13    0.28
   6 -17   8    5.52    1.55
  -6  17  -8    3.89    0.80
   6  17   8    5.45    0.56
   6 -18  -8    6.37    1.05
   6 -18  -8    4.91    1.86
  -6  18   8    5.60    0.55
   6  18  -8    4.78    0.88
   5 -18  -8   16.60    1.61
   5 -18  -8   16.06    3.10
   5  18  -8   16.86    1.49
  -5  18   8   16.89    1.01
   4 -18  -8    0.43    1.29
   4  18  -8    0.36    0.36
  -4  18   8    0.43    0.22
   3 -18  -8   31.32    4.54
  -3  18   8   43.90    2.07
   3  18  -8   40.41    2.67
   2 -18  -8    0.96    1.31
   2  18  -8    0.72    0.40
  -2  18   8    0.21    0.20
   1 -18  -8    7.23    2.26
  -1  18   8    8.68    0.64
   1  18  -8   10.24    1.01
   0 -18  -8    0.58    1.22
   0  18   8    0.73    0.24
   0  18  -8    0.27    0.33
  -1 -18  -8   49.70    5.24
   1  18   8   45.63    2.28
  -1  18  -8   47.24    2.89
  -2 -18  -8    4.64    1.83
   2  18   8    3.55    0.43
  -2  18  -8    2.90    0.63
  -3 -18  -8   10.56    2.62
   3  18   8    7.88    0.61
  -3  18  -8    7.02    0.96
  -4 -18  -8    0.80    1.09
  -4  18  -8    0.08    0.38
   4  18   8    0.15    0.19
   5  18   8   20.41    1.18
  -5  18  -8   19.51    1.60
   5 -19  -8   -0.29    1.14
  -5  19   8    0.13    0.21
   5  19  -8    0.51    0.41
   4 -19  -8   24.68    3.99
  -4  19   8   30.16    1.57
   4  19  -8   29.08    2.13
   3 -19  -8    1.96    1.57
  -3  19   8    3.14    0.41
   3  19  -8    3.72    0.72
   2 -19  -8    4.60    2.02
   2  19  -8    4.67    0.79
  -2  19   8    4.45    0.49
   1 -19  -8   -0.86    0.95
  -1  19   8   -0.04    0.17
   1  19  -8   -0.06    0.29
   0 -19  -8   36.55    4.94
   0  19   8   37.03    1.85
   0  19  -8   35.16    2.39
  -1 -19  -8    1.52    1.41
  -1  19  -8    1.67    0.51
   1  19   8    0.60    0.23
  -2 -19  -8    3.20    1.62
   2  19   8    2.25    0.35
  -2  19  -8    2.23    0.58
  -3 -19  -8    1.36    1.31
  -3  19  -8    0.22    0.39
   3  19   8    0.27    0.21
  -4 -19  -8   33.65    4.87
  -4  19  -8   31.67    2.17
   4  19   8   29.54    1.63
   4 -20  -8    0.83    1.35
  -4  20   8   -0.27    0.17
   4  20  -8   -0.08    0.35
   3 -20  -8   10.77    2.75
   3  20  -8   11.06    1.30
  -3  20   8   12.72    0.83
   2 -20  -8    4.79    1.95
  -2  20   8    7.70    0.61
   2  20  -8    7.58    1.03
   1 -20  -8    6.49    2.26
   1  20  -8    5.33    0.85
  -1  20   8    5.14    0.53
   0 -20  -8    0.53    1.34
   0  20   8    0.72    0.26
   0  20  -8    0.22    0.40
  -1 -20  -8   32.04    4.93
  -1  20  -8   29.96    2.13
   1  20   8   31.05    1.62
  -2 -20  -8    4.75    1.88
  -2  20  -8    2.50    0.61
   2  20   8    1.82    0.34
  -3 -20  -8    8.82    2.52
  -3  20  -8    7.40    1.01
   3  20   8    7.49    0.62
   2 -21  -8    5.62    2.09
  -2  21   8    3.91    0.49
   1 -21  -8    7.63    2.45
   1  21  -8    9.32    1.16
  -1  21   8   10.55    0.74
   0 -21  -8   35.51    5.08
   0  21   8   33.13    1.71
   0  21  -8   30.46    2.22
  -1 -21  -8    3.47    1.72
  11   0  -9    1.36    0.65
  10   0  -9    0.12    0.53
  10   0  -9   -0.14    0.38
   9   0  -9   78.77    5.58
   9   0  -9   82.63    5.61
   8   0  -9   -0.14    0.43
   7   0  -9    6.26    1.19
   6   0  -9   -0.31    0.34
   6   0  -9    0.03    0.17
   5   0  -9  182.88    9.21
   5   0  -9  182.03   11.13
   4   0  -9   -0.70    0.29
   4   0  -9    0.25    0.20
   3   0  -9    5.32    0.49
   3   0  -9    0.95    0.42
   2   0  -9   -0.06    0.34
   2   0  -9    0.19    0.21
   1   0  -9  116.93    7.40
   1   0  -9  119.47    6.13
   0   0   9    0.03    0.22
   0   0  -9   -0.08    0.34
   0   0  -9    0.44    0.27
  -1   0  -9    1.84    0.58
  -1   0  -9    2.11    0.45
   1   0   9    0.28    0.39
   2   0   9    0.06    0.46
  -2   0  -9   -0.18    0.25
  -2   0  -9   -0.50    0.25
   3   0   9  157.34   11.20
  -3   0  -9  167.69    8.57
  -3   0  -9  166.95    9.98
  -4   0  -9   -0.49    0.29
   4   0   9    0.52    0.69
  -4   0  -9   -0.29    0.39
   5   0   9    4.46    1.32
  -5   0  -9    4.54    0.78
  -6   0  -9   -0.30    0.35
   6   0   9   -0.55    0.59
  -7   0  -9   41.54    2.85
   7   0   9   46.45    4.20
  -8   0  -9   -0.19    0.44
   8   0   9   -0.02    0.79
  -9   0  -9   11.15    1.42
   9   0   9    9.78    2.10
  10   0   9    0.39    0.99
 -10   0  -9    0.34    0.51
  11  -1  -9    7.41    1.26
  11   1  -9    8.04    1.28
  10  -1  -9   27.28    2.35
  10  -1  -9   24.42    2.49
  10   1  -9   27.88    2.54
  10   1  -9   27.88    2.33
   9  -1  -9    0.54    0.48
   9  -1  -9    0.44    0.59
   9   1  -9    0.29    0.55
   9   1  -9    0.67    0.47
   8  -1  -9   45.98    3.58
   8   1  -9   45.70    3.51
   7  -1  -9   12.14    1.71
   7   1  -9   11.89    1.59
   6  -1  -9   69.42    4.83
   6   1  -9   69.63    3.72
   6   1  -9   68.67    4.77
   5  -1  -9    0.74    0.25
   5  -1  -9    0.44    0.51
   5   1  -9    0.81    0.54
   5   1  -9    0.69    0.25
   4  -1  -9   87.29    5.75
   4  -1  -9   87.05    4.51
   4   1  -9   89.00    5.73
   4   1  -9   84.37    4.54
   3  -1  -9   19.71    1.24
   3   1  -9   19.37    1.26
   2  -1  -9   64.32    4.33
   2  -1  -9   61.65    3.35
   2   1  -9   62.19    3.38
   2   1  -9   61.94    4.28
   1  -1  -9   -0.27    0.26
   1  -1  -9    0.18    0.23
   1   1  -9   -0.08    0.21
   1   1  -9    0.00    0.29
   0  -1  -9   50.06    3.70
   0  -1  -9   55.14    2.97
   0   1  -9   52.12    2.97
   0   1  -9   54.50    3.72
  -1  -1  -9   15.11    1.54
  -1  -1  -9   17.02    1.17
   1   1   9   14.12    1.71
  -1   1  -9   14.07    1.13
  -1   1  -9   14.81    1.48
  -2  -1  -9   11.23    1.43
   2  -1   9    3.00    1.07
  -2  -1  -9   11.48    0.96
   2   1   9   14.00    1.64
  -2   1  -9   11.83    1.22
  -2   1  -9   12.14    0.98
   3  -1   9    1.04    0.73
  -3  -1  -9    1.12    0.58
  -3  -1  -9    0.93    0.44
  -3   1  -9    0.70    0.43
  -3   1  -9    1.52    0.57
   3   1   9    1.02    0.76
  -4  -1  -9   93.19    5.13
  -4  -1  -9   89.63    6.03
   4  -1   9  103.51    7.15
  -4   1  -9   92.85    5.12
  -4   1  -9   85.47    5.88
   4   1   9   98.16    7.00
  -5  -1  -9   18.55    1.45
   5  -1   9   16.62    2.51
  -5   1  -9   14.94    1.36
   5   1   9   14.31    2.27
   6  -1   9   32.03    3.33
  -6  -1  -9   31.37    2.22
   6   1   9   30.20    3.19
  -6   1  -9   32.86    2.24
   7  -1   9    5.87    1.57
  -7  -1  -9    4.82    0.90
  -7   1  -9    5.95    0.97
   7   1   9    4.39    1.40
   8  -1   9   50.86    4.83
  -8  -1  -9   55.54    3.52
  -8   1  -9   54.48    3.49
   8   1   9   55.70    4.92
  -9  -1  -9    6.27    1.07
   9  -1   9    5.19    1.58
  -9   1  -9    4.85    0.99
   9   1   9    5.59    1.62
  10  -1   9    8.42    2.03
 -10  -1  -9   10.56    1.44
 -10   1  -9   10.26    1.42
  10   1   9    7.91    1.95
  11  -2  -9    0.17    0.50
  11   2  -9    0.29    0.47
  10  -2  -9    9.72    1.39
  10  -2  -9    9.38    1.66
  10   2  -9    9.86    1.23
  10   2  -9    9.11    1.49
   9  -2  -9   66.99    5.02
   9  -2  -9   71.58    4.99
   9   2  -9   75.21    4.97
   9   2  -9   66.68    4.91
   8  -2  -9   19.59    2.06
   8   2  -9   20.38    1.98
   7  -2  -9    0.02    0.44
   7   2  -9   -0.05    0.19
   7   2  -9   -0.36    0.32
   6  -2  -9   13.25    1.78
   6   2  -9   13.78    1.03
   6   2  -9   13.99    1.53
   5  -2  -9   93.64    6.02
   5   2  -9   89.12    4.73
   5   2  -9   86.69    5.87
   4  -2  -9   37.11    2.01
   4  -2  -9   34.87    2.87
   4   2  -9   34.85    2.08
   4   2  -9   36.12    2.83
   3  -2  -9   -0.08    0.26
   3  -2  -9    0.18    0.19
   3   2  -9    0.31    0.22
   3   2  -9    0.10    0.29
   2  -2  -9   35.90    2.86
   2  -2  -9   37.75    2.09
   2   2  -9   35.32    2.13
   2   2  -9   37.95    2.84
  -1  -2   9   63.59    4.44
   1  -2  -9   56.63    3.03
   1  -2  -9   53.74    3.91
  -1   2   9   50.60    2.44
   1   2  -9   58.21    3.89
   1   2  -9   56.56    3.09
   0  -2  -9    3.83    0.88
   0  -2   9    4.37    1.07
   0  -2  -9    5.13    0.63
   0   2  -9    4.49    0.91
   0   2   9    4.74    0.28
   0   2  -9    5.22    0.65
   0   2   9    4.49    1.04
  -1  -2  -9    1.03    0.36
  -1  -2  -9    0.46    0.45
   1  -2   9   -0.13    0.32
   1   2   9    0.90    0.12
   1   2   9    1.16    0.65
  -1   2  -9    0.61    0.33
  -1   2  -9    0.92    0.47
  -2  -2  -9   56.48    3.19
  -2  -2  -9   56.76    3.99
  -2   2  -9   55.59    3.21
   2   2   9   58.13    4.45
  -2   2  -9   53.56    3.80
   3  -2   9  108.72    7.91
  -3  -2  -9  110.86    5.83
  -3  -2  -9  105.46    6.95
  -3   2  -9  105.08    6.75
  -3   2  -9  108.64    5.84
   3   2   9  112.02    4.78
   3   2   9  106.79    7.73
  -4  -2  -9    3.53    0.69
  -4  -2  -9    4.20    1.04
   4  -2   9    4.26    1.24
   4   2   9    3.87    0.33
   4   2   9    5.81    1.34
  -4   2  -9    4.73    0.87
  -4   2  -9    4.69    0.76
  -5  -2  -9   17.55    1.46
   5  -2   9   18.75    2.32
   5   2   9   20.50    2.32
  -5   2  -9   16.92    1.44
   5   2   9   17.66    0.93
   6  -2   9   18.25    2.79
  -6  -2  -9   21.90    1.72
   6   2   9   20.71    1.10
  -6   2  -9   22.95    1.73
   6   2   9   21.89    2.58
  -7  -2  -9   67.92    4.11
   7  -2   9   62.69    5.63
   7   2   9   67.78    3.13
  -7   2  -9   66.53    4.07
   7   2   9   76.07    5.80
  -8  -2  -9    1.04    0.57
   8  -2   9    0.63    0.98
   8   2   9    1.35    1.00
  -8   2  -9    0.41    0.48
   9  -2   9    9.69    2.10
  -9  -2  -9   13.88    1.62
   9   2   9   10.87    2.23
  -9   2  -9   10.89    1.43
 -10  -2  -9   14.28    1.70
  10  -2   9    9.49    2.22
  10   2   9   10.92    2.29
 -10   2  -9   12.06    1.54
  11  -3  -9   18.57    1.92
  11   3  -9   18.18    1.83
  10  -3  -9   33.20    3.01
  10  -3  -9   32.70    2.74
  10   3  -9   33.42    2.66
  10   3  -9   30.98    2.76
   9  -3  -9    1.10    0.79
   9  -3  -9    2.24    0.66
   9   3  -9    2.65    0.67
   9   3  -9    1.79    0.71
   8  -3  -9   20.17    2.13
   8   3  -9   19.29    1.39
   8   3  -9   20.38    1.98
   7  -3  -9   42.29    3.28
   7   3  -9   38.59    3.10
   7   3  -9   39.56    2.37
   6  -3  -9   12.56    1.81
   6   3  -9   15.33    1.60
   6   3  -9   14.91    1.09
   5  -3  -9   -0.15    0.43
   5   3  -9    0.39    0.23
   5   3  -9    0.12    0.37
   4  -3  -9   25.36    2.31
   4   3  -9   24.95    2.21
   4   3  -9   26.26    1.62
   3  -3  -9   83.13    5.55
   3  -3  -9   83.03    4.28
   3   3  -9   78.34    5.41
   3   3  -9   84.57    4.40
   2  -3  -9   36.32    2.94
   2  -3  -9   39.64    2.11
  -2   3   9   36.63    1.69
   2   3  -9   37.57    2.19
   2   3  -9   36.27    2.85
  -1  -3   9    4.84    1.11
   1  -3  -9    3.14    0.81
   1  -3  -9    3.28    0.49
   1   3  -9    3.62    0.53
   1   3  -9    4.00    0.86
   0  -3  -9   20.56    2.00
   0  -3  -9   21.84    1.42
   0  -3   9   26.87    2.39
   0   3  -9   19.83    1.87
   0   3  -9   21.59    1.47
  -1  -3  -9   82.89    5.65
  -1  -3  -9   93.91    4.59
   1  -3   9   77.67    6.20
  -1   3  -9   90.41    5.53
   1   3   9   96.39    6.26
  -1   3  -9   88.49    4.62
   1   3   9   73.15    3.73
  -2  -3  -9    3.98    0.63
  -2  -3  -9    3.90    0.96
   2  -3   9    4.12    1.15
  -2   3  -9    3.92    0.65
   2   3   9    4.31    1.09
   2   3   9    4.32    0.30
  -2   3  -9    4.13    0.82
   3  -3   9    8.16    1.63
  -3  -3  -9    7.97    0.95
  -3  -3  -9    6.39    1.27
  -3   3  -9    8.44    1.16
   3   3   9   11.23    1.72
   3   3   9    9.05    0.51
  -3   3  -9    8.01    0.96
  -4  -3  -9   34.85    3.07
  -4  -3  -9   39.34    2.48
   4  -3   9   42.65    3.76
  -4   3  -9   38.30    2.82
   4   3   9   41.58    3.56
   4   3   9   39.94    1.83
  -4   3  -9   37.34    2.46
   5  -3   9   20.04    2.41
  -5  -3  -9   16.74    1.44
   5   3   9   17.38    0.93
  -5   3  -9   18.89    1.48
   5   3   9   15.98    2.37
   6  -3   9   25.27    2.91
  -6  -3  -9   26.27    1.93
  -6   3  -9   25.42    1.91
   6   3   9   24.65    1.28
   6   3   9   26.16    2.82
  -7  -3  -9    7.91    1.14
   7  -3   9    5.46    1.58
  -7   3  -9    8.88    1.15
   7   3   9    6.98    0.53
   7   3   9    6.72    1.69
   8  -3   9   16.51    2.67
  -8  -3  -9   15.94    1.55
  -8   3  -9   18.83    1.61
   8   3   9   17.13    2.67
   8   3   9   16.09    0.95
  -9  -3  -9   19.05    1.77
   9  -3   9   14.76    2.64
   9   3   9   17.13    2.76
  -9   3  -9   18.84    1.72
   9   3   9   19.12    1.07
  10  -3   9    4.86    1.62
 -10  -3  -9    4.64    0.99
  10   3   9    3.92    1.56
 -10   3  -9    3.85    0.92
  11  -4  -9    2.17    0.79
  11   4  -9    3.60    0.88
  10  -4  -9    6.17    1.13
  10  -4  -9    6.20    1.41
  10   4  -9    7.37    1.31
  10   4  -9    7.43    1.13
   9  -4  -9   11.03    1.83
   9  -4  -9    9.45    1.18
   9   4  -9   10.60    1.16
   9   4  -9    9.40    1.46
   8  -4  -9   18.22    2.02
   8   4  -9   17.15    1.81
   8   4  -9   16.93    1.30
   7  -4  -9    0.91    0.67
   7   4  -9    0.71    0.53
   7   4  -9    1.34    0.38
   6  -4  -9   21.52    2.24
   6   4  -9   23.44    1.57
   6   4  -9   26.86    2.23
   5  -4  -9   44.87    3.40
   5   4  -9   41.74    2.45
   5   4  -9   39.95    3.18
   4  -4  -9   30.00    2.54
   4   4  -9   27.62    2.37
   4   4  -9   26.93    1.72
   3  -4  -9    7.48    1.29
   3  -4  -9    8.53    0.66
   3   4  -9    6.67    1.17
   3   4  -9    9.33    0.78
  -3   4   9    8.12    0.47
   2  -4  -9   61.93    4.33
   2  -4  -9   62.14    3.20
   2   4  -9   60.88    4.19
   2   4  -9   60.91    3.32
  -2   4   9   56.55    2.67
   1  -4  -9   45.15    2.38
   1  -4  -9   43.51    3.30
  -1  -4   9   39.25    3.46
  -1   4   9   39.97    1.90
   1   4  -9   43.05    2.46
   1   4  -9   42.57    3.13
   0  -4  -9   49.71    3.77
   0  -4  -9   53.85    2.84
   0  -4   9   46.74    4.04
   0   4   9   51.56    2.28
   0   4  -9   47.69    3.55
   0   4  -9   52.01    2.91
  -1  -4  -9    6.79    1.24
   1  -4   9    7.16    1.43
  -1  -4  -9    7.28    0.73
  -1   4  -9    6.68    0.81
   1   4   9    6.54    1.27
  -1   4  -9    6.69    1.07
   1   4   9    7.12    0.42
  -2  -4  -9   90.62    4.96
   2  -4   9  101.10    6.99
  -2  -4  -9   88.05    6.17
  -2   4  -9   89.13    5.87
  -2   4  -9   88.47    4.99
   2   4   9  103.05    6.74
   2   4   9   91.74    4.09
   3  -4   9   34.96    3.24
  -3  -4  -9   31.41    2.78
  -3  -4  -9   30.20    2.02
   3   4   9   35.27    3.01
  -3   4  -9   27.36    2.36
   3   4   9   33.25    1.51
  -3   4  -9   31.61    2.07
  -4  -4  -9   19.46    2.12
   4  -4   9   20.16    2.40
  -4  -4  -9   22.22    1.54
  -4   4  -9   18.64    1.48
   4   4   9   19.06    0.98
   4   4   9   17.72    2.09
  -4   4  -9   17.20    1.65
   5  -4   9   -0.07    0.60
  -5  -4  -9   -0.31    0.33
   5   4   9    0.23    0.15
  -5   4  -9   -0.09    0.33
   5   4   9   -0.62    0.60
  -6  -4  -9   42.04    2.75
   6  -4   9   43.43    4.06
   6   4   9   43.10    3.87
   6   4   9   41.12    2.00
  -6   4  -9   41.29    2.72
   7  -4   9   20.40    2.64
  -7  -4  -9   20.52    1.74
   7   4   9   22.92    2.63
  -7   4  -9   23.04    1.77
   7   4   9   20.48    1.13
  -8  -4  -9    6.93    1.14
   8  -4   9    7.94    1.81
   8   4   9    7.58    1.78
   8   4   9    6.47    0.53
  -8   4  -9    6.89    1.05
  -9  -4  -9    1.37    0.65
   9  -4   9    1.73    1.11
  -9   4  -9    2.07    0.71
   9   4   9    1.50    1.15
   9   4   9    1.36    0.29
 -10  -4  -9   27.53    2.23
  10  -4   9   16.15    2.93
  10   4   9   23.55    2.97
 -10   4  -9   21.88    1.96
  10   4   9   23.57    1.30
  11  -5  -9   48.94    3.91
  11   5  -9   50.18    3.76
  10  -5  -9    1.37    0.65
  10  -5  -9    0.50    0.84
  10   5  -9    0.82    0.60
  10   5  -9    2.16    0.63
   9  -5  -9    0.52    0.47
   9  -5  -9    0.27    0.76
   9   5  -9    0.24    0.48
   9   5  -9    0.78    0.45
   9   5  -9    0.46    0.33
   8  -5  -9    4.01    1.16
   8   5  -9    4.68    1.04
   8   5  -9    4.36    0.67
   7  -5  -9   61.44    4.45
   7   5  -9   57.84    4.19
   7   5  -9   56.34    3.31
   6  -5  -9    2.39    0.87
   6   5  -9    3.49    0.57
   6   5  -9    2.97    0.83
   5  -5  -9    1.17    0.70
   5   5  -9    1.33    0.36
   5   5  -9    1.45    0.63
   4  -5  -9    4.75    1.13
   4   5  -9    4.95    0.63
   4   5  -9    4.90    1.01
   3  -5  -9  153.09    9.87
   3   5  -9  157.42    9.71
   3   5  -9  160.87    8.11
  -3   5   9  157.78    6.89
   2  -5  -9   19.30    2.06
   2  -5  -9   22.11    1.30
   2   5  -9   21.03    1.41
  -2   5   9   21.16    1.02
  -1  -5   9    1.37    0.75
   1  -5  -9    1.60    0.35
   1  -5  -9    0.87    0.56
  -1   5   9    1.23    0.17
   1   5  -9    1.49    0.39
   0  -5  -9   15.65    1.06
   0  -5   9   14.10    1.79
   0  -5  -9   13.84    1.85
   0   5  -9   14.14    1.10
   0   5   9   14.73    0.75
  -1  -5  -9  158.80   10.27
  -1  -5  -9  162.43    8.42
   1  -5   9  165.61   11.24
   1   5   9  180.84   11.10
  -1   5  -9  161.21    8.51
   1   5   9  161.43    7.18
   2  -5   9    2.06    0.93
  -2  -5  -9    0.63    0.72
  -2  -5  -9    2.20    0.49
   2   5   9    1.99    0.80
  -2   5  -9    1.96    0.62
   2   5   9    2.40    0.25
  -2   5  -9    2.33    0.52
   3  -5   9    9.39    1.75
  -3  -5  -9    8.51    0.95
  -3  -5  -9    6.98    1.45
   3   5   9   11.40    1.70
  -3   5  -9    6.29    0.88
   3   5   9    8.75    0.52
  -3   5  -9    7.95    1.15
  -4  -5  -9    7.78    1.56
  -4  -5  -9    9.25    1.05
   4  -5   9    6.94    1.66
  -4   5  -9   10.41    1.14
  -4   5  -9    8.54    1.05
   4   5   9    9.15    0.57
   4   5   9   10.60    1.75
  -5  -5  -9  121.93    6.66
   5  -5   9  121.65    9.04
   5   5   9  128.27    8.79
  -5   5  -9  120.50    6.64
   5   5   9  123.08    5.47
   6  -5   9   21.42    2.61
  -6  -5  -9   21.20    1.71
  -6   5  -9   20.56    1.67
   6   5   9   22.26    2.51
   6   5   9   21.23    1.13
  -7  -5  -9    5.76    0.95
   7  -5   9    5.25    1.49
   7   5   9    4.87    0.45
   7   5   9    8.85    1.79
  -7   5  -9    5.91    0.95
   8  -5   9    3.94    1.39
  -8  -5  -9    4.07    0.90
   8   5   9    4.89    1.47
  -8   5  -9    3.72    0.84
   8   5   9    4.72    0.47
   9  -5   9   34.89    3.96
  -9  -5  -9   43.32    2.99
   9   5   9   42.15    4.06
  -9   5  -9   39.79    2.81
   9   5   9   41.10    2.04
  10  -5   9    1.52    1.17
 -10   5  -9    1.97    0.74
  10   5   9    0.71    1.13
  10   5   9    1.98    0.36
  11  -6  -9    0.55    0.61
  10  -6  -9   13.90    2.20
  10  -6  -9   15.63    1.70
  10   6  -9   15.39    1.75
  10   6  -9   15.97    1.56
   9  -6  -9    1.07    0.53
   9  -6  -9    0.31    0.67
   9   6  -9    0.82    0.37
   9   6  -9    0.83    0.56
   9   6  -9    1.11    0.48
   8  -6  -9   45.14    3.34
   8  -6  -9   42.90    3.66
   8   6  -9   44.23    3.43
   8   6  -9   42.94    2.68
   7  -6  -9   -0.53    0.53
   7   6  -9    0.06    0.25
   7   6  -9    0.06    0.47
   6  -6  -9   46.41    3.74
   6   6  -9   45.45    2.72
   6   6  -9   46.80    3.51
   5  -6  -9    5.43    1.21
   5   6  -9    4.85    1.00
   5   6  -9    4.82    0.66
   4  -6  -9   90.66    6.12
   4   6  -9   88.72    4.75
  -4   6   9   86.81    3.93
   3  -6  -9    0.07    0.56
   3   6  -9    0.54    0.28
  -3   6   9    0.74    0.16
   2  -6  -9  115.19    7.47
   2   6  -9  113.41    5.93
  -2   6   9  110.58    4.95
  -1  -6   9    2.78    0.93
   1  -6  -9    2.83    0.42
   1  -6  -9    2.76    0.90
   1   6  -9    3.33    0.54
  -1   6   9    3.45    0.27
   0  -6  -9   53.74    2.87
   0  -6  -9   50.08    3.99
   0  -6   9   52.42    4.24
   0   6  -9   51.11    2.98
   0   6   9   52.10    2.36
   1  -6   9    1.05    0.75
  -1  -6  -9    1.40    0.38
  -1  -6  -9    0.62    0.71
  -1   6  -9    1.15    0.40
   1   6   9    1.15    0.18
  -2  -6  -9  106.73    7.09
  -2  -6  -9  103.83    5.53
   2  -6   9   99.41    7.61
  -2   6  -9   95.39    5.57
   2   6   9  115.97    7.43
   2   6   9  105.91    4.63
  -3  -6  -9    0.78    0.36
  -3  -6  -9    1.31    0.91
   3  -6   9    0.75    0.84
  -3   6  -9    0.79    0.39
   3   6   9    1.35    0.71
   3   6   9    1.00    0.19
  -4  -6  -9   21.46    2.52
   4  -6   9   27.42    2.88
  -4  -6  -9   24.84    1.72
   4   6   9   22.69    2.41
  -4   6  -9   22.84    1.96
   4   6   9   23.82    1.20
  -4   6  -9   23.13    1.70
  -5  -6  -9    7.74    1.02
   5  -6   9    8.22    1.80
   5   6   9   10.50    1.77
  -5   6  -9    8.01    1.05
   5   6   9    8.69    0.58
   6  -6   9   80.06    6.40
  -6  -6  -9   81.49    4.58
   6   6   9   77.04    3.58
   6   6   9   76.98    6.04
  -6   6  -9   76.46    4.50
   7  -6   9   -0.17    0.67
  -7  -6  -9   -0.02    0.37
   7   6   9    0.15    0.16
  -7   6  -9   -0.39    0.36
   7   6   9   -0.25    0.70
   8  -6   9   10.66    2.20
  -8  -6  -9   14.01    1.65
   8   6   9   14.69    0.89
   8   6   9   17.88    2.61
  -8   6  -9   14.44    1.42
  -9  -6  -9    1.26    0.68
   9  -6   9    0.09    0.88
   9   6   9    0.80    0.26
   9   6   9    0.30    0.95
  -9   6  -9    1.11    0.60
  10  -6   9   31.03    3.73
  10   6   9   36.68    3.85
 -10   6  -9   35.15    2.62
  10   6   9   35.86    1.84
  11  -7  -9   51.02    4.07
  10  -7  -9    0.16    0.84
  10  -7  -9    0.19    0.49
  10   7  -9    0.28    0.55
  10   7  -9   -0.01    0.31
   9  -7  -9    2.58    0.74
   9  -7  -9    3.08    1.16
   9   7  -9    3.00    0.69
   9   7  -9    3.47    0.94
   9   7  -9    2.78    0.61
   8  -7  -9    0.19    0.38
   8  -7  -9    1.00    0.84
   8   7  -9    0.41    0.33
   8   7  -9   -0.23    0.42
   7  -7  -9   93.92    7.04
   7   7  -9  109.54    5.69
   7   7  -9  107.78    6.89
   6  -7  -9    1.47    0.81
   6   7  -9    0.75    0.33
   5  -7  -9    0.97    0.73
   5   7  -9    1.35    0.39
   4  -7  -9    0.28    0.64
  -4   7   9    0.50    0.14
   4   7  -9    0.60    0.29
   3  -7  -9   84.27    5.86
  -3   7   9   82.61    3.71
   3   7  -9   83.10    4.51
   2  -7  -9    1.32    0.77
  -2   7   9    1.57    0.20
   2   7  -9    1.71    0.40
   1  -7  -9    3.16    0.44
   1  -7  -9    3.34    1.05
  -1  -7   9    5.46    1.21
  -1   7   9    3.71    0.30
   1   7  -9    4.04    0.60
   0  -7  -9    0.73    0.73
   0  -7   9    0.43    0.63
   0  -7  -9    0.63    0.26
   0   7  -9    0.96    0.34
   0   7   9    0.56    0.15
  -1  -7  -9  163.86    8.36
   1  -7   9  162.06   11.21
  -1  -7  -9  150.15   10.36
   1   7   9  174.47    7.17
  -1   7  -9  160.45    8.47
  -2  -7  -9    6.88    1.54
   2  -7   9    8.99    1.70
  -2  -7  -9    7.93    0.88
  -2   7  -9    8.44    0.86
   2   7   9    8.23    1.45
   2   7   9    8.19    0.52
  -3  -7  -9    9.60    1.80
   3  -7   9    7.27    1.67
  -3  -7  -9    8.26    0.94
   3   7   9    8.46    1.46
  -3   7  -9    8.06    0.98
   3   7   9    8.64    0.54
  -4  -7  -9    3.70    1.27
   4  -7   9    2.97    1.24
  -4  -7  -9    5.51    0.80
  -4   7  -9    4.45    0.74
   4   7   9    2.97    0.99
   4   7   9    4.42    0.38
   5  -7   9   64.82    5.90
  -5  -7  -9   76.25    4.30
  -5   7  -9   75.47    4.29
   5   7   9   76.94    3.42
   5   7   9   75.14    5.70
   6  -7   9    1.71    1.01
  -6  -7  -9    1.68    0.59
  -6   7  -9    1.81    0.59
   6   7   9    2.44    1.04
   6   7   9    2.52    0.32
   7  -7   9    6.22    1.65
  -7  -7  -9    9.58    1.24
   7   7   9   10.02    1.87
   7   7   9    8.96    0.62
  -7   7  -9    8.04    1.11
   8  -7   9    4.56    1.43
  -8  -7  -9    6.13    1.10
   8   7   9    4.30    0.47
   8   7   9    4.96    1.50
  -8   7  -9    5.28    0.96
   9  -7   9   28.51    3.46
   9   7   9   31.98    3.49
   9   7   9   34.82    1.74
  -9   7  -9   33.22    2.44
  10  -7   9    0.37    1.02
  10   7   9    0.00    0.22
 -10   7  -9    0.54    0.52
  10  -8  -9   10.64    1.35
  10  -8  -9    6.06    1.70
  10   8  -9   13.55    1.76
  10   8  -9   10.04    1.19
   9  -8  -9   10.29    1.91
   9  -8  -9    8.45    1.33
   9   8  -9   10.58    1.58
   9   8  -9   10.61    1.20
   8  -8  -9   31.77    3.13
   8  -8  -9   34.48    2.66
   8   8  -9   32.41    2.77
   8   8  -9   29.32    2.12
   7  -8  -9    0.59    0.85
   7   8  -9    0.38    0.32
   6  -8  -9   44.46    3.84
   6   8  -9   47.25    2.81
   5  -8  -9   10.85    1.83
  -5   8   9   11.40    0.67
   5   8  -9   11.14    1.00
   4  -8  -9   43.00    3.60
  -4   8   9   41.79    1.97
   4   8  -9   41.31    2.52
   3  -8  -9    0.41    0.71
  -3   8   9    0.78    0.17
   3   8  -9    1.08    0.36
   2  -8  -9   61.43    4.61
  -2   8   9   59.69    2.68
   2   8  -9   56.51    3.32
  -1  -8   9   18.81    2.13
   1  -8  -9   22.96    2.40
  -1   8   9   19.91    1.02
   1   8  -9   20.69    1.43
   0  -8  -9   33.40    1.89
   0  -8   9   29.38    2.95
   0  -8  -9   33.52    3.11
   0   8   9   32.95    1.54
   0   8  -9   31.10    2.02
   1  -8   9    8.29    1.63
  -1  -8  -9    6.95    0.72
  -1  -8  -9    8.12    1.69
  -1   8  -9    6.38    0.81
   1   8   9    8.04    0.50
  -2  -8  -9   90.56    6.88
  -2  -8  -9   97.72    5.24
   2  -8   9  105.85    7.46
   2   8   9   98.32    4.39
  -2   8  -9   98.83    5.35
   3  -8   9    5.67    1.47
  -3  -8  -9    5.58    1.51
  -3  -8  -9    7.02    0.86
   3   8   9    7.05    1.34
   3   8   9    6.56    0.46
  -3   8  -9    4.93    0.75
  -4  -8  -9   10.22    1.98
   4  -8   9   10.39    2.01
  -4  -8  -9   13.24    1.13
  -4   8  -9   12.55    1.14
   4   8   9   12.38    1.84
   4   8   9   11.64    0.71
   5  -8   9    0.26    0.79
  -5  -8  -9   -0.25    0.28
   5   8   9   -0.29    0.54
   5   8   9    0.30    0.16
  -5   8  -9   -0.02    0.34
  -6  -8  -9   69.07    3.95
   6  -8   9   62.42    5.49
   6   8   9   63.85    3.01
   6   8   9   63.08    5.13
  -6   8  -9   63.69    3.84
   7  -8   9    5.65    1.63
   7   8   9    7.60    1.64
   7   8   9    6.26    0.53
  -7   8  -9    6.70    1.01
   8  -8   9    2.89    1.27
  -8   8  -9    4.32    0.88
   8   8   9    3.58    1.31
   8   8   9    4.49    0.48
   9  -8   9    0.85    1.00
   9   8   9    0.86    0.28
  -9   8  -9    1.76    0.64
  10  -9  -9   16.71    2.62
  10  -9  -9   21.82    2.06
  10   9  -9   19.37    2.08
  10   9  -9   18.21    1.58
   9  -9  -9    1.37    0.62
   9  -9  -9   -0.34    0.89
   9   9  -9    1.04    0.47
   9   9  -9    0.99    0.69
   8  -9  -9    3.46    1.30
   8  -9  -9    6.50    1.08
   8   9  -9    7.56    0.99
   7  -9  -9   61.01    4.76
   7   9  -9   56.77    3.44
   6  -9  -9   23.58    2.65
   6   9  -9   24.64    1.73
   5  -9  -9    0.13    0.68
  -5   9   9    0.12    0.14
   5   9  -9    0.34    0.28
   4  -9  -9   12.64    2.07
   4   9  -9   16.24    1.25
  -4   9   9   16.26    0.86
   3  -9  -9   90.75    6.30
  -3   9   9   86.68    3.90
   3   9  -9   84.80    4.73
   2  -9  -9    8.33    1.71
   2   9  -9    8.46    0.84
  -2   9   9    9.15    0.55
  -1  -9   9   17.46    1.94
   1  -9  -9   14.30    2.18
  -1   9   9   14.24    0.79
   1   9  -9   14.04    1.13
   0  -9  -9   24.80    2.75
   0  -9  -9   26.32    1.54
   0  -9   9   23.73    2.53
   0   9   9   25.20    1.25
   0   9  -9   24.12    1.67
   1  -9   9   94.95    7.65
  -1  -9  -9  107.67    5.57
  -1  -9  -9  102.96    7.47
   1   9   9  115.60    4.76
  -1   9  -9  103.66    5.69
  -2  -9  -9   27.23    3.06
  -2  -9  -9   29.81    1.84
   2  -9   9   24.00    2.86
   2   9   9   29.25    1.42
  -2   9  -9   28.71    1.91
  -3  -9  -9    2.14    1.17
   3  -9   9    4.08    1.31
  -3  -9  -9    2.57    0.53
   3   9   9    2.39    0.30
   3   9   9    2.72    0.91
  -3   9  -9    1.63    0.50
   4  -9   9   12.82    2.35
  -4  -9  -9   12.07    2.20
  -4  -9  -9   18.59    1.37
   4   9   9   18.30    1.97
   4   9   9   14.83    0.87
  -4   9  -9   14.56    1.28
   5  -9   9   66.75    5.61
  -5   9  -9   67.34    3.89
   5   9   9   63.58    5.08
   5   9   9   66.24    3.07
   6  -9   9    1.19    0.94
  -6   9  -9    2.63    0.65
   6   9   9    1.82    0.98
   6   9   9    2.29    0.32
   7  -9   9    7.08    1.80
   7   9   9    9.73    0.68
  -7   9  -9   11.38    1.30
   7   9   9    8.98    1.77
   8  -9   9   13.57    2.49
  -8   9  -9   17.60    1.56
   8   9   9   16.97    1.02
   9  -9   9   11.41    2.30
  -9   9  -9   15.80    1.49
   9   9   9   13.29    0.90
  10 -10  -9    5.06    1.11
  10 -10  -9    2.64    1.44
  10  10  -9    3.12    1.02
  10  10  -9    4.05    0.80
   9 -10  -9   49.57    4.38
   9 -10  -9   48.18    3.71
   9  10  -9   44.36    3.00
   9  10  -9   50.77    3.84
   8 -10  -9   12.40    1.39
   8 -10  -9   13.57    2.23
   8  10  -9   12.82    1.22
   7 -10  -9   -0.19    0.36
   7 -10  -9    0.03    0.84
   7  10  -9    0.20    0.32
   6 -10  -9   23.07    2.70
   6  10  -9   25.83    1.79
   5 -10  -9   69.73    5.56
  -5  10   9   72.80    3.37
   5  10  -9   77.33    4.20
   4 -10  -9   21.89    2.54
   4  10  -9   19.93    1.53
  -4  10   9   22.34    1.12
   3 -10  -9    1.11    1.01
  -3  10   9    1.62    0.24
   3  10  -9    1.92    0.46
   2 -10  -9   17.38    2.51
   2  10  -9   19.54    1.41
  -2  10   9   19.37    1.00
  -1 -10   9   25.72    2.78
   1 -10  -9   34.34    3.30
  -1  10   9   32.63    1.54
   1  10  -9   33.21    2.04
   0 -10  -9    2.31    1.15
   0 -10   9    1.76    0.87
   0  10   9    1.69    0.24
   0  10  -9    1.32    0.41
   1 -10   9    7.46    1.57
  -1 -10  -9    6.53    1.68
  -1  10  -9    6.48    0.83
   1  10   9    7.09    0.49
   2 -10   9   52.10    4.46
  -2 -10  -9   44.94    4.36
   2  10   9   51.57    2.37
  -2  10  -9   50.28    3.00
  -3 -10  -9   68.07    5.65
   3 -10   9   65.30    5.68
  -3  10  -9   70.07    4.02
   3  10   9   73.92    3.25
  -4 -10  -9   29.23    3.38
   4 -10   9   30.91    3.33
   4  10   9   41.47    3.15
  -4  10  -9   29.30    2.11
   4  10   9   30.94    1.59
   5 -10   9    2.72    1.21
  -5  10  -9    1.94    0.56
   5  10   9    2.16    0.32
   5  10   9    5.05    1.25
   6 -10   9   16.58    2.67
   6  10   9   18.28    2.10
  -6  10  -9   15.97    1.43
   6  10   9   16.48    0.97
   7 -10   9   43.65    4.25
  -7  10  -9   40.30    2.79
   7  10   9   44.18    2.14
   8 -10   9    1.48    1.07
  -8  10  -9    1.47    0.63
   8  10   9    1.46    0.31
   9 -10   9    2.99    1.34
   9  10   9    4.47    0.52
  -9  10  -9    4.72    0.93
  10 -11  -9   25.07    3.40
  10 -11  -9   26.96    2.48
  10  11  -9   27.27    2.61
  10  11  -9   25.73    2.01
   9 -11  -9   -0.31    0.44
   9 -11  -9   -0.39    1.06
   9  11  -9    0.29    0.40
   8 -11  -9   17.23    2.69
   8 -11  -9   20.08    1.89
   8  11  -9   19.70    1.61
   7 -11  -9   10.36    2.03
   7 -11  -9   12.13    1.32
   7  11  -9   11.53    1.15
   6 -11  -9   29.07    3.19
   6  11  -9   30.48    2.07
   5 -11  -9   -0.08    0.84
   5  11  -9    0.76    0.37
  -5  11   9    1.60    0.25
   4 -11  -9   44.63    4.04
  -4  11   9   44.39    2.09
   4  11  -9   42.95    2.69
   3 -11  -9    6.05    1.55
   3  11  -9    6.05    0.79
  -3  11   9    5.21    0.42
   2 -11  -9   14.72    2.42
   2  11  -9   16.51    1.31
  -2  11   9   18.28    0.95
   1 -11  -9    1.94    1.15
  -1  11   9    1.19    0.22
   1  11  -9    1.02    0.39
   0 -11  -9   46.53    4.21
   0 -11   9   38.65    3.74
   0  11   9   47.43    2.14
   0  11  -9   45.37    2.71
   1 -11   9   10.28    1.88
  -1 -11  -9   11.81    2.22
  -1  11  -9   11.02    1.01
   1  11   9   11.23    0.69
   2 -11   9   38.94    3.99
  -2 -11  -9   43.02    4.24
   2  11   9   47.84    2.20
  -2  11  -9   49.46    2.83
  -3 -11  -9    0.97    1.13
   3 -11   9    0.29    0.88
   3  11   9    0.40    0.18
  -3  11  -9    0.83    0.40
  -4 -11  -9   63.95    5.46
   4 -11   9   64.40    5.41
  -4  11  -9   59.22    3.66
   4  11   9   64.72    2.95
   5 -11   9   10.90    2.17
   5  11   9   12.40    1.86
   5  11   9   11.17    0.73
  -5  11  -9   11.28    1.13
   6 -11   9    2.84    1.30
  -6  11  -9    3.55    0.75
   6  11   9    4.05    0.44
   7 -11   9    0.70    0.96
  -7  11  -9    2.70    0.69
   7  11   9    1.58    0.31
   8 -11   9   27.73    3.41
  -8  11  -9   35.00    2.40
   8  11   9   33.07    1.73
   9 -12  -9   44.42    3.47
   9 -12  -9   37.89    4.10
   9  12  -9   44.06    2.87
   8 -12  -9   -0.40    0.97
   8 -12  -9    0.40    0.46
   8  12  -9    0.28    0.40
   7 -12  -9    1.24    1.10
   7 -12  -9    1.92    0.64
   7  12  -9    1.69    0.53
   6 -12  -9    2.88    1.33
  -6  12   9    1.27    0.25
   6  12  -9    1.74    0.51
   5 -12  -9   37.28    3.65
  -5  12   9   34.23    1.72
   5  12  -9   34.72    2.30
   4 -12  -9    0.23    0.96
   4  12  -9    0.50    0.34
  -4  12   9    0.67    0.19
   3 -12  -9    7.63    1.78
  -3  12   9    7.53    0.52
   3  12  -9    5.93    0.83
   2 -12  -9    0.00    0.87
   2  12  -9    0.77    0.37
  -2  12   9    0.14    0.16
   1 -12  -9   93.35    7.31
  -1 -12   9  102.65    7.17
   1  12  -9   95.24    5.38
  -1  12   9  102.83    4.47
   0 -12  -9    2.17    1.32
   0 -12   9    2.55    1.06
   0  12   9    2.97    0.34
   0  12  -9    3.46    0.61
  -1 -12  -9    4.60    1.56
   1 -12   9    4.09    1.32
  -1  12  -9    4.85    0.73
   1  12   9    6.02    0.45
  -2 -12  -9    6.75    1.91
   2 -12   9    7.43    1.76
  -2  12  -9    8.01    0.96
   2  12   9    9.35    0.61
   3 -12   9   45.69    4.45
  -3 -12  -9   51.59    4.86
  -3  12  -9   51.56    3.10
   3  12   9   53.08    2.44
  -4 -12  -9    0.78    1.25
   4 -12   9    1.78    1.09
  -4  12  -9    1.95    0.55
   4  12   9    2.28    0.32
   5 -12   9    2.16    1.16
   5  12   9    1.32    0.27
  -5  12  -9    1.09    0.49
   6 -12   9   -0.48    0.79
   6  12   9    0.33    0.20
  -6  12  -9    0.67    0.43
   7 -12   9   24.30    3.04
   7  12   9   24.82    1.40
  -7  12  -9   28.39    2.02
   8 -12   9    1.90    1.16
  -8  12  -9    1.02    0.58
   8  12   9    0.92    0.29
   9 -13  -9    0.71    0.59
   9 -13  -9   -0.31    1.07
   9  13  -9   -0.01    0.37
   8 -13  -9   13.17    1.47
   8 -13  -9    9.60    2.21
   8  13  -9   11.74    1.35
   7 -13  -9    1.44    0.56
   7 -13  -9    0.38    1.06
   7  13  -9    1.50    0.51
   6 -13  -9   16.49    1.54
   6 -13  -9   11.72    2.34
  -6  13   9   14.72    0.90
   6  13  -9   15.71    1.36
   5 -13  -9    1.28    1.14
   5  13  -9    0.47    0.34
  -5  13   9    0.08    0.15
   4 -13  -9   22.15    3.24
  -4  13   9   30.23    1.46
   4  13  -9   27.24    1.95
   3 -13  -9   -1.08    0.71
   3  13  -9    0.13    0.28
  -3  13   9    0.45    0.20
   2 -13  -9   41.87    4.04
   2  13  -9   36.11    2.41
  -2  13   9   39.37    1.88
   1 -13  -9    0.25    1.03
  -1 -13   9    1.15    0.79
   1  13  -9    0.25    0.30
  -1  13   9    0.11    0.15
   0 -13  -9   28.90    3.86
   0 -13   9   28.59    2.92
   0  13   9   33.30    1.57
   0  13  -9   29.16    2.01
  -1 -13  -9    1.20    1.22
   1 -13   9    0.41    0.86
   1  13   9    1.19    0.24
  -1  13  -9    1.06    0.40
  -2 -13  -9   13.78    2.73
   2 -13   9   12.65    2.32
  -2  13  -9   18.71    1.42
   2  13   9   19.86    1.03
   3 -13   9   -0.67    0.68
  -3 -13  -9    0.46    1.19
  -3  13  -9   -0.16    0.29
   3  13   9   -0.12    0.14
  -4 -13  -9   23.78    3.55
   4 -13   9   22.14    2.80
  -4  13  -9   22.89    1.76
   4  13   9   25.27    1.30
   5 -13   9    0.05    0.85
  -5  13  -9    0.14    0.38
   5  13   9    0.29    0.18
   6 -13   9    8.46    1.90
  -6  13  -9    7.37    1.03
   6  13   9    7.35    0.59
   7 -13   9    0.31    0.94
   7  13   9    0.80    0.26
  -7  13  -9    1.28    0.55
   8 -13   9   20.67    3.30
  -8  13  -9   27.06    2.09
   8  13   9   29.58    1.54
   8 -14  -9    6.03    1.10
   8 -14  -9    2.04    1.46
   8  14  -9    6.10    0.96
   7 -14  -9    0.23    0.40
   7 -14  -9   -0.99    0.81
   7  14  -9    0.20    0.35
   6 -14  -9    1.78    0.58
   6 -14  -9    0.58    1.08
   6  14  -9    1.80    0.54
  -6  14   9    1.69    0.29
   5 -14  -9   38.48    3.86
  -5  14   9   33.25    1.69
   5  14  -9   32.21    2.27
   4 -14  -9   -0.19    1.00
  -4  14   9    0.51    0.20
   4  14  -9    0.80    0.41
   3 -14  -9   -0.19    0.99
  -3  14   9    0.51    0.19
   3  14  -9    0.34    0.32
   2 -14  -9    4.73    1.60
   2  14  -9    4.81    0.75
  -2  14   9    4.77    0.46
   1 -14  -9   52.41    5.14
   1  14  -9   56.60    3.42
  -1  14   9   61.50    2.75
   0 -14  -9    5.00    1.71
   0  14   9    4.36    0.44
   0  14  -9    4.25    0.69
  -1 -14  -9    2.44    1.52
   1 -14   9    4.06    1.27
   1  14   9    3.68    0.40
  -1  14  -9    4.13    0.69
   2 -14   9    1.65    1.02
  -2 -14  -9    3.29    1.64
   2  14   9    1.68    0.29
  -2  14  -9    1.97    0.52
  -3 -14  -9   36.28    4.11
   3 -14   9   35.35    3.55
   3  14   9   34.56    1.71
  -3  14  -9   31.16    2.22
  -4 -14  -9   -0.11    0.96
   4 -14   9   -0.19    0.81
  -4  14  -9    0.37    0.37
   4  14   9    0.00    0.14
   5 -14   9    1.41    1.04
  -5  14  -9    0.56    0.42
   5  14   9    0.45    0.21
   6 -14   9    3.45    1.39
   6  14   9    5.54    0.56
  -6  14  -9    5.13    0.86
   7 -14   9   27.26    3.52
   7  14   9   38.54    1.87
  -7  14  -9   35.28    2.47
   8 -15  -9   11.08    2.51
   8 -15  -9   13.32    1.55
   8  15  -9   14.44    1.40
   7 -15  -9   10.32    1.24
   7 -15  -9    7.78    2.15
   7  15  -9    8.42    1.15
   6 -15  -9   14.44    1.44
   6 -15  -9   10.48    2.43
  -6  15   9   12.75    0.84
   6  15  -9   14.31    1.31
   5 -15  -9    0.25    0.36
   5 -15  -9   -0.26    0.99
  -5  15   9   -0.16    0.15
   5  15  -9   -0.10    0.29
   4 -15  -9   21.39    3.31
   4  15  -9   20.12    1.61
  -4  15   9   20.65    1.14
   3 -15  -9   12.02    2.56
  -3  15   9   14.60    0.87
   3  15  -9   14.37    1.26
   2 -15  -9   20.28    3.31
   2  15  -9   23.16    1.68
  -2  15   9   22.35    1.21
   1 -15  -9   -0.18    1.09
   1  15  -9    0.20    0.31
  -1  15   9    0.05    0.15
   0 -15  -9   24.86    3.82
   0  15  -9   26.89    1.91
   0  15   9   29.10    1.46
  -1 -15  -9    6.11    2.06
   1  15   9    7.18    0.55
  -1  15  -9    7.24    0.93
  -2 -15  -9   16.47    3.07
   2 -15   9   13.90    2.32
   2  15   9   14.25    0.87
  -2  15  -9   14.56    1.25
   3 -15   9    1.44    1.11
  -3 -15  -9    1.20    1.37
  -3  15  -9    1.31    0.50
   3  15   9    1.45    0.28
  -4 -15  -9   15.25    3.05
   4 -15   9   17.77    2.75
  -4  15  -9   19.80    1.53
   4  15   9   18.26    1.06
   5 -15   9   15.23    2.53
   5  15   9   13.75    0.89
  -5  15  -9   14.31    1.31
   6 -15   9    5.30    1.62
   6  15   9    5.72    0.57
  -6  15  -9    3.84    0.79
   7 -15   9    2.00    1.22
   7  15   9    2.12    0.38
   7 -16  -9    1.29    1.42
   7 -16  -9    0.16    0.47
   7  16  -9    0.23    0.39
   6 -16  -9    9.05    1.13
   6 -16  -9    7.63    2.14
   6  16  -9    8.73    1.14
  -6  16   9    8.44    0.64
   5 -16  -9   15.57    1.47
   5 -16  -9   15.59    2.86
  -5  16   9   12.89    0.87
   5  16  -9   15.33    1.36
   4 -16  -9   14.83    2.90
   4 -16  -9   19.95    1.72
   4  16  -9   19.47    1.58
  -4  16   9   19.68    1.11
   3 -16  -9   -0.10    1.11
  -3  16   9    0.58    0.22
   3  16  -9    0.55    0.38
   2 -16  -9   17.84    3.13
  -2  16   9   19.14    1.03
   2  16  -9   14.56    1.36
   1 -16  -9   39.98    4.39
   1  16  -9   35.23    2.44
  -1  16   9   40.00    1.91
   0 -16  -9   18.42    3.36
   0  16  -9   20.79    1.58
   0  16   9   21.08    1.16
  -1 -16  -9    1.09    1.40
  -1  16  -9    0.23    0.32
   1  16   9    0.63    0.21
  -2 -16  -9    9.80    2.49
   2  16   9    8.91    0.64
  -2  16  -9    8.98    1.06
   3 -16   9    9.27    2.03
  -3 -16  -9   12.58    2.79
   3  16   9   12.88    0.81
  -3  16  -9   12.05    1.16
  -4 -16  -9    7.96    2.19
   4 -16   9    4.23    1.47
  -4  16  -9    5.84    0.88
   4  16   9    5.11    0.52
   5 -16   9    0.82    1.01
   5  16   9    0.75    0.24
  -5  16  -9    0.14    0.39
   6 -16   9   16.14    2.77
   6  16   9   21.77    1.23
  -6  16  -9   21.59    1.72
   6 -17  -9    5.59    0.99
   6 -17  -9    2.27    1.60
   6  17  -9    7.20    1.05
  -6  17   9    5.01    0.52
   5 -17  -9    1.24    1.33
   5 -17  -9    0.16    0.40
  -5  17   9   -0.15    0.16
   5  17  -9   -0.12    0.30
   4 -17  -9    4.21    0.78
   4 -17  -9    3.43    1.72
  -4  17   9    3.36    0.43
   4  17  -9    4.04    0.77
   3 -17  -9   52.96    5.42
   3  17  -9   55.50    3.45
  -3  17   9   58.76    2.73
   2 -17  -9   -0.66    1.10
   2  17  -9    1.74    0.54
  -2  17   9    0.86    0.25
   1 -17  -9    0.07    1.28
   1  17  -9    0.12    0.32
  -1  17   9    0.07    0.17
   0 -17  -9    5.71    2.10
   0  17   9    7.25    0.56
   0  17  -9    5.40    0.84
  -1 -17  -9   40.50    4.80
  -1  17  -9   43.30    2.70
   1  17   9   41.89    2.09
  -2 -17  -9    4.84    2.00
  -2  17  -9    6.53    0.93
   2  17   9    7.05    0.56
  -3 -17  -9    2.32    1.56
   3  17   9    2.19    0.35
  -3  17  -9    1.21    0.51
  -4 -17  -9    7.22    2.08
   4  17   9    6.52    0.56
  -4  17  -9    6.40    0.92
   5 -17   9   16.27    2.70
  -5  17  -9   18.31    1.54
   5  17   9   17.83    1.08
   5 -18  -9    3.54    0.77
   5 -18  -9    2.86    1.71
   5  18  -9    4.38    0.82
  -5  18   9    3.18    0.42
   4 -18  -9   11.53    2.77
   4  18  -9   14.47    1.35
  -4  18   9   14.45    0.90
   3 -18  -9   -0.37    1.25
   3  18  -9    1.01    0.46
  -3  18   9    1.25    0.29
   2 -18  -9   27.20    4.13
   2  18  -9   25.31    1.99
  -2  18   9   30.08    1.52
   1 -18  -9    4.22    1.95
   1  18  -9    3.90    0.73
  -1  18   9    4.58    0.49
   0 -18  -9   16.14    3.35
   0  18  -9   18.32    1.54
   0  18   9   21.15    1.15
  -1 -18  -9    0.56    1.39
  -1  18  -9   -0.16    0.30
   1  18   9    0.23    0.19
  -2 -18  -9   29.84    4.55
  -2  18  -9   28.07    1.97
   2  18   9   26.50    1.45
  -3 -18  -9    2.25    1.59
   3  18   9    1.64    0.32
  -3  18  -9    1.59    0.54
  -4 -18  -9    6.57    2.17
   4  18   9    5.16    0.54
  -4  18  -9    4.23    0.80
   4 -19  -9   -0.12    1.35
  -4  19   9    0.29    0.23
   4  19  -9    0.29    0.40
   3 -19  -9   23.18    3.94
  -3  19   9   27.50    1.47
   3  19  -9   26.68    2.01
   2 -19  -9    0.87    1.32
  -2  19   9    1.24    0.29
   2  19  -9    1.08    0.48
   1 -19  -9    0.97    1.43
   1  19  -9    0.86    0.43
  -1  19   9    1.00    0.27
   0 -19  -9   -0.34    1.25
   0  19  -9   -0.20    0.32
   0  19   9    0.04    0.19
  -1 -19  -9   32.60    4.84
   1  19   9   31.01    1.63
  -1  19  -9   30.45    2.16
  -2 -19  -9    0.92    1.38
  -2  19  -9    0.34    0.41
   2  19   9    0.51    0.23
  -3 -19  -9    2.86    1.63
  -3  19  -9    2.38    0.64
   3  19   9    3.36    0.43
   2 -20  -9   20.69    3.89
  -2  20   9   26.54    1.43
   1 -20  -9    4.45    2.05
  -1  20   9    5.43    0.56
   1  20  -9    4.68    0.82
   0 -20  -9   18.55    3.66
   0  20  -9   18.46    1.53
   0  20   9   17.45    1.07
  11   0 -10   -0.19    0.64
  11   0 -10    0.52    0.55
  10   0 -10    4.71    1.18
  10   0 -10    5.79    1.05
   9   0 -10   -0.54    0.46
   8   0 -10  102.78    6.89
   7   0 -10   -0.05    0.45
   6   0 -10    9.85    1.51
   5   0 -10    0.19    0.21
   5   0 -10   -0.36    0.36
   4   0 -10  170.25    8.73
   4   0 -10  174.60   10.64
   3   0 -10    0.04    0.40
   3   0 -10   -0.01    0.22
   2   0 -10    0.86    0.31
   2   0 -10    0.68    0.48
   1   0 -10   -0.22    0.22
   1   0 -10   -0.01    0.37
   0   0  10   59.90    4.58
   0   0 -10   55.13    3.20
   0   0 -10   57.29    4.04
   1   0  10    0.92    0.65
  -1   0 -10    0.00    0.50
  -1   0 -10    0.12    0.30
  -2   0 -10    5.50    0.77
  -2   0 -10    5.23    1.02
   2   0  10    7.11    1.46
  -3   0 -10   -0.49    0.40
  -3   0 -10   -0.30    0.31
   3   0  10    0.02    0.66
   4   0  10  144.53    9.97
  -4   0 -10  136.21    7.42
  -4   0 -10  136.62    8.64
   5   0  10    0.09    0.79
  -5   0 -10   -0.11    0.36
   6   0  10    0.20    0.73
  -6   0 -10    0.54    0.48
   7   0  10   -0.18    0.86
  -7   0 -10   -0.33    0.39
  -8   0 -10   40.22    2.83
   8   0  10   39.24    4.06
  -9   0 -10   -0.31    0.46
   9   0  10   -0.31    0.86
  10   0  10    1.80    1.37
 -10   0 -10    2.10    0.80
  11  -1 -10    3.56    1.17
  11  -1 -10    3.09    0.89
  11   1 -10    3.21    1.05
  11   1 -10    3.05    0.86
  10  -1 -10    5.87    1.09
  10  -1 -10    4.01    1.16
  10   1 -10    5.03    1.00
  10   1 -10    5.11    1.22
   9  -1 -10   47.34    3.71
   9   1 -10   43.11    3.58
   8  -1 -10    0.09    0.60
   8   1 -10    0.21    0.52
   7  -1 -10   22.19    2.27
   7   1 -10   24.77    2.28
   6  -1 -10    1.66    0.72
   6   1 -10    2.31    0.76
   5  -1 -10  103.56    6.88
   5   1 -10  102.11    5.44
   5   1 -10  108.76    6.87
   4  -1 -10    3.28    0.47
   4  -1 -10    3.83    1.03
   4   1 -10    3.48    0.50
   4   1 -10    2.64    0.84
   3  -1 -10   38.25    3.13
   3  -1 -10   41.31    2.31
   3   1 -10   39.25    2.32
   3   1 -10   43.75    3.21
   2  -1 -10    6.17    0.64
   2  -1 -10    6.10    1.11
   2   1 -10    7.02    0.68
   2   1 -10    6.69    1.15
   1  -1 -10   62.10    3.37
   1  -1 -10   59.95    4.32
   1   1 -10   59.30    3.38
   1   1 -10   63.88    4.32
   0  -1 -10    1.89    0.69
   0  -1 -10    2.05    0.46
   0  -1  10    2.35    0.92
   0   1 -10    2.01    0.44
   0   1  10    2.03    0.86
   0   1 -10    2.71    0.76
   1  -1  10  131.27    8.63
  -1  -1 -10  119.23    7.67
  -1  -1 -10  118.75    6.35
  -1   1 -10  113.83    6.34
  -1   1 -10  117.50    7.57
   1   1  10  127.31    8.54
   2  -1  10    2.98    1.03
  -2  -1 -10    2.76    0.58
  -2  -1 -10    3.96    0.93
   2   1  10    2.97    1.02
  -2   1 -10    2.92    0.78
  -2   1 -10    2.69    0.58
  -3  -1 -10   74.48    5.14
   3  -1  10   75.26    5.93
  -3  -1 -10   75.61    4.25
  -3   1 -10   74.49    4.25
   3   1  10   76.18    5.89
  -3   1 -10   77.00    5.06
   4  -1  10    1.24    0.88
  -4  -1 -10   -0.40    0.54
  -4  -1 -10    0.06    0.41
  -4   1 -10    0.20    0.52
   4   1  10    0.47    0.86
  -4   1 -10    0.05    0.41
  -5  -1 -10   38.55    2.64
   5  -1  10   49.25    4.16
  -5   1 -10   39.14    2.65
   5   1  10   40.47    3.87
  -6  -1 -10   11.34    1.36
   6  -1  10   13.36    2.39
   6   1  10   13.03    2.30
  -6   1 -10   13.85    1.32
  -7  -1 -10   10.23    1.33
   7  -1  10   10.18    2.15
   7   1  10   13.94    2.37
  -7   1 -10   10.44    1.32
   8  -1  10    3.17    1.31
  -8  -1 -10    1.15    0.61
   8   1  10    2.49    1.27
  -8   1 -10    0.69    0.57
  -9  -1 -10   30.99    2.46
   9  -1  10   29.54    3.50
  -9   1 -10   33.12    2.49
   9   1  10   31.49    3.58
 -10  -1 -10    0.11    0.53
  10  -1  10    0.18    1.07
  10   1  10    0.85    1.16
 -10   1 -10    0.77    0.63
  11  -2 -10    9.33    1.79
  11  -2 -10   10.87    1.59
  11   2 -10   12.74    1.46
  11   2 -10   11.06    1.79
  10  -2 -10    0.75    0.50
  10  -2 -10   -0.03    0.63
  10   2 -10    0.36    0.48
  10   2 -10   -0.05    0.50
   9  -2 -10    4.69    0.94
   9  -2 -10    4.41    1.17
   9   2 -10    5.22    1.15
   8  -2 -10   79.09    5.49
   8   2 -10   74.03    5.32
   7  -2 -10   15.98    2.12
   7   2 -10   14.54    1.69
   6  -2 -10    7.23    1.34
   6   2 -10    8.87    1.39
   6   2 -10    8.29    0.75
   5  -2 -10    0.84    0.61
   5   2 -10    1.37    0.63
   5   2 -10    1.23    0.34
   4  -2 -10  112.39    7.40
   4   2 -10  114.39    7.33
   4   2 -10  113.79    5.92
   3  -2 -10    5.96    0.59
   3  -2 -10    5.20    1.08
   3   2 -10    5.04    1.04
   3   2 -10    5.31    0.65
   2  -2 -10    3.30    0.89
   2  -2 -10    3.14    0.49
   2   2 -10    3.18    0.81
   2   2 -10    2.61    0.47
   1  -2 -10   15.77    1.68
   1  -2 -10   14.80    1.07
   1   2 -10   12.87    1.08
   1   2 -10   14.87    1.56
   0  -2 -10   30.57    2.55
   0  -2  10   29.81    2.82
   0  -2 -10   30.57    1.86
   0   2 -10   28.91    2.42
   0   2 -10   28.13    1.86
   1  -2  10   10.50    1.77
  -1  -2 -10    6.93    1.32
  -1  -2 -10   10.05    0.93
  -1   2 -10    9.75    0.93
   1   2  10   10.89    1.74
  -1   2 -10   10.32    1.43
   2  -2  10    0.04    0.56
  -2  -2 -10   -0.15    0.41
  -2  -2 -10    0.12    0.32
   2   2  10    0.32    0.61
  -2   2 -10   -0.11    0.35
  -2   2 -10   -0.03    0.31
  -3  -2 -10   19.18    1.47
   3  -2  10   19.21    2.34
  -3  -2 -10   18.16    1.97
  -3   2 -10   20.05    1.82
  -3   2 -10   18.58    1.47
   3   2  10   17.80    2.16
  -4  -2 -10  135.63    7.10
  -4  -2 -10  125.14    8.40
   4  -2  10  138.96    9.65
  -4   2 -10  128.51    8.17
  -4   2 -10  130.77    7.09
   4   2  10  135.12    9.46
  -5  -2 -10   21.46    1.67
   5  -2  10   20.57    2.56
   5   2  10   19.49    2.44
  -5   2 -10   19.83    1.62
   6  -2  10    4.06    1.45
  -6  -2 -10    3.30    0.76
  -6   2 -10    3.84    0.80
   6   2  10    3.83    1.35
  -7  -2 -10   12.66    1.49
   7  -2  10   10.80    2.21
   7   2  10   12.43    2.27
  -7   2 -10   12.74    1.46
   8  -2  10   40.88    4.31
  -8  -2 -10   46.61    3.10
   8   2  10   43.63    4.32
  -8   2 -10   44.58    3.03
  -9  -2 -10    2.57    0.81
  -9   2 -10    1.26    0.66
   9   2  10    1.22    1.13
  10  -2  10    1.44    1.35
  10   2  10    0.31    1.12
  11  -3 -10    5.86    1.55
  11  -3 -10    6.04    1.18
  11   3 -10    5.48    1.09
  11   3 -10    6.01    1.30
  10  -3 -10   21.09    2.01
  10  -3 -10   17.63    2.48
  10   3 -10   22.17    1.97
  10   3 -10   20.14    2.14
   9  -3 -10   39.22    3.11
   9  -3 -10   39.94    3.45
   9   3 -10   38.76    3.22
   8  -3 -10    0.23    0.68
   8   3 -10    0.80    0.58
   7  -3 -10   16.02    2.10
   7   3 -10   17.49    1.83
   7   3 -10   15.43    1.19
   6  -3 -10   28.74    2.64
   6   3 -10   29.58    2.56
   6   3 -10   29.13    1.83
   5  -3 -10   30.52    2.73
   5   3 -10   29.87    2.62
   5   3 -10   32.24    1.92
   4  -3 -10   -0.43    0.46
   4   3 -10   -0.43    0.35
   4   3 -10    0.23    0.23
   3  -3 -10    8.67    1.47
   3  -3 -10    9.55    0.78
   3   3 -10    9.79    1.43
   3   3 -10   10.88    0.87
   2  -3 -10   75.04    5.02
   2  -3 -10   71.19    3.78
   2   3 -10   67.56    3.85
   2   3 -10   72.11    4.88
   1  -3 -10   33.00    1.92
   1  -3 -10   31.40    2.70
   1   3 -10   30.84    1.96
   1   3 -10   31.34    2.58
   0  -3 -10    1.70    0.42
   0  -3 -10    1.44    0.65
   0  -3  10    0.46    0.64
   0   3 -10    1.68    0.44
   0   3 -10    1.38    0.55
   1  -3  10   82.50    5.89
  -1  -3 -10   71.22    5.19
  -1  -3 -10   75.82    4.11
  -1   3 -10   71.35    4.13
   1   3  10   79.84    5.70
  -1   3 -10   71.39    4.99
  -2  -3 -10   76.13    4.18
   2  -3  10   71.30    5.85
  -2  -3 -10   75.73    5.26
   2   3  10   79.42    5.75
  -2   3 -10   75.69    4.21
  -2   3 -10   73.46    5.00
  -3  -3 -10   20.29    1.50
  -3  -3 -10   16.00    1.98
   3  -3  10   22.89    2.53
  -3   3 -10   19.30    1.79
  -3   3 -10   17.76    1.47
   3   3  10   22.43    2.34
   4  -3  10    0.85    0.85
  -4  -3 -10    0.22    0.70
  -4  -3 -10   -0.14    0.36
  -4   3 -10   -0.02    0.41
  -4   3 -10    0.67    0.45
   4   3  10    0.11    0.72
   5  -3  10   19.50    2.92
  -5  -3 -10   23.85    1.76
  -5   3 -10   20.98    1.69
   5   3  10   22.56    2.58
  -6  -3 -10   24.97    1.89
   6  -3  10   20.17    3.09
  -6   3 -10   22.80    1.84
   6   3  10   23.68    2.76
   7  -3  10   15.56    2.70
  -7  -3 -10   20.59    1.77
  -7   3 -10   19.54    1.70
   7   3  10   23.46    2.72
  -8  -3 -10    3.82    0.88
   8  -3  10    1.14    1.14
  -8   3 -10    2.34    0.74
   8   3  10    2.83    1.36
   9  -3  10   14.01    2.62
  -9  -3 -10   13.50    1.74
   9   3  10   17.29    2.80
  -9   3 -10   15.32    1.78
  11  -4 -10   18.26    2.62
  11  -4 -10   19.56    2.06
  11   4 -10   20.04    2.16
  11   4 -10   20.95    1.98
  10  -4 -10    4.01    0.93
  10  -4 -10    2.82    1.11
  10   4 -10    4.15    0.91
  10   4 -10    4.96    1.13
   9  -4 -10    8.29    1.64
   9  -4 -10   10.96    1.30
   9   4 -10   10.93    1.66
   8  -4 -10   29.16    2.83
   8   4 -10   28.65    2.58
   7  -4 -10   23.79    2.51
   7   4 -10   25.43    1.70
   7   4 -10   27.77    2.43
   6  -4 -10    0.57    0.62
   6   4 -10    0.40    0.51
   6   4 -10    0.27    0.25
   5  -4 -10   17.35    1.98
   5   4 -10   18.50    1.87
   5   4 -10   18.02    1.28
   4  -4 -10   53.84    4.17
   4   4 -10   56.71    4.06
   4   4 -10   55.54    3.12
   3  -4 -10   85.85    5.95
   3   4 -10   85.69    5.81
   3   4 -10   88.97    4.68
   2  -4 -10    2.17    0.80
   2  -4 -10    3.08    0.46
   2   4 -10    2.19    0.45
   2   4 -10    2.09    0.72
   1  -4 -10   54.29    3.03
   1  -4 -10   55.69    4.15
  -1  -4  10   58.21    4.50
   1   4 -10   53.91    3.12
   1   4 -10   55.00    3.96
   0  -4 -10   23.54    1.50
   0  -4 -10   22.36    2.23
   0  -4  10   19.83    2.31
   0   4 -10   22.54    2.04
   0   4 -10   23.63    1.59
   1  -4  10   79.24    5.88
  -1  -4 -10   76.93    5.33
  -1  -4 -10   75.83    4.11
   1   4  10   79.34    5.69
  -1   4 -10   69.77    4.99
  -1   4 -10   71.35    4.14
  -2  -4 -10    1.86    0.83
   2  -4  10    3.33    1.16
  -2  -4 -10    2.29    0.51
  -2   4 -10    1.56    0.61
   2   4  10    3.24    1.00
  -2   4 -10    2.12    0.54
  -3  -4 -10   42.84    3.60
   3  -4  10   47.37    4.17
  -3  -4 -10   47.16    2.77
   3   4  10   47.87    3.92
  -3   4 -10   42.35    2.75
  -3   4 -10   43.19    3.25
  -4  -4 -10   24.99    1.78
  -4  -4 -10   22.65    2.47
   4  -4  10   23.24    2.78
   4   4  10   24.39    2.60
  -4   4 -10   23.38    2.03
  -4   4 -10   23.86    1.78
   5  -4  10    6.03    1.61
  -5  -4 -10    6.68    0.96
  -5   4 -10    6.23    0.94
   5   4  10    7.37    1.57
   6  -4  10    0.78    0.91
  -6  -4 -10    0.34    0.49
  -6   4 -10    0.10    0.39
   6   4  10    0.40    0.86
   7  -4  10   31.44    3.49
  -7  -4 -10   29.73    2.29
   7   4  10   31.55    3.33
  -7   4 -10   31.66    2.30
  -8  -4 -10   16.64    1.65
   8  -4  10   17.52    2.87
  -8   4 -10   16.40    1.59
   8   4  10   18.52    2.81
   9  -4  10   13.32    2.49
  -9  -4 -10   10.76    1.50
  -9   4 -10    9.09    1.32
   9   4  10   11.10    2.27
  10  -5 -10   47.33    3.79
  10  -5 -10   46.62    4.09
  10   5 -10   52.36    3.90
  10   5 -10   48.79    3.65
   9  -5 -10    9.03    1.29
   9  -5 -10    6.61    1.55
   9   5 -10    5.94    1.23
   8  -5 -10    2.93    1.11
   8   5 -10    4.89    1.10
   8   5 -10    4.82    0.71
   7  -5 -10    2.54    1.00
   7   5 -10    2.44    0.50
   7   5 -10    2.34    0.82
   6  -5 -10   61.73    4.72
   6   5 -10   66.70    4.59
   6   5 -10   61.48    3.54
   5  -5 -10   16.82    2.17
   5   5 -10   15.11    1.70
   5   5 -10   14.79    1.16
   4  -5 -10    5.69    1.32
   4   5 -10    7.09    1.23
   4   5 -10    5.48    0.70
   3  -5 -10    1.15    0.71
  -3   5  10    1.48    0.19
   3   5 -10    1.39    0.38
   3   5 -10    1.31    0.62
   2  -5 -10  124.07    8.02
   2   5 -10  117.49    6.39
   2   5 -10  125.91    7.80
   1  -5 -10   27.13    1.65
   1  -5 -10   23.42    2.45
  -1  -5  10   28.61    2.72
   1   5 -10   26.87    1.75
   1   5 -10   27.35    2.35
   0  -5 -10    3.09    0.97
   0  -5 -10    3.45    0.52
   0  -5  10    1.81    0.94
   0   5 -10    3.06    0.80
   0   5 -10    3.67    0.60
   1  -5  10   40.74    3.50
  -1  -5 -10   32.53    3.07
  -1  -5 -10   36.07    2.18
  -1   5 -10   37.94    2.86
  -1   5 -10   33.00    2.21
  -2  -5 -10   86.64    4.69
   2  -5  10   88.99    6.69
  -2  -5 -10   86.09    6.03
  -2   5 -10   83.75    5.62
  -2   5 -10   84.29    4.75
   2   5  10   87.81    6.36
   3  -5  10    9.03    1.85
  -3  -5 -10    8.86    1.01
  -3  -5 -10    6.53    1.46
  -3   5 -10    9.74    1.32
   3   5  10    9.32    1.64
  -3   5 -10    8.41    1.02
   4  -5  10    5.49    1.53
  -4  -5 -10    6.26    0.90
  -4  -5 -10    5.26    1.41
   4   5  10    7.59    1.53
  -4   5 -10    6.01    0.87
  -4   5 -10    4.54    0.92
  -5  -5 -10    4.14    0.77
   5  -5  10    3.33    1.33
  -5   5 -10    3.26    0.70
   5   5  10    5.50    1.39
  -6  -5 -10   77.41    4.46
   6  -5  10   74.22    6.25
   6   5  10   77.82    6.05
  -6   5 -10   71.42    4.39
   7  -5  10    2.80    1.32
  -7  -5 -10    1.59    0.64
  -7   5 -10    1.97    0.69
   7   5  10    2.32    1.16
  -8  -5 -10    1.35    0.64
   8  -5  10    2.02    1.10
   8   5  10    0.05    0.93
  -8   5 -10    0.99    0.57
  -9  -5 -10    2.72    0.84
   9  -5  10    1.23    1.15
  -9   5 -10    2.90    0.80
   9   5  10    3.53    1.53
  10  -6 -10    1.06    0.68
  10  -6 -10    1.02    1.05
  10   6 -10    0.35    0.64
   9  -6 -10   13.08    2.08
   9  -6 -10   11.23    1.36
   9   6 -10   12.39    1.13
   9   6 -10   13.43    1.83
   8  -6 -10   -0.45    0.61
   8   6 -10    0.67    0.57
   8   6 -10    0.46    0.32
   7  -6 -10   46.84    4.09
   7   6 -10   52.24    3.03
   7   6 -10   52.97    3.93
   6  -6 -10    1.62    0.87
   6   6 -10    2.11    0.48
   6   6 -10    1.82    0.78
   5  -6 -10   21.23    2.28
   5   6 -10   19.20    1.41
   5   6 -10   20.43    2.04
   4  -6 -10   -0.47    0.50
   4   6 -10    0.43    0.28
   4   6 -10    0.02    0.39
   3  -6 -10   17.36    2.00
   3   6 -10   17.47    1.26
  -3   6  10   16.05    0.85
   3   6 -10   17.21    1.79
   2  -6 -10   -0.12    0.54
   2   6 -10    0.00    0.23
  -2   6  10   -0.04    0.10
  -1  -6  10   74.51    5.77
   1  -6 -10   80.45    4.06
   1  -6 -10   77.45    5.52
   1   6 -10   74.64    4.19
  -1   6  10   74.63    3.40
   0  -6  10   -0.72    0.54
   0  -6 -10    0.02    0.52
   0  -6 -10    0.29    0.25
   0   6  10   -0.03    0.10
   0   6 -10    0.36    0.31
  -1  -6 -10   77.94    5.90
  -1  -6 -10   84.64    4.53
   1  -6  10   83.29    6.43
   1   6  10   86.24    3.74
  -1   6 -10   82.00    4.62
  -1   6 -10   86.63    5.60
  -2  -6 -10    0.81    0.80
  -2  -6 -10    0.78    0.38
   2  -6  10    0.56    0.79
   2   6  10    0.68    0.16
   2   6  10    1.16    0.77
  -2   6 -10    0.71    0.37
  -2   6 -10    0.49    0.49
   3  -6  10   55.80    4.61
  -3  -6 -10   49.37    4.14
  -3  -6 -10   47.93    2.95
  -3   6 -10   47.86    2.99
  -3   6 -10   47.31    3.54
   3   6  10   49.06    2.30
   3   6  10   53.63    4.17
   4  -6  10    2.72    1.19
  -4  -6 -10    4.09    0.75
  -4  -6 -10    3.23    1.26
   4   6  10    5.47    1.34
  -4   6 -10    4.47    0.88
  -4   6 -10    3.99    0.74
   4   6  10    4.77    0.39
  -5  -6 -10   31.37    2.22
   5  -6  10   30.85    3.43
  -5   6 -10   33.04    2.25
   5   6  10   32.45    3.17
  -6  -6 -10    0.74    0.51
   6  -6  10    0.88    0.97
  -6   6 -10    0.69    0.50
   6   6  10    0.74    0.86
   7  -6  10   44.88    4.49
  -7  -6 -10   49.36    3.19
  -7   6 -10   47.28    3.11
   7   6  10   46.26    4.30
   8  -6  10    0.20    0.81
  -8  -6 -10    0.19    0.50
   8   6  10   -0.05    0.91
  -8   6 -10   -0.05    0.43
  -9  -6 -10    9.83    1.45
   9  -6  10    8.65    2.11
   9   6  10   10.87    2.20
  -9   6 -10    8.40    1.26
  10  -7 -10   39.56    3.82
  10  -7 -10   40.57    3.33
  10   7 -10   40.79    3.39
   9  -7 -10    1.94    1.11
   9  -7 -10    3.38    0.84
   9   7 -10    2.32    0.86
   9   7 -10    3.02    0.63
   8  -7 -10   -0.18    0.74
   8   7 -10   -0.05    0.28
   8   7 -10   -0.13    0.42
   7  -7 -10    0.13    0.70
   7   7 -10    0.96    0.68
   7   7 -10    1.27    0.42
   6  -7 -10   93.48    6.62
   6   7 -10   92.00    5.11
   6   7 -10   95.58    6.34
   5  -7 -10    1.52    0.89
   5   7 -10    1.42    0.43
   5   7 -10    1.53    0.69
   4  -7 -10    2.60    0.95
   4   7 -10    2.58    0.49
  -4   7  10    1.72    0.24
   3  -7 -10    7.51    1.50
  -3   7  10    8.08    0.51
   3   7 -10    8.53    0.82
   2  -7 -10   61.73    4.62
  -2   7  10   59.01    2.68
   2   7 -10   57.64    3.35
   1  -7 -10    7.79    1.62
  -1  -7  10    9.60    1.72
   1   7 -10   12.40    0.99
  -1   7  10    9.98    0.58
   0  -7 -10    0.61    0.28
   0  -7  10    0.58    0.76
   0  -7 -10   -0.07    0.61
   0   7  10    0.37    0.14
   0   7 -10    0.46    0.32
  -1  -7 -10    3.38    0.56
  -1  -7 -10    3.16    1.16
   1  -7  10    1.96    0.98
  -1   7 -10    4.43    0.70
   1   7  10    3.80    0.33
  -2  -7 -10  105.52    7.60
   2  -7  10  100.41    8.08
  -2  -7 -10  117.24    5.91
   2   7  10  116.66    4.92
  -2   7 -10  105.59    5.94
   3  -7  10    0.13    0.77
  -3  -7 -10    0.24    0.34
  -3  -7 -10    0.07    0.89
   3   7  10    0.33    0.15
  -3   7 -10    0.73    0.41
   3   7  10   -0.04    0.55
  -4  -7 -10    1.48    0.51
  -4  -7 -10   -0.23    0.88
   4  -7  10    1.86    1.10
  -4   7 -10    1.56    0.53
   4   7  10    1.02    0.76
   4   7  10    1.76    0.26
  -4   7 -10    1.71    0.60
  -5  -7 -10    4.07    0.78
   5  -7  10    3.80    1.43
   5   7  10    4.75    0.42
   5   7  10    4.50    1.30
  -5   7 -10    4.15    0.76
  -6  -7 -10   89.84    5.20
   6  -7  10   89.48    7.26
  -6   7 -10   84.78    5.13
   6   7  10   92.85    4.12
   6   7  10   93.63    6.93
  -7  -7 -10    0.52    0.52
   7  -7  10    0.68    0.97
  -7   7 -10    0.49    0.47
   7   7  10    1.29    1.05
   8  -7  10    2.80    1.33
  -8  -7 -10    2.96    0.84
   8   7  10    3.68    1.39
  -8   7 -10    3.42    0.84
   9  -7  10    1.67    1.15
  -9   7 -10    2.46    0.78
   9   7  10    1.73    1.32
  10  -8 -10    6.39    1.74
  10  -8 -10    3.78    0.96
  10   8 -10    3.71    1.09
  10   8 -10    3.75    0.74
   9  -8 -10    7.22    1.21
   9  -8 -10    5.05    1.52
   9   8 -10    7.53    0.98
   9   8 -10    8.20    1.47
   8  -8 -10    3.91    1.29
   8  -8 -10    3.54    0.83
   8   8 -10    4.04    1.03
   8   8 -10    4.74    0.75
   7  -8 -10   34.54    3.38
   7   8 -10   38.07    2.39
   7   8 -10   36.03    3.08
   6  -8 -10   -0.74    0.63
   6   8 -10    0.00    0.27
   6   8 -10   -0.66    0.45
   5  -8 -10   23.08    2.48
   5   8 -10   19.32    1.48
   4  -8 -10   16.76    2.31
   4   8 -10   17.11    1.33
  -4   8  10   17.99    0.93
   3  -8 -10   49.16    4.14
  -3   8  10   49.21    2.33
   3   8 -10   53.76    2.99
   2  -8 -10   -0.27    0.66
   2   8 -10   -0.11    0.24
  -2   8  10    0.13    0.13
  -1  -8  10   51.26    4.33
   1  -8 -10   54.90    4.38
  -1   8  10   55.17    2.44
   1   8 -10   49.90    3.06
   0  -8 -10   29.57    3.01
   0  -8  10   30.83    3.01
   0   8 -10   28.77    1.93
   0   8  10   29.90    1.44
   1  -8  10   63.52    5.71
  -1  -8 -10   74.84    4.02
  -1  -8 -10   74.74    5.67
  -1   8 -10   69.65    4.12
   1   8  10   80.82    3.35
   2  -8  10    0.41    0.81
  -2  -8 -10    0.85    0.95
  -2  -8 -10   -0.16    0.27
  -2   8 -10    0.16    0.32
   2   8  10    0.00    0.13
   3  -8  10   38.82    3.88
  -3  -8 -10   40.23    3.82
  -3  -8 -10   38.94    2.48
   3   8  10   40.52    1.91
  -3   8 -10   37.03    2.51
   3   8  10   45.48    3.62
  -4  -8 -10    6.96    1.80
   4  -8  10    8.37    1.90
  -4  -8 -10    8.48    1.04
  -4   8 -10    7.32    1.00
   4   8  10    6.78    1.45
   4   8  10    7.19    0.52
   5  -8  10   33.37    3.64
  -5  -8 -10   35.93    2.40
  -5   8 -10   34.51    2.38
   5   8  10   34.55    1.74
   5   8  10   37.97    3.39
   6  -8  10    0.28    0.96
  -6  -8 -10    0.40    0.47
   6   8  10    0.87    0.83
  -6   8 -10    0.25    0.43
   6   8  10    0.22    0.18
   7  -8  10   35.34    3.84
  -7  -8 -10   38.67    2.68
   7   8  10   33.70    3.53
  -7   8 -10   35.55    2.54
   7   8  10   37.31    1.84
   8  -8  10    2.87    1.42
  -8   8 -10    3.37    0.81
   8   8  10    1.84    1.22
   8   8  10    4.13    0.47
   9  -8  10    6.65    1.88
  -9   8 -10    6.21    1.08
  10  -9 -10   17.17    2.78
  10  -9 -10   19.11    2.00
  10   9 -10   19.27    1.60
  10   9 -10   19.06    2.13
   9  -9 -10   21.55    2.00
   9  -9 -10   18.19    2.74
   9   9 -10   20.07    2.15
   9   9 -10   17.30    1.53
   8  -9 -10    3.44    1.33
   8  -9 -10    4.56    0.93
   8   9 -10    3.97    1.03
   8   9 -10    3.92    0.74
   7  -9 -10    5.09    1.48
   7   9 -10    6.44    0.88
   6  -9 -10   48.76    4.25
   6   9 -10   49.53    2.99
   5  -9 -10   23.18    2.92
  -5   9  10   19.86    1.08
   5   9 -10   21.57    1.55
   4  -9 -10    1.24    0.92
   4   9 -10    1.35    0.44
  -4   9  10    1.26    0.22
   3  -9 -10   21.97    2.63
  -3   9  10   25.95    1.26
   3   9 -10   24.79    1.72
   2  -9 -10   58.18    4.86
   2   9 -10   63.59    3.55
  -2   9  10   61.68    2.82
  -1  -9  10    8.16    1.63
   1  -9 -10    8.84    1.78
   1   9 -10   10.59    0.96
  -1   9  10   10.23    0.60
   0  -9  10    0.99    0.82
   0  -9 -10    0.30    0.90
   0   9 -10    0.76    0.35
   0   9  10    0.36    0.15
   1  -9  10    3.93    1.28
  -1  -9 -10    5.70    1.58
  -1  -9 -10    6.78    0.75
   1   9  10    5.43    0.42
  -1   9 -10    4.98    0.75
  -2  -9 -10   40.09    4.09
  -2  -9 -10   47.78    2.76
   2  -9  10   42.57    4.21
  -2   9 -10   47.64    2.87
   2   9  10   49.37    2.22
  -3  -9 -10    8.63    1.95
   3  -9  10    9.61    2.04
  -3  -9 -10    8.04    0.97
  -3   9 -10    7.68    0.98
   3   9  10    9.39    0.59
   4  -9  10   -0.12    0.81
  -4  -9 -10   -0.57    0.96
  -4  -9 -10    1.12    0.47
  -4   9 -10    1.43    0.48
   4   9  10    0.96    0.83
   4   9  10    0.67    0.21
   5  -9  10   21.56    3.29
  -5  -9 -10   28.63    2.04
  -5   9 -10   27.49    2.00
   5   9  10   26.70    1.41
   5   9  10   32.19    2.92
   6  -9  10   32.93    3.71
  -6   9 -10   36.05    2.47
   6   9  10   32.32    3.29
   6   9  10   36.82    1.78
   7  -9  10    5.17    1.63
   7   9  10    7.26    0.57
  -7   9 -10    6.23    1.02
   7   9  10    4.63    1.47
   8  -9  10    1.67    1.24
  -8   9 -10    3.04    0.78
   8   9  10    2.16    0.37
   9 -10 -10    5.51    1.71
   9 -10 -10    3.41    0.89
   9  10 -10    4.90    1.21
   9  10 -10    4.01    0.79
   8 -10 -10   29.30    3.22
   8 -10 -10   27.78    2.44
   8  10 -10   29.51    2.06
   8  10 -10   27.58    2.67
   7 -10 -10   10.64    2.08
   7  10 -10   12.42    1.17
   6 -10 -10    0.14    0.82
   5 -10 -10   11.76    2.18
   5  10 -10   12.99    1.16
  -5  10  10   13.04    0.76
   4 -10 -10   41.93    4.03
  -4  10  10   47.64    2.21
   4  10 -10   47.86    2.86
   3 -10 -10   13.13    2.26
  -3  10  10   12.93    0.76
   3  10 -10   14.58    1.19
   2 -10 -10    0.62    0.94
  -2  10  10    1.99    0.27
   2  10 -10    2.54    0.53
   1 -10 -10   15.58    2.48
  -1 -10  10   15.53    2.00
  -1  10  10   16.12    0.88
   1  10 -10   16.29    1.28
   0 -10 -10   65.88    5.66
   0 -10  10   69.87    5.66
   0  10  10   78.10    3.32
   0  10 -10   70.36    4.08
   1 -10  10    6.55    1.58
  -1 -10 -10    5.38    1.68
   1  10  10    7.26    0.50
  -1  10 -10    6.73    0.88
  -2 -10 -10    1.00    1.08
   2 -10  10    0.27    0.86
  -2  10 -10    2.26    0.56
   2  10  10    1.98    0.28
   3 -10  10   12.36    2.27
  -3 -10 -10    9.59    2.19
   3  10  10   12.69    0.74
  -3  10 -10   11.39    1.11
  -4 -10 -10   47.32    4.74
   4 -10  10   47.20    4.75
   4  10  10   62.31    4.58
   4  10  10   55.19    2.57
  -4  10 -10   54.71    3.30
   5 -10  10    2.35    1.19
   5  10  10    3.98    1.23
   5  10  10    3.73    0.41
  -5  10 -10    4.26    0.79
   6 -10  10    3.57    1.41
   6  10  10    3.35    0.40
   6  10  10    3.90    1.26
  -6  10 -10    2.40    0.66
   7 -10  10    6.67    1.86
  -7  10 -10   11.02    1.34
   7  10  10   10.81    0.73
   8 -10  10   20.52    3.24
   8  10  10   24.35    1.35
  -8  10 -10   24.56    1.97
   9 -11 -10   27.41    3.73
   9 -11 -10   36.79    2.97
   9  11 -10   32.62    3.07
   9  11 -10   35.41    2.41
   8 -11 -10    0.56    0.49
   8 -11 -10   -1.56    0.76
   8  11 -10    0.41    0.40
   7 -11 -10   11.82    1.34
   7 -11 -10   10.74    2.19
   7  11 -10   11.42    1.15
   6 -11 -10    6.29    1.68
   6  11 -10    8.51    1.05
   5 -11 -10   27.54    3.18
  -5  11  10   30.24    1.52
   5  11 -10   31.33    2.09
   4 -11 -10   -0.32    0.87
  -4  11  10    0.39    0.16
   4  11 -10    0.38    0.33
   3 -11 -10   25.32    2.96
  -3  11  10   26.43    1.30
   3  11 -10   23.66    1.76
   2 -11 -10    4.46    1.45
   2  11 -10    3.88    0.67
  -2  11  10    4.47    0.38
  -1 -11  10   39.48    3.63
   1 -11 -10   37.50    3.91
  -1  11  10   42.85    1.96
   1  11 -10   40.00    2.53
   0 -11  10    0.76    0.84
   0 -11 -10    0.30    0.96
   0  11  10    0.28    0.16
   0  11 -10    0.21    0.29
   1 -11  10   16.63    2.50
  -1 -11 -10   14.83    2.59
   1  11  10   18.83    0.97
  -1  11 -10   15.83    1.33
  -2 -11 -10    4.08    1.56
   2 -11  10    5.18    1.52
  -2  11 -10    5.42    0.79
   2  11  10    5.90    0.47
   3 -11  10   17.00    2.77
  -3 -11 -10   20.11    3.14
   3  11  10   20.36    1.10
  -3  11 -10   20.60    1.57
  -4 -11 -10    0.58    1.25
   4 -11  10   -0.08    0.79
   4  11  10    0.57    0.20
  -4  11 -10    0.49    0.41
   5 -11  10   25.09    3.20
   5  11  10   33.99    3.05
   5  11  10   29.66    1.52
  -5  11 -10   28.18    2.08
   6 -11  10    9.18    2.08
   6  11  10   13.03    0.79
  -6  11 -10    9.90    1.26
   7 -11  10    9.75    2.17
  -7  11 -10    8.79    1.19
   7  11  10   10.35    0.72
   8 -11  10    1.45    1.18
   8  11  10    1.16    0.31
  -8  11 -10    1.06    0.57
   8 -12 -10   34.05    3.82
   8 -12 -10   36.21    3.01
   8  12 -10   38.99    2.56
   7 -12 -10   -0.56    0.97
   7 -12 -10    0.85    0.49
   7  12 -10    0.55    0.39
   6 -12 -10    2.25    1.27
   6  12 -10    2.49    0.59
   5 -12 -10    1.24    1.11
   5  12 -10    2.32    0.57
  -5  12  10    2.57    0.34
   4 -12 -10   65.96    5.55
   4  12 -10   63.88    3.85
  -4  12  10   68.64    3.09
   3 -12 -10    1.18    1.08
   3  12 -10    0.42    0.33
  -3  12  10    0.16    0.15
   2 -12 -10   -0.40    0.83
  -2  12  10   -0.03    0.14
   2  12 -10   -0.03    0.29
   1 -12 -10   -0.35    0.90
  -1 -12  10   -0.18    0.65
  -1  12  10    0.00    0.15
   1  12 -10    0.40    0.33
   0 -12  10   81.83    5.96
   0 -12 -10   73.53    6.13
   0  12 -10   67.89    4.19
   0  12  10   76.88    3.43
  -1 -12 -10    2.73    1.47
   1 -12  10    2.59    1.11
  -1  12 -10    2.35    0.55
   1  12  10    2.44    0.32
  -2 -12 -10    1.05    1.19
   2 -12  10   -0.69    0.66
  -2  12 -10   -0.01    0.28
   2  12  10    0.11    0.16
   3 -12  10    0.94    1.06
  -3 -12 -10    1.94    1.38
   3  12  10    2.08    0.31
  -3  12 -10    2.14    0.58
  -4 -12 -10   26.51    3.78
   4 -12  10   22.35    2.94
   4  12  10   26.11    1.37
  -4  12 -10   28.55    1.96
   5 -12  10    5.82    1.69
  -5  12 -10    4.25    0.83
   5  12  10    5.64    0.49
   6 -12  10    0.88    1.11
  -6  12 -10    1.28    0.55
   6  12  10    0.88    0.26
   7 -12  10   -0.55    0.87
  -7  12 -10    0.72    0.49
   7  12  10    0.84    0.26
   8 -13 -10    0.03    0.45
   8 -13 -10   -0.18    1.08
   8  13 -10    0.00    0.38
   7 -13 -10   10.44    1.25
   7 -13 -10    5.93    1.82
   7  13 -10   10.99    1.26
   6 -13 -10   -0.23    0.96
  -6  13  10    0.23    0.18
   6  13 -10    0.32    0.36
   5 -13 -10   32.15    3.68
   5  13 -10   34.16    2.36
  -5  13  10   36.94    1.78
   4 -13 -10    3.05    1.50
  -4  13  10    3.62    0.40
   4  13 -10    3.59    0.69
   3 -13 -10   47.75    4.56
   3  13 -10   48.01    2.95
  -3  13  10   47.51    2.28
   2 -13 -10   -0.24    0.88
  -2  13  10    0.26    0.19
   2  13 -10    0.07    0.29
   1 -13 -10   35.94    4.02
  -1 -13  10   38.49    3.56
   1  13 -10   38.19    2.50
  -1  13  10   42.04    1.95
   0 -13  10    1.21    0.95
   0 -13 -10    1.22    1.28
   0  13  10    0.85    0.23
   0  13 -10    1.19    0.43
   1 -13  10   22.95    2.67
  -1 -13 -10   17.51    3.09
   1  13  10   23.74    1.19
  -1  13 -10   19.52    1.59
   2 -13  10    0.87    0.95
  -2 -13 -10    0.11    1.19
   2  13  10    1.37    0.27
  -2  13 -10    1.72    0.52
  -3 -13 -10   14.79    2.94
   3 -13  10   16.21    2.67
   3  13  10   16.46    0.96
  -3  13 -10   16.55    1.39
  -4 -13 -10    1.21    1.42
   4 -13  10    0.19    0.96
  -4  13 -10    0.74    0.45
   4  13  10    0.35    0.19
   5 -13  10   29.34    3.43
  -5  13 -10   28.96    2.16
   5  13  10   31.41    1.60
   6 -13  10    0.39    0.98
   6  13  10    0.55    0.23
  -6  13 -10    0.73    0.50
   7 -13  10    4.16    1.60
   7  13  10    7.67    0.62
  -7  13 -10    6.25    1.06
   7 -14 -10    4.32    1.67
   7 -14 -10    4.89    0.96
   7  14 -10    4.25    0.81
   6 -14 -10    1.20    0.54
   6 -14 -10    0.93    1.21
  -6  14  10    0.94    0.25
   6  14 -10    0.86    0.45
   5 -14 -10    1.92    1.38
  -5  14  10    2.65    0.35
   5  14 -10    2.28    0.60
   4 -14 -10   34.33    3.88
  -4  14  10   36.19    1.78
   4  14 -10   34.39    2.36
   3 -14 -10    0.97    1.24
  -3  14  10    2.78    0.35
   3  14 -10    2.33    0.58
   2 -14 -10    1.46    1.26
  -2  14  10    1.34    0.27
   2  14 -10    1.89    0.51
   1 -14 -10   -0.07    1.03
   1  14 -10    0.79    0.39
  -1  14  10    0.64    0.22
   0 -14 -10   85.33    7.32
   0  14  10   96.90    4.19
   0  14 -10   87.54    5.08
  -1 -14 -10    1.01    1.38
   1 -14  10    1.75    1.05
   1  14  10    1.92    0.31
  -1  14 -10    2.18    0.57
   2 -14  10    1.30    1.05
  -2 -14 -10    1.15    1.47
  -2  14 -10    3.31    0.68
   2  14  10    3.62    0.40
  -3 -14 -10    1.44    1.52
   3 -14  10    1.07    1.04
  -3  14 -10    1.93    0.57
   3  14  10    2.28    0.34
  -4 -14 -10   36.51    4.80
   4 -14  10   34.59    3.82
   4  14  10   39.35    1.90
  -4  14 -10   36.03    2.48
   5 -14  10    3.30    1.42
   5  14  10    5.08    0.51
  -5  14 -10    4.26    0.82
   6 -14  10    1.38    1.13
   6  14  10    1.32    0.30
  -6  14 -10    0.68    0.50
   7 -15 -10   10.02    1.22
   7 -15 -10    6.72    2.05
   7  15 -10    6.35    1.01
   6 -15 -10    9.18    2.28
   6 -15 -10    9.64    1.20
   6  15 -10   10.97    1.27
  -6  15  10    9.82    0.70
   5 -15 -10    8.58    2.28
   5  15 -10   11.43    1.14
  -5  15  10    9.80    0.70
   4 -15 -10    0.08    1.14
   4  15 -10    0.10    0.33
  -4  15  10    0.20    0.19
   3 -15 -10   10.28    2.40
  -3  15  10   14.41    0.85
   3  15 -10   12.50    1.22
   2 -15 -10   15.54    2.96
   2  15 -10   15.15    1.33
  -2  15  10   16.31    0.95
   1 -15 -10   34.81    4.01
   1  15 -10   30.80    2.14
  -1  15  10   31.79    1.62
   0 -15 -10    0.47    1.27
   0  15  10    0.38    0.21
   0  15 -10    0.37    0.35
  -1 -15 -10   15.12    3.07
   1  15  10   17.32    0.96
  -1  15 -10   13.90    1.30
  -2 -15 -10   15.97    3.12
   2 -15  10   10.96    2.24
   2  15  10   16.74    0.95
  -2  15 -10   15.78    1.35
  -3 -15 -10    9.06    2.50
   3 -15  10    7.82    1.93
  -3  15 -10   10.19    1.19
   3  15  10   10.45    0.71
  -4 -15 -10    0.48    1.38
   4 -15  10    0.20    0.99
  -4  15 -10   -0.20    0.35
   4  15  10    0.44    0.21
   5 -15  10    9.12    2.10
  -5  15 -10    9.59    1.19
   5  15  10   10.09    0.71
   6 -16 -10    1.64    0.62
   6 -16 -10    0.12    1.26
   6  16 -10    1.28    0.54
  -6  16  10    0.93    0.26
   5 -16 -10    5.81    1.99
   5 -16 -10    8.45    1.19
   5  16 -10    6.34    0.97
  -5  16  10    7.94    0.60
   4 -16 -10    7.72    2.26
  -4  16  10   15.65    0.92
   4  16 -10   15.71    1.38
   3 -16 -10   18.79    3.38
  -3  16  10   27.21    1.40
   3  16 -10   25.99    1.92
   2 -16 -10   -0.97    0.95
   2  16 -10   -0.15    0.32
  -2  16  10    0.12    0.18
   1 -16 -10    5.05    1.98
   1  16 -10    4.35    0.77
  -1  16  10    4.47    0.48
   0 -16 -10   24.56    3.90
   0  16 -10   24.12    1.89
   0  16  10   29.29    1.45
  -1 -16 -10   10.49    2.70
   1  16  10    9.61    0.67
  -1  16 -10    8.62    1.07
  -2 -16 -10   -0.06    1.44
  -2  16 -10   -0.29    0.31
   2  16  10    0.17    0.19
  -3 -16 -10   11.39    2.82
  -3  16 -10   12.29    1.24
   3  16  10   13.28    0.84
  -4 -16 -10   21.19    3.63
   4 -16  10   16.49    2.78
  -4  16 -10   17.54    1.53
   4  16  10   18.43    1.08
   5 -16  10    4.06    1.56
  -5  16 -10    5.63    0.93
   5  16  10    6.16    0.54
   5 -17 -10    9.67    1.18
   5 -17 -10    7.20    2.20
  -5  17  10   10.27    0.72
   5  17 -10   10.55    1.27
   4 -17 -10    0.02    1.23
   4 -17 -10    1.51    0.53
  -4  17  10    0.75    0.25
   4  17 -10    0.55    0.41
   3 -17 -10    7.42    2.28
   3  17 -10    5.39    0.89
  -3  17  10    6.61    0.56
   2 -17 -10   27.45    4.34
   2  17 -10   36.79    2.43
  -2  17  10   36.62    1.83
   1 -17 -10    5.70    2.18
   1  17 -10    5.33    0.85
  -1  17  10    5.09    0.53
   0 -17 -10    0.21    1.39
   0  17 -10    0.11    0.35
   0  17  10    0.08    0.20
  -1 -17 -10    4.77    2.01
   1  17  10    3.10    0.42
  -1  17 -10    3.60    0.71
  -2 -17 -10   42.71    5.62
   2  17  10   42.83    2.14
  -2  17 -10   43.84    2.80
  -3 -17 -10    7.75    2.49
   3  17  10    6.62    0.57
  -3  17 -10    5.87    0.94
  -4 -17 -10    1.00    1.37
  -4  17 -10   -0.14    0.39
   4  17  10    0.20    0.22
   4 -18 -10    2.11    1.71
  -4  18  10    5.08    0.53
   3 -18 -10   15.61    3.34
   3  18 -10   19.29    1.62
  -3  18  10   20.29    1.15
   2 -18 -10   -0.16    1.34
   2  18 -10    0.49    0.42
  -2  18  10    0.31    0.22
   1 -18 -10   18.41    3.55
   1  18 -10   15.52    1.43
  -1  18  10   18.25    1.05
   0 -18 -10    5.48    2.19
   0  18 -10    4.31    0.78
   0  18  10    3.79    0.46
  -1 -18 -10   14.92    3.38
   1  18  10   15.89    0.95
  -1  18 -10   13.05    1.30
  -2 -18 -10   -0.35    1.30
  -2  18 -10   -0.39    0.33
   2  18  10    0.16    0.20
  10   0 -11   -0.28    0.60
  10   0 -11   -0.14    0.43
   9   0 -11   13.33    1.99
   8   0 -11   -0.18    0.56
   7   0 -11   60.75    4.57
   6   0 -11    0.06    0.46
   5   0 -11   23.40    2.28
   4   0 -11   -0.08    0.22
   4   0 -11   -0.37    0.38
   3   0 -11  116.38    6.19
   3   0 -11  123.03    7.77
   2   0 -11   -0.72    0.31
   2   0 -11    0.35    0.28
   1   0 -11   -0.14    0.24
   1   0 -11    0.01    0.40
   0   0 -11   -0.07    0.44
   0   0 -11    0.17    0.31
   0   0  11    0.32    0.64
  -1   0 -11  107.52    6.01
   1   0  11  122.00    8.25
  -1   0 -11  111.49    7.30
   2   0  11    0.53    0.73
  -2   0 -11   -0.08    0.32
  -2   0 -11   -0.01    0.43
   3   0  11    2.45    1.04
  -3   0 -11    2.53    0.83
  -3   0 -11    1.76    0.53
  -4   0 -11   -0.42    0.35
   4   0  11   -0.53    0.74
  -5   0 -11   64.41    3.92
   5   0  11   65.67    5.55
   6   0  11   -0.96    0.70
  -6   0 -11   -0.19    0.44
  -7   0 -11    1.77    0.70
   7   0  11    0.68    0.92
  -8   0 -11   -0.56    0.43
   8   0  11    0.09    0.98
   9   0  11   39.72    4.43
  -9   0 -11   47.93    3.26
  10  -1 -11    2.71    1.05
  10  -1 -11    3.34    0.87
  10   1 -11    3.12    0.84
  10   1 -11    2.64    0.99
   9  -1 -11    2.34    0.94
   9   1 -11    1.91    0.86
   8  -1 -11   44.69    3.75
   8   1 -11   46.50    3.72
   7  -1 -11   -0.32    0.54
   7   1 -11    0.51    0.65
   6  -1 -11    8.49    1.53
   6   1 -11    9.10    1.52
   5  -1 -11    0.26    0.52
   5   1 -11    0.04    0.44
   5   1 -11    0.40    0.25
   4  -1 -11   78.64    5.47
   4   1 -11   80.01    5.43
   4   1 -11   75.90    4.17
   3  -1 -11    0.09    0.25
   3  -1 -11   -0.28    0.45
   3   1 -11    0.11    0.43
   3   1 -11   -0.03    0.23
   2  -1 -11   32.52    1.94
   2  -1 -11   32.54    2.78
   2   1 -11   28.97    2.64
   2   1 -11   32.04    1.96
   1  -1 -11    3.71    0.57
   1  -1 -11    3.43    0.93
   1   1 -11    3.18    0.87
   1   1 -11    3.58    0.58
   0  -1 -11  106.80    5.68
   0  -1  11  108.06    7.78
   0  -1 -11  105.63    7.02
   0   1 -11  107.89    6.97
   0   1 -11  106.60    5.70
  -1  -1 -11    0.53    0.57
   1  -1  11   -0.28    0.50
  -1  -1 -11    0.09    0.33
  -1   1 -11   -0.32    0.30
   1   1  11    0.90    0.79
  -1   1 -11    0.06    0.45
  -2  -1 -11   30.61    2.10
  -2  -1 -11   32.63    2.78
   2  -1  11   34.37    3.28
  -2   1 -11   31.53    2.13
   2   1  11   35.18    3.26
  -2   1 -11   33.75    2.72
   3  -1  11    6.09    1.58
  -3  -1 -11    6.47    1.26
  -3  -1 -11    5.98    0.86
  -3   1 -11    6.97    0.94
   3   1  11    6.14    1.53
  -3   1 -11    4.04    0.99
  -4  -1 -11   64.08    3.89
   4  -1  11   67.12    5.57
  -4   1 -11   66.25    3.91
   4   1  11   67.73    5.52
   5  -1  11    0.18    0.84
  -5  -1 -11    0.02    0.45
   5   1  11    0.79    0.93
  -5   1 -11    0.28    0.49
   6  -1  11   32.72    3.58
  -6  -1 -11   33.33    2.39
   6   1  11   34.52    3.57
  -6   1 -11   30.88    2.34
  -7  -1 -11    1.50    0.65
   7  -1  11    2.04    1.22
  -7   1 -11    1.74    0.69
   7   1  11    1.27    1.16
  -8  -1 -11   17.05    1.68
   8  -1  11   17.19    2.91
   8   1  11   16.70    2.82
  -8   1 -11   15.99    1.64
   9  -1  11    0.70    1.18
  -9  -1 -11   -0.01    0.54
   9   1  11    0.47    1.12
  -9   1 -11    0.08    0.57
  10  -2 -11   12.30    1.44
  10  -2 -11    7.51    1.66
  10   2 -11   11.34    1.36
  10   2 -11    9.62    1.69
   9  -2 -11   11.76    1.95
   9   2 -11   13.87    1.93
   8  -2 -11    3.47    1.12
   8   2 -11    5.58    1.22
   7  -2 -11   50.19    3.96
   7   2 -11   47.32    3.80
   6  -2 -11   10.85    1.73
   6   2 -11    8.57    1.45
   5  -2 -11   18.92    2.01
   5   2 -11   16.97    1.22
   5   2 -11   15.71    1.82
   4  -2 -11    0.38    0.56
   4   2 -11    0.66    0.30
   4   2 -11    1.12    0.62
   3  -2 -11  104.70    7.11
   3  -2 -11  108.60    5.56
   3   2 -11  109.76    7.05
   3   2 -11  104.61    5.62
   2  -2 -11   20.23    1.36
   2  -2 -11   19.98    2.11
   2   2 -11   20.46    1.42
   2   2 -11   21.63    2.08
   1  -2 -11    3.45    0.55
   1  -2 -11    3.32    0.93
   1   2 -11    2.43    0.81
   1   2 -11    2.93    0.55
   0  -2  11    4.38    1.26
   0  -2 -11    5.44    1.19
   0  -2 -11    3.79    0.63
   0   2 -11    4.92    0.71
   0   2 -11    5.54    1.08
   1  -2  11   89.75    7.38
  -1  -2 -11  105.47    6.82
  -1  -2 -11  107.79    5.50
  -1   2 -11   98.90    6.61
  -1   2 -11  101.17    5.50
   1   2  11  106.45    7.49
  -2  -2 -11   18.99    1.44
  -2  -2 -11   18.55    2.00
   2  -2  11   19.09    2.34
  -2   2 -11   17.81    1.82
   2   2  11   16.70    2.16
  -2   2 -11   18.78    1.44
  -3  -2 -11    1.40    0.50
   3  -2  11    1.10    0.82
  -3  -2 -11   -0.11    0.55
  -3   2 -11    1.05    0.58
   3   2  11    0.75    0.81
  -3   2 -11    1.45    0.51
  -4  -2 -11    7.15    1.01
   4  -2  11    7.93    1.85
  -4   2 -11    6.41    0.96
   4   2  11    7.54    1.72
   5  -2  11  106.12    8.01
  -5  -2 -11  105.10    5.77
   5   2  11   98.68    7.75
  -5   2 -11   99.14    5.74
   6  -2  11    7.95    1.89
  -6  -2 -11    7.62    1.13
  -6   2 -11    8.48    1.19
   6   2  11    7.09    1.76
   7  -2  11    0.22    0.93
  -7  -2 -11    0.63    0.55
  -7   2 -11    0.16    0.48
   7   2  11    0.02    0.83
   8  -2  11    5.46    1.79
  -8  -2 -11    7.07    1.23
  -8   2 -11    5.78    1.07
   8   2  11    6.33    1.84
   9  -2  11   28.40    3.77
  -9  -2 -11   38.08    2.82
  -9   2 -11   37.72    2.77
   9   2  11   38.06    4.04
  10  -3 -11    7.05    1.22
  10  -3 -11    7.20    1.60
  10   3 -11    3.65    1.11
  10   3 -11    6.19    1.11
   9  -3 -11   30.90    2.94
   9   3 -11   26.04    2.61
   8  -3 -11   47.98    3.97
   8   3 -11   46.21    3.72
   7  -3 -11    3.70    1.16
   7   3 -11    2.94    0.96
   6  -3 -11    6.67    1.37
   6   3 -11    7.06    0.80
   6   3 -11    6.99    1.33
   5  -3 -11   23.61    2.34
   5   3 -11   20.89    1.48
   5   3 -11   23.70    2.24
   4  -3 -11   19.13    2.10
   4   3 -11   20.49    1.38
   4   3 -11   19.53    2.00
   3  -3 -11    7.99    1.45
   3   3 -11    9.16    1.49
   3   3 -11    9.44    0.85
   2  -3 -11   27.21    2.65
   2  -3 -11   29.92    1.82
   2   3 -11   32.19    2.66
   2   3 -11   30.10    1.90
   1  -3 -11   53.89    3.97
   1  -3 -11   50.44    2.87
   1   3 -11   50.51    3.78
   1   3 -11   49.18    2.94
   0  -3 -11   74.14    5.36
   0  -3 -11   80.93    4.18
   0  -3  11   78.10    5.95
   0   3 -11   72.25    4.19
   0   3 -11   74.99    5.19
  -1  -3 -11    0.00    0.31
   1  -3  11    0.43    0.72
  -1  -3 -11    0.33    0.61
  -1   3 -11    0.53    0.36
  -1   3 -11    0.28    0.46
   1   3  11   -0.43    0.54
  -2  -3 -11   22.90    1.66
   2  -3  11   28.43    2.89
  -2  -3 -11   23.24    2.37
   2   3  11   24.47    2.58
  -2   3 -11   23.03    2.12
  -2   3 -11   21.95    1.67
  -3  -3 -11   37.84    2.47
  -3  -3 -11   41.81    3.40
   3  -3  11   39.83    3.79
  -3   3 -11   37.89    3.00
   3   3  11   38.74    3.58
  -3   3 -11   38.33    2.51
  -4  -3 -11   47.47    3.03
   4  -3  11   51.63    4.59
  -4   3 -11   47.17    3.04
   4   3  11   49.67    4.34
   5  -3  11    2.65    1.25
  -5  -3 -11    2.11    0.65
  -5   3 -11    3.67    0.76
   5   3  11    3.14    1.19
  -6  -3 -11   26.03    2.10
   6  -3  11   28.09    3.31
   6   3  11   30.06    3.20
  -6   3 -11   27.29    2.11
  -7  -3 -11   24.65    2.02
   7  -3  11   22.86    3.36
  -7   3 -11   22.98    1.94
   7   3  11   23.34    2.93
  -8  -3 -11   12.74    1.62
   8  -3  11   13.60    2.63
   8   3  11   14.50    2.61
  -8   3 -11   12.81    1.58
   9  -3  11    1.03    1.26
  -9  -3 -11    0.68    0.67
  -9   3 -11    1.19    0.70
   9   3  11    0.66    1.16
  10  -4 -11   28.04    2.46
  10  -4 -11   24.84    2.82
  10   4 -11   26.05    2.31
  10   4 -11   23.90    2.51
   9  -4 -11    9.30    1.82
   9   4 -11   10.42    1.64
   8  -4 -11    7.07    1.56
   8   4 -11    9.92    1.58
   7  -4 -11   24.44    2.63
   7   4 -11   25.92    2.45
   7   4 -11   25.47    1.71
   6  -4 -11   49.88    4.12
   6   4 -11   52.74    3.99
   6   4 -11   51.76    2.99
   5  -4 -11    1.44    0.82
   5   4 -11    2.02    0.46
   5   4 -11    1.87    0.72
   4  -4 -11    9.79    1.69
   4   4 -11   11.38    1.62
   4   4 -11   12.36    1.00
   3  -4 -11   19.98    2.17
   3   4 -11   21.27    2.04
   3   4 -11   18.57    1.37
   2  -4 -11   46.41    3.75
   2   4 -11   45.97    3.56
   2   4 -11   46.66    2.72
   1  -4 -11    1.32    0.74
   1  -4 -11    0.98    0.36
   1   4 -11    0.76    0.56
   1   4 -11    1.71    0.45
   0  -4  11   27.54    2.83
   0  -4 -11   30.32    2.69
   0  -4 -11   26.93    1.73
   0   4 -11   25.62    1.78
   0   4 -11   23.33    2.29
   1  -4  11   55.53    4.76
  -1  -4 -11   55.66    4.35
  -1  -4 -11   60.45    3.28
  -1   4 -11   56.28    4.08
  -1   4 -11   54.56    3.30
  -2  -4 -11   25.82    2.61
   2  -4  11   22.78    2.77
  -2  -4 -11   28.13    1.82
  -2   4 -11   27.37    2.31
   2   4  11   23.84    2.63
  -2   4 -11   25.72    1.83
   3  -4  11   -0.15    0.75
  -3  -4 -11    0.54    0.71
  -3  -4 -11   -0.08    0.33
  -3   4 -11   -0.05    0.35
   3   4  11    0.33    0.73
  -3   4 -11   -0.44    0.37
  -4  -4 -11   14.03    1.30
   4  -4  11   15.25    2.52
   4   4  11   15.71    2.31
  -4   4 -11   12.56    1.27
   5  -4  11   20.60    3.00
  -5  -4 -11   20.55    1.65
  -5   4 -11   17.43    1.57
   5   4  11   18.02    2.69
  -6  -4 -11   16.97    1.57
   6  -4  11   15.79    2.72
  -6   4 -11   15.91    1.52
   6   4  11   15.14    2.54
  -7  -4 -11    0.46    0.53
   7  -4  11    1.28    1.11
   7   4  11    0.41    0.98
  -7   4 -11    0.63    0.54
   8  -4  11   21.67    3.27
  -8  -4 -11   18.33    1.82
   8   4  11   20.10    3.07
  -8   4 -11   20.01    1.81
  10  -5 -11    0.65    0.96
  10  -5 -11    0.66    0.62
  10   5 -11    0.69    0.56
  10   5 -11    0.77    0.68
   9  -5 -11   44.63    4.01
   9  -5 -11   48.75    3.63
   9   5 -11   42.97    3.67
   8  -5 -11    1.33    0.96
   8   5 -11    1.88    0.80
   7  -5 -11    7.45    1.60
   7   5 -11    7.14    1.38
   7   5 -11    9.71    0.91
   6  -5 -11    1.81    0.93
   6   5 -11    2.41    0.52
   6   5 -11    2.11    0.81
   5  -5 -11   68.34    4.96
   5   5 -11   61.13    3.59
   5   5 -11   65.30    4.69
   4  -5 -11    3.28    1.04
   4   5 -11    2.27    0.48
   4   5 -11    2.00    0.75
   3  -5 -11   -0.31    0.50
   3   5 -11    0.18    0.26
   3   5 -11    0.01    0.43
   2  -5 -11    4.92    1.26
   2   5 -11    3.52    0.95
   2   5 -11    4.20    0.63
   1  -5 -11   83.68    6.11
   1  -5 -11   90.06    4.65
   1   5 -11   85.54    4.76
   1   5 -11   88.84    5.91
   0  -5 -11   39.32    3.50
   0  -5 -11   41.76    2.45
   0  -5  11   46.67    3.92
   0   5 -11   42.22    2.56
   0   5 -11   38.81    3.23
  -1  -5 -11   -0.18    0.54
   1  -5  11    0.22    0.75
  -1  -5 -11    0.58    0.35
  -1   5 -11    0.34    0.35
  -1   5 -11   -0.12    0.41
  -2  -5 -11    1.64    0.48
   2  -5  11    2.78    1.15
  -2  -5 -11    2.49    1.03
  -2   5 -11    1.59    0.51
   2   5  11    3.26    1.05
  -2   5 -11    1.47    0.67
  -3  -5 -11   74.23    4.11
   3  -5  11   74.52    6.00
  -3  -5 -11   66.88    5.32
  -3   5 -11   67.89    4.85
   3   5  11   72.38    5.62
  -3   5 -11   72.12    4.14
   4  -5  11    0.63    0.94
  -4  -5 -11    0.46    0.42
   4   5  11    0.15    0.67
  -4   5 -11   -0.23    0.34
  -5  -5 -11    1.76    0.59
   5  -5  11    0.87    1.05
   5   5  11    0.75    0.90
  -5   5 -11    0.60    0.48
   6  -5  11    3.97    1.50
  -6  -5 -11    4.38    0.91
  -6   5 -11    3.91    0.83
   6   5  11    2.96    1.29
  -7  -5 -11   42.11    2.88
   7  -5  11   35.33    4.05
  -7   5 -11   40.12    2.80
   7   5  11   41.88    4.03
   8  -5  11    1.72    1.19
  -8  -5 -11    2.95    0.86
  -8   5 -11    0.51    0.57
   8   5  11    2.06    1.30
  10  -6 -11   52.94    4.60
  10  -6 -11   54.55    4.20
   9  -6 -11   -0.67    0.75
   9  -6 -11    0.16    0.45
   9   6 -11   -0.52    0.47
   8  -6 -11   11.91    2.09
   8   6 -11   12.83    1.87
   8   6 -11   12.56    1.14
   7  -6 -11   -0.59    0.58
   7   6 -11   -0.56    0.37
   7   6 -11   -0.03    0.25
   6  -6 -11   55.05    4.51
   6   6 -11   52.04    4.18
   6   6 -11   58.59    3.27
   5  -6 -11    5.06    1.30
   5   6 -11    5.11    0.73
   5   6 -11    4.23    1.10
   4  -6 -11   16.13    2.26
   4   6 -11   15.65    1.25
   4   6 -11   17.19    1.86
   3  -6 -11    0.27    0.60
   3   6 -11    0.51    0.31
   3   6 -11    0.28    0.49
   2  -6 -11   34.97    3.15
   2   6 -11   32.37    2.10
   2   6 -11   34.02    2.86
   1  -6 -11    2.64    1.01
   1   6 -11    2.46    0.86
   1   6 -11    3.71    0.60
   0  -6  11   43.57    3.73
   0  -6 -11   38.96    3.44
   0  -6 -11   38.63    2.29
   0   6 -11   35.97    2.38
   0   6 -11   38.13    3.11
  -1  -6 -11    7.24    1.57
   1  -6  11    5.71    1.52
  -1  -6 -11    8.46    0.83
  -1   6 -11    8.22    1.36
  -1   6 -11    8.34    0.96
   2  -6  11   73.93    6.25
  -2  -6 -11   84.59    4.40
  -2  -6 -11   74.89    5.79
  -2   6 -11   77.01    4.43
  -2   6 -11   79.21    5.34
  -3  -6 -11   -0.02    0.91
  -3  -6 -11    1.28    0.49
   3  -6  11    0.73    0.95
   3   6  11    1.14    0.82
  -3   6 -11    0.37    0.52
  -3   6 -11    0.84    0.45
   4  -6  11   44.56    4.26
  -4  -6 -11   42.06    2.70
  -4   6 -11   40.45    2.71
   4   6  11   42.10    3.80
  -5  -6 -11    0.17    0.40
   5  -6  11   -0.33    0.86
  -5   6 -11   -0.39    0.37
   5   6  11    0.94    0.88
  -6  -6 -11   30.69    2.21
   6  -6  11   26.57    3.29
   6   6  11   31.04    3.18
  -6   6 -11   25.90    2.10
   7  -6  11    0.21    0.98
  -7  -6 -11    0.65    0.57
  -7   6 -11    1.07    0.59
   7   6  11    0.66    1.01
  -8  -6 -11   25.35    2.18
   8  -6  11   22.33    3.45
   8   6  11   23.68    3.38
  -8   6 -11   27.94    2.16
   9  -7 -11   41.12    3.10
   9  -7 -11   28.96    3.37
   9   7 -11   34.65    3.13
   8  -7 -11    0.49    0.89
   8   7 -11    2.95    0.95
   8   7 -11    1.65    0.49
   7  -7 -11    3.72    1.24
   7   7 -11    3.95    1.02
   7   7 -11    3.82    0.67
   6  -7 -11    1.96    1.00
   6   7 -11    2.93    0.59
   6   7 -11    1.99    0.87
   5  -7 -11   69.90    5.70
   5   7 -11   84.97    5.61
   5   7 -11   78.53    4.36
   4  -7 -11    5.95    1.44
   4   7 -11    7.10    1.32
   4   7 -11    6.39    0.84
   3  -7 -11   19.98    2.36
   3   7 -11   22.63    2.19
   3   7 -11   21.39    1.53
   2  -7 -11    1.08    0.82
   2   7 -11    1.73    0.75
   2   7 -11    1.63    0.45
   1  -7 -11   58.55    4.52
  -1  -7  11   47.96    4.46
   1   7 -11   54.85    3.20
   1   7 -11   58.65    4.13
   0  -7 -11    0.83    0.85
   0  -7  11   -0.33    0.68
   0   7 -11    0.36    0.33
   0   7 -11    0.44    0.56
  -1  -7 -11    0.19    0.76
  -1  -7 -11    0.43    0.34
   1  -7  11   -0.02    0.59
  -1   7 -11    0.41    0.48
  -1   7 -11    0.69    0.40
  -2  -7 -11    0.10    0.93
   2  -7  11    1.44    0.96
  -2  -7 -11    0.44    0.39
  -2   7 -11    1.05    0.65
  -2   7 -11    1.53    0.49
  -3  -7 -11   61.90    5.60
   3  -7  11   81.96    6.33
  -3  -7 -11   75.38    4.24
  -3   7 -11   74.69    5.09
   3   7  11   80.72    5.85
  -3   7 -11   72.35    4.27
  -4  -7 -11    1.35    0.53
   4  -7  11    2.55    1.25
  -4   7 -11    1.34    0.53
   4   7  11    3.06    1.14
  -5  -7 -11   -0.46    0.39
   5  -7  11   -0.01    0.91
   5   7  11    0.41    0.81
  -5   7 -11   -0.36    0.35
   6  -7  11    2.90    1.41
  -6  -7 -11    3.11    0.82
   6   7  11    4.00    1.33
  -6   7 -11    3.63    0.79
   7  -7  11   49.90    5.02
  -7  -7 -11   55.33    3.55
  -7   7 -11   52.99    3.46
   7   7  11   54.46    4.81
  -8  -7 -11    0.09    0.52
   8  -7  11    0.65    1.06
  -8   7 -11    0.34    0.50
   8   7  11    0.03    1.03
   9  -8 -11    1.36    1.22
   9  -8 -11    2.05    0.76
   9   8 -11    3.62    0.69
   9   8 -11    1.92    0.89
   8  -8 -11    3.88    1.41
   8   8 -11    5.69    1.26
   8   8 -11    5.30    0.81
   7  -8 -11    4.93    1.45
   7   8 -11    6.33    1.32
   7   8 -11    6.91    0.91
   6  -8 -11   41.69    3.96
   6   8 -11   47.80    2.84
   6   8 -11   45.74    3.70
   5  -8 -11    0.37    0.82
   5   8 -11    0.39    0.32
   5   8 -11    0.38    0.60
   4  -8 -11   11.41    1.98
   4   8 -11   10.07    1.62
   4   8 -11    9.88    0.98
   3  -8 -11   32.15    3.16
   3   8 -11   31.35    2.05
   2  -8 -11   45.78    4.01
   2   8 -11   46.42    2.78
  -1  -8  11    4.23    1.29
   1  -8 -11    4.81    1.43
   1   8 -11    5.03    0.74
   0  -8  11   22.36    2.44
   0  -8 -11   15.06    2.38
   0   8 -11   16.36    1.34
  -1  -8 -11   11.21    0.97
  -1  -8 -11    8.71    1.85
   1  -8  11   10.87    2.03
  -1   8 -11   11.46    1.07
  -2  -8 -11   38.06    2.25
  -2  -8 -11   33.13    3.50
   2  -8  11   34.59    3.60
  -2   8 -11   33.34    2.29
  -3  -8 -11   -0.25    0.31
   3  -8  11    0.04    0.89
  -3  -8 -11   -0.99    0.85
  -3   8 -11   -0.23    0.31
  -3   8 -11   -0.26    0.38
  -4  -8 -11    7.78    1.95
   4  -8  11    9.69    2.17
  -4  -8 -11   11.16    1.23
   4   8  11   11.79    1.94
  -4   8 -11    9.21    1.16
  -5  -8 -11   17.79    1.53
   5  -8  11   16.95    2.83
  -5   8 -11   14.58    1.43
   5   8  11   18.64    2.57
  -6  -8 -11   17.26    1.55
   6  -8  11   13.37    2.62
  -6   8 -11   14.50    1.45
   6   8  11   18.45    2.63
  -7  -8 -11    0.75    0.58
   7  -8  11    0.21    1.03
   7   8  11    0.33    0.88
  -7   8 -11    0.19    0.49
   8  -8  11   15.29    2.83
  -8   8 -11   16.60    1.64
   8   8  11   18.20    2.81
   9  -9 -11   15.40    2.64
   9  -9 -11   16.05    1.79
   9   9 -11   18.20    2.30
   9   9 -11   17.88    1.49
   8  -9 -11   19.30    2.95
   8  -9 -11   25.96    2.26
   8   9 -11   24.39    2.49
   8   9 -11   24.03    1.81
   7  -9 -11    2.24    1.24
   7   9 -11    4.19    1.09
   7   9 -11    5.71    0.87
   6  -9 -11    3.01    1.26
   6   9 -11    3.48    0.65
   6   9 -11    3.43    1.02
   5  -9 -11   38.00    3.80
   5   9 -11   43.75    2.65
   4  -9 -11   41.84    3.81
   4   9 -11   39.40    2.51
   3  -9 -11    1.20    0.92
   3   9 -11    1.39    0.46
   2  -9 -11    5.60    1.54
   2   9 -11    5.10    0.77
   1  -9 -11   32.04    3.28
  -1  -9  11   32.00    3.11
   1   9 -11   28.79    2.00
   0  -9  11   12.91    2.17
   0  -9 -11   14.94    2.43
   0   9 -11   14.57    1.21
   1  -9  11    1.06    0.90
  -1  -9 -11   -0.47    0.78
  -1   9 -11    0.11    0.32
  -2  -9 -11   10.48    0.98
   2  -9  11    8.95    1.99
  -2  -9 -11    9.19    2.03
  -2   9 -11    8.88    1.07
  -3  -9 -11   29.75    3.40
   3  -9  11   25.47    3.11
  -3  -9 -11   28.71    1.94
  -3   9 -11   27.73    2.00
   4  -9  11   14.68    2.69
  -4  -9 -11   18.13    1.51
   4   9  11   21.25    2.33
  -4   9 -11   17.66    1.51
  -5  -9 -11    0.88    0.50
   5  -9  11    0.79    0.95
   5   9  11    1.89    1.04
  -5   9 -11    0.39    0.45
   6  -9  11   11.07    2.35
  -6  -9 -11   14.52    1.46
  -6   9 -11   14.19    1.39
   6   9  11   14.96    2.37
   7  -9  11   20.69    3.27
   7   9  11   25.49    2.84
  -7   9 -11   23.48    1.95
   8 -10 -11    1.49    1.22
   8 -10 -11    3.25    0.85
   8  10 -11    3.40    1.11
   8  10 -11    3.02    0.69
   7 -10 -11   16.00    2.67
   7  10 -11   18.04    1.53
   7  10 -11   21.60    2.23
   6 -10 -11   13.40    2.31
   6  10 -11   11.88    1.16
   5 -10 -11    2.50    1.29
  -5  10  11    2.22    0.31
   5  10 -11    2.31    0.57
   4 -10 -11    8.01    1.92
  -4  10  11   13.42    0.74
   4  10 -11   11.62    1.12
   3 -10 -11   36.23    3.76
   3  10 -11   41.43    2.57
  -3  10  11   41.66    1.95
   2 -10 -11   10.21    2.03
   2  10 -11   12.26    1.10
  -2  10  11   11.83    0.70
   1 -10 -11   10.41    2.12
  -1 -10  11    7.01    1.64
  -1  10  11   12.03    0.68
   1  10 -11   11.44    1.05
   0 -10  11    2.58    1.18
   0 -10 -11    3.34    1.40
   0  10 -11    3.13    0.62
   1 -10  11   40.60    3.79
  -1 -10 -11   35.55    3.83
  -1  10 -11   36.75    2.42
   2 -10  11    7.04    1.77
  -2 -10 -11    5.50    1.75
  -2  10 -11    7.75    0.98
  -3 -10 -11   -0.11    1.12
  -3 -10 -11   -0.20    0.30
   3 -10  11    0.08    0.93
  -3  10 -11   -0.49    0.27
   4 -10  11    4.67    1.61
  -4  10 -11    4.68    0.84
   5 -10  11   40.74    4.24
   5  10  11   45.58    3.89
  -5  10 -11   38.66    2.71
   6 -10  11    9.54    2.20
  -6  10 -11   12.69    1.45
   6  10  11   13.75    2.23
   7 -10  11    0.24    0.95
  -7  10 -11    1.27    0.60
   8 -11 -11   33.01    2.69
   8 -11 -11   24.79    3.56
   8  11 -11   29.62    2.16
   8  11 -11   29.60    2.90
   7 -11 -11    0.55    1.10
   7  11 -11    2.12    0.59
   6 -11 -11    3.29    1.42
   6  11 -11    3.48    0.69
   5 -11 -11    6.41    1.80
  -5  11  11    7.31    0.54
   5  11 -11    8.71    1.04
   4 -11 -11   47.74    4.52
   4  11 -11   50.80    3.09
  -4  11  11   50.69    2.37
   3 -11 -11    1.00    1.10
  -3  11  11    0.97    0.21
   3  11 -11    0.77    0.41
   2 -11 -11   10.97    2.16
  -2  11  11   11.10    0.67
   2  11 -11    9.63    1.00
  -1 -11  11    5.76    1.53
   1 -11 -11    6.05    1.79
  -1  11  11    6.38    0.48
   1  11 -11    5.93    0.84
   0 -11  11   23.30    2.73
   0 -11 -11   20.86    3.16
   0  11  11   22.81    1.20
   0  11 -11   24.28    1.72
  -1 -11 -11    0.04    1.12
   1 -11  11    0.85    0.93
   1  11  11    0.70    0.20
  -1  11 -11    0.75    0.41
  -2 -11 -11   23.01    3.42
   2 -11  11   25.33    2.97
  -2  11 -11   20.84    1.74
   2  11  11   26.14    1.29
   3 -11  11    8.65    2.02
  -3 -11 -11    9.99    2.44
  -3  11 -11    7.80    1.09
   3  11  11   12.11    0.71
   4 -11  11   19.11    3.00
  -4  11 -11   20.71    1.65
   5 -11  11    1.23    1.17
  -5  11 -11    0.70    0.48
   6 -11  11   21.53    3.25
  -6  11 -11   21.77    1.82
   7 -11  11    4.70    1.66
   7 -12 -11   31.48    2.63
   7 -12 -11   26.44    3.73
   7  12 -11   31.40    2.23
   6 -12 -11    0.64    1.08
   6  12 -11    0.66    0.43
   5 -12 -11    6.92    1.88
  -5  12  11    5.60    0.48
   5  12 -11    5.66    0.86
   4 -12 -11    2.64    1.43
  -4  12  11    2.76    0.34
   4  12 -11    2.18    0.58
   3 -12 -11   49.99    4.83
   3  12 -11   51.75    3.22
  -3  12  11   55.25    2.52
   2 -12 -11    2.04    1.35
  -2  12  11    4.17    0.41
   2  12 -11    3.41    0.66
  -1 -12  11    5.10    1.39
   1 -12 -11    3.21    1.52
  -1  12  11    5.55    0.45
   1  12 -11    5.48    0.81
   0 -12 -11   -0.05    1.08
   0 -12  11   -0.06    0.79
   0  12 -11    1.10    0.42
   0  12  11    0.15    0.18
  -1 -12 -11   52.84    5.16
   1 -12  11   50.36    4.82
  -1  12 -11   54.31    3.37
   1  12  11   60.86    2.66
   2 -12  11    1.82    1.16
  -2 -12 -11    2.02    1.40
  -2  12 -11    1.46    0.54
   2  12  11    1.33    0.26
  -3 -12 -11   -0.01    1.27
   3 -12  11    2.08    1.24
   3  12  11    0.42    0.21
  -3  12 -11    0.63    0.45
   4 -12  11    1.56    1.26
   4  12  11    1.14    0.27
  -4  12 -11    1.41    0.52
   5 -12  11   54.44    5.25
  -5  12 -11   57.53    3.53
   6 -12  11   -0.19    0.97
  -6  12 -11    1.24    0.58
   7 -13 -11   -0.54    1.01
   7 -13 -11    0.42    0.48
   7  13 -11    0.02    0.37
   6 -13 -11    5.24    1.74
   6  13 -11    7.06    0.99
   5 -13 -11   -0.47    0.95
  -5  13  11   -0.09    0.17
   5  13 -11    0.25    0.36
   4 -13 -11   51.19    4.94
   4  13 -11   53.46    3.30
  -4  13  11   54.58    2.56
   3 -13 -11    1.25    1.20
   3  13 -11    1.77    0.53
  -3  13  11    2.38    0.33
   2 -13 -11   18.55    3.06
  -2  13  11   17.02    0.95
   2  13 -11   15.16    1.35
   1 -13 -11   -0.09    1.06
  -1  13  11    0.48    0.22
   1  13 -11    0.17    0.33
   0 -13 -11   52.43    5.10
   0 -13  11   52.11    4.62
   0  13 -11   49.10    3.18
   0  13  11   55.84    2.52
  -1 -13 -11   -1.30    0.95
   1 -13  11   -0.15    0.88
   1  13  11    0.30    0.18
  -1  13 -11    0.37    0.40
  -2 -13 -11   22.40    3.59
   2 -13  11   23.41    2.93
   2  13  11   26.03    1.31
  -2  13 -11   21.98    1.79
   3 -13  11    0.03    1.02
  -3 -13 -11   -0.28    1.34
  -3  13 -11    0.90    0.48
   3  13  11    0.47    0.21
   4 -13  11   22.70    3.39
   4  13  11   25.86    1.36
  -4  13 -11   24.16    1.89
   5 -13  11    0.55    1.11
   5  13  11    1.00    0.26
  -5  13 -11    0.87    0.53
   6 -14 -11    3.18    1.61
  -6  14  11    2.76    0.38
   6  14 -11    3.30    0.71
   5 -14 -11    0.86    1.23
  -5  14  11    1.72    0.30
   5  14 -11    1.97    0.58
   4 -14 -11    0.81    1.22
   4  14 -11   -0.06    0.33
  -4  14  11   -0.16    0.17
   3 -14 -11   49.90    5.01
  -3  14  11   54.04    2.52
   3  14 -11   51.40    3.23
   2 -14 -11    3.83    1.65
   2  14 -11    3.62    0.70
  -2  14  11    3.24    0.39
   1 -14 -11    6.07    1.98
   1  14 -11    6.98    0.94
  -1  14  11    6.56    0.54
   0 -14 -11    4.92    1.85
   0  14  11    3.77    0.44
   0  14 -11    4.45    0.77
  -1 -14 -11   64.37    6.02
   1 -14  11   65.97    5.50
  -1  14 -11   60.14    3.75
   1  14  11   65.07    3.01
  -2 -14 -11    1.78    1.72
   2 -14  11    1.52    1.19
  -2  14 -11    3.05    0.68
   2  14  11    2.11    0.33
  -3 -14 -11    0.45    1.51
   3 -14  11    0.15    1.04
  -3  14 -11    0.35    0.43
   3  14  11    0.29    0.20
   4 -14  11    2.81    1.38
   4  14  11    2.51    0.37
  -4  14 -11    2.22    0.65
   5  14  11   25.28    1.38
  -5  14 -11   24.91    1.96
   5 -15 -11    5.92    2.00
   5  15 -11    8.93    1.14
  -5  15  11    8.40    0.63
   4 -15 -11   13.32    2.75
   4  15 -11   14.57    1.39
  -4  15  11   16.63    0.96
   3 -15 -11   -0.11    1.13
  -3  15  11   -0.07    0.17
   3  15 -11    0.00    0.37
   2 -15 -11    9.20    2.40
   2  15 -11    7.72    1.03
  -2  15  11    8.56    0.63
   1 -15 -11   12.96    2.82
  -1  15  11   14.36    0.88
   1  15 -11   13.75    1.28
   0 -15 -11   18.26    3.38
   0  15 -11   19.85    1.63
   0  15  11   22.43    1.19
  -1 -15 -11    2.43    1.78
   1  15  11    2.60    0.37
  -1  15 -11    1.58    0.53
  -2 -15 -11   15.28    3.25
   2  15  11   18.71    1.06
  -2  15 -11   17.57    1.52
  -3 -15 -11    9.77    2.65
   3 -15  11    5.67    1.86
  -3  15 -11   10.09    1.21
   3  15  11    9.30    0.67
   4 -15  11   10.78    2.39
   4  15  11   16.23    0.97
  -4  15 -11   14.99    1.41
   4 -16 -11   10.98    2.54
  -4  16  11   10.23    0.72
   4  16 -11   10.94    1.29
   3 -16 -11   10.22    2.55
  -3  16  11   13.06    0.84
   3  16 -11   13.27    1.27
   2 -16 -11   18.54    3.33
  -2  16  11   17.32    1.02
   2  16 -11   17.01    1.48
   1 -16 -11    1.01    1.50
   1  16 -11    2.95    0.66
  -1  16  11    2.98    0.40
   0 -16 -11    4.77    2.03
   0  16  11    8.57    0.62
   0  16 -11    6.97    1.01
  -1 -16 -11   16.77    3.49
  -1  16 -11   21.26    1.70
   1  16  11   22.89    1.24
  -2 -16 -11   10.22    2.83
   2  16  11   12.67    0.83
  -2  16 -11   13.53    1.28
  -3 -16 -11    0.64    1.58
   3  16  11    0.44    0.24
  -3  16 -11    0.62    0.47
   3 -17 -11    0.96    1.41
  -3  17  11    0.24    0.22
   3  17 -11    0.69    0.45
   2 -17 -11    2.70    1.73
  -2  17  11    3.49    0.43
   2  17 -11    2.85    0.67
   1 -17 -11   27.11    4.33
   1  17 -11   29.30    2.20
  -1  17  11   34.20    1.69
   0 -17 -11    5.71    2.35
   0  17  11    8.09    0.63
   0  17 -11    7.86    1.06
  -1 -17 -11    0.97    1.72
   1  17  11    2.27    0.37
  -1  17 -11    1.97    0.61
   9   0 -12   -0.29    0.58
   8   0 -12   12.65    1.95
   7   0 -12   -0.34    0.50
   6   0 -12   28.61    2.74
   5   0 -12    0.14    0.57
   4   0 -12   13.47    1.92
   3   0 -12    0.13    0.28
   3   0 -12   -0.39    0.41
   2   0 -12   93.82    5.02
   2   0 -12   93.69    6.40
   1   0 -12    0.01    0.48
   1   0 -12    0.21    0.31
   0   0 -12   19.82    2.12
   0   0 -12   21.43    1.52
  -1   0 -12   -0.31    0.45
  -1   0 -12    0.40    0.36
   1   0  12    1.49    0.84
   2   0  12   74.81    5.94
  -2   0 -12   73.41    5.21
  -2   0 -12   72.30    4.19
  -3   0 -12    0.27    0.41
  -3   0 -12   -0.15    0.53
   3   0  12   -0.62    0.73
   4   0  12   17.75    2.83
  -4   0 -12   21.93    1.71
   5   0  12    0.01    0.92
  -5   0 -12    0.12    0.47
  -6   0 -12   62.04    3.83
   6   0  12   56.87    5.37
  -7   0 -12   -0.03    0.50
   7   0  12   -0.18    1.04
  -8   0 -12    0.55    0.63
   8   0  12    1.48    1.26
   9  -1 -12    1.73    0.92
   9   1 -12    0.66    0.76
   8  -1 -12    1.96    0.92
   8   1 -12    1.95    0.88
   7  -1 -12   46.27    3.89
   7   1 -12   47.35    3.85
   6  -1 -12    2.47    0.94
   6   1 -12    3.61    1.04
   5  -1 -12   10.11    1.70
   5   1 -12    8.29    1.51
   4  -1 -12    0.73    0.59
   4   1 -12    0.71    0.59
   4   1 -12    1.20    0.38
   3  -1 -12  107.38    7.03
   3   1 -12   99.39    5.45
   3   1 -12  103.71    6.93
   2  -1 -12    0.39    0.61
   2  -1 -12    1.65    0.45
   2   1 -12    1.58    0.43
   2   1 -12    0.85    0.62
   1  -1 -12   13.59    1.88
   1  -1 -12   10.14    0.95
   1   1 -12    9.44    0.94
   1   1 -12   11.80    1.68
   0  -1 -12    3.06    0.96
   0  -1 -12    3.17    0.59
   0   1 -12    2.28    0.52
   0   1 -12    4.12    1.04
  -1  -1 -12   56.10    4.17
   1  -1  12   53.79    4.65
  -1  -1 -12   55.61    3.20
   1   1  12   50.25    4.52
  -1   1 -12   54.21    4.05
  -1   1 -12   53.84    3.20
  -2  -1 -12   -0.75    0.45
   2  -1  12    0.62    0.79
  -2  -1 -12    0.30    0.40
  -2   1 -12    0.26    0.40
   2   1  12    0.84    0.83
  -2   1 -12    0.00    0.51
   3  -1  12   14.38    2.44
  -3  -1 -12   13.09    1.28
  -3  -1 -12   14.24    2.00
  -3   1 -12   13.34    1.84
  -3   1 -12   14.97    1.32
   3   1  12   17.44    2.57
   4  -1  12    3.22    1.39
  -4  -1 -12    4.21    0.82
  -4   1 -12    3.10    0.73
   4   1  12    4.27    1.40
   5  -1  12   63.44    5.41
  -5  -1 -12   57.39    3.64
  -5   1 -12   58.24    3.65
   5   1  12   56.00    5.17
  -6  -1 -12    0.40    0.53
   6  -1  12    0.34    1.03
   6   1  12    1.06    1.07
  -6   1 -12    0.83    0.59
  -7  -1 -12   17.62    1.78
   7  -1  12   20.53    3.22
   7   1  12   24.16    2.98
  -7   1 -12   18.81    1.79
  -8  -1 -12    2.22    0.81
   8  -1  12    1.94    1.37
  -8   1 -12    1.76    0.77
   8   1  12    0.91    1.29
   9  -2 -12   10.76    1.90
   9   2 -12    9.91    1.77
   8  -2 -12   17.17    2.38
   8   2 -12   18.75    2.11
   7  -2 -12    1.68    0.87
   7   2 -12    1.01    0.70
   6  -2 -12   26.71    2.69
   6   2 -12   28.27    2.66
   5  -2 -12    9.39    1.71
   5   2 -12   14.81    2.02
   4  -2 -12    1.40    0.72
   4   2 -12    2.57    0.49
   4   2 -12    2.50    0.83
   3  -2 -12    0.00    0.51
   3   2 -12   -0.13    0.41
   3   2 -12    0.25    0.29
   2  -2 -12   84.02    5.84
   2  -2 -12   82.12    4.41
   2   2 -12   78.37    4.46
   2   2 -12   85.19    5.73
   1  -2 -12   14.93    1.19
   1  -2 -12   16.35    1.89
   1   2 -12   14.57    1.19
   1   2 -12   15.79    1.77
   0  -2  12   12.55    2.09
   0  -2 -12   12.35    1.08
   0  -2 -12   10.41    1.77
   0   2 -12   11.90    1.08
   0   2 -12   13.26    1.79
   1  -2  12    4.54    1.35
  -1  -2 -12    4.37    0.71
  -1  -2 -12    4.59    1.14
  -1   2 -12    3.27    0.93
   1   2  12    5.35    1.42
  -1   2 -12    3.68    0.69
  -2  -2 -12   69.11    4.87
   2  -2  12   60.52    5.29
  -2  -2 -12   65.92    3.73
   2   2  12   63.10    5.22
  -2   2 -12   62.50    4.55
  -2   2 -12   60.91    3.71
  -3  -2 -12    9.04    1.68
  -3  -2 -12   11.09    1.24
   3  -2  12   12.83    2.28
   3   2  12    9.29    1.89
  -3   2 -12   11.52    1.65
  -3   2 -12    9.87    1.19
  -4  -2 -12    0.30    0.42
   4  -2  12    0.82    0.98
   4   2  12    1.04    0.95
  -4   2 -12   -0.33    0.36
   5  -2  12    1.72    1.31
  -5  -2 -12    1.89    0.67
   5   2  12    2.83    1.23
  -5   2 -12    2.30    0.71
   6  -2  12   47.78    4.58
  -6  -2 -12   45.57    3.06
   6   2  12   43.99    4.36
  -6   2 -12   42.26    3.00
   7  -2  12   12.83    2.57
  -7  -2 -12   13.95    1.70
  -7   2 -12   14.48    1.69
   7   2  12   15.35    2.73
  -8  -2 -12    0.10    0.54
   8  -2  12   -0.54    0.90
   8   2  12    0.28    1.10
  -8   2 -12    0.27    0.54
   9  -3 -12    4.58    1.36
   9   3 -12    3.67    1.11
   8  -3 -12   21.39    2.49
   8   3 -12   21.63    2.32
   7  -3 -12   36.89    3.40
   7   3 -12   37.39    3.23
   6  -3 -12    9.26    1.72
   6   3 -12    7.31    1.45
   5  -3 -12   11.42    1.86
   5   3 -12   12.67    1.82
   5   3 -12   11.12    0.99
   4  -3 -12   11.09    1.84
   4   3 -12   13.09    1.06
   4   3 -12   14.32    1.97
   3  -3 -12   26.76    2.68
   3   3 -12   28.38    2.60
   3   3 -12   28.84    1.84
   2  -3 -12    8.10    1.57
   2   3 -12   10.16    0.93
   2   3 -12    8.32    1.44
   1  -3 -12   10.69    0.99
   1  -3 -12   12.68    1.90
   1   3 -12   10.40    1.64
   1   3 -12   12.49    1.06
   0  -3  12   48.40    4.15
   0  -3 -12   47.45    2.67
   0  -3 -12   42.24    3.65
   0   3 -12   44.82    3.51
   0   3 -12   40.21    2.67
  -1  -3 -12   52.20    3.08
  -1  -3 -12   48.66    4.08
   1  -3  12   58.32    4.71
  -1   3 -12   49.97    3.10
  -1   3 -12   52.45    3.91
   2  -3  12    0.99    0.93
  -2  -3 -12    0.25    0.38
  -2  -3 -12   -0.72    0.59
  -2   3 -12   -0.08    0.46
   2   3  12    0.72    0.82
  -2   3 -12    0.50    0.41
  -3  -3 -12    6.19    1.46
   3  -3  12    8.83    1.91
  -3  -3 -12    5.10    0.87
   3   3  12    7.68    1.67
  -3   3 -12    6.01    0.92
  -3   3 -12    7.07    1.27
  -4  -3 -12   31.35    2.15
   4  -3  12   30.14    3.38
   4   3  12   31.63    3.24
  -4   3 -12   25.47    2.06
   5  -3  12   20.97    3.24
  -5  -3 -12   24.42    1.91
   5   3  12   21.80    2.75
  -5   3 -12   25.38    1.94
  -6  -3 -12    0.79    0.62
   6  -3  12    1.73    1.19
   6   3  12    1.58    1.17
  -6   3 -12    2.35    0.73
   7  -3  12   20.90    3.28
  -7  -3 -12   19.97    1.87
  -7   3 -12   20.55    1.85
   7   3  12   20.12    3.10
   8  -3  12   23.72    3.53
   8   3  12   20.55    3.31
   9  -4 -12   33.91    3.37
   9   4 -12   33.82    3.12
   8  -4 -12    3.98    1.32
   8   4 -12    4.36    1.13
   7  -4 -12    2.70    1.09
   7   4 -12    3.66    1.04
   6  -4 -12   13.82    2.17
   6   4 -12   14.68    2.05
   6   4 -12   15.00    1.20
   5  -4 -12   51.37    4.25
   5   4 -12   51.25    3.00
   5   4 -12   52.45    4.07
   4  -4 -12    3.60    1.09
   4   4 -12    2.05    0.48
   4   4 -12    1.07    0.66
   3  -4 -12   11.44    1.91
   3   4 -12    9.75    1.57
   3   4 -12   10.63    0.96
   2  -4 -12   28.12    2.86
   2   4 -12   30.38    1.96
   2   4 -12   30.64    2.70
   1  -4 -12   67.36    5.01
   1   4 -12   67.16    3.75
   1   4 -12   62.08    4.70
   0  -4  12    6.36    1.52
   0  -4 -12    5.99    0.76
   0  -4 -12    3.17    1.10
   0   4 -12    5.45    1.15
   0   4 -12    5.18    0.78
   1  -4  12   19.63    2.45
  -1  -4 -12   17.53    1.40
  -1  -4 -12   18.83    2.20
  -1   4 -12   20.84    2.01
  -1   4 -12   17.09    1.42
  -2  -4 -12   40.09    2.57
   2  -4  12   46.90    4.16
  -2  -4 -12   42.85    3.66
  -2   4 -12   40.69    2.62
   2   4  12   40.71    3.79
  -2   4 -12   38.00    3.20
  -3  -4 -12   36.74    2.31
   3  -4  12   31.42    3.50
  -3  -4 -12   33.97    3.22
   3   4  12   30.75    3.27
  -3   4 -12   34.44    2.31
  -3   4 -12   31.31    2.74
   4  -4  12    3.26    1.37
  -4  -4 -12    3.73    0.78
   4   4  12    3.22    1.29
  -4   4 -12    4.13    0.82
   5  -4  12   17.24    2.85
  -5  -4 -12   18.43    1.61
  -5   4 -12   15.28    1.53
   5   4  12   20.39    2.53
   6  -4  12   13.67    2.69
  -6  -4 -12   17.82    1.65
   6   4  12   19.18    2.90
  -6   4 -12   18.44    1.67
  -7  -4 -12    8.22    1.27
   7  -4  12    7.81    2.03
  -7   4 -12    7.44    1.18
   7   4  12    7.15    1.87
   9  -5 -12    0.66    0.99
   9   5 -12   -0.10    0.60
   8  -5 -12   35.48    3.53
   8   5 -12   38.01    3.28
   7  -5 -12    4.20    1.32
   7   5 -12    4.86    1.18
   6  -5 -12   21.52    2.49
   6   5 -12   22.50    1.57
   6   5 -12   19.93    2.20
   5  -5 -12    2.72    1.07
   5   5 -12    1.50    0.44
   5   5 -12    1.39    0.79
   4  -5 -12   56.12    4.41
   4   5 -12   53.81    3.12
   4   5 -12   50.92    4.09
   3  -5 -12   14.76    2.18
   3   5 -12   13.97    1.88
   3   5 -12   13.36    1.13
   2  -5 -12    4.71    1.30
   2   5 -12    4.57    1.10
   2   5 -12    4.96    0.72
   1  -5 -12    6.73    1.53
   1   5 -12    9.10    1.00
   1   5 -12    8.59    1.50
   0  -5  12   94.19    7.00
   0  -5 -12   94.55    4.87
   0  -5 -12   82.77    6.36
   0   5 -12   91.77    6.12
   0   5 -12   84.53    4.92
   1  -5  12   13.28    2.25
  -1  -5 -12   12.20    1.10
  -1  -5 -12   10.12    1.86
  -1   5 -12   11.65    1.12
  -1   5 -12   13.51    1.80
   2  -5  12   11.21    2.15
  -2  -5 -12   11.62    1.98
  -2  -5 -12   11.85    1.11
  -2   5 -12    9.51    1.51
   2   5  12   12.57    2.05
  -2   5 -12   10.84    1.12
  -3  -5 -12    0.55    0.42
   3  -5  12   -0.34    0.85
  -3  -5 -12    0.46    0.92
  -3   5 -12    0.39    0.54
   3   5  12    0.57    0.81
  -3   5 -12    0.59    0.45
   4  -5  12   51.69    4.96
  -4  -5 -12   54.61    3.34
  -4   5 -12   49.95    3.31
   4   5  12   59.12    4.79
   5  -5  12    1.72    1.21
  -5  -5 -12    2.26    0.70
   5   5  12    4.00    1.39
  -5   5 -12    1.32    0.60
  -6  -5 -12    0.24    0.48
   6  -5  12    0.44    0.99
  -6   5 -12    0.12    0.47
   6   5  12    1.15    1.05
  -7  -5 -12    2.44    0.80
   7  -5  12    2.97    1.52
  -7   5 -12    1.46    0.68
   7   5  12    2.88    1.38
   9  -6 -12   54.86    4.95
   9  -6 -12   66.85    4.64
   9   6 -12   56.60    4.62
   8  -6 -12   -0.35    0.77
   8   6 -12   -0.02    0.55
   7  -6 -12    4.54    1.43
   7   6 -12    3.89    1.10
   7   6 -12    4.30    0.70
   6  -6 -12   -0.48    0.59
   6   6 -12   -0.12    0.47
   6   6 -12    0.58    0.35
   5  -6 -12   85.89    6.42
   5   6 -12   91.59    6.17
   5   6 -12   85.08    4.79
   4  -6 -12   -0.29    0.58
   4   6 -12   -0.10    0.54
   4   6 -12    0.26    0.33
   3  -6 -12    4.78    1.29
   3   6 -12    4.50    0.70
   3   6 -12    4.71    1.09
   2  -6 -12   -0.76    0.48
   2   6 -12    0.27    0.32
   2   6 -12    0.18    0.48
   1  -6 -12   42.23    3.70
   1   6 -12   39.02    2.50
   1   6 -12   40.93    3.34
   0  -6 -12    0.76    0.88
   0  -6  12    0.75    0.92
   0   6 -12    0.65    0.62
   0   6 -12    0.49    0.36
  -1  -6 -12   18.37    2.57
   1  -6  12   23.82    2.75
  -1  -6 -12   21.99    1.55
  -1   6 -12   23.91    2.19
  -1   6 -12   18.72    1.56
  -2  -6 -12   -1.03    0.65
  -2  -6 -12    0.43    0.37
   2  -6  12    0.46    0.93
  -2   6 -12    0.10    0.50
  -2   6 -12    0.64    0.44
  -3  -6 -12   64.84    3.69
  -3  -6 -12   55.67    4.97
   3  -6  12   59.29    5.41
   3   6  12   65.75    5.18
  -3   6 -12   62.64    3.73
  -3   6 -12   60.61    4.44
  -4  -6 -12    0.94    0.53
   4  -6  12    1.23    1.14
   4   6  12    1.89    1.02
  -4   6 -12    1.66    0.60
  -5  -6 -12   27.07    2.08
   5  -6  12   29.77    3.44
  -5   6 -12   24.48    2.04
   5   6  12   30.60    3.13
   6  -6  12   -0.38    0.90
  -6  -6 -12   -0.01    0.44
   6   6  12   -0.04    0.84
  -6   6 -12   -0.34    0.43
  -7  -6 -12   36.24    2.67
   7  -6  12   32.62    3.88
  -7   6 -12   33.69    2.58
   7   6  12   36.52    3.77
   8  -7 -12   22.75    3.13
   8   7 -12   31.11    2.82
   7  -7 -12    2.80    1.21
   7   7 -12    3.44    0.65
   7   7 -12    2.47    0.89
   6  -7 -12    9.93    2.00
   6   7 -12   11.74    1.08
   6   7 -12   12.02    1.83
   5  -7 -12   -0.57    0.68
   5   7 -12   -0.59    0.53
   5   7 -12    0.16    0.33
   4  -7 -12   53.63    4.51
   4   7 -12   53.84    4.19
   4   7 -12   53.34    3.17
   3  -7 -12    6.36    1.53
   3   7 -12    7.66    1.47
   3   7 -12    8.47    0.97
   2  -7 -12    7.46    1.62
   2   7 -12   10.14    1.63
   2   7 -12    8.01    0.97
   1  -7 -12    2.87    1.20
   1   7 -12    4.60    1.12
   1   7 -12    2.30    0.56
   0  -7  12   73.27    5.83
   0  -7 -12   65.89    5.44
   0   7 -12   75.20    5.13
   0   7 -12   68.70    4.05
   1  -7  12    2.31    1.16
  -1  -7 -12    2.85    1.26
  -1   7 -12    2.58    0.85
  -1   7 -12    2.19    0.57
  -2  -7 -12    2.94    0.63
  -2  -7 -12    3.30    1.39
   2  -7  12    4.01    1.46
  -2   7 -12    2.86    0.64
  -2   7 -12    3.07    0.89
   3  -7  12    1.74    1.22
  -3  -7 -12   -0.89    0.95
  -3  -7 -12    1.13    0.47
  -3   7 -12    0.71    0.45
  -3   7 -12    0.98    0.66
   3   7  12    0.40    0.80
  -4  -7 -12   54.34    3.22
   4  -7  12   49.53    4.87
   4   7  12   51.85    4.48
  -4   7 -12   47.07    3.18
   5  -7  12    1.04    1.23
  -5  -7 -12    1.02    0.56
   5   7  12    0.73    0.97
  -5   7 -12    1.18    0.57
  -6  -7 -12    0.68    0.57
   6  -7  12   -0.81    0.88
  -6   7 -12    0.89    0.55
   6   7  12    0.22    0.96
  -7  -7 -12    2.98    0.85
   7  -7  12    1.06    1.19
   7   7  12    1.61    1.23
  -7   7 -12    0.20    0.52
   8  -8 -12    3.65    1.47
   8   8 -12    6.25    1.37
   8   8 -12    5.00    0.81
   7  -8 -12    2.13    1.17
   7   8 -12    1.09    0.44
   7   8 -12    1.51    0.79
   6  -8 -12    8.97    1.93
   6   8 -12   10.42    1.05
   6   8 -12   11.55    1.81
   5  -8 -12   40.92    4.03
   5   8 -12   47.82    2.85
   5   8 -12   46.78    3.82
   4  -8 -12    0.53    0.86
   4   8 -12    0.67    0.38
   4   8 -12    0.43    0.66
   3  -8 -12    3.49    1.27
   3   8 -12    4.11    0.70
   3   8 -12    4.18    1.06
   2  -8 -12    6.56    1.66
   2   8 -12    9.93    0.99
   2   8 -12   13.33    1.80
   1  -8 -12   42.17    3.95
   1   8 -12   45.87    3.57
   1   8 -12   42.09    2.67
   0  -8 -12   -1.45    0.66
   0  -8  12    0.85    0.98
   0   8 -12    0.47    0.37
   0   8 -12    0.70    0.68
   1  -8  12   10.79    2.09
  -1  -8 -12    8.43    1.95
  -1   8 -12   12.84    1.79
  -1   8 -12   10.70    1.09
  -2  -8 -12    5.22    0.77
  -2  -8 -12    3.43    1.50
   2  -8  12    2.97    1.32
  -2   8 -12    4.52    1.04
  -2   8 -12    4.66    0.78
  -3  -8 -12   18.55    1.50
  -3  -8 -12   17.61    2.87
   3  -8  12   15.24    2.73
  -3   8 -12   20.48    2.00
  -3   8 -12   18.19    1.54
  -4  -8 -12   -0.12    0.38
   4  -8  12    0.19    0.93
  -4   8 -12    0.50    0.46
   4   8  12    0.65    0.90
  -5  -8 -12   10.75    1.33
   5  -8  12   11.31    2.37
   5   8  12   13.25    2.20
  -5   8 -12    9.94    1.29
  -6  -8 -12   11.92    1.51
   6  -8  12   11.62    2.48
   6   8  12   13.21    2.32
  -6   8 -12   13.45    1.55
   8  -9 -12    6.96    1.94
   8   9 -12   12.40    1.92
   8   9 -12   10.78    1.23
   7  -9 -12   12.70    2.38
   7   9 -12   14.68    2.11
   7   9 -12   13.64    1.27
   6  -9 -12    8.69    1.95
   6   9 -12   11.75    1.15
   6   9 -12   14.59    2.03
   5  -9 -12   -0.61    0.81
   5   9 -12    0.65    0.41
   5   9 -12    0.03    0.59
   4  -9 -12   20.38    2.92
   4   9 -12   22.51    2.36
   4   9 -12   22.64    1.66
   3  -9 -12   14.16    2.35
   3   9 -12   13.33    1.92
   3   9 -12   15.37    1.27
   2  -9 -12    7.07    1.79
   2   9 -12    7.91    0.97
   1  -9 -12    2.05    1.23
   1   9 -12    1.46    0.48
   0  -9 -12   34.50    3.54
   0  -9  12   33.64    3.39
   0   9 -12   29.39    2.10
   1  -9  12   19.26    2.82
  -1  -9 -12   15.74    2.68
  -1   9 -12   17.48    1.45
  -1   9 -12   18.43    1.99
  -2  -9 -12    3.85    1.59
   2  -9  12    4.12    1.48
  -2   9 -12    3.52    0.72
  -2   9 -12    3.41    0.93
  -3  -9 -12    6.26    1.92
  -3  -9 -12    8.12    1.01
   3  -9  12    7.08    1.83
  -3   9 -12    8.35    1.38
  -3   9 -12    5.88    0.94
   4  -9  12   22.47    3.36
  -4  -9 -12   24.48    1.83
  -4   9 -12   22.46    1.83
   5  -9  12   12.77    2.63
  -5  -9 -12   18.06    1.60
  -5   9 -12   17.04    1.53
   5   9  12   15.04    2.42
   6  -9  12    1.37    1.27
  -6  -9 -12    4.71    0.95
  -6   9 -12    3.00    0.79
   6   9  12    3.08    1.29
   7 -10 -12    0.59    1.11
   7  10 -12   -0.29    0.58
   6 -10 -12   23.20    3.27
   6  10 -12   24.61    2.54
   6  10 -12   23.52    1.79
   5 -10 -12   20.14    3.02
   5  10 -12   24.04    1.77
   5  10 -12   25.65    2.55
   4 -10 -12   11.27    2.25
   4  10 -12   16.12    1.32
   3 -10 -12    4.31    1.48
   3  10 -12    4.84    0.76
   2 -10 -12   18.71    2.90
   2  10 -12   21.52    1.61
   1 -10 -12   22.13    3.21
   1  10 -12   23.41    1.72
   0 -10  12    3.65    1.35
   0 -10 -12    3.37    1.50
   0  10 -12    4.48    0.76
   1 -10  12    2.31    1.28
  -1 -10 -12    1.83    1.35
  -1  10 -12    2.88    0.64
   2 -10  12   33.57    3.54
  -2 -10 -12   31.57    3.66
  -2  10 -12   28.39    2.11
   3 -10  12   21.20    3.17
  -3 -10 -12   15.78    2.94
  -3  10 -12   20.08    1.64
  -3  10 -12   21.32    2.13
   4 -10  12    3.44    1.51
  -4 -10 -12    4.21    0.82
  -4  10 -12    3.17    0.72
   5 -10  12    3.86    1.62
  -5  10 -12    4.51    0.87
   6 -10  12   35.89    4.10
  -6  10 -12   37.50    2.65
   7 -11 -12   19.40    3.18
   7  11 -12   27.80    2.01
   7  11 -12   29.63    2.84
   6 -11 -12    0.89    1.21
   6  11 -12    1.76    0.89
   6  11 -12    1.77    0.56
   5 -11 -12    1.53    1.28
   5  11 -12    1.19    0.47
   4 -11 -12    6.42    1.85
   4  11 -12    9.40    1.09
   3 -11 -12   42.07    4.32
   3  11 -12   46.99    2.87
   2 -11 -12   -0.43    0.98
   2  11 -12    0.57    0.42
   1 -11 -12    2.71    1.43
   1  11 -12    2.94    0.63
   0 -11 -12   11.25    2.45
   0 -11  12   12.48    2.28
   0  11 -12   12.48    1.17
   1 -11  12   29.93    3.41
  -1 -11 -12   28.52    3.89
  -1  11 -12   35.30    2.29
  -2 -11 -12    0.73    1.34
   2 -11  12    0.77    1.06
  -2  11 -12    0.47    0.43
   3 -11  12   12.65    2.45
  -3 -11 -12   11.40    2.60
  -3  11 -12    9.90    1.25
   4 -11  12    1.42    1.33
  -4  11 -12    2.03    0.63
   5 -11  12   34.95    3.97
  -5  11 -12   35.82    2.51
   6 -12 -12   26.99    3.71
   6  12 -12   25.46    1.95
   5 -12 -12   -0.65    0.98
   5  12 -12   -0.23    0.30
   4 -12 -12    7.97    2.07
   4  12 -12    7.73    1.03
   3 -12 -12    1.20    1.24
   3  12 -12    1.87    0.55
   2 -12 -12   38.37    4.20
   2  12 -12   41.83    2.66
   1 -12 -12    0.76    1.22
   1  12 -12    0.43    0.40
   0 -12 -12    9.08    2.27
   0 -12  12    6.60    1.71
   0  12 -12    8.25    1.04
  -1 -12 -12   -0.31    1.07
   1 -12  12   -0.15    0.95
  -1  12 -12    0.00    0.38
  -2 -12 -12   48.92    4.91
   2 -12  12   49.04    4.56
  -2  12 -12   42.94    2.91
   3 -12  12   -0.43    1.00
  -3 -12 -12   -0.53    1.20
  -3  12 -12    0.03    0.39
   4 -12  12    1.97    1.34
  -4  12 -12    1.69    0.60
   5 -12  12   -0.46    1.04
  -5  12 -12    1.52    0.61
   5 -13 -12    1.82    1.44
   5  13 -12    3.43    0.72
   4 -13 -12    0.95    1.30
   4  13 -12    2.20    0.61
   3 -13 -12   43.22    4.74
   3  13 -12   53.86    3.19
   2 -13 -12    3.04    1.56
   2  13 -12    2.12    0.60
   1 -13 -12    6.52    2.01
   1  13 -12    9.07    1.10
   0 -13  12   -0.51    0.91
   0 -13 -12    0.76    1.35
   0  13 -12    0.47    0.43
  -1 -13 -12   41.48    4.70
   1 -13  12   44.51    4.32
  -1  13 -12   44.61    2.85
  -2 -13 -12   -0.04    1.43
   2 -13  12    0.34    1.14
  -2  13 -12    0.26    0.42
   3 -13  12   13.31    2.56
  -3 -13 -12   12.99    2.89
  -3  13 -12   12.70    1.28
   4 -13  12   -0.77    1.03
  -4  13 -12   -0.03    0.39
   5 -14 -12    2.17    1.64
   4 -14 -12    3.90    1.70
   4  14 -12    5.01    0.86
   3 -14 -12   -0.43    1.12
   3  14 -12   -0.02    0.34
   2 -14 -12   31.44    4.30
   2  14 -12   32.72    2.26
   1 -14 -12    1.48    1.51
   1  14 -12    2.30    0.59
   0 -14 -12    1.99    1.62
   0  14 -12    3.76    0.76
  -1 -14 -12    2.70    1.74
   1 -14  12    2.16    1.32
  -1  14 -12    3.95    0.77
   2 -14  12   37.55    4.01
  -2 -14 -12   31.02    4.66
  -2  14 -12   41.06    2.64
   3 -14  12    0.15    1.14
  -3 -14 -12    2.34    1.87
  -3  14 -12    1.67    0.58
   3 -15 -12   13.38    2.91
   3  15 -12   15.12    1.39
   2 -15 -12   -1.05    1.09
   2  15 -12    0.35    0.43
   1 -15 -12    3.93    1.87
   1  15 -12    3.90    0.77
   0 -15 -12   10.58    2.65
   0  15 -12    7.34    1.01
  -1 -15 -12   24.02    3.94
  -1  15 -12   19.47    1.65
  -2 -15 -12   -0.32    1.40
  -2  15 -12    0.88    0.52
   8   0 -13   -0.12    0.63
   7   0 -13   19.51    2.30
   6   0 -13   -0.04    0.56
   5   0 -13   35.52    3.25
   4   0 -13   -0.31    0.43
   3   0 -13   24.17    2.49
   2   0 -13    0.39    0.33
   2   0 -13   -0.10    0.50
   1   0 -13   57.90    4.35
   1   0 -13   53.25    3.19
   0   0 -13   -0.10    0.31
   0   0 -13   -0.24    0.45
  -1   0 -13    9.40    1.09
   1   0  13    7.76    1.77
  -1   0 -13    8.60    1.56
   2   0  13    0.64    0.93
  -2   0 -13    0.09    0.55
  -2   0 -13    0.11    0.39
  -3   0 -13   42.72    3.54
  -3   0 -13   40.64    2.72
   3   0  13   41.89    4.12
   4   0  13    0.48    1.00
  -4   0 -13    0.67    0.50
  -5   0 -13    2.38    0.71
   5   0  13    2.61    1.36
  -6   0 -13    0.00    0.49
   6   0  13   -0.60    0.94
   8  -1 -13   -0.55    0.58
   8   1 -13   -0.41    0.58
   7  -1 -13    1.43    0.85
   7   1 -13    2.65    1.00
   6  -1 -13   41.00    3.60
   6   1 -13   39.18    3.50
   5  -1 -13   -0.28    0.56
   5   1 -13    0.10    0.59
   4  -1 -13    8.78    1.64
   4   1 -13    6.91    1.44
   3  -1 -13    0.42    0.62
   3   1 -13    0.80    0.38
   3   1 -13   -0.18    0.47
   2  -1 -13   91.98    6.55
   2   1 -13   95.13    5.08
   2   1 -13   92.93    6.48
   1  -1 -13    6.23    1.39
   1  -1 -13    5.85    0.79
   1   1 -13    4.78    1.20
   1   1 -13    5.58    0.78
   0  -1 -13    1.63    0.50
   0  -1 -13    1.64    0.83
   0   1 -13    1.20    0.47
   0   1 -13    2.16    0.84
  -1  -1 -13    3.67    1.08
   1  -1  13    2.77    1.20
  -1  -1 -13    2.58    0.60
  -1   1 -13    2.51    0.91
  -1   1 -13    3.47    0.68
   1   1  13    1.81    1.03
  -2  -1 -13   40.24    3.33
  -2  -1 -13   36.12    2.41
   2  -1  13   36.63    3.72
   2   1  13   35.65    3.61
  -2   1 -13   37.39    2.45
  -2   1 -13   33.63    3.09
  -3  -1 -13    0.29    0.45
   3  -1  13    0.44    0.96
  -3  -1 -13    0.32    0.70
   3   1  13    1.09    1.06
  -3   1 -13    0.75    0.69
  -3   1 -13    0.72    0.49
  -4  -1 -13    4.86    0.91
   4  -1  13    7.57    1.93
  -4   1 -13    4.41    0.88
   4   1  13    5.57    1.69
  -5  -1 -13    4.90    0.93
   5  -1  13    4.46    1.62
  -5   1 -13    5.09    0.95
   5   1  13    5.52    1.71
  -6  -1 -13   38.76    2.79
   6  -1  13   37.64    4.15
   6   1  13   38.81    4.14
  -6   1 -13   38.64    2.78
   8  -2 -13   11.21    2.02
   8   2 -13    9.77    1.77
   7  -2 -13   22.71    2.56
   7   2 -13   22.96    2.47
   6  -2 -13   -0.32    0.57
   6   2 -13    0.19    0.58
   5  -2 -13   31.23    3.09
   5   2 -13   34.29    3.08
   4  -2 -13    7.45    1.52
   4   2 -13    9.57    1.63
   3  -2 -13    2.76    0.98
   3   2 -13    2.00    0.86
   3   2 -13    2.39    0.52
   2  -2 -13    0.24    0.64
   2   2 -13    1.73    0.48
   2   2 -13    1.05    0.68
   1  -2 -13   56.08    3.16
   1  -2 -13   53.97    4.33
   1   2 -13   52.19    3.17
   1   2 -13   55.23    4.22
   0  -2 -13   18.30    2.11
   0  -2 -13   18.40    1.39
   0   2 -13   17.48    1.98
   0   2 -13   16.13    1.36
  -1  -2 -13   15.95    1.29
  -1  -2 -13   15.85    2.20
   1  -2  13   13.85    2.38
  -1   2 -13   14.20    1.94
  -1   2 -13   13.48    1.27
  -2  -2 -13    2.42    0.64
   2  -2  13    3.47    1.33
  -2  -2 -13    2.77    1.02
  -2   2 -13    3.49    0.99
  -2   2 -13    3.51    0.74
   2   2  13    4.24    1.37
  -3  -2 -13   30.10    2.24
  -3  -2 -13   33.45    3.15
   3  -2  13   35.78    3.66
  -3   2 -13   32.61    2.91
  -3   2 -13   32.16    2.29
   3   2  13   35.76    3.55
   4  -2  13   20.70    3.21
  -4  -2 -13   22.88    1.83
  -4   2 -13   22.71    1.83
   4   2  13   22.85    3.22
  -5  -2 -13    1.35    0.62
   5  -2  13    2.52    1.31
   5   2  13    0.32    0.96
  -5   2 -13    0.35    0.54
   6  -2  13    3.05    1.55
  -6  -2 -13    2.88    0.83
   6   2  13    2.18    1.36
  -6   2 -13    2.57    0.80
   8  -3 -13   -0.70    0.64
   8   3 -13    0.53    0.67
   7  -3 -13   20.78    2.74
   7   3 -13   17.99    2.40
   6  -3 -13   36.51    3.46
   6   3 -13   37.14    3.30
   5  -3 -13   11.97    2.02
   5   3 -13   12.96    1.98
   4  -3 -13    0.19    0.66
   4   3 -13    0.48    0.35
   4   3 -13   -0.02    0.48
   3  -3 -13   15.13    2.25
   3   3 -13   16.95    1.96
   3   3 -13   16.27    1.29
   2  -3 -13   32.79    3.12
   2   3 -13   31.49    2.10
   2   3 -13   34.58    2.98
   1  -3 -13   13.44    2.09
   1   3 -13   14.66    1.98
   1   3 -13   13.76    1.19
   0  -3 -13    2.38    1.00
   0  -3 -13    2.87    0.60
   0   3 -13    2.72    0.61
   0   3 -13    3.55    1.02
  -1  -3 -13   32.84    2.10
  -1  -3 -13   30.48    3.02
   1  -3  13   32.42    3.39
  -1   3 -13   28.69    2.09
  -1   3 -13   30.49    2.77
  -2  -3 -13   26.00    1.85
  -2  -3 -13   25.13    2.69
   2  -3  13   25.26    3.00
   2   3  13   24.29    2.84
  -2   3 -13   27.16    2.47
  -2   3 -13   22.76    1.83
  -3  -3 -13    4.09    0.79
   3  -3  13    4.71    1.59
  -3  -3 -13    3.83    1.33
  -3   3 -13    4.26    0.82
  -3   3 -13    4.94    1.13
   3   3  13    5.05    1.51
   4  -3  13    9.01    2.07
  -4  -3 -13    8.74    1.17
  -4   3 -13    8.72    1.18
   4   3  13   10.07    2.07
   5  -3  13   25.36    3.62
  -5  -3 -13   26.35    2.03
   5   3  13   22.42    2.89
  -5   3 -13   23.01    1.96
   6  -3  13   26.80    3.42
  -6  -3 -13   25.25    2.14
   6   3  13   27.17    3.26
  -6   3 -13   26.50    2.17
   8  -4 -13   27.65    3.05
   8   4 -13   28.76    2.85
   7  -4 -13    4.96    1.43
   7   4 -13    4.31    1.21
   6  -4 -13   -0.15    0.72
   6   4 -13    1.92    0.85
   5  -4 -13   15.25    2.34
   5   4 -13   16.53    2.19
   5   4 -13   14.67    1.22
   4  -4 -13   65.56    5.07
   4   4 -13   64.53    4.83
   4   4 -13   61.80    3.60
   3  -4 -13    8.41    1.71
   3   4 -13    5.88    0.83
   3   4 -13    7.15    1.43
   2  -4 -13    2.32    1.06
   2   4 -13    3.01    0.61
   2   4 -13    4.26    1.07
   1  -4 -13   12.27    2.09
   1   4 -13   15.06    1.23
   1   4 -13   12.25    1.87
   0  -4 -13   67.36    5.04
   0  -4  13   60.36    5.32
   0   4 -13   62.27    3.67
   0   4 -13   62.64    4.67
   1  -4  13    0.95    1.02
  -1  -4 -13    0.40    0.81
  -1  -4 -13    0.83    0.43
  -1   4 -13    1.71    0.54
  -1   4 -13    0.76    0.63
  -2  -4 -13    9.15    1.09
   2  -4  13   11.09    2.18
  -2  -4 -13    6.04    1.55
  -2   4 -13    7.91    1.06
  -2   4 -13   11.13    1.63
   3  -4  13    9.30    2.12
  -3  -4 -13   10.53    1.21
  -3  -4 -13    7.95    1.78
  -3   4 -13    9.81    1.23
  -3   4 -13    9.92    1.57
   3   4  13   10.52    2.05
  -4  -4 -13   29.61    2.12
   4  -4  13   27.80    3.35
   4   4  13   24.20    3.00
  -4   4 -13   27.12    2.09
   5  -4  13   -0.19    0.92
  -5  -4 -13    0.21    0.50
  -5   4 -13   -0.10    0.46
   5   4  13    0.65    0.92
  -6  -4 -13    4.32    0.96
   6  -4  13    4.60    1.75
  -6   4 -13    3.85    0.93
   6   4  13    5.79    1.69
   8  -5 -13    0.76    0.97
   8   5 -13    0.18    0.63
   7  -5 -13   27.72    3.11
   7   5 -13   30.88    2.91
   6  -5 -13    4.96    1.46
   6   5 -13    5.69    1.32
   5  -5 -13   33.84    3.35
   5   5 -13   34.34    3.10
   5   5 -13   33.17    2.17
   4  -5 -13    1.75    1.02
   4   5 -13    1.69    0.91
   4   5 -13    2.19    0.53
   3  -5 -13   43.74    3.90
   3   5 -13   44.24    2.70
   3   5 -13   44.07    3.66
   2  -5 -13   10.61    1.96
   2   5 -13   10.88    1.06
   2   5 -13   10.24    1.68
   1  -5 -13   13.92    2.29
   1   5 -13   16.60    1.34
   1   5 -13   15.74    2.12
   0  -5 -13    2.01    1.04
   0  -5  13    2.27    1.18
   0   5 -13    1.13    0.71
   0   5 -13    1.82    0.54
  -1  -5 -13   63.21    5.01
   1  -5  13   65.51    5.48
  -1  -5 -13   64.32    3.60
  -1   5 -13   55.53    3.60
  -1   5 -13   62.39    4.58
  -2  -5 -13    2.72    1.22
   2  -5  13    4.57    1.55
  -2  -5 -13    4.08    0.75
  -2   5 -13    3.44    0.75
  -2   5 -13    6.03    1.18
  -3  -5 -13    6.20    1.70
  -3  -5 -13    7.52    1.02
   3  -5  13    5.85    1.79
   3   5  13    6.37    1.65
  -3   5 -13    7.24    1.31
  -3   5 -13    6.63    1.00
   4  -5  13   -0.42    0.92
  -4  -5 -13    0.25    0.47
   4   5  13    0.63    0.96
  -4   5 -13   -0.17    0.42
   5  -5  13   52.07    5.07
  -5  -5 -13   52.55    3.37
   5   5  13   49.98    4.70
  -5   5 -13   50.04    3.33
   6  -5  13    0.63    1.26
  -6  -5 -13    0.91    0.63
  -6   5 -13    1.26    0.67
   6   5  13    0.94    1.13
   7  -6 -13   -0.91    0.73
   7   6 -13   -0.01    0.59
   6  -6 -13   -0.50    0.71
   6   6 -13   -0.03    0.47
   6   6 -13    0.27    0.33
   5  -6 -13    1.02    0.99
   5   6 -13    1.23    0.72
   5   6 -13    2.01    0.52
   4  -6 -13   63.15    5.15
   4   6 -13   62.09    4.80
   4   6 -13   63.48    3.65
   3  -6 -13   -0.45    0.62
   3   6 -13    0.24    0.54
   3   6 -13    0.03    0.33
   2  -6 -13    0.23    0.75
   2   6 -13   -0.04    0.31
   2   6 -13    0.64    0.61
   1  -6 -13   -0.37    0.67
   1   6 -13   -0.02    0.49
   1   6 -13    0.24    0.34
   0  -6  13   58.71    5.08
   0  -6 -13   51.61    4.65
   0   6 -13   55.77    3.38
   0   6 -13   59.75    4.37
   1  -6  13    0.78    0.98
  -1  -6 -13    1.68    0.96
  -1   6 -13   -0.03    0.52
  -1   6 -13   -0.13    0.37
  -2  -6 -13    5.31    1.61
  -2  -6 -13    7.07    0.98
   2  -6  13    8.92    2.04
  -2   6 -13    7.94    1.40
  -2   6 -13    6.40    0.97
  -3  -6 -13    0.31    0.42
   3  -6  13    0.45    1.09
  -3  -6 -13   -0.76    0.91
  -3   6 -13    0.04    0.43
   4  -6  13   62.16    5.83
  -4  -6 -13   65.53    3.98
   4   6  13   66.76    5.57
  -4   6 -13   66.83    4.03
   5  -6  13    2.94    1.48
  -5  -6 -13    2.34    0.76
  -5   6 -13    2.86    0.78
   5   6  13    2.41    1.27
   6  -6  13   18.69    3.15
  -6  -6 -13   17.46    1.71
   6   6  13   18.81    2.94
  -6   6 -13   16.81    1.66
   7  -7 -13   15.76    2.61
   7   7 -13   16.29    2.22
   6  -7 -13    4.93    1.52
   6   7 -13    4.63    1.18
   6   7 -13    3.24    0.68
   5  -7 -13    9.97    2.07
   5   7 -13   11.33    1.09
   5   7 -13   11.67    1.86
   4  -7 -13    1.67    1.10
   4   7 -13    1.08    0.77
   4   7 -13    1.43    0.51
   3  -7 -13   30.14    3.33
   3   7 -13   37.84    3.20
   3   7 -13   34.41    2.26
   2  -7 -13    0.81    0.89
   2   7 -13    1.94    0.81
   2   7 -13    1.22    0.49
   1  -7 -13   12.90    2.24
   1   7 -13   14.35    1.26
   1   7 -13   13.68    1.95
   0  -7 -13    3.45    1.39
   0  -7  13    4.36    1.43
   0   7 -13    4.57    1.14
   0   7 -13    3.69    0.72
   1  -7  13   52.49    4.68
  -1  -7 -13   44.41    4.32
  -1   7 -13   48.57    3.80
  -1   7 -13   46.22    2.98
   2  -7  13    0.87    1.03
  -2  -7 -13    1.29    1.19
  -2   7 -13    2.54    0.84
  -2   7 -13    1.65    0.56
  -3  -7 -13   14.80    1.33
   3  -7  13   12.24    2.46
  -3  -7 -13   12.19    2.44
  -3   7 -13   13.85    1.35
   4  -7  13    0.64    1.15
  -4  -7 -13    0.17    0.47
   4   7  13    0.55    0.98
  -4   7 -13    0.73    0.51
   5  -7  13   44.79    4.75
  -5  -7 -13   45.35    3.10
  -5   7 -13   46.40    3.12
   5   7  13   48.85    4.43
   7  -8 -13    3.86    1.51
   7   8 -13    7.40    1.54
   7   8 -13    7.11    0.97
   6  -8 -13    0.98    1.07
   6   8 -13    1.01    0.71
   6   8 -13    1.49    0.52
   5  -8 -13    5.19    1.57
   5   8 -13    6.41    0.90
   5   8 -13    9.34    1.65
   4  -8 -13   58.31    4.99
   4   8 -13   59.33    4.59
   4   8 -13   56.81    3.44
   3  -8 -13    0.78    1.01
   3   8 -13    0.59    0.41
   3   8 -13    0.03    0.59
   2  -8 -13    1.21    1.03
   2   8 -13    2.02    0.86
   2   8 -13    2.11    0.54
   1  -8 -13   10.35    2.13
   1   8 -13   12.31    1.17
   1   8 -13   13.58    1.97
   0  -8  13   47.45    4.62
   0  -8 -13   46.12    4.51
   0   8 -13   53.13    3.16
   0   8 -13   53.87    4.09
   1  -8  13    2.49    1.29
  -1  -8 -13    1.19    1.18
  -1   8 -13    1.44    0.77
  -1   8 -13    2.11    0.60
   2  -8  13    3.98    1.53
  -2  -8 -13    4.24    1.61
  -2   8 -13    2.98    0.92
  -2   8 -13    2.63    0.67
   3  -8  13    6.37    1.88
  -3  -8 -13    4.99    1.79
  -3   8 -13    6.63    1.02
   4  -8  13   37.94    4.15
  -4  -8 -13   39.15    2.60
  -4   8 -13   34.64    2.56
   5  -8  13    1.27    1.23
  -5  -8 -13    2.24    0.72
  -5   8 -13    2.46    0.75
   5   8  13    2.01    1.20
   6  -9 -13   12.51    2.43
   6   9 -13   15.28    1.38
   6   9 -13   19.30    2.18
   5  -9 -13   11.77    2.35
   5   9 -13   15.73    2.16
   5   9 -13   13.55    1.25
   4  -9 -13    0.00    0.92
   4   9 -13   -0.78    0.47
   4   9 -13    0.12    0.35
   3  -9 -13   28.89    3.31
   3   9 -13   29.31    2.85
   3   9 -13   28.80    2.02
   2  -9 -13    9.46    2.09
   2   9 -13    9.93    1.70
   2   9 -13   10.43    1.07
   1  -9 -13   17.79    2.82
   1   9 -13   18.51    1.52
   1   9 -13   19.73    2.17
   0  -9 -13    1.52    1.29
   0  -9  13    3.09    1.35
   0   9 -13    2.48    0.64
   0   9 -13    2.88    0.98
  -1  -9 -13   24.44    3.51
   1  -9  13   30.85    3.40
  -1   9 -13   26.80    2.00
  -1   9 -13   28.90    2.70
   2  -9  13   25.95    3.10
  -2  -9 -13   19.39    3.17
  -2   9 -13   19.60    1.67
  -2   9 -13   21.82    2.25
   3  -9  13    4.16    1.64
  -3  -9 -13    6.03    1.97
  -3   9 -13    3.84    0.80
   4  -9  13    1.90    1.36
  -4  -9 -13    2.36    0.68
  -4   9 -13    1.92    0.66
  -5  -9 -13   25.11    2.02
   5  -9  13   22.46    3.56
  -5   9 -13   22.87    1.97
   5   9  13   25.30    2.95
   6 -10 -13   -1.14    0.86
   6  10 -13   -0.17    0.36
   6  10 -13   -0.15    0.59
   5 -10 -13    9.29    2.19
   5  10 -13   14.09    1.27
   5  10 -13   13.17    2.07
   4 -10 -13   17.19    2.82
   4  10 -13   18.59    1.52
   4  10 -13   18.86    2.50
   3 -10 -13   10.11    2.20
   3  10 -13   11.72    1.14
   3  10 -13   10.56    1.78
   2 -10 -13    0.25    1.07
   2  10 -13    0.19    0.59
   2  10 -13    0.21    0.38
   1 -10 -13   15.17    2.80
   1  10 -13   19.23    2.20
   1  10 -13   21.14    1.61
   0 -10  13   25.79    3.05
   0 -10 -13   21.66    3.38
   0  10 -13   23.86    1.85
   0  10 -13   26.13    2.56
  -1 -10 -13    3.06    1.63
   1 -10  13    3.45    1.50
  -1  10 -13    3.88    1.10
  -1  10 -13    3.75    0.77
   2 -10  13    0.92    1.19
  -2 -10 -13    1.65    1.54
  -2  10 -13    2.08    0.62
  -2  10 -13    2.97    0.99
  -3 -10 -13   21.20    3.52
   3 -10  13   24.17    3.53
  -3  10 -13   22.43    1.83
   4 -10  13   10.14    2.39
  -4  10 -13    9.85    1.29
   5 -11 -13    0.42    1.17
   5  11 -13    0.91    0.81
   5  11 -13    1.02    0.51
   4 -11 -13   -0.09    1.03
   4  11 -13    0.46    0.71
   4  11 -13    0.95    0.46
   3 -11 -13    6.13    1.95
   3  11 -13    9.27    1.71
   3  11 -13    8.62    1.11
   2 -11 -13   32.54    3.90
   2  11 -13   37.88    2.46
   1 -11 -13    0.08    1.14
   1  11 -13    0.72    0.46
   0 -11 -13    3.33    1.66
   0 -11  13    4.99    1.60
   0  11 -13    3.21    0.71
  -1 -11 -13    6.44    2.06
   1 -11  13    6.72    1.83
  -1  11 -13    4.56    1.21
  -1  11 -13    5.47    0.89
   2 -11  13   34.50    3.81
  -2 -11 -13   26.79    4.07
  -2  11 -13   34.86    3.06
  -2  11 -13   33.83    2.35
  -3 -11 -13    0.08    1.45
   3 -11  13    0.33    1.13
  -3  11 -13    0.01    0.42
   4 -12 -13    0.10    1.19
   4  12 -13    0.27    0.41
   3 -12 -13    9.14    2.33
   3  12 -13   14.50    1.30
   2 -12 -13    1.31    1.43
   2  12 -13    0.93    0.49
   1 -12 -13   30.81    4.13
   1  12 -13   28.10    2.06
   0 -12  13    1.60    1.22
   0 -12 -13    1.02    1.41
   0  12 -13    1.41    0.54
  -1 -12 -13    8.09    2.41
   1 -12  13   10.26    2.20
  -1  12 -13    9.11    1.16
   2 -12  13   -0.41    1.05
  -2 -12 -13   -0.98    1.29
  -2  12 -13    0.11    0.41
  -3 -12 -13   33.99    4.67
   3 -12  13   31.31    3.75
   3 -13 -13    0.03    1.16
   3  13 -13    0.25    0.42
   2 -13 -13   37.75    4.40
   2  13 -13   40.88    2.68
   1 -13 -13   -0.45    1.21
   1  13 -13    0.14    0.41
   0 -13 -13    3.66    1.87
   0 -13  13    3.53    1.53
   0  13 -13    4.29    0.81
  -1 -13 -13    0.86    1.48
   1 -13  13    0.41    1.07
  -1  13 -13    0.20    0.44
   7   0 -14   -0.11    0.62
   6   0 -14   29.59    3.03
   5   0 -14   -0.18    0.54
   4   0 -14   35.13    3.31
   3   0 -14   -0.40    0.53
   2   0 -14   29.66    2.92
   1   0 -14   -0.25    0.51
   1   0 -14   -0.23    0.34
   0   0 -14   40.58    2.65
   0   0 -14   45.09    3.72
  -1   0 -14   -0.35    0.33
  -1   0 -14    0.22    0.64
   2   0  14    3.93    1.47
  -2   0 -14    5.01    0.87
  -2   0 -14    5.01    1.28
   3   0  14    0.09    0.97
  -3   0 -14    0.19    0.45
   4   0  14   61.48    5.59
  -4   0 -14   61.05    3.84
   5   0  14   -0.58    0.95
  -5   0 -14   -0.45    0.42
   7  -1 -14   -0.04    0.65
   7   1 -14    0.95    0.80
   6  -1 -14    2.20    0.99
   6   1 -14    1.07    0.82
   5  -1 -14   58.00    4.63
   5   1 -14   53.32    4.48
   4  -1 -14    0.37    0.69
   4   1 -14   -0.29    0.53
   3  -1 -14    0.48    0.71
   3   1 -14    0.73    0.71
   2  -1 -14    1.63    0.87
   2   1 -14    1.21    0.75
   2   1 -14    1.89    0.51
   1  -1 -14   53.93    4.32
   1   1 -14   51.30    3.14
   1   1 -14   53.86    4.27
   0  -1 -14    4.77    0.77
   0  -1 -14    2.06    0.98
   0   1 -14    3.05    1.04
   0   1 -14    3.88    0.73
   1  -1  14    1.00    0.99
  -1  -1 -14    0.65    0.75
  -1  -1 -14    1.04    0.47
  -1   1 -14   -0.04    0.57
  -1   1 -14    0.39    0.42
   2  -1  14    3.19    1.38
  -2  -1 -14    4.82    1.33
  -2  -1 -14    3.98    0.78
   2   1  14    4.58    1.57
  -2   1 -14    4.64    0.84
  -2   1 -14    3.75    1.14
  -3  -1 -14   31.80    2.24
   3  -1  14   29.49    3.46
  -3   1 -14   31.02    2.23
   3   1  14   27.39    3.28
  -4  -1 -14    0.42    0.54
   4  -1  14    0.43    1.06
   4   1  14    0.47    0.98
  -4   1 -14    0.57    0.53
  -5  -1 -14    5.20    1.03
   5  -1  14    7.55    2.10
  -5   1 -14    4.46    0.94
   5   1  14    8.47    2.10
   7  -2 -14   10.77    2.00
   7   2 -14   10.16    1.88
   6  -2 -14   25.04    2.86
   6   2 -14   30.23    2.93
   5  -2 -14    0.23    0.74
   5   2 -14    0.84    0.72
   4  -2 -14   16.89    2.44
   4   2 -14   18.69    2.48
   3  -2 -14    9.17    1.75
   3   2 -14    9.66    1.71
   2  -2 -14   15.85    2.35
   2   2 -14   18.60    2.11
   2   2 -14   17.68    1.39
   1  -2 -14    1.07    0.78
   1   2 -14    1.21    0.47
   1   2 -14    0.80    0.65
   0  -2 -14   33.48    2.18
   0  -2 -14   30.35    3.12
   0   2 -14   32.31    2.20
   0   2 -14   34.51    3.07
  -1  -2 -14   14.46    2.23
  -1  -2 -14   14.65    1.31
   1  -2  14   13.80    2.44
  -1   2 -14   15.79    1.35
  -1   2 -14   11.57    1.90
   2  -2  14   16.17    2.74
  -2  -2 -14   13.26    2.19
  -2  -2 -14   16.18    1.41
   2   2  14   18.02    2.73
  -2   2 -14   14.55    2.12
  -2   2 -14   14.96    1.40
  -3  -2 -14    4.97    0.88
   3  -2  14    3.03    1.40
  -3   2 -14    3.63    0.81
   3   2  14    5.43    1.69
   4  -2  14   54.00    5.02
  -4  -2 -14   46.68    3.20
  -4   2 -14   46.46    3.21
   4   2  14   55.17    4.89
   5  -2  14   10.26    2.40
  -5  -2 -14   11.33    1.44
   5   2  14    9.78    2.21
  -5   2 -14    9.11    1.31
   6  -3 -14   14.63    2.37
   6   3 -14   15.26    2.22
   5  -3 -14   32.77    3.28
   5   3 -14   31.01    3.04
   4  -3 -14   18.11    2.68
   4   3 -14   25.81    2.57
   3  -3 -14    1.38    0.93
   3   3 -14    0.55    0.67
   3   3 -14    0.51    0.41
   2  -3 -14   12.91    2.16
   2   3 -14   13.78    2.02
   2   3 -14   12.39    1.15
   1  -3 -14   15.82    2.39
   1   3 -14   21.97    2.23
   1   3 -14   16.49    1.40
   0  -3 -14   18.34    2.59
   0   3 -14   19.51    1.55
   0   3 -14   19.92    2.22
  -1  -3 -14    2.48    0.62
  -1  -3 -14    3.51    1.24
   1  -3  14    3.86    1.48
  -1   3 -14    3.24    0.70
  -1   3 -14    2.52    0.94
  -2  -3 -14   15.79    2.43
   2  -3  14   20.29    3.00
  -2  -3 -14   17.43    1.49
  -2   3 -14   18.64    2.08
  -2   3 -14   15.18    1.47
  -3  -3 -14   24.90    1.96
   3  -3  14   27.00    3.28
   3   3  14   26.75    3.11
  -3   3 -14   25.22    1.99
  -4  -3 -14   10.25    1.31
   4  -3  14    8.12    2.14
   4   3  14    9.72    2.12
  -4   3 -14    8.30    1.22
  -5  -3 -14    1.57    0.72
   5  -3  14    1.10    1.26
   5   3  14    3.20    1.47
  -5   3 -14    1.71    0.67
   6  -4 -14    4.69    1.49
   6   4 -14    6.37    1.44
   5  -4 -14   -0.31    0.71
   5   4 -14    0.57    0.56
   4  -4 -14    8.47    1.87
   4   4 -14   10.32    1.02
   4   4 -14   10.46    1.79
   3  -4 -14   47.73    4.21
   3   4 -14   46.72    2.88
   3   4 -14   48.27    3.97
   2  -4 -14    7.67    1.70
   2   4 -14    8.04    1.00
   2   4 -14    9.06    1.65
   1  -4 -14   -0.17    0.65
   1   4 -14    0.36    0.58
   1   4 -14   -0.25    0.35
   0  -4 -14   13.24    2.24
   0   4 -14   14.34    1.28
   0   4 -14   12.86    1.94
  -1  -4 -14   36.62    3.67
   1  -4  14   42.57    4.17
  -1   4 -14   38.62    2.59
  -1   4 -14   40.32    3.40
  -2  -4 -14    1.75    1.10
  -2  -4 -14    1.71    0.58
   2  -4  14    1.04    1.17
  -2   4 -14    0.86    0.52
  -2   4 -14    0.66    0.68
  -3  -4 -14    0.14    0.44
   3  -4  14   -0.26    1.06
  -3   4 -14    0.56    0.52
   3   4  14    0.67    0.93
  -4  -4 -14   16.72    1.59
   4  -4  14   19.26    3.13
  -4   4 -14   15.27    1.56
   4   4  14   19.18    2.92
   5  -4  14   28.97    3.67
   5   4  14   31.84    3.58
   6  -5 -14   21.69    3.00
   6   5 -14   21.15    2.42
   5  -5 -14    8.22    1.85
   5   5 -14    7.15    1.48
   4  -5 -14   14.35    2.38
   4   5 -14   17.70    1.37
   4   5 -14   14.88    2.16
   3  -5 -14    0.02    0.76
   3   5 -14    0.08    0.59
   3   5 -14    0.68    0.42
   2  -5 -14   23.80    2.84
   2   5 -14   23.93    1.81
   2   5 -14   30.05    2.75
   1  -5 -14    1.30    0.95
   1   5 -14    1.47    0.54
   1   5 -14    2.33    0.90
   0  -5 -14   15.33    2.48
   0   5 -14   19.29    1.50
   0   5 -14   15.99    2.21
   1  -5  14    1.20    1.15
  -1  -5 -14   -0.23    0.81
  -1   5 -14    0.49    0.45
  -1   5 -14    0.30    0.60
  -2  -5 -14   31.02    3.44
   2  -5  14   38.84    3.97
  -2   5 -14   33.48    2.36
  -2   5 -14   33.60    3.02
   3  -5  14    1.69    1.29
  -3  -5 -14    0.44    0.49
  -3   5 -14    0.58    0.54
   4  -5  14   12.07    2.58
  -4  -5 -14   14.12    1.56
  -4   5 -14   11.68    1.46
   4   5  14   13.95    2.50
   6  -6 -14   -0.83    0.77
   6   6 -14   -0.52    0.55
   5  -6 -14   -1.17    0.69
   5   6 -14   -0.11    0.33
   5   6 -14    0.65    0.67
   4  -6 -14   -0.68    0.69
   4   6 -14    0.16    0.37
   4   6 -14   -0.10    0.51
   3  -6 -14   45.97    4.45
   3   6 -14   54.83    4.29
   3   6 -14   52.98    3.16
   2  -6 -14    1.81    1.09
   2   6 -14    1.64    0.54
   2   6 -14    1.01    0.77
   1  -6 -14   -0.33    0.68
   1   6 -14    0.20    0.58
   1   6 -14   -0.06    0.34
   0  -6 -14   -0.29    0.82
   0   6 -14   -0.11    0.57
   0   6 -14   -0.18    0.35
   1  -6  14   63.38    5.34
  -1  -6 -14   51.48    4.76
  -1   6 -14   53.27    3.38
  -1   6 -14   54.07    4.29
   2  -6  14    0.94    1.22
  -2  -6 -14   -1.07    0.92
  -2   6 -14    0.13    0.57
  -2   6 -14    0.07    0.43
  -3  -6 -14    3.97    0.81
   3  -6  14    3.21    1.58
  -3   6 -14    2.38    0.73
   4  -6  14    0.38    1.21
  -4  -6 -14    1.92    0.68
  -4   6 -14    1.57    0.67
   4   6  14    2.77    1.31
   5  -7 -14    0.40    0.94
   5   7 -14    0.71    0.44
   5   7 -14    0.76    0.69
   4  -7 -14   28.87    3.36
   4   7 -14   36.29    3.22
   4   7 -14   32.08    2.19
   3  -7 -14    0.07    0.87
   3   7 -14    0.49    0.45
   3   7 -14    0.71    0.76
   2  -7 -14   29.51    3.25
   2   7 -14   31.57    2.91
   2   7 -14   26.63    2.00
   1  -7 -14    1.91    1.24
   1   7 -14    4.64    1.21
   1   7 -14    3.72    0.73
   0  -7 -14   20.65    3.05
   0   7 -14   20.28    1.65
   0   7 -14   21.93    2.33
  -1  -7 -14   -1.06    0.91
   1  -7  14    0.34    0.97
  -1   7 -14   -0.43    0.51
  -1   7 -14    0.42    0.46
   2  -7  14   37.51    3.95
  -2  -7 -14   28.86    3.83
  -2   7 -14   30.92    2.30
  -2   7 -14   34.01    3.00
   3  -7  14   -0.21    1.06
  -3   7 -14    1.75    0.64
   4  -7  14   16.60    3.04
   5  -8 -14    0.01    0.98
   5   8 -14   -0.39    0.32
   5   8 -14    0.30    0.63
   4  -8 -14    2.07    1.23
   4   8 -14    2.53    0.64
   4   8 -14    2.55    1.05
   3  -8 -14   49.97    4.59
   3   8 -14   46.45    2.99
   3   8 -14   51.12    4.13
   2  -8 -14    2.51    1.32
   2   8 -14    2.43    0.96
   2   8 -14    3.54    0.71
   1  -8 -14    0.16    0.97
   1   8 -14    0.26    0.60
   1   8 -14   -0.27    0.34
   0  -8  14    6.75    1.87
   0  -8 -14    6.04    1.82
   0   8 -14    8.13    1.56
   0   8 -14    6.06    0.93
   1  -8  14   35.63    3.94
  -1  -8 -14   34.20    3.92
  -1   8 -14   40.11    3.33
  -1   8 -14   35.25    2.47
   2  -8  14    1.76    1.34
  -2  -8 -14    1.60    1.55
  -2   8 -14    1.55    0.61
  -2   8 -14    4.23    1.14
   3  -8  14    0.08    0.94
  -3   8 -14    0.69    0.52
   4  -9 -14    9.93    2.15
   4   9 -14    7.94    1.61
   4   9 -14    7.54    1.04
   3  -9 -14   -0.62    0.95
   3   9 -14    0.03    0.39
   3   9 -14   -0.67    0.51
   2  -9 -14   20.34    3.13
   2   9 -14   19.67    1.64
   2   9 -14   23.21    2.45
   1  -9 -14   17.94    3.01
   1   9 -14   21.23    1.71
   1   9 -14   22.60    2.41
   0  -9  14   13.99    2.66
   0  -9 -14   15.14    2.82
   0   9 -14   17.46    1.50
   0   9 -14   17.79    2.35
  -1  -9 -14    0.73    1.46
   1  -9  14    3.19    1.48
  -1   9 -14    0.94    0.53
  -1   9 -14    2.47    0.93
  -2  -9 -14   12.25    2.71
   2  -9  14   14.84    2.82
  -2   9 -14   18.55    2.08
  -2   9 -14   15.62    1.48
   3 -10 -14   16.87    3.00
   3  10 -14   17.82    1.55
   3  10 -14   22.40    2.43
   2 -10 -14    5.22    1.88
   2  10 -14    8.70    1.66
   2  10 -14    7.36    1.03
   1 -10 -14   -0.70    1.10
   1  10 -14   -0.25    0.36
   1  10 -14   -0.26    0.61
   0 -10  14   16.25    2.81
   0 -10 -14   14.06    2.79
   0  10 -14   17.78    2.35
   0  10 -14   14.78    1.41
   1 -10  14   17.45    2.92
  -1 -10 -14   16.22    3.01
  -1  10 -14   14.69    2.12
  -1  10 -14   14.97    1.42
   2 -10  14    7.65    2.06
   2 -11 -14    7.92    2.21
   2  11 -14    9.37    1.76
   1 -11 -14   31.58    4.29
   1  11 -14   35.81    2.43
   1  11 -14   34.32    3.27
   0 -11 -14    0.18    1.32
   0 -11  14    1.88    1.42
   0  11 -14    1.55    0.60
   0  11 -14    1.79    0.86
   5   0 -15   45.56    4.09
   4   0 -15   -0.13    0.62
   3   0 -15   27.07    2.91
   2   0 -15   -0.47    0.52
   1   0 -15   43.40    3.86
   0   0 -15    0.02    0.41
   0   0 -15    0.04    0.65
  -1   0 -15   18.68    2.62
  -1   0 -15   20.61    1.65
   2   0  15   -0.20    0.98
  -2   0 -15   -0.69    0.61
  -2   0 -15   -0.33    0.42
   3   0  15   30.35    3.59
  -3   0 -15   32.38    2.35
   5  -1 -15    1.40    0.95
   5   1 -15    1.42    0.92
   4  -1 -15   42.20    3.91
   4   1 -15   44.23    3.92
   3  -1 -15   -0.48    0.65
   3   1 -15   -0.48    0.65
   2  -1 -15   -0.01    0.66
   2   1 -15    0.29    0.65
   1  -1 -15   -0.10    0.71
   1   1 -15    0.53    0.45
   1   1 -15    1.07    0.81
   0  -1 -15   40.86    3.85
   0   1 -15   43.87    2.80
   0   1 -15   46.50    3.91
  -1  -1 -15    2.81    1.19
  -1  -1 -15    4.20    0.82
  -1   1 -15    3.76    1.22
  -1   1 -15    3.56    0.78
  -2  -1 -15    0.72    0.52
   2  -1  15    0.56    1.06
  -2  -1 -15    0.23    0.85
  -2   1 -15    0.76    0.79
  -2   1 -15    0.76    0.52
   3  -1  15    1.03    1.15
  -3  -1 -15    1.04    0.59
   3   1  15    2.88    1.47
  -3   1 -15    1.23    0.61
   4  -2 -15   -0.18    0.68
   4   2 -15    0.31    0.70
   3  -2 -15    5.05    1.45
   3   2 -15    5.04    1.38
   2  -2 -15   11.15    2.02
   2   2 -15   11.27    1.92
   1  -2 -15   26.46    2.99
   1   2 -15   30.56    2.98
   1   2 -15   29.30    2.04
   0  -2 -15   -0.23    0.79
   0   2 -15    0.53    0.45
   0   2 -15    0.33    0.68
  -1  -2 -15   16.94    2.61
  -1   2 -15   20.49    1.66
  -1   2 -15   19.76    2.58
  -2  -2 -15   10.44    2.09
   2  -2  15   10.96    2.36
  -2  -2 -15   10.55    1.28
  -2   2 -15   12.19    1.99
  -2   2 -15   10.20    1.28
   3  -2  15   23.80    3.47
   3   2  15   18.85    3.12
   4  -3 -15   22.42    3.01
   4   3 -15   21.19    2.82
   3  -3 -15   15.03    2.48
   3   3 -15   16.20    2.32
   2  -3 -15    1.39    0.96
   2   3 -15    0.18    0.62
   2   3 -15    0.90    0.46
   1  -3 -15    9.89    1.92
   1   3 -15    9.23    1.13
   1   3 -15    8.85    1.69
   0  -3 -15   20.88    2.96
   0   3 -15   23.59    2.53
   0   3 -15   23.23    1.77
  -1  -3 -15    8.20    1.87
  -1   3 -15    7.93    1.08
  -1   3 -15    8.32    1.64
  -2  -3 -15    0.62    0.50
   2  -3  15    2.19    1.38
  -2  -3 -15    0.56    1.01
  -2   3 -15    0.46    0.51
  -2   3 -15    0.44    0.68
   4  -4 -15   -0.79    0.69
   4   4 -15   -0.16    0.58
   3  -4 -15    4.34    1.47
   3   4 -15    2.69    1.06
   2  -4 -15   36.92    3.50
   2   4 -15   29.66    2.12
   2   4 -15   29.96    3.03
   1  -4 -15   14.54    2.44
   1   4 -15   14.21    1.32
   1   4 -15   14.44    2.18
   0  -4 -15   -0.29    0.83
   0   4 -15   -0.16    0.38
   0   4 -15    0.09    0.58
   1  -4  15    8.31    2.12
  -1  -4 -15    6.13    1.72
  -1   4 -15    6.79    1.46
  -1   4 -15    6.85    1.01
  -2  -4 -15   24.90    3.40
   2  -4  15   30.40    3.62
  -2   4 -15   29.24    2.19
  -2   4 -15   31.91    2.96
   4  -5 -15    5.83    1.71
   4   5 -15    6.71    1.49
   3  -5 -15   34.99    3.52
   3   5 -15   29.21    3.01
   3   5 -15   30.05    2.12
   2  -5 -15    0.00    0.85
   2   5 -15    0.27    0.42
   2   5 -15   -0.40    0.52
   1  -5 -15   16.61    2.65
   1   5 -15   14.22    1.34
   1   5 -15   14.88    2.17
   0  -5 -15    2.35    1.27
   0   5 -15    2.13    0.63
   0   5 -15    1.65    0.87
  -1  -5 -15   20.13    3.02
   1  -5  15   27.18    3.29
  -1   5 -15   21.79    2.44
  -1   5 -15   22.62    1.81
  -2  -5 -15   -1.52    0.85
   2  -5  15    1.89    1.33
  -2   5 -15    0.12    0.48
  -2   5 -15    0.10    0.68
   3  -6 -15   -0.90    0.73
   3   6 -15    0.76    0.49
   3   6 -15    0.12    0.67
   2  -6 -15   39.76    4.11
   2   6 -15   42.45    2.77
   2   6 -15   47.12    3.90
   1  -6 -15    0.59    1.06
   1   6 -15    1.23    0.79
   1   6 -15    1.56    0.58
   0  -6 -15   -0.45    0.89
   0   6 -15    0.13    0.42
   0   6 -15    0.14    0.61
   1  -6  15   -0.15    1.11
  -1  -6 -15   -1.11    0.93
  -1   6 -15   -0.44    0.50
  -1   6 -15    0.35    0.46
   2  -7 -15   -0.59    0.93
   2   7 -15   -0.11    0.63
   2   7 -15    0.12    0.41
   1  -7 -15   14.70    2.68
   1   7 -15   16.82    2.34
   1   7 -15   15.89    1.44
   0  -7 -15    1.26    1.25
   0   7 -15    1.90    0.91
   0   7 -15    1.95    0.65
   0   0   0    0.00    0.00
;
_shelx_hkl_checksum              9135
loop_
_space_group_symop_operation_xyz
'x, y, z'
'-x+1/2, y+1/2, -z+1/2'
'-x, -y, -z'
'x-1/2, -y-1/2, z-1/2'
loop_
_atom_site_label
_atom_site_type_symbol
_atom_site_fract_x
_atom_site_fract_y
_atom_site_fract_z
_atom_site_U_iso_or_equiv
_atom_site_adp_type
_atom_site_occupancy
_atom_site_site_symmetry_order
_atom_site_calc_flag
_atom_site_refinement_flags_posn
_atom_site_refinement_flags_adp
Eu1 Eu 0.37984(2) 0.03950(2) 0.09976(2) 0.01630(8) Uani 1 1 d . .
N1 N 0.6440(5) 0.2451(5) 0.4897(5) 0.109(3) Uani 1 1 d . .
N2 N -0.3826(3) 0.2731(2) 0.1686(3) 0.0496(10) Uani 1 1 d . .
N3 N 0.2784(4) -0.0638(2) 0.2489(3) 0.0501(10) Uani 1 1 d . U
O1 O 0.3842(2) 0.13682(15) 0.2389(2) 0.0386(7) Uani 1 1 d . .
O1W O 0.8770(3) 0.2031(2) 0.5560(4) 0.0832(14) Uani 1 1 d . .
H1WB H 0.7982 0.1982 0.5409 0.100 Uiso 1 1 d R U
H1WA H 0.8970 0.1862 0.6202 0.125 Uiso 1 1 d R U
H1WC H 0.8961 0.2469 0.5548 0.125 Uiso 1 1 d R U
O2 O 0.2020(2) 0.10754(13) 0.1561(2) 0.0320(6) Uani 1 1 d . .
O3 O 0.5877(3) 0.03980(14) 0.1754(2) 0.0350(7) Uani 1 1 d . .
O4 O 0.7293(2) -0.00972(14) 0.0703(2) 0.0288(6) Uani 1 1 d . .
O5 O 0.0331(2) 0.42676(12) 0.4487(2) 0.0258(5) Uani 1 1 d . .
O6 O -0.1083(2) 0.34871(12) 0.4877(2) 0.0315(6) Uani 1 1 d . .
O7 O 0.3742(4) -0.0272(2) 0.2787(3) 0.0642(10) Uani 1 1 d . U
O8 O 0.2209(3) -0.04900(15) 0.1563(3) 0.0454(8) Uani 1 1 d . .
O9 O 0.2423(4) -0.11112(19) 0.3086(3) 0.0791(13) Uani 1 1 d . .
C1 C 0.5948(5) 0.3011(5) 0.4474(6) 0.097(3) Uani 1 1 d . .
H1 H 0.6441 0.3417 0.4440 0.116 Uiso 1 1 calc R U
C2 C 0.4699(4) 0.3037(3) 0.4062(4) 0.0574(14) Uani 1 1 d . .
H2 H 0.4362 0.3457 0.3762 0.069 Uiso 1 1 calc R U
C3 C 0.3949(4) 0.2432(3) 0.4099(3) 0.0426(11) Uani 1 1 d . .
C4 C 0.4482(5) 0.1823(3) 0.4582(4) 0.0681(18) Uani 1 1 d . .
H4 H 0.4013 0.1409 0.4636 0.082 Uiso 1 1 calc R U
C5 C 0.5750(8) 0.1852(5) 0.4986(5) 0.099(3) Uani 1 1 d . .
H5 H 0.6124 0.1452 0.5321 0.119 Uiso 1 1 calc R U
C6 C 0.2595(3) 0.24640(19) 0.3685(3) 0.0273(8) Uani 1 1 d . .
C7 C 0.1872(3) 0.30023(19) 0.4124(3) 0.0253(7) Uani 1 1 d . .
H7 H 0.2263 0.3317 0.4632 0.030 Uiso 1 1 calc R U
C8 C 0.0593(3) 0.30848(17) 0.3830(3) 0.0216(7) Uani 1 1 d . .
C9 C 0.0000(3) 0.26180(17) 0.3051(3) 0.0221(7) Uani 1 1 d . .
C10 C 0.0723(3) 0.20911(18) 0.2606(3) 0.0249(7) Uani 1 1 d . .
H10 H 0.0332 0.1780 0.2090 0.030 Uiso 1 1 calc R U
C11 C 0.2003(3) 0.20053(18) 0.2894(3) 0.0253(7) Uani 1 1 d . .
C12 C -0.1351(3) 0.26735(18) 0.2630(3) 0.0251(7) Uani 1 1 d . .
C13 C -0.1852(4) 0.3302(2) 0.2195(4) 0.0377(9) Uani 1 1 d . .
H13 H -0.1377 0.3717 0.2223 0.045 Uiso 1 1 calc R U
C14 C -0.3074(4) 0.3299(3) 0.1720(4) 0.0514(12) Uani 1 1 d . .
H14 H -0.3392 0.3719 0.1404 0.062 Uiso 1 1 calc R U
C15 C -0.3349(4) 0.2140(2) 0.2112(4) 0.0458(11) Uani 1 1 d . .
H15 H -0.3857 0.1738 0.2095 0.055 Uiso 1 1 calc R U
C16 C -0.2119(4) 0.2085(2) 0.2586(4) 0.0350(9) Uani 1 1 d . .
H16 H -0.1819 0.1654 0.2871 0.042 Uiso 1 1 calc R U
C17 C 0.2671(3) 0.14485(18) 0.2258(3) 0.0250(7) Uani 1 1 d . .
C18 C 0.6945(3) 0.01496(19) 0.1598(3) 0.0250(7) Uani 1 1 d . .
C19 C 0.7870(3) 0.01399(19) 0.2595(3) 0.0264(8) Uani 1 1 d . .
C20 C 0.7439(4) 0.0170(3) 0.3652(3) 0.0398(10) Uani 1 1 d . .
H20 H 0.6584 0.0233 0.3735 0.048 Uiso 1 1 calc R U
C21 C 0.8268(4) 0.0107(3) 0.4584(3) 0.0449(11) Uani 1 1 d . .
H21 H 0.7954 0.0110 0.5284 0.054 Uiso 1 1 calc R U
C22 C 0.9558(4) 0.0039(2) 0.4502(3) 0.0316(8) Uani 1 1 d . .
C23 C 0.9973(4) 0.0050(3) 0.3437(3) 0.0457(11) Uani 1 1 d . .
H23 H 1.0835 0.0035 0.3352 0.055 Uiso 1 1 calc R U
C24 C 0.9149(4) 0.0083(3) 0.2500(3) 0.0411(10) Uani 1 1 d . .
H24 H 0.9459 0.0067 0.1799 0.049 Uiso 1 1 calc R U
C25 C -0.0109(3) 0.36444(16) 0.4417(3) 0.0202(7) Uani 1 1 d . .
loop_
_atom_site_aniso_label
_atom_site_aniso_U_11
_atom_site_aniso_U_22
_atom_site_aniso_U_33
_atom_site_aniso_U_23
_atom_site_aniso_U_13
_atom_site_aniso_U_12
Eu1 0.01449(11) 0.02220(11) 0.01230(11) -0.00028(6) 0.00160(7) 0.00292(6)
N1 0.048(3) 0.202(8) 0.072(4) -0.085(5) -0.030(3) 0.046(4)
N2 0.0246(18) 0.065(3) 0.057(3) -0.014(2) -0.0106(17) 0.0019(18)
N3 0.071(3) 0.045(2) 0.039(2) 0.0118(18) 0.034(2) 0.0096(19)
O1 0.0217(14) 0.0512(16) 0.0423(16) -0.0225(13) -0.0010(12) 0.0098(12)
O1W 0.040(2) 0.086(3) 0.118(3) 0.055(3) -0.030(2) -0.0278(19)
O2 0.0228(13) 0.0378(14) 0.0354(15) -0.0157(12) 0.0019(11) 0.0051(11)
O3 0.0209(14) 0.0531(17) 0.0295(15) -0.0112(12) -0.0093(12) 0.0110(11)
O4 0.0227(13) 0.0442(14) 0.0191(13) -0.0054(11) -0.0021(10) 0.0027(11)
O5 0.0240(13) 0.0241(12) 0.0298(14) -0.0045(10) 0.0052(10) -0.0027(10)
O6 0.0309(14) 0.0264(12) 0.0398(15) -0.0038(11) 0.0188(12) -0.0033(11)
O7 0.087(3) 0.075(2) 0.0297(18) 0.0104(16) 0.0034(18) -0.013(2)
O8 0.0377(18) 0.0439(16) 0.057(2) 0.0084(15) 0.0205(16) 0.0013(13)
O9 0.117(4) 0.057(2) 0.070(3) 0.030(2) 0.051(2) 0.004(2)
C1 0.025(3) 0.186(8) 0.078(4) -0.083(5) -0.006(3) 0.000(4)
C2 0.022(2) 0.093(4) 0.057(3) -0.037(3) -0.001(2) -0.003(2)
C3 0.027(2) 0.072(3) 0.028(2) -0.024(2) -0.0062(17) 0.022(2)
C4 0.069(4) 0.096(4) 0.036(3) -0.025(3) -0.020(2) 0.046(3)
C5 0.092(5) 0.152(7) 0.046(3) -0.042(4) -0.030(4) 0.094(5)
C6 0.0209(18) 0.0382(19) 0.0228(19) -0.0051(15) 0.0014(15) 0.0057(15)
C7 0.0224(18) 0.0292(17) 0.0242(18) -0.0075(15) 0.0007(14) 0.0010(14)
C8 0.0207(17) 0.0238(16) 0.0206(17) -0.0023(13) 0.0044(13) -0.0035(14)
C9 0.0196(17) 0.0241(16) 0.0231(18) -0.0037(13) 0.0037(14) -0.0004(13)
C10 0.0226(18) 0.0260(17) 0.0261(18) -0.0081(14) 0.0015(14) -0.0010(14)
C11 0.0254(18) 0.0291(17) 0.0217(18) -0.0015(14) 0.0047(14) 0.0040(14)
C12 0.0200(17) 0.0316(18) 0.0240(19) -0.0097(15) 0.0039(14) 0.0009(14)
C13 0.032(2) 0.0332(19) 0.047(2) -0.0031(18) -0.0064(18) 0.0032(16)
C14 0.035(2) 0.053(3) 0.064(3) -0.002(2) -0.012(2) 0.009(2)
C15 0.029(2) 0.053(3) 0.054(3) -0.019(2) 0.002(2) -0.011(2)
C16 0.028(2) 0.032(2) 0.045(2) -0.0092(17) 0.0018(17) -0.0026(15)
C17 0.0235(18) 0.0290(17) 0.0230(18) -0.0027(14) 0.0043(14) 0.0033(14)
C18 0.0219(18) 0.0294(17) 0.0229(19) -0.0039(15) -0.0044(14) 0.0010(14)
C19 0.0233(19) 0.0331(18) 0.0216(18) -0.0043(15) -0.0063(15) 0.0030(15)
C20 0.023(2) 0.071(3) 0.025(2) -0.009(2) -0.0038(16) 0.013(2)
C21 0.030(2) 0.085(3) 0.019(2) -0.014(2) -0.0024(16) 0.011(2)
C22 0.027(2) 0.044(2) 0.0221(19) -0.0070(16) -0.0084(16) 0.0045(16)
C23 0.020(2) 0.087(3) 0.029(2) -0.002(2) -0.0037(17) 0.008(2)
C24 0.027(2) 0.075(3) 0.021(2) -0.003(2) -0.0013(16) 0.005(2)
C25 0.0198(16) 0.0207(15) 0.0195(17) -0.0008(13) -0.0026(13) 0.0001(13)
loop_
_atom_type_symbol
_atom_type_description
_atom_type_scat_dispersion_real
_atom_type_scat_dispersion_imag
_atom_type_scat_source
C C 0.0033 0.0016 'International Tables Vol C Tables 4.2.6.8 and 6.1.1.4'
H H 0.0000 0.0000 'International Tables Vol C Tables 4.2.6.8 and 6.1.1.4'
N N 0.0061 0.0033 'International Tables Vol C Tables 4.2.6.8 and 6.1.1.4'
O O 0.0106 0.0060 'International Tables Vol C Tables 4.2.6.8 and 6.1.1.4'
Eu Eu -0.1578 3.6682 'International Tables Vol C Tables 4.2.6.8 and 6.1.1.4'
loop_
_geom_angle_atom_site_label_1
_geom_angle_atom_site_label_2
_geom_angle_atom_site_label_3
_geom_angle
_geom_angle_site_symmetry_1
_geom_angle_site_symmetry_3
O3 Eu1 O4 137.49(9) . 3_655
O3 Eu1 O5 74.12(8) . 2_545
O4 Eu1 O5 75.64(8) 3_655 2_545
O3 Eu1 O2 128.82(9) . .
O4 Eu1 O2 91.41(8) 3_655 .
O5 Eu1 O2 149.00(8) 2_545 .
O3 Eu1 O1 76.28(9) . .
O4 Eu1 O1 138.56(9) 3_655 .
O5 Eu1 O1 145.80(9) 2_545 .
O2 Eu1 O1 52.89(8) . .
O3 Eu1 O7 75.21(12) . .
O4 Eu1 O7 126.26(11) 3_655 .
O5 Eu1 O7 78.42(11) 2_545 .
O2 Eu1 O7 87.48(12) . .
O1 Eu1 O7 77.80(11) . .
O3 Eu1 O8 122.37(11) . .
O4 Eu1 O8 77.17(10) 3_655 .
O5 Eu1 O8 75.97(8) 2_545 .
O2 Eu1 O8 73.71(9) . .
O1 Eu1 O8 106.71(10) . .
O7 Eu1 O8 51.09(12) . .
O3 Eu1 O6 97.23(9) . 4_665
O4 Eu1 O6 76.77(9) 3_655 4_665
O5 Eu1 O6 125.08(8) 2_545 4_665
O2 Eu1 O6 77.16(9) . 4_665
O1 Eu1 O6 75.25(10) . 4_665
O7 Eu1 O6 153.03(11) . 4_665
O8 Eu1 O6 140.01(10) . 4_665
O3 Eu1 O5 69.51(9) . 4_665
O4 Eu1 O5 75.10(8) 3_655 4_665
O5 Eu1 O5 76.98(8) 2_545 4_665
O2 Eu1 O5 127.36(8) . 4_665
O1 Eu1 O5 108.05(9) . 4_665
O7 Eu1 O5 141.23(11) . 4_665
O8 Eu1 O5 145.12(9) . 4_665
O6 Eu1 O5 50.33(7) 4_665 4_665
O3 Eu1 C25 81.00(10) . 4_665
O4 Eu1 C25 76.92(9) 3_655 4_665
O5 Eu1 C25 102.10(8) 2_545 4_665
O2 Eu1 C25 102.14(9) . 4_665
O1 Eu1 C25 89.70(10) . 4_665
O7 Eu1 C25 155.13(11) . 4_665
O8 Eu1 C25 153.63(10) . 4_665
O6 Eu1 C25 24.99(8) 4_665 4_665
O5 Eu1 C25 25.57(8) 4_665 4_665
O3 Eu1 Eu1 66.41(7) . 3_655
O4 Eu1 Eu1 71.17(6) 3_655 3_655
O5 Eu1 Eu1 40.35(6) 2_545 3_655
O2 Eu1 Eu1 158.16(6) . 3_655
O1 Eu1 Eu1 135.43(6) . 3_655
O7 Eu1 Eu1 113.28(10) . 3_655
O8 Eu1 Eu1 113.37(7) . 3_655
O6 Eu1 Eu1 85.85(6) 4_665 3_655
O5 Eu1 Eu1 36.63(5) 4_665 3_655
C25 Eu1 Eu1 61.90(6) 4_665 3_655
C1 N1 C5 120.9(6) . .
C15 N2 C14 117.0(4) . .
O9 N3 O7 120.7(5) . .
O9 N3 O8 121.8(5) . .
O7 N3 O8 117.5(4) . .
C17 O1 Eu1 92.0(2) . .
H1WB O1W H1WA 109.5 . .
H1WB O1W H1WC 109.5 . .
H1WA O1W H1WC 109.5 . .
C17 O2 Eu1 94.5(2) . .
C18 O3 Eu1 141.6(2) . .
C18 O4 Eu1 132.9(2) . 3_655
C25 O5 Eu1 162.0(2) . 2
C25 O5 Eu1 91.4(2) . 4_566
Eu1 O5 Eu1 103.02(8) 2 4_566
C25 O6 Eu1 96.65(19) . 4_566
N3 O7 Eu1 95.6(3) . .
N3 O8 Eu1 95.4(3) . .
N1 C1 C2 122.1(8) . .
N1 C1 H1 118.9 . .
C2 C1 H1 118.9 . .
C1 C2 C3 119.7(6) . .
C1 C2 H2 120.2 . .
C3 C2 H2 120.2 . .
C4 C3 C2 118.2(4) . .
C4 C3 C6 122.0(5) . .
C2 C3 C6 119.8(4) . .
C3 C4 C5 117.8(7) . .
C3 C4 H4 121.1 . .
C5 C4 H4 121.1 . .
N1 C5 C4 121.2(6) . .
N1 C5 H5 119.4 . .
C4 C5 H5 119.4 . .
C7 C6 C11 118.2(3) . .
C7 C6 C3 116.5(3) . .
C11 C6 C3 125.3(3) . .
C8 C7 C6 122.6(3) . .
C8 C7 H7 118.7 . .
C6 C7 H7 118.7 . .
C7 C8 C9 119.0(3) . .
C7 C8 C25 118.1(3) . .
C9 C8 C25 122.8(3) . .
C10 C9 C8 118.2(3) . .
C10 C9 C12 117.7(3) . .
C8 C9 C12 124.0(3) . .
C9 C10 C11 123.1(3) . .
C9 C10 H10 118.4 . .
C11 C10 H10 118.4 . .
C10 C11 C6 118.8(3) . .
C10 C11 C17 116.3(3) . .
C6 C11 C17 124.7(3) . .
C16 C12 C13 117.5(3) . .
C16 C12 C9 120.7(3) . .
C13 C12 C9 121.6(3) . .
C14 C13 C12 118.6(4) . .
C14 C13 H13 120.7 . .
C12 C13 H13 120.7 . .
N2 C14 C13 124.0(4) . .
N2 C14 H14 118.0 . .
C13 C14 H14 118.0 . .
N2 C15 C16 123.3(4) . .
N2 C15 H15 118.4 . .
C16 C15 H15 118.4 . .
C12 C16 C15 119.6(4) . .
C12 C16 H16 120.2 . .
C15 C16 H16 120.2 . .
O1 C17 O2 120.6(3) . .
O1 C17 C11 121.4(3) . .
O2 C17 C11 118.0(3) . .
O4 C18 O3 126.4(3) . .
O4 C18 C19 118.0(3) . .
O3 C18 C19 115.6(3) . .
C24 C19 C20 118.3(3) . .
C24 C19 C18 121.9(3) . .
C20 C19 C18 119.7(3) . .
C21 C20 C19 120.7(4) . .
C21 C20 H20 119.7 . .
C19 C20 H20 119.7 . .
C20 C21 C22 121.7(4) . .
C20 C21 H21 119.2 . .
C22 C21 H21 119.2 . .
C23 C22 C21 116.5(3) . .
C23 C22 C22 121.8(4) . 3_756
C21 C22 C22 121.6(5) . 3_756
C24 C23 C22 122.2(4) . .
C24 C23 H23 118.9 . .
C22 C23 H23 118.9 . .
C19 C24 C23 120.5(4) . .
C19 C24 H24 119.7 . .
C23 C24 H24 119.7 . .
O6 C25 O5 120.5(3) . .
O6 C25 C8 120.1(3) . .
O5 C25 C8 119.3(3) . .
O6 C25 Eu1 58.36(17) . 4_566
O5 C25 Eu1 62.99(17) . 4_566
C8 C25 Eu1 167.6(2) . 4_566
loop_
_geom_bond_atom_site_label_1
_geom_bond_atom_site_label_2
_geom_bond_distance
_geom_bond_site_symmetry_2
Eu1 O3 2.330(3) .
Eu1 O4 2.351(2) 3_655
Eu1 O5 2.405(2) 2_545
Eu1 O2 2.423(2) .
Eu1 O1 2.483(3) .
Eu1 O7 2.502(3) .
Eu1 O8 2.504(3) .
Eu1 O6 2.510(2) 4_665
Eu1 O5 2.610(2) 4_665
Eu1 C25 2.929(3) 4_665
Eu1 Eu1 3.9280(4) 3_655
N1 C1 1.268(11) .
N1 C5 1.355(11) .
N2 C15 1.313(6) .
N2 C14 1.335(6) .
N3 O9 1.226(5) .
N3 O7 1.260(6) .
N3 O8 1.266(5) .
O1 C17 1.253(4) .
O1W H1WB 0.8500 .
O1W H1WA 0.8500 .
O1W H1WC 0.8500 .
O2 C17 1.264(4) .
O3 C18 1.256(4) .
O4 C18 1.255(4) .
O4 Eu1 2.351(2) 3_655
O5 C25 1.265(4) .
O5 Eu1 2.405(2) 2
O5 Eu1 2.610(2) 4_566
O6 C25 1.246(4) .
O6 Eu1 2.510(2) 4_566
C1 C2 1.386(7) .
C1 H1 0.9300 .
C2 C3 1.395(7) .
C2 H2 0.9300 .
C3 C4 1.389(7) .
C3 C6 1.492(5) .
C4 C5 1.402(9) .
C4 H4 0.9300 .
C5 H5 0.9300 .
C6 C7 1.400(5) .
C6 C11 1.402(5) .
C7 C8 1.389(5) .
C7 H7 0.9300 .
C8 C9 1.403(5) .
C8 C25 1.499(5) .
C9 C10 1.387(5) .
C9 C12 1.493(5) .
C10 C11 1.390(5) .
C10 H10 0.9300 .
C11 C17 1.507(5) .
C12 C16 1.375(5) .
C12 C13 1.386(5) .
C13 C14 1.383(6) .
C13 H13 0.9300 .
C14 H14 0.9300 .
C15 C16 1.394(6) .
C15 H15 0.9300 .
C16 H16 0.9300 .
C18 C19 1.498(5) .
C19 C24 1.378(5) .
C19 C20 1.386(5) .
C20 C21 1.383(5) .
C20 H20 0.9300 .
C21 C22 1.389(6) .
C21 H21 0.9300 .
C22 C23 1.388(6) .
C22 C22 1.479(7) 3_756
C23 C24 1.381(6) .
C23 H23 0.9300 .
C24 H24 0.9300 .
C25 Eu1 2.929(3) 4_566
