#------------------------------------------------------------------------------
#$Date: 2018-02-04 00:23:35 +0200 (Sun, 04 Feb 2018) $
#$Revision: 206109 $
#$URL: file:///home/coder/svn-repositories/cod/cif/4/51/43/4514371.cif $
#------------------------------------------------------------------------------
#
# This file is available in the Crystallography Open Database (COD),
# http://www.crystallography.net/
#
# All data on this site have been placed in the public domain by the
# contributors.
#
data_4514371
loop_
_publ_author_name
'Li, Qiyang'
'Wu, Xiuju'
'Huang, Xiaoli'
'Deng, Yangjun'
'Chen, Nanjian'
'Jiang, Dandan'
'Zhao, Lili'
'Lin, Zhihua'
'Zhao, Yonggang'
_publ_section_title
;
 Tailoring the Fluorescence of AIE-Active Metal-Organic Frameworks for
 Aqueous Sensing of Metal Ions.
;
_journal_issue                   4
_journal_name_full               'ACS applied materials &amp; interfaces'
_journal_page_first              3801
_journal_page_last               3809
_journal_paper_doi               10.1021/acsami.7b17762
_journal_volume                  10
_journal_year                    2018
_chemical_formula_sum            'C36 H36 N2 O8'
_chemical_formula_weight         624.67
_chemical_name_systematic
;
 ?
;
_space_group_crystal_system      triclinic
_space_group_IT_number           2
_space_group_name_Hall           '-P 1'
_space_group_name_H-M_alt        'P -1'
_symmetry_space_group_name_Hall  '-P 1'
_symmetry_space_group_name_H-M   'P -1'
_atom_sites_solution_hydrogens   mixed
_atom_sites_solution_primary     direct
_atom_sites_solution_secondary   difmap
_audit_creation_method           SHELXL-2013
_cell_angle_alpha                90.845(5)
_cell_angle_beta                 103.081(5)
_cell_angle_gamma                100.918(6)
_cell_formula_units_Z            1
_cell_length_a                   7.488(4)
_cell_length_b                   8.510(4)
_cell_length_c                   13.655(7)
_cell_measurement_reflns_used    1141
_cell_measurement_temperature    296(2)
_cell_measurement_theta_max      22.200
_cell_measurement_theta_min      2.442
_cell_volume                     830.7(7)
_computing_cell_refinement       'Bruker SMART'
_computing_data_collection       'Bruker SMART'
_computing_data_reduction        'Bruker SAINT'
_computing_molecular_graphics    'SHELXL-2013 (Sheldrick, 2013)'
_computing_publication_material  'SHELXL-2013 (Sheldrick, 2013)'
_computing_structure_refinement  'SHELXL-2013 (Sheldrick, 2013)'
_computing_structure_solution    'SHELXL-2013 (Sheldrick, 2013)'
_diffrn_ambient_temperature      296(2)
_diffrn_measured_fraction_theta_full 0.981
_diffrn_measured_fraction_theta_max 0.888
_diffrn_measurement_device_type  'CCD area detector'
_diffrn_measurement_method       'phi and omega scans'
_diffrn_radiation_type           MoK\a
_diffrn_radiation_wavelength     0.71073
_diffrn_reflns_av_R_equivalents  0.0304
_diffrn_reflns_av_unetI/netI     0.0530
_diffrn_reflns_Laue_measured_fraction_full 0.981
_diffrn_reflns_Laue_measured_fraction_max 0.888
_diffrn_reflns_limit_h_max       8
_diffrn_reflns_limit_h_min       -9
_diffrn_reflns_limit_k_max       10
_diffrn_reflns_limit_k_min       -10
_diffrn_reflns_limit_l_max       17
_diffrn_reflns_limit_l_min       -15
_diffrn_reflns_number            6058
_diffrn_reflns_point_group_measured_fraction_full 0.981
_diffrn_reflns_point_group_measured_fraction_max 0.888
_diffrn_reflns_theta_full        25.242
_diffrn_reflns_theta_max         26.655
_diffrn_reflns_theta_min         1.534
_diffrn_source                   'fine-focus sealed tube'
_exptl_absorpt_coefficient_mu    0.089
_exptl_absorpt_correction_type   none
_exptl_crystal_colour            pale-green
_exptl_crystal_density_diffrn    1.249
_exptl_crystal_density_method    'not measured'
_exptl_crystal_description       prism-like
_exptl_crystal_F_000             330
_exptl_crystal_size_max          0.150
_exptl_crystal_size_mid          0.030
_exptl_crystal_size_min          0.030
_refine_diff_density_max         0.412
_refine_diff_density_min         -0.216
_refine_diff_density_rms         0.049
_refine_ls_extinction_coef       0.018(7)
_refine_ls_extinction_expression Fc^*^=kFc[1+0.001xFc^2^\l^3^/sin(2\q)]^-1/4^
_refine_ls_extinction_method     SHELXL
_refine_ls_goodness_of_fit_ref   1.130
_refine_ls_hydrogen_treatment    constr
_refine_ls_matrix_type           full
_refine_ls_number_parameters     209
_refine_ls_number_reflns         3125
_refine_ls_number_restraints     7
_refine_ls_restrained_S_all      1.149
_refine_ls_R_factor_all          0.1220
_refine_ls_R_factor_gt           0.0657
_refine_ls_shift/su_max          0.000
_refine_ls_shift/su_mean         0.000
_refine_ls_structure_factor_coef Fsqd
_refine_ls_weighting_details
;
 w=1/[\s^2^(Fo^2^)+(0.1023P)^2^+0.0118P]
 where P=(Fo^2^+2Fc^2^)/3
;
_refine_ls_weighting_scheme      calc
_refine_ls_wR_factor_gt          0.1844
_refine_ls_wR_factor_ref         0.2167
_reflns_Friedel_coverage         0.000
_reflns_number_gt                1669
_reflns_number_total             3125
_reflns_threshold_expression     'I > 2\s(I)'
_cod_data_source_file            am7b17762_si_004.cif
_cod_data_source_block           H4L
_cod_depositor_comments
'Adding full bibliography for 4514370--4514372.cif.'
_cod_original_cell_volume        830.8(7)
_cod_database_code               4514371
_shelx_space_group_comment
;
The symmetry employed for this shelxl refinement is uniquely defined
by the following loop, which should always be used as a source of
symmetry information in preference to the above space-group names.
They are only intended as comments.
;
_shelx_estimated_absorpt_t_min   0.987
_shelx_estimated_absorpt_t_max   0.997
_shelxl_version_number           2013-2
_shelx_res_file
;

TITL a in P-1
CELL 0.71073   7.4882   8.5102  13.6554  90.845 103.081 100.918
ZERR   1.00   0.0036   0.0041   0.0065   0.005   0.005   0.006
LATT  1
SFAC C H N O
UNIT 36 36 2 8
TEMP 23.000
L.S. 32
BOND $h
size 0.15 0.03 0.03
bond $H
isor 0.01 c12

FMAP 2
PLAN 20
DELU 0.02 0.01 C12 C13
acta
WGHT    0.102300    0.011800
EXTI    0.018129
FVAR       0.23169
O1    4    0.195078    0.400640    0.444829    11.00000    0.06852    0.08245 =
         0.04954    0.01179    0.01204    0.02562
AFIX   3
H1A   2    0.297666    0.371510    0.481674    11.00000   -1.50000
AFIX   0
O2    4    0.319312    0.363065    0.315772    11.00000    0.07339    0.11330 =
         0.06029    0.00291    0.01715    0.04201
O3    4    0.173491    0.455109    0.140818    11.00000    0.06830    0.14322 =
         0.05530    0.00889    0.02576    0.04281
AFIX  83
H3A   2    0.248954    0.417338    0.182267    11.00000   -1.50000
AFIX   0
C1    1    0.199046    0.410328    0.349138    11.00000    0.05987    0.05536 =
         0.04837    0.00020    0.01102    0.00747
C2    1    0.050887    0.478637    0.287238    11.00000    0.04785    0.04608 =
         0.04316   -0.00268    0.01069    0.00092
C3    1    0.044665    0.497131    0.185185    11.00000    0.05022    0.06795 =
         0.04925   -0.00448    0.01749    0.00613
C4    1   -0.097342    0.559681    0.125060    11.00000    0.05424    0.06983 =
         0.03930    0.00148    0.01153    0.00400
AFIX  43
H4A   2   -0.098866    0.572107    0.057345    11.00000   -1.20000
AFIX   0
C5    1   -0.236747    0.603899    0.164097    11.00000    0.04862    0.04165 =
         0.04392   -0.00248    0.00842    0.00040
C6    1   -0.230246    0.587306    0.266417    11.00000    0.05551    0.05160 =
         0.04486   -0.00314    0.01525    0.00954
AFIX  43
H6A   2   -0.321560    0.618235    0.294302    11.00000   -1.20000
AFIX   0
C7    1   -0.089989    0.525723    0.325618    11.00000    0.06149    0.05070 =
         0.03656    0.00040    0.01372    0.00828
AFIX  43
H7A   2   -0.088266    0.514833    0.393474    11.00000   -1.20000
AFIX   0
C8    1   -0.391256    0.666040    0.098037    11.00000    0.05666    0.03849 =
         0.04318    0.00007    0.01255    0.00469
C9    1   -0.418151    0.828015    0.125278    11.00000    0.08553    0.04034 =
         0.04262    0.00135    0.01686    0.00596
C10   1   -0.590591    0.871699    0.099576    11.00000    0.09932    0.05832 =
         0.06788    0.00179    0.02356    0.03331
AFIX  43
H10A  2   -0.694708    0.796711    0.066203    11.00000   -1.20000
AFIX   0
C11   1   -0.610912    1.025944    0.122811    11.00000    0.15930    0.07637 =
         0.08281    0.01471    0.04873    0.05695
AFIX  43
H11A  2   -0.727444    1.054026    0.103449    11.00000   -1.20000
AFIX   0
C12   1   -0.462327    1.134972    0.173304    11.00000    0.19362    0.05665 =
         0.08545    0.01127    0.05082    0.03484
AFIX  43
H12A  2   -0.477022    1.237446    0.189763    11.00000   -1.20000
AFIX   0
C13   1   -0.292626    1.095728    0.199953    11.00000    0.17355    0.04578 =
         0.08100   -0.01263    0.02767   -0.01127
AFIX  43
H13A  2   -0.190704    1.171832    0.234451    11.00000   -1.20000
AFIX   0
C14   1   -0.267756    0.942874    0.176565    11.00000    0.11337    0.05167 =
         0.06899   -0.00810    0.00996   -0.00272
AFIX  43
H14A  2   -0.149654    0.917663    0.195437    11.00000   -1.20000
AFIX   0
C15   1   -0.502163    0.579994    0.016444    11.00000    0.05313    0.04362 =
         0.04224    0.00232    0.00910    0.00884
AFIX  43
H15A  2   -0.591587    0.629159   -0.023168    11.00000   -1.20000
AFIX   0
O4    4    0.442796    0.267266    0.549278    11.00000    0.08134    0.09286 =
         0.07155    0.00747    0.01910    0.03185
N1    3    0.695949    0.156004    0.557536    11.00000    0.06280    0.05764 =
         0.07849    0.00190    0.01129    0.00898
C16   1    0.570031    0.236768    0.511341    11.00000    0.08562    0.06450 =
         0.06889    0.00639    0.00821    0.00451
AFIX  43
H16A  2    0.576584    0.272316    0.447936    11.00000   -1.20000
AFIX   0
C17   1    0.698638    0.104883    0.656136    11.00000    0.10182    0.09010 =
         0.08817    0.02342    0.00031    0.01040
AFIX  33
H17A  2    0.799110    0.048490    0.677088    11.00000   -1.50000
H17B  2    0.581951    0.035007    0.656370    11.00000   -1.50000
H17C  2    0.716672    0.196544    0.701701    11.00000   -1.50000
AFIX   0
C18   1    0.834898    0.121425    0.506459    11.00000    0.08709    0.10415 =
         0.15135   -0.01406    0.04853    0.01059
AFIX  33
H18A  2    0.916009    0.062561    0.549012    11.00000   -1.50000
H18B  2    0.907145    0.220090    0.491591    11.00000   -1.50000
H18C  2    0.773716    0.058685    0.444889    11.00000   -1.50000

AFIX   0
HKLF 4

REM  a in P-1
REM R1 =  0.0657 for    1669 Fo > 4sig(Fo)  and  0.1220 for all    3125 data
REM    209 parameters refined using      7 restraints

END

WGHT      0.1105      0.0800

REM Highest difference peak  0.412,  deepest hole -0.216,  1-sigma level  0.049
Q1    1   0.5529  0.1810  0.6089  11.00000  0.05    0.41
Q2    1   0.8614  0.0613  0.6313  11.00000  0.05    0.31
Q3    1   0.6951  0.1822  0.4687  11.00000  0.05    0.27
Q4    1   0.8482  0.1732  0.7025  11.00000  0.05    0.22
Q5    1   0.0299  0.4307  0.2390  11.00000  0.05    0.20
Q6    1   0.8308 -0.0368  0.5129  11.00000  0.05    0.19
Q7    1   0.5505  0.1467  0.6790  11.00000  0.05    0.19
Q8    1   0.0611  0.5462  0.2479  11.00000  0.05    0.19
Q9    1   0.9894  0.1831  0.5637  11.00000  0.05    0.18
Q10   1   0.7003 -0.0282  0.6564  11.00000  0.05    0.18
Q11   1  -0.2543  0.5408  0.2048  11.00000  0.05    0.18
Q12   1   0.8189  0.1587  0.4215  11.00000  0.05    0.16
Q13   1  -0.0116  0.5420  0.1639  11.00000  0.05    0.16
Q14   1   0.5994  0.2463  0.4181  11.00000  0.05    0.16
Q15   1  -0.0899  0.4659  0.3887  11.00000  0.05    0.15
Q16   1  -0.1471  0.6266  0.1587  11.00000  0.05    0.15
Q17   1   0.1745  0.3419  0.4015  11.00000  0.05    0.15
Q18   1  -0.6236  0.8655  0.0012  11.00000  0.05    0.14
Q19   1   0.5478  0.2320  0.6765  11.00000  0.05    0.14
Q20   1  -0.1245  1.0825  0.1892  11.00000  0.05    0.14
;
_shelx_res_checksum              50327
_shelx_hkl_file
;
  -1   0   0   62.40    1.34
   1   0   0   59.43    1.35
  -2   0   0   30.42    0.66
  -2   0   0   29.40    0.73
   2   0   0   29.63    0.74
  -3   0   0    6.80    0.28
  -3   0   0    6.35    0.22
   3   0   0    5.92    0.28
  -4   0   0    0.58    0.10
  -4   0   0    0.28    0.13
   4   0   0    0.46    0.13
  -5   0   0    0.60    0.13
  -5   0   0    0.38    0.16
   5   0   0    0.63    0.16
  -6   0   0    0.53    0.20
   6   0   0    0.64    0.19
  -7   0   0    0.35    0.20
   7   0   0    0.15    0.19
  -8   0   0    0.25    0.25
   8   0   0    0.85    0.25
  -8   1   0    0.02    0.21
   7  -1   0    3.99    0.35
  -7   1   0    3.08    0.37
   6  -1   0    2.08    0.24
  -6   1   0    1.48    0.25
   5  -1   0    0.13    0.13
  -5   1   0   -0.05    0.13
  -5   1   0    0.05    0.09
   4  -1   0   10.85    0.39
  -4   1   0   11.17    0.33
  -4   1   0   10.56    0.42
   3  -1   0   23.18    0.61
  -3   1   0   23.06    0.64
  -3   1   0   23.86    0.54
   2  -1   0    0.07    0.06
  -2   1   0    0.02    0.05
  -2   1   0   -0.04    0.07
   1  -1   0   77.30    1.71
  -1   1   0   80.18    1.72
  -1   1   0   77.39    1.60
   0   1   0  102.97    2.11
   0   1   0  100.70    2.26
   0   1   0  106.84    2.24
  -1  -1   0  307.65    6.40
   1   1   0  292.98    6.04
   1   1   0  296.16    6.49
  -2  -1   0   11.20    0.35
   2   1   0   10.71    0.31
   2   1   0   10.55    0.36
  -3  -1   0   14.80    0.47
   3   1   0   14.08    0.47
  -4  -1   0    0.74    0.15
  -4  -1   0    0.37    0.08
   4   1   0    0.75    0.16
  -5  -1   0    1.63    0.24
  -5  -1   0    2.12    0.19
   5   1   0    1.59    0.22
  -6  -1   0    0.62    0.15
  -6  -1   0    0.68    0.20
   6   1   0    0.38    0.18
  -7  -1   0    4.00    0.37
   7   1   0    5.41    0.40
  -8  -1   0    0.47    0.25
   8   1   0    0.33    0.24
  -8   2   0    0.21    0.21
  -7   2   0    4.82    0.39
   6  -2   0    0.03    0.14
  -6   2   0   -0.05    0.15
   5  -2   0    0.16    0.12
  -5   2   0   -0.06    0.09
  -5   2   0    0.24    0.14
   4  -2   0    2.18    0.19
  -4   2   0    2.10    0.15
  -4   2   0    2.26    0.20
   3  -2   0    0.95    0.10
  -3   2   0    1.07    0.10
  -3   2   0    0.82    0.12
   2  -2   0   18.45    0.47
  -2   2   0   18.86    0.52
  -2   2   0   18.86    0.44
  -1   2   0   75.63    1.72
  -1   2   0   79.51    1.73
   0   2   0  107.22    2.29
   0   2   0  104.52    2.17
   0   2   0  101.43    2.31
  -1  -2   0 1000.00   21.13
   1   2   0  989.67   20.04
   1   2   0  968.66   21.40
  -2  -2   0    3.98    0.21
   2   2   0    4.25    0.21
   2   2   0    4.21    0.26
  -3  -2   0    8.02    0.33
   3   2   0    7.99    0.31
   3   2   0    8.49    0.37
  -4  -2   0    0.44    0.16
   4   2   0    0.53    0.16
  -5  -2   0    0.52    0.13
  -5  -2   0    0.85    0.20
   5   2   0    0.56    0.18
  -6  -2   0    0.43    0.13
  -6  -2   0    0.05    0.17
   6   2   0    0.45    0.20
  -7  -2   0    0.51    0.23
   7   2   0    1.08    0.25
  -8  -2   0   -0.05    0.22
   8   2   0   -0.17    0.23
  -8   3   0    0.00    0.21
  -7   3   0    0.02    0.16
   6  -3   0    4.98    0.34
  -6   3   0    3.68    0.32
   5  -3   0    1.66    0.18
  -5   3   0    1.41    0.20
   4  -3   0    0.43    0.10
  -4   3   0    0.34    0.12
  -4   3   0    0.53    0.09
   3  -3   0    3.63    0.17
  -3   3   0    3.73    0.22
  -3   3   0    3.44    0.17
  -2   3   0    3.89    0.20
  -2   3   0    3.85    0.17
  -2   3   0    3.87    0.19
  -1   3   0   11.70    0.37
  -1   3   0   12.17    0.34
  -1   3   0   11.69    0.35
   0   3   0   48.06    1.16
   0   3   0   49.16    1.15
   0   3   0   49.52    1.09
  -1  -3   0  117.24    2.62
   1   3   0  118.01    2.68
   1   3   0  118.80    2.50
  -2  -3   0   68.17    1.59
   2   3   0   67.81    1.65
   2   3   0   66.95    1.51
  -3  -3   0    4.08    0.26
   3   3   0    4.17    0.31
   3   3   0    4.00    0.25
  -4  -3   0    0.58    0.18
   4   3   0    0.68    0.19
   4   3   0    0.71    0.15
  -5  -3   0    0.01    0.17
  -5  -3   0    0.07    0.11
   5   3   0    0.09    0.17
  -6  -3   0    0.96    0.18
  -6  -3   0    0.71    0.22
   6   3   0    0.50    0.21
  -7  -3   0    0.19    0.22
   7   3   0    0.10    0.22
  -8   4   0    0.09    0.19
  -7   4   0    0.11    0.17
  -6   4   0    4.87    0.36
   5  -4   0    0.08    0.12
  -5   4   0    0.05    0.13
   4  -4   0    0.12    0.09
  -4   4   0    0.20    0.11
  -4   4   0    0.01    0.08
   3  -4   0    0.52    0.09
  -3   4   0    0.53    0.12
  -3   4   0    0.66    0.10
  -2   4   0    1.03    0.14
  -2   4   0    1.08    0.12
  -1   4   0    0.92    0.11
  -1   4   0    1.07    0.12
  -1   4   0    0.69    0.11
   0   4   0   30.84    0.77
   0   4   0   31.22    0.82
   0   4   0   31.61    0.81
  -1  -4   0   29.94    0.79
   1   4   0   29.82    0.77
   1   4   0   30.03    0.83
  -2  -4   0  100.01    2.30
   2   4   0   95.75    2.17
   2   4   0  101.76    2.37
  -3  -4   0    0.20    0.14
   3   4   0    0.04    0.13
   3   4   0    0.07    0.11
  -4  -4   0    1.12    0.21
   4   4   0    1.13    0.22
   4   4   0    1.58    0.21
  -5  -4   0    0.20    0.15
   5   4   0    0.33    0.19
  -6  -4   0   -0.18    0.17
  -6  -4   0    0.08    0.12
   6   4   0   -0.17    0.20
   7   4   0    0.17    0.24
  -8   5   0   -0.02    0.20
  -7   5   0    0.16    0.17
  -6   5   0   -0.04    0.13
  -5   5   0    2.54    0.28
  -4   5   0    0.98    0.13
  -4   5   0    0.87    0.17
  -3   5   0    2.20    0.22
  -3   5   0    1.98    0.17
  -2   5   0    0.69    0.13
  -2   5   0    0.68    0.12
  -2   5   0    0.96    0.13
  -1   5   0    4.73    0.24
  -1   5   0    4.68    0.25
  -1   5   0    4.93    0.26
   0   5   0    0.98    0.14
   0   5   0    0.73    0.12
   0   5   0    0.50    0.12
  -1  -5   0   17.90    0.56
   1   5   0   17.50    0.59
   1   5   0   16.85    0.55
  -2  -5   0   16.53    0.57
   2   5   0   17.15    0.55
   2   5   0   16.58    0.62
  -3  -5   0    2.96    0.27
   3   5   0    3.09    0.32
   3   5   0    3.62    0.28
  -4  -5   0    0.14    0.16
   4   5   0    0.15    0.14
   4   5   0   -0.22    0.16
  -5  -5   0   -0.17    0.16
   5   5   0   -0.05    0.15
   5   5   0    0.21    0.21
  -6  -5   0   -0.06    0.14
   6   5   0   -0.05    0.23
  -7   6   0    0.10    0.18
  -6   6   0    0.15    0.16
  -5   6   0    0.49    0.17
  -4   6   0    6.17    0.30
  -4   6   0    5.38    0.34
  -3   6   0    2.05    0.23
  -3   6   0    2.44    0.19
  -2   6   0    0.25    0.11
  -2   6   0    0.09    0.10
  -2   6   0    0.09    0.10
  -1   6   0    8.75    0.35
  -1   6   0    8.67    0.37
  -1   6   0    8.51    0.37
   0   6   0    1.88    0.20
   0   6   0    1.54    0.18
   0   6   0    1.67    0.20
  -1  -6   0    3.20    0.25
   1   6   0    3.12    0.26
   1   6   0    3.29    0.29
  -2  -6   0   11.25    0.47
   2   6   0   10.92    0.46
   2   6   0   10.88    0.52
  -3  -6   0   13.52    0.55
   3   6   0   14.15    0.62
   3   6   0   13.02    0.52
  -4  -6   0    0.50    0.19
   4   6   0    0.59    0.19
   4   6   0    0.94    0.26
   5   6   0    0.11    0.17
   5   6   0   -0.06    0.23
  -6  -6   0    0.29    0.18
  -7   7   0    0.34    0.19
  -6   7   0    0.01    0.15
  -5   7   0   -0.11    0.12
  -4   7   0    0.59    0.16
  -3   7   0    0.66    0.16
  -3   7   0    0.07    0.06
  -2   7   0    0.60    0.15
  -2   7   0    0.79    0.16
  -1   7   0    0.48    0.14
  -1   7   0    0.52    0.15
  -1   7   0    0.51    0.14
   0   7   0    1.50    0.21
   0   7   0    1.30    0.18
   0   7   0    1.37    0.20
  -1  -7   0    2.88    0.27
   1   7   0    2.61    0.28
   1   7   0    3.01    0.28
  -2  -7   0    0.80    0.20
   2   7   0    0.62    0.20
   2   7   0    0.60    0.17
  -3  -7   0    7.47    0.45
   3   7   0    8.24    0.50
   3   7   0    8.09    0.43
   4   7   0   -0.02    0.23
   4   7   0    0.22    0.18
   5   7   0   -0.01    0.20
  -6   8   0    0.15    0.18
  -5   8   0    0.28    0.17
  -4   8   0    2.21    0.27
  -3   8   0    0.51    0.15
  -3   8   0    0.48    0.15
  -2   8   0   -0.01    0.10
  -2   8   0   -0.04    0.12
  -1   8   0    0.93    0.18
  -1   8   0    0.86    0.17
   0   8   0    0.56    0.17
   0   8   0    0.25    0.15
  -1  -8   0    0.74    0.19
   1   8   0    0.62    0.20
   1   8   0    0.73    0.18
  -2  -8   0    0.18    0.18
   2   8   0    0.12    0.16
   2   8   0    0.20    0.19
   3   8   0    1.99    0.33
   3   8   0    1.42    0.26
   4   8   0    0.65    0.29
  -5   9   0   -0.06    0.16
  -4   9   0    0.08    0.14
  -3   9   0    0.54    0.16
  -3   9   0    0.28    0.15
  -2   9   0    0.11    0.13
  -2   9   0    0.44    0.16
  -1   9   0    0.57    0.18
  -1   9   0    0.39    0.16
   0  -9   0    0.38    0.16
   0   9   0   -0.01    0.17
   1   9   0    0.03    0.16
   1   9   0    0.08    0.18
   2   9   0   -0.08    0.18
   2   9   0    0.25    0.22
  -4  10   0    0.27    0.18
  -3  10   0    0.69    0.20
  -2  10   0    0.25    0.16
  -2  10   0    0.20    0.18
  -1  10   0    0.33    0.19
   0  10   0    0.14    0.19
   0  10  -1   -0.09    0.16
  -1  10  -1    0.14    0.17
  -2  10  -1    0.11    0.17
  -2  10  -1   -0.04    0.14
  -3  10  -1   -0.11    0.13
  -4  10  -1    0.19    0.15
   2   9  -1   -0.08    0.18
   2   9  -1    0.00    0.20
   1   9  -1    0.13    0.18
   1   9  -1    0.10    0.16
   0   9  -1    0.62    0.20
   0   9  -1    0.34    0.18
  -1   9  -1    0.12    0.14
  -1   9  -1    0.33    0.16
  -2   9  -1    0.36    0.16
  -2   9  -1    0.35    0.14
  -3   9  -1   -0.01    0.12
  -4   9  -1    0.04    0.13
  -5   9  -1    0.25    0.19
   4   8  -1    0.28    0.28
   3   8  -1    0.32    0.19
   3   8  -1    0.31    0.23
   2   8  -1   -0.11    0.17
   2   8  -1    0.27    0.18
   1   8  -1    0.85    0.21
   1   8  -1    0.60    0.18
  -1  -8   1    0.68    0.18
   0   8  -1    2.39    0.28
   0   8  -1    3.11    0.29
  -1   8  -1    0.21    0.14
  -1   8  -1    0.23    0.14
  -1   8  -1    0.17    0.13
  -2   8  -1    0.31    0.13
  -2   8  -1    0.22    0.13
  -3   8  -1    0.23    0.12
  -4   8  -1    0.01    0.13
  -5   8  -1    0.16    0.17
  -6   8  -1    0.03    0.17
   5   7  -1   -0.27    0.19
   5   7  -1   -0.24    0.24
   4   7  -1    0.46    0.25
   4   7  -1    0.14    0.19
   3   7  -1    1.54    0.29
   3   7  -1    1.65    0.25
   2   7  -1    2.28    0.30
   2   7  -1    1.94    0.24
  -2  -7   1    2.07    0.25
   1   7  -1    0.91    0.19
   1   7  -1    1.10    0.19
  -1  -7   1    0.48    0.15
   0   7  -1    0.06    0.12
   0   7  -1    0.00    0.13
   0   7  -1    0.11    0.11
  -1   7  -1    0.32    0.13
  -1   7  -1    0.06    0.08
  -1   7  -1    0.54    0.14
  -2   7  -1    0.29    0.12
  -2   7  -1    0.05    0.10
  -2   7  -1    0.38    0.14
  -3   7  -1    0.45    0.13
  -3   7  -1    0.38    0.14
  -4   7  -1   -0.15    0.12
  -5   7  -1   -0.04    0.15
  -6   7  -1    0.07    0.16
  -7   7  -1    0.20    0.20
  -6  -6   1    0.07    0.17
   5   6  -1    1.11    0.30
   4   6  -1   -0.03    0.15
   4   6  -1   -0.12    0.19
   3   6  -1    2.39    0.26
   3   6  -1    2.17    0.29
  -3  -6   1    2.07    0.25
   2   6  -1    4.38    0.35
   2   6  -1    4.70    0.31
  -2  -6   1    4.53    0.30
   1   6  -1    0.19    0.12
   1   6  -1    0.10    0.13
  -1  -6   1    0.06    0.11
   0   6  -1    0.64    0.14
   0   6  -1    1.07    0.17
   0   6  -1    0.66    0.13
  -1   6  -1    8.31    0.36
  -1   6  -1    8.33    0.34
  -2   6  -1    1.25    0.18
  -2   6  -1    1.55    0.18
  -2   6  -1    0.99    0.13
  -3   6  -1    5.49    0.32
  -3   6  -1    5.63    0.33
  -3   6  -1    5.73    0.28
  -4   6  -1   14.76    0.57
  -5   6  -1    3.10    0.28
  -6   6  -1    0.17    0.15
  -7   6  -1    0.24    0.20
  -7  -5   1    0.12    0.18
   6   5  -1    0.26    0.24
  -6  -5   1    0.18    0.15
   5   5  -1    1.23    0.27
   4   5  -1   -0.03    0.13
   4   5  -1    0.24    0.19
  -4  -5   1    0.02    0.14
   3   5  -1   -0.08    0.13
   3   5  -1    0.05    0.15
  -3  -5   1   -0.05    0.13
   2   5  -1    0.24    0.15
   2   5  -1    0.22    0.12
  -2  -5   1    0.14    0.13
   1   5  -1    0.15    0.11
   1   5  -1    0.40    0.13
  -1  -5   1    0.06    0.09
   0   5  -1    0.00    0.07
   0   5  -1   -0.05    0.08
   0   5  -1   -0.09    0.08
  -1   5  -1    2.77    0.19
  -1   5  -1    2.52    0.18
  -2   5  -1   10.10    0.39
  -2   5  -1    9.53    0.33
  -2   5  -1   10.13    0.38
  -3   5  -1    0.01    0.10
  -3   5  -1   -0.01    0.07
  -4   5  -1   -0.06    0.11
   4  -5   1    0.15    0.10
  -5   5  -1    1.19    0.21
  -6   5  -1    0.36    0.18
  -7   5  -1    0.07    0.17
  -8   5  -1    0.07    0.22
   7   4  -1   -0.23    0.23
  -7  -4   1    0.15    0.16
   6   4  -1    0.26    0.22
  -6  -4   1    0.10    0.13
   5   4  -1    0.29    0.19
  -5  -4   1    0.12    0.13
  -5  -4   1   -0.13    0.14
   4   4  -1    0.15    0.13
   4   4  -1    0.04    0.15
  -4  -4   1    0.14    0.14
   3   4  -1    2.98    0.25
   3   4  -1    2.76    0.28
  -3  -4   1    2.77    0.24
   2   4  -1   12.70    0.44
   2   4  -1   13.27    0.50
  -2  -4   1   12.76    0.44
   1   4  -1   12.20    0.41
   1   4  -1   12.91    0.45
  -1  -4   1   12.38    0.39
   0   4  -1   -0.03    0.07
   0   4  -1    0.06    0.08
   0   4  -1    0.02    0.05
  -1   4  -1   10.77    0.36
  -1   4  -1   10.49    0.33
  -2   4  -1   31.58    0.75
  -2   4  -1   32.04    0.83
  -2   4  -1   33.15    0.85
  -3   4  -1    0.52    0.08
  -3   4  -1    0.54    0.12
   3  -4   1    0.35    0.09
  -4   4  -1    0.10    0.11
  -4   4  -1   -0.05    0.06
   4  -4   1   -0.03    0.09
  -5   4  -1    7.75    0.41
   5  -4   1    8.27    0.36
  -6   4  -1    0.18    0.16
  -7   4  -1   -0.09    0.16
  -8   4  -1    0.17    0.22
   7   3  -1   -0.08    0.19
   6   3  -1    0.24    0.20
  -6  -3   1    0.61    0.16
  -6  -3   1    0.69    0.21
   5   3  -1    0.22    0.18
  -5  -3   1    0.22    0.12
  -5  -3   1    0.10    0.15
   4   3  -1    5.00    0.35
  -4  -3   1    4.66    0.31
   3   3  -1    2.70    0.22
   3   3  -1    3.46    0.28
  -3  -3   1    2.96    0.22
   2   3  -1    3.95    0.23
   2   3  -1    4.12    0.27
  -2  -3   1    3.69    0.21
   1   3  -1    2.92    0.21
   1   3  -1    3.44    0.19
  -1  -3   1    3.02    0.16
   0   3  -1    0.29    0.08
   0   3  -1    0.43    0.09
  -1   3  -1    0.13    0.07
  -2   3  -1    2.59    0.18
  -2   3  -1    2.80    0.18
  -2   3  -1    2.58    0.13
  -3   3  -1    1.46    0.12
  -3   3  -1    1.58    0.17
   3  -3   1    1.59    0.13
  -4   3  -1    0.19    0.11
  -4   3  -1    0.10    0.07
   4  -3   1    0.01    0.09
  -5   3  -1    2.01    0.24
   5  -3   1    2.14    0.21
  -6   3  -1    1.08    0.22
   6  -3   1    1.82    0.23
  -7   3  -1    0.05    0.16
  -8   3  -1   -0.02    0.20
   8   2  -1    1.11    0.29
   7   2  -1   -0.29    0.17
  -7  -2   1    0.24    0.20
   6   2  -1    0.15    0.18
  -6  -2   1    0.16    0.13
  -6  -2   1    0.39    0.18
   5   2  -1   -0.05    0.14
  -5  -2   1   -0.09    0.10
  -5  -2   1   -0.11    0.14
   4   2  -1   -0.04    0.12
  -4  -2   1    0.27    0.15
  -4  -2   1    0.18    0.10
  -3  -2   1    8.62    0.34
   2   2  -1    7.84    0.29
   2   2  -1    8.32    0.33
  -2  -2   1    8.52    0.29
   1   2  -1   92.20    2.10
   1   2  -1   91.69    1.95
  -1  -2   1   93.67    2.03
   0   2  -1   23.25    0.54
   0   2  -1   22.82    0.58
  -1   2  -1    2.77    0.13
  -1   2  -1    2.82    0.15
  -2   2  -1   35.66    0.88
  -2   2  -1   36.86    0.77
   2  -2   1   35.61    0.86
  -3   2  -1   66.93    1.32
  -3   2  -1   61.00    1.50
   3  -2   1   61.36    1.46
  -4   2  -1    9.83    0.27
  -4   2  -1    8.52    0.39
   4  -2   1    9.03    0.35
  -5   2  -1    0.96    0.19
   5  -2   1    1.32    0.19
  -6   2  -1    8.69    0.49
   6  -2   1   10.81    0.46
  -7   2  -1    0.01    0.18
   7  -2   1   -0.15    0.17
  -8   2  -1   -0.35    0.19
   8   1  -1    3.66    0.38
  -8  -1   1    2.47    0.37
   7   1  -1    3.04    0.33
  -7  -1   1    2.39    0.32
   6   1  -1   -0.09    0.15
  -6  -1   1   -0.08    0.15
  -6  -1   1    0.27    0.14
   5   1  -1    1.61    0.22
  -5  -1   1    2.09    0.25
   4   1  -1    1.08    0.16
  -4  -1   1    1.15    0.14
  -4  -1   1    1.19    0.17
   3   1  -1    1.15    0.15
  -3  -1   1    1.14    0.12
  -3  -1   1    1.51    0.16
   2   1  -1    7.94    0.30
  -2  -1   1    7.86    0.26
  -2  -1   1    8.19    0.27
   1   1  -1   23.32    0.54
   1   1  -1   23.78    0.59
  -1  -1   1   24.56    0.55
   0   1  -1   16.06    0.36
   0   1  -1   16.62    0.37
   0   1  -1   15.73    0.40
  -1   1  -1   18.58    0.46
   1  -1   1   18.09    0.45
  -2   1  -1    0.07    0.07
   2  -1   1    0.00    0.06
  -3   1  -1    0.07    0.09
  -3   1  -1    0.09    0.05
   3  -1   1    0.16    0.08
  -4   1  -1    0.57    0.09
  -4   1  -1    0.66    0.15
   4  -1   1    0.44    0.13
  -5   1  -1    0.15    0.15
   5  -1   1   -0.08    0.13
  -6   1  -1    1.63    0.27
   6  -1   1    2.01    0.25
  -7   1  -1    0.94    0.25
   7  -1   1    0.60    0.22
  -8   1  -1   -0.12    0.21
   8  -1   1   -0.06    0.21
  -9   0   1    0.59    0.28
   8   0  -1    4.02    0.38
  -8   0   1    4.32    0.45
   7   0  -1    2.89    0.30
  -7   0   1    3.33    0.36
   6   0  -1   -0.20    0.14
  -6   0   1   -0.21    0.15
  -6   0   1    0.15    0.13
   5   0  -1    2.31    0.23
  -5   0   1    2.82    0.21
  -5   0   1    2.86    0.25
   4   0  -1    0.95    0.15
  -4   0   1    1.25    0.13
  -4   0   1    1.35    0.17
   3   0  -1   -0.03    0.08
  -3   0   1    0.01    0.03
  -3   0   1   -0.03    0.08
   2   0  -1   34.46    0.83
  -2   0   1   34.41    0.76
  -2   0   1   34.61    0.82
   1   0  -1    9.45    0.25
  -1   0   1    9.52    0.24
  -1   0   1    9.37    0.24
   0   0   1    3.61    0.10
   0   0   1    3.48    0.09
  -1   0  -1   20.01    0.48
   1   0   1   18.35    0.47
   1   0   1   19.50    0.41
  -2   0  -1   22.96    0.60
   2   0   1   21.82    0.59
  -3   0  -1    0.29    0.11
  -3   0  -1    0.37    0.07
   3   0   1    0.24    0.10
  -4   0  -1    4.29    0.28
  -4   0  -1    4.28    0.20
   4   0   1    4.34    0.28
  -5   0  -1    2.46    0.20
  -5   0  -1    2.01    0.25
   5   0   1    2.31    0.24
  -6   0  -1    1.13    0.23
   6   0   1    2.45    0.27
  -7   0  -1    6.61    0.47
   7   0   1    9.46    0.48
  -8   0  -1   -0.04    0.22
   8   0   1   -0.03    0.20
  -9   1   1   -0.02    0.24
  -8   1   1    0.15    0.21
   7  -1  -1    6.48    0.39
  -7   1   1    5.83    0.41
   6  -1  -1   12.12    0.49
  -6   1   1   12.91    0.55
  -6   1   1   12.59    0.44
   5  -1  -1    2.48    0.22
  -5   1   1    2.30    0.19
  -5   1   1    2.64    0.24
   4  -1  -1    0.58    0.12
  -4   1   1    0.51    0.13
  -4   1   1    0.74    0.11
   3  -1  -1   12.43    0.38
  -3   1   1   13.66    0.41
  -3   1   1   12.97    0.35
   2  -1  -1    8.36    0.25
  -2   1   1    8.39    0.27
  -1   1   1    7.88    0.22
  -1   1   1    7.43    0.21
   0   1   1    5.88    0.19
   0   1   1    5.63    0.18
  -1  -1  -1   23.42    0.57
   1   1   1   22.19    0.52
   1   1   1   22.84    0.58
  -2  -1  -1    3.64    0.21
   2   1   1    3.65    0.23
   2   1   1    3.50    0.17
  -3  -1  -1   -0.01    0.10
   3   1   1   -0.07    0.09
   3   1   1    0.01    0.07
  -4  -1  -1    0.88    0.12
  -4  -1  -1    0.93    0.18
   4   1   1    0.84    0.16
  -5  -1  -1    2.58    0.29
  -5  -1  -1    2.80    0.21
   5   1   1    2.36    0.25
  -6  -1  -1    0.15    0.18
   6   1   1    0.41    0.18
  -7  -1  -1    3.46    0.39
   7   1   1    4.57    0.39
  -8  -1  -1    0.03    0.23
   8   1   1   -0.39    0.20
  -9   2   1    0.12    0.24
  -8   2   1    0.37    0.21
  -7   2   1   13.34    0.60
   6  -2  -1    6.94    0.36
  -6   2   1    6.56    0.39
   5  -2  -1    0.17    0.12
  -5   2   1    0.19    0.13
  -5   2   1    0.39    0.11
   4  -2  -1    5.67    0.25
  -4   2   1    5.55    0.23
  -4   2   1    5.61    0.28
   3  -2  -1    0.65    0.08
  -3   2   1    0.62    0.11
  -3   2   1    0.84    0.10
   2  -2  -1    0.66    0.06
  -2   2   1    0.60    0.10
  -1   2   1    8.44    0.27
  -1   2   1    8.34    0.23
  -1   2   1    7.92    0.25
   0   2   1   95.78    2.09
   0   2   1   93.00    1.97
  -1  -2  -1  106.72    2.36
   1   2   1  105.00    2.39
   1   2   1  106.15    2.22
  -2  -2  -1    0.22    0.10
   2   2   1    0.08    0.09
   2   2   1    0.19    0.08
  -3  -2  -1    0.00    0.11
   3   2   1   -0.03    0.08
   3   2   1    0.06    0.11
  -4  -2  -1    1.65    0.23
   4   2   1    1.45    0.21
   4   2   1    1.73    0.18
  -5  -2  -1    0.40    0.12
  -5  -2  -1    0.21    0.18
   5   2   1    0.16    0.17
  -6  -2  -1   -0.11    0.16
   6   2   1    0.32    0.20
  -7  -2  -1    0.90    0.26
   7   2   1    0.90    0.26
  -8  -2  -1    0.92    0.29
   8   2   1    1.32    0.32
  -8   3   1    0.13    0.20
  -7   3   1    0.25    0.18
  -6   3   1   16.26    0.63
   5  -3  -1    8.87    0.35
  -5   3   1    8.77    0.33
  -5   3   1    8.34    0.39
   4  -3  -1    1.42    0.13
  -4   3   1    1.43    0.14
  -4   3   1    1.19    0.17
   3  -3  -1   13.59    0.37
  -3   3   1   13.76    0.39
  -3   3   1   13.56    0.45
  -2   3   1   10.24    0.31
  -2   3   1   10.22    0.29
  -2   3   1   10.85    0.36
  -1   3   1    4.83    0.20
  -1   3   1    5.05    0.21
  -1   3   1    5.32    0.22
   0   3   1    0.44    0.09
   0   3   1    0.60    0.10
  -1  -3  -1    2.05    0.17
   1   3   1    2.08    0.17
   1   3   1    2.14    0.18
  -2  -3  -1    5.73    0.29
   2   3   1    5.45    0.27
   2   3   1    5.72    0.33
  -3  -3  -1    1.73    0.21
   3   3   1    1.35    0.20
   3   3   1    1.77    0.18
  -4  -3  -1   -0.09    0.14
   4   3   1    0.02    0.11
   4   3   1    0.13    0.15
  -5  -3  -1    0.00    0.16
   5   3   1   -0.02    0.17
  -6  -3  -1   -0.01    0.18
  -6  -3  -1    0.16    0.09
   6   3   1    0.10    0.19
  -7  -3  -1    0.07    0.20
   7   3   1    0.01    0.23
  -8  -3  -1    0.47    0.27
  -8   4   1    0.06    0.19
  -7   4   1    0.21    0.17
  -6   4   1   26.46    0.88
  -5   4   1    3.74    0.28
  -5   4   1    4.69    0.26
   4  -4  -1    0.49    0.09
  -4   4   1    0.58    0.14
  -4   4   1    0.57    0.11
   3  -4  -1    0.50    0.08
  -3   4   1    0.50    0.12
  -3   4   1    0.60    0.10
  -2   4   1   23.35    0.60
  -2   4   1   24.02    0.61
  -2   4   1   23.74    0.67
  -1   4   1   28.94    0.73
  -1   4   1   29.92    0.79
  -1   4   1   29.67    0.75
   0   4   1    2.24    0.18
   0   4   1    2.15    0.17
  -1  -4  -1   14.54    0.47
   1   4   1   13.59    0.45
   1   4   1   14.71    0.50
  -2  -4  -1   20.64    0.65
   2   4   1   21.46    0.62
   2   4   1   20.95    0.68
  -3  -4  -1    0.32    0.15
   3   4   1    0.28    0.12
   3   4   1    0.16    0.15
  -4  -4  -1    0.19    0.16
   4   4   1    0.32    0.18
   4   4   1    0.30    0.15
  -5  -4  -1   -0.13    0.16
   5   4   1    0.15    0.14
   5   4   1    0.04    0.18
  -6  -4  -1    0.19    0.13
  -6  -4  -1   -0.14    0.18
   6   4   1   -0.24    0.19
  -7  -4  -1   -0.28    0.20
   7   4   1   -0.11    0.24
  -8   5   1    0.06    0.20
  -7   5   1   -0.05    0.15
  -6   5   1    0.09    0.14
  -5   5   1   22.41    0.75
  -4   5   1   -0.04    0.11
  -4   5   1    0.14    0.09
  -3   5   1   -0.02    0.04
  -3   5   1    0.07    0.11
  -2   5   1    1.40    0.14
  -2   5   1    1.41    0.17
  -2   5   1    1.52    0.16
  -1   5   1    0.18    0.08
  -1   5   1    0.08    0.08
  -1   5   1    0.23    0.09
   0   5   1   -0.01    0.09
   0   5   1   -0.06    0.08
   0   5   1   -0.04    0.06
  -1  -5  -1    0.01    0.11
   1   5   1    0.14    0.12
   1   5   1    0.06    0.10
  -2  -5  -1    0.78    0.18
   2   5   1    0.54    0.17
   2   5   1    0.75    0.16
  -3  -5  -1    0.62    0.19
   3   5   1    0.54    0.20
   3   5   1    0.46    0.14
  -4  -5  -1    0.94    0.23
   4   5   1    0.63    0.18
   4   5   1    0.67    0.23
  -5  -5  -1    0.40    0.20
   5   5   1    0.59    0.18
   5   5   1    0.03    0.20
  -6  -5  -1   -0.19    0.19
   6   5   1   -0.46    0.21
  -7   6   1   -0.02    0.16
  -6   6   1   -0.02    0.14
  -5   6   1   22.80    0.78
  -4   6   1    1.47    0.21
  -4   6   1    1.23    0.17
  -3   6   1    0.27    0.13
  -3   6   1    0.37    0.12
  -2   6   1    1.44    0.17
  -2   6   1    1.37    0.16
  -2   6   1    1.40    0.19
  -1   6   1    0.04    0.09
  -1   6   1   -0.10    0.09
  -1   6   1    0.05    0.10
   0   6   1    1.33    0.18
   0   6   1    1.17    0.17
  -1  -6  -1    3.17    0.26
   1   6   1    3.22    0.28
   1   6   1    3.01    0.28
  -2  -6  -1    0.30    0.18
   2   6   1    0.34    0.15
   2   6   1    0.37    0.18
  -3  -6  -1    0.07    0.16
   3   6   1    0.03    0.15
   3   6   1   -0.06    0.18
  -4  -6  -1    0.38    0.20
   4   6   1    0.34    0.17
   4   6   1    0.58    0.24
  -5  -6  -1    0.24    0.21
   5   6   1    0.01    0.18
   5   6   1    0.07    0.25
  -7   7   1   -0.13    0.16
  -6   7   1    0.15    0.16
  -5   7   1    2.12    0.27
  -4   7   1    5.03    0.33
  -4   7   1    5.51    0.30
  -3   7   1    0.15    0.12
  -3   7   1    0.25    0.12
  -2   7   1    0.02    0.11
  -2   7   1    0.03    0.11
  -1   7   1    0.10    0.11
  -1   7   1    0.17    0.13
  -1   7   1    0.33    0.13
   0   7   1    0.12    0.09
   0   7   1    0.15    0.13
  -1  -7  -1    4.11    0.31
   1   7   1    3.84    0.30
   1   7   1    3.58    0.33
  -2  -7  -1    5.43    0.37
   2   7   1    4.38    0.32
   2   7   1    4.77    0.39
  -3  -7  -1    0.11    0.19
   3   7   1    0.24    0.17
   3   7   1   -0.08    0.20
  -4  -7  -1   -0.13    0.18
   4   7   1   -0.28    0.22
   4   7   1    0.09    0.18
   5   7   1    0.07    0.20
  -6   8   1   -0.01    0.16
  -5   8   1    0.15    0.16
  -4   8   1    5.48    0.36
  -3   8   1    0.90    0.19
  -3   8   1    0.96    0.18
  -2   8   1    1.23    0.20
  -2   8   1    1.27    0.20
  -1   8   1    1.28    0.21
  -1   8   1    1.13    0.19
   0  -8  -1    0.23    0.14
   0   8   1    0.03    0.13
   0   8   1   -0.04    0.08
  -1  -8  -1   -0.11    0.13
   1   8   1    0.10    0.15
   1   8   1   -0.08    0.15
  -2  -8  -1    0.49    0.21
   2   8   1    0.40    0.18
   2   8   1    0.39    0.21
   3   8   1   -0.09    0.23
   3   8   1    0.10    0.18
  -5   9   1    0.10    0.15
  -4   9   1    1.13    0.22
  -3   9   1    0.61    0.18
  -3   9   1    0.66    0.18
  -2   9   1    0.33    0.16
  -2   9   1    0.07    0.13
  -1   9   1    0.41    0.17
  -1   9   1    0.27    0.17
   0  -9  -1    0.10    0.15
   0   9   1   -0.08    0.15
  -1  -9  -1    0.11    0.17
   1   9   1   -0.21    0.17
   1   9   1    0.21    0.25
   2   9   1   -0.08    0.17
   2   9   1   -0.24    0.19
  -4  10   1    0.16    0.16
  -3  10   1    1.32    0.25
  -3  10   1    1.06    0.23
  -2  10   1   -0.16    0.14
  -2  10   1    0.01    0.16
  -1  10   1    0.05    0.18
   0 -10  -1    0.06    0.17
   1  10  -2    0.21    0.24
   0  10  -2    0.20    0.19
  -1  10  -2    0.08    0.16
  -3  10  -2    0.19    0.17
  -4  10  -2    0.07    0.16
   2   9  -2    0.19    0.22
   2   9  -2    0.19    0.19
   1   9  -2    0.29    0.20
   1   9  -2    0.16    0.17
   0   9  -2    0.96    0.23
   0   9  -2    1.66    0.24
  -1   9  -2    0.36    0.16
  -2   9  -2    0.24    0.13
  -2   9  -2    0.04    0.13
  -3   9  -2    0.49    0.16
  -4   9  -2   -0.16    0.14
  -5   9  -2    0.08    0.17
   4   8  -2    0.34    0.22
   4   8  -2    0.50    0.28
   3   8  -2   -0.02    0.19
   3   8  -2   -0.34    0.20
   2   8  -2    0.37    0.21
   2   8  -2    0.39    0.18
   1   8  -2    0.09    0.15
   1   8  -2    0.32    0.18
   0   8  -2    0.50    0.16
   0   8  -2    0.24    0.12
   0   8  -2    0.31    0.17
  -1   8  -2    2.43    0.24
  -1   8  -2    2.68    0.25
  -1   8  -2    2.95    0.30
  -2   8  -2    0.81    0.16
  -2   8  -2    0.81    0.16
  -3   8  -2    0.18    0.14
  -4   8  -2    0.20    0.15
  -5   8  -2   -0.11    0.14
  -6   8  -2    0.10    0.18
   5   7  -2    0.04    0.26
   4   7  -2    0.79    0.23
   4   7  -2    1.32    0.31
   3   7  -2    0.49    0.19
   3   7  -2    0.30    0.22
   2   7  -2    0.82    0.19
   2   7  -2    1.09    0.23
   1   7  -2    1.57    0.23
   1   7  -2    1.38    0.21
  -1  -7   2    2.17    0.23
   0   7  -2    2.12    0.22
   0   7  -2    1.73    0.19
   0   7  -2    2.38    0.26
  -1   7  -2    0.59    0.14
  -1   7  -2    0.38    0.15
  -1   7  -2    0.46    0.13
  -2   7  -2    0.01    0.06
  -2   7  -2    0.17    0.11
  -2   7  -2    0.08    0.14
  -3   7  -2    0.53    0.16
  -4   7  -2    0.00    0.12
  -5   7  -2    0.09    0.15
  -6   7  -2    0.79    0.21
  -7   7  -2    0.38    0.22
  -6  -6   2    0.05    0.17
   5   6  -2    0.44    0.26
   4   6  -2    0.24    0.21
   4   6  -2   -0.01    0.15
   3   6  -2    0.41    0.20
   3   6  -2    0.41    0.16
   2   6  -2    0.46    0.16
   2   6  -2    0.10    0.16
  -2  -6   2    0.37    0.14
   1   6  -2    2.89    0.27
   1   6  -2    2.92    0.26
  -1  -6   2    2.64    0.22
   0   6  -2    6.87    0.31
   0   6  -2    7.06    0.32
   0   6  -2    7.27    0.37
  -1   6  -2    1.43    0.19
  -1   6  -2    1.16    0.15
  -1   6  -2    1.70    0.18
  -2   6  -2    3.97    0.23
  -2   6  -2    4.13    0.29
  -2   6  -2    3.77    0.26
  -3   6  -2    9.52    0.42
  -3   6  -2    9.69    0.43
  -3   6  -2    9.44    0.35
  -4   6  -2    1.44    0.21
   4  -6   2    1.34    0.17
  -5   6  -2   -0.02    0.13
  -6   6  -2    0.30    0.18
  -7   6  -2    0.23    0.28
  -7  -5   2    0.00    0.18
   6   5  -2   -0.21    0.22
  -6  -5   2    0.06    0.15
   5   5  -2    0.01    0.19
  -5  -5   2    0.09    0.13
   4   5  -2   -0.10    0.14
   4   5  -2   -0.10    0.16
   3   5  -2    0.24    0.17
   3   5  -2    0.40    0.15
  -3  -5   2    0.25    0.15
   2   5  -2    1.96    0.21
   2   5  -2    1.95    0.24
  -2  -5   2    2.19    0.20
   1   5  -2    6.71    0.31
   1   5  -2    6.19    0.34
  -1  -5   2    6.40    0.28
   0   5  -2   12.90    0.42
   0   5  -2   12.90    0.47
   0   5  -2   14.12    0.44
  -1   5  -2    0.13    0.11
  -1   5  -2    0.07    0.08
  -1   5  -2    0.16    0.09
  -2   5  -2    7.85    0.34
  -2   5  -2    7.56    0.29
  -3   5  -2    0.01    0.07
  -3   5  -2    0.08    0.10
  -4   5  -2    3.61    0.28
   4  -5   2    4.02    0.25
  -5   5  -2    0.69    0.18
   5  -5   2    0.55    0.14
  -6   5  -2   -0.02    0.16
  -7   5  -2    0.23    0.19
   7   4  -2   -0.14    0.21
  -7  -4   2    0.35    0.17
   6   4  -2    0.31    0.22
  -6  -4   2    0.38    0.15
   5   4  -2   -0.01    0.17
  -5  -4   2   -0.09    0.11
  -5  -4   2   -0.24    0.14
   4   4  -2    0.11    0.16
  -4  -4   2   -0.06    0.15
   3   4  -2    1.88    0.21
   3   4  -2    1.78    0.23
  -3  -4   2    1.69    0.19
   2   4  -2    0.02    0.10
   2   4  -2    0.17    0.11
  -2  -4   2    0.03    0.09
   1   4  -2   -0.14    0.08
   1   4  -2    0.09    0.09
  -1  -4   2   -0.05    0.06
   0   4  -2    2.38    0.18
   0   4  -2    2.71    0.21
   0   4  -2    2.85    0.16
  -1   4  -2   82.46    1.88
  -1   4  -2   80.89    1.91
  -2   4  -2    0.00    0.04
  -2   4  -2   -0.04    0.06
  -2   4  -2   -0.02    0.07
  -3   4  -2    0.05    0.10
  -3   4  -2    0.09    0.06
   3  -4   2   -0.10    0.07
  -4   4  -2    1.01    0.17
   4  -4   2    1.15    0.15
  -5   4  -2    0.60    0.18
   5  -4   2    0.65    0.16
  -6   4  -2    0.99    0.22
   6  -4   2    1.15    0.20
  -7   4  -2    0.28    0.20
  -8   4  -2   -0.09    0.20
   8   3  -2   -0.13    0.24
   7   3  -2   -0.11    0.20
  -7  -3   2    0.05    0.15
   6   3  -2    0.22    0.19
  -6  -3   2    0.34    0.15
  -6  -3   2    0.32    0.17
   5   3  -2    0.77    0.21
  -5  -3   2    0.36    0.17
  -5  -3   2    0.25    0.14
   4   3  -2    0.41    0.16
  -4  -3   2    0.51    0.13
  -4  -3   2    0.43    0.15
   3   3  -2    1.07    0.18
   3   3  -2    0.90    0.15
  -3  -3   2    1.00    0.14
   2   3  -2    7.08    0.33
   2   3  -2    6.87    0.29
  -2  -3   2    6.63    0.26
   1   3  -2    5.80    0.27
   1   3  -2    5.57    0.24
  -1  -3   2    5.31    0.20
   0   3  -2    3.94    0.22
   0   3  -2    3.89    0.19
   0   3  -2    3.80    0.16
  -1   3  -2    1.88    0.13
  -1   3  -2    1.89    0.15
  -1   3  -2    1.52    0.13
  -2   3  -2   36.19    0.79
  -2   3  -2   36.39    0.92
  -3   3  -2    0.09    0.09
   3  -3   2    0.00    0.07
  -4   3  -2    0.65    0.14
   4  -3   2    1.03    0.15
  -5   3  -2    0.81    0.19
   5  -3   2    1.33    0.19
  -6   3  -2    0.34    0.18
   6  -3   2    0.89    0.19
  -7   3  -2   -0.03    0.16
  -8   3  -2    0.20    0.23
   8   2  -2    1.12    0.29
   7   2  -2   -0.09    0.18
  -7  -2   2    0.04    0.14
  -7  -2   2   -0.07    0.17
   6   2  -2    2.48    0.29
  -6  -2   2    2.32    0.25
  -6  -2   2    2.21    0.28
   5   2  -2    5.36    0.37
  -5  -2   2    4.87    0.29
  -5  -2   2    5.16    0.32
   4   2  -2    0.68    0.15
  -4  -2   2    0.54    0.12
  -4  -2   2    0.50    0.15
   3   2  -2    7.91    0.36
  -3  -2   2    7.66    0.30
  -3  -2   2    8.15    0.30
   2   2  -2   25.19    0.70
  -2  -2   2   25.62    0.63
   1   2  -2    1.84    0.14
   1   2  -2    1.64    0.14
  -1  -2   2    1.53    0.10
   0   2  -2    0.07    0.06
   0   2  -2    0.02    0.07
   0   2  -2    0.03    0.05
  -1   2  -2    1.26    0.09
  -1   2  -2    1.34    0.13
  -1   2  -2    1.37    0.11
  -2   2  -2   41.61    1.00
   2  -2   2   39.58    0.97
  -3   2  -2   12.41    0.43
   3  -2   2   12.47    0.40
  -4   2  -2    4.13    0.28
   4  -2   2    4.69    0.28
  -5   2  -2    0.02    0.13
   5  -2   2    0.02    0.13
  -6   2  -2    1.53    0.26
   6  -2   2    2.36    0.27
  -7   2  -2    0.81    0.25
   7  -2   2    1.25    0.25
  -8   2  -2   -0.13    0.20
   8   1  -2    0.96    0.25
  -8  -1   2    0.92    0.26
   7   1  -2    0.13    0.18
  -7  -1   2   -0.10    0.18
   6   1  -2    0.62    0.19
  -6  -1   2    0.55    0.18
  -6  -1   2    1.07    0.18
   5   1  -2    1.54    0.22
  -5  -1   2    1.86    0.22
  -5  -1   2    1.86    0.20
   4   1  -2    0.34    0.13
  -4  -1   2    0.38    0.13
  -4  -1   2    0.49    0.12
   3   1  -2    2.21    0.20
  -3  -1   2    1.95    0.17
  -3  -1   2    2.22    0.16
   2   1  -2    1.00    0.12
  -2  -1   2    1.19    0.10
  -2  -1   2    1.21    0.12
   1   1  -2  106.01    2.37
  -1  -1   2  107.41    2.20
   0   1  -2    0.83    0.06
   0   1  -2    0.70    0.08
   0  -1   2    0.81    0.06
  -1   1  -2    9.52    0.28
   1  -1   2    9.00    0.28
  -2   1  -2    6.94    0.27
   2  -1   2    6.24    0.25
  -3   1  -2    6.86    0.31
   3  -1   2    7.08    0.30
  -4   1  -2    0.13    0.12
  -4   1  -2    0.19    0.06
   4  -1   2    0.19    0.12
  -5   1  -2    0.39    0.16
   5  -1   2    0.72    0.18
  -6   1  -2    0.46    0.20
   6  -1   2    0.73    0.21
  -7   1  -2    0.78    0.24
   7  -1   2    0.76    0.24
  -8   1  -2   -0.31    0.20
   8  -1   2   -0.27    0.21
  -9   0   2    0.26    0.26
  -8   0   2    0.22    0.21
   7   0  -2    1.67    0.25
  -7   0   2    1.16    0.25
   6   0  -2    1.19    0.20
  -6   0   2    0.93    0.17
  -6   0   2    1.24    0.22
   5   0  -2    0.36    0.14
  -5   0   2    0.25    0.08
  -5   0   2    0.55    0.16
   4   0  -2   12.01    0.42
  -4   0   2   11.91    0.39
  -4   0   2   12.73    0.43
   3   0  -2    0.74    0.11
  -3   0   2    0.90    0.11
  -3   0   2    0.78    0.11
   2   0  -2   66.29    1.51
  -2   0   2   66.61    1.42
  -2   0   2   68.27    1.49
   1   0  -2  375.84    7.92
  -1   0   2  350.46    7.82
  -1   0   2  372.68    7.46
   0   0   2    2.19    0.11
   0   0   2    2.32    0.09
  -1   0  -2    5.46    0.21
   1   0   2    5.13    0.15
   1   0   2    5.21    0.20
  -2   0  -2    2.53    0.19
   2   0   2    2.45    0.12
   2   0   2    2.38    0.19
  -3   0  -2   62.57    1.52
   3   0   2   62.80    1.51
  -4   0  -2   -0.01    0.12
  -4   0  -2    0.05    0.07
   4   0   2    0.22    0.13
  -5   0  -2    0.42    0.17
   5   0   2    0.58    0.18
  -6   0  -2    0.24    0.19
   6   0   2    0.54    0.20
  -7   0  -2    0.14    0.20
   7   0   2    0.14    0.21
  -8   0  -2   -0.08    0.23
   8   0   2   -0.38    0.20
  -9   1   2    0.16    0.24
  -8   1   2    0.83    0.25
   7  -1  -2    1.97    0.24
  -7   1   2    2.40    0.30
   6  -1  -2   -0.06    0.12
  -6   1   2   -0.04    0.15
  -6   1   2   -0.25    0.12
   5  -1  -2    4.79    0.28
  -5   1   2    4.57    0.29
  -5   1   2    4.84    0.25
   4  -1  -2   19.38    0.55
  -4   1   2   19.73    0.58
   3  -1  -2   29.09    0.71
  -3   1   2   29.32    0.75
  -3   1   2   29.64    0.69
  -2   1   2   21.28    0.55
  -2   1   2   21.92    0.52
  -1   1   2    7.84    0.24
  -1   1   2    8.15    0.23
   0  -1  -2   54.28    1.22
   0   1   2   54.33    1.14
  -1  -1  -2  120.66    2.62
   1   1   2  116.58    2.43
   1   1   2  117.53    2.64
  -2  -1  -2    0.93    0.14
   2   1   2    0.77    0.09
   2   1   2    0.93    0.13
  -3  -1  -2    0.29    0.13
   3   1   2    0.39    0.12
   3   1   2    0.29    0.08
  -4  -1  -2    0.54    0.18
   4   1   2    0.73    0.16
  -5  -1  -2    3.46    0.22
  -5  -1  -2    3.31    0.33
   5   1   2    3.62    0.33
  -6  -1  -2    3.70    0.34
   6   1   2    3.71    0.34
  -7  -1  -2    0.02    0.19
   7   1   2   -0.09    0.19
  -8  -1  -2   -0.24    0.22
   8   1   2    0.12    0.24
  -9   2   2   -0.20    0.21
  -8   2   2    0.14    0.20
  -7   2   2   -0.12    0.15
   6  -2  -2    2.79    0.24
  -6   2   2    2.29    0.26
  -6   2   2    2.38    0.22
   5  -2  -2    0.43    0.12
  -5   2   2    0.26    0.11
  -5   2   2    0.31    0.13
   4  -2  -2   -0.05    0.07
  -4   2   2   -0.02    0.09
  -4   2   2    0.07    0.08
   3  -2  -2    4.58    0.17
  -3   2   2    4.74    0.23
  -3   2   2    4.04    0.19
  -2   2   2    0.45    0.08
  -2   2   2    0.42    0.09
  -1   2   2    6.03    0.22
  -1   2   2    6.46    0.24
   0   2   2  355.49    7.20
  -1  -2  -2    3.02    0.18
   1   2   2    2.79    0.21
   1   2   2    2.90    0.17
  -2  -2  -2   16.96    0.52
   2   2   2   17.08    0.46
   2   2   2   16.82    0.53
  -3  -2  -2    7.95    0.36
   3   2   2    8.12    0.38
   3   2   2    7.93    0.30
  -4  -2  -2    3.08    0.28
   4   2   2    3.73    0.32
   4   2   2    3.32    0.23
  -5  -2  -2   -0.20    0.16
   5   2   2    0.06    0.17
  -6  -2  -2    0.13    0.18
   6   2   2   -0.11    0.16
  -7  -2  -2    0.17    0.22
   7   2   2    0.27    0.22
  -8  -2  -2   -0.05    0.23
  -9   3   2   -0.19    0.22
  -8   3   2   -0.05    0.18
  -7   3   2    1.56    0.25
  -6   3   2    5.89    0.36
  -5   3   2    2.41    0.21
  -5   3   2    1.80    0.21
  -4   3   2    1.19    0.16
  -4   3   2    1.27    0.14
  -3   3   2    2.52    0.19
  -3   3   2    2.54    0.17
  -2   3   2    0.46    0.09
  -2   3   2    0.33    0.10
  -1   3   2    5.36    0.19
  -1   3   2    4.67    0.21
  -1   3   2    5.11    0.23
   0   3   2   21.25    0.56
   0   3   2   21.84    0.59
  -1  -3  -2   40.07    1.00
   1   3   2   38.95    0.94
   1   3   2   39.86    1.01
  -2  -3  -2   23.44    0.69
   2   3   2   23.31    0.63
   2   3   2   23.49    0.70
  -3  -3  -2    4.15    0.29
   3   3   2    4.64    0.26
   3   3   2    4.53    0.33
  -4  -3  -2    0.19    0.17
   4   3   2    0.15    0.16
   4   3   2    0.00    0.11
  -5  -3  -2    1.62    0.26
   5   3   2    1.34    0.25
   5   3   2    1.30    0.19
  -6  -3  -2   -0.04    0.19
   6   3   2    0.08    0.19
  -7  -3  -2    1.00    0.29
   7   3   2    0.83    0.28
  -8   4   2    0.18    0.21
  -7   4   2    2.67    0.31
  -6   4   2    0.03    0.14
  -5   4   2    0.32    0.15
  -5   4   2    0.31    0.13
  -4   4   2    0.26    0.10
  -4   4   2    0.28    0.12
  -3   4   2    3.20    0.22
  -3   4   2    3.11    0.20
  -2   4   2   14.56    0.43
  -2   4   2   14.98    0.40
  -2   4   2   14.54    0.48
  -1   4   2   25.27    0.70
  -1   4   2   25.10    0.64
  -1   4   2   23.81    0.64
   0   4   2    1.69    0.17
   0   4   2    1.06    0.12
   0   4   2    1.72    0.16
  -1  -4  -2  106.13    2.44
   1   4   2  105.90    2.46
   1   4   2  105.09    2.30
  -2  -4  -2    0.34    0.15
   2   4   2    0.68    0.17
   2   4   2    0.62    0.14
  -3  -4  -2    0.42    0.17
   3   4   2    0.37    0.13
   3   4   2    0.61    0.19
  -4  -4  -2    0.20    0.18
   4   4   2    0.10    0.13
   4   4   2    0.10    0.17
  -5  -4  -2    0.30    0.20
   5   4   2    0.55    0.16
   5   4   2    0.35    0.21
  -6  -4  -2    0.00    0.21
   6   4   2    0.10    0.22
  -7  -4  -2    0.11    0.24
  -8   5   2   -0.07    0.17
  -7   5   2    0.09    0.16
  -6   5   2    0.22    0.16
  -5   5   2   17.64    0.55
  -5   5   2   15.87    0.61
  -4   5   2   14.10    0.53
  -3   5   2    0.46    0.13
  -3   5   2    0.53    0.12
  -2   5   2    3.22    0.22
  -2   5   2    3.17    0.22
  -2   5   2    3.36    0.20
  -1   5   2    1.06    0.15
  -1   5   2    1.18    0.13
  -1   5   2    1.03    0.14
   0   5   2   -0.04    0.07
   0   5   2   -0.11    0.08
  -1  -5  -2   11.11    0.44
   1   5   2   10.12    0.45
   1   5   2   11.28    0.42
  -2  -5  -2    5.66    0.35
   2   5   2    5.79    0.33
   2   5   2    5.55    0.37
  -3  -5  -2    1.49    0.24
   3   5   2    1.18    0.25
   3   5   2    1.44    0.20
  -4  -5  -2    0.00    0.16
   4   5   2    0.14    0.14
   4   5   2    0.12    0.19
  -5  -5  -2    0.17    0.19
   5   5   2   -0.06    0.22
   5   5   2    0.05    0.15
  -6  -5  -2    0.62    0.26
   6   5   2    0.56    0.28
  -8   6   2    0.07    0.19
  -7   6   2    0.08    0.17
  -6   6   2    1.92    0.26
  -5   6   2    0.61    0.15
  -5   6   2    0.42    0.16
  -4   6   2    2.49    0.26
  -3   6   2    0.06    0.11
  -3   6   2   -0.07    0.10
  -2   6   2    0.75    0.14
  -2   6   2    0.63    0.15
  -1   6   2    0.83    0.16
  -1   6   2    0.93    0.14
  -1   6   2    0.80    0.15
   0   6   2    1.64    0.19
   0   6   2    2.41    0.23
  -1  -6  -2    0.53    0.17
   1   6   2    0.45    0.15
   1   6   2    0.68    0.17
  -2  -6  -2   42.90    1.22
   2   6   2   42.60    1.14
   2   6   2   43.30    1.24
  -3  -6  -2    1.15    0.24
   3   6   2    1.11    0.20
   3   6   2    1.19    0.25
  -4  -6  -2   -0.10    0.18
   4   6   2   -0.09    0.14
   4   6   2   -0.23    0.20
  -5  -6  -2    0.04    0.20
   5   6   2   -0.13    0.17
   5   6   2   -0.21    0.24
  -7   7   2   -0.03    0.15
  -6   7   2    0.32    0.17
  -5   7   2    3.17    0.29
  -4   7   2    0.93    0.18
  -4   7   2    0.97    0.18
  -3   7   2    0.83    0.17
  -3   7   2    0.86    0.16
  -2   7   2    0.27    0.13
  -2   7   2    0.19    0.13
  -1   7   2    0.71    0.17
  -1   7   2    1.24    0.19
   0  -7  -2    2.58    0.27
   0   7   2    2.35    0.25
   0   7   2    2.27    0.23
  -1  -7  -2    0.10    0.15
   1   7   2    0.39    0.17
   1   7   2    0.21    0.15
  -2  -7  -2    3.35    0.34
   2   7   2    3.41    0.32
   2   7   2    3.14    0.34
  -3  -7  -2    0.69    0.24
   3   7   2    1.03    0.28
   3   7   2    1.07    0.22
  -4  -7  -2    0.60    0.24
   4   7   2    0.59    0.20
   4   7   2    0.50    0.27
   5   7   2    0.08    0.20
  -6   8   2    0.18    0.17
  -5   8   2    1.01    0.22
  -4   8   2   -0.08    0.12
  -4   8   2    0.25    0.15
  -3   8   2    1.29    0.22
  -3   8   2    1.52    0.22
  -2   8   2    1.30    0.21
  -2   8   2    1.52    0.22
  -1   8   2    0.09    0.13
  -1   8   2    0.11    0.13
   0  -8  -2    0.48    0.17
   0   8   2    0.18    0.15
  -1  -8  -2   -0.06    0.15
   1   8   2    0.23    0.17
   1   8   2    0.31    0.19
  -2  -8  -2    1.88    0.30
   2   8   2    1.57    0.29
   2   8   2    1.67    0.26
   3   8   2    3.60    0.42
   3   8   2    3.34    0.35
  -5   9   2    0.20    0.16
  -4   9   2    1.06    0.23
  -3   9   2   -0.05    0.13
  -3   9   2    0.55    0.18
  -2   9   2    0.02    0.15
  -2   9   2   -0.14    0.12
  -1   9   2    0.31    0.17
   0  -9  -2    0.30    0.17
   0   9   2    0.12    0.17
  -1  -9  -2   -0.04    0.17
   1   9   2   -0.17    0.17
  -2  -9  -2   -0.23    0.20
   2   9   2    0.10    0.24
  -3  10   2    0.07    0.16
  -3  10   2    0.09    0.17
  -2  10   2   -0.05    0.16
  -2  10   2   -0.05    0.16
   1 -10  -2    0.18    0.16
  -1  10   2    0.06    0.18
   0 -10  -2    0.19    0.18
  -1 -10  -2    0.20    0.22
   1  10  -3    0.05    0.23
   0  10  -3    0.24    0.19
  -1  10  -3    0.15    0.18
   2   9  -3    0.05    0.19
   2   9  -3    0.13    0.21
   1   9  -3    0.63    0.20
   1   9  -3    0.27    0.21
   0   9  -3    0.31    0.20
   0   9  -3   -0.04    0.14
  -1   9  -3    0.14    0.15
  -1   9  -3   -0.05    0.18
  -3   9  -3    0.38    0.15
  -4   9  -3    0.61    0.19
  -5   9  -3    0.09    0.18
   4   8  -3   -0.05    0.24
   3   8  -3    1.94    0.29
   3   8  -3    1.82    0.32
   2   8  -3    1.42    0.26
   2   8  -3    1.28    0.24
   1   8  -3    2.07    0.28
   1   8  -3    2.31    0.26
   0   8  -3    0.17    0.14
   0   8  -3    0.07    0.16
  -1   8  -3    0.36    0.17
  -1   8  -3   -0.07    0.12
  -1   8  -3   -0.07    0.09
  -2   8  -3    0.22    0.12
  -2   8  -3    0.09    0.10
  -3   8  -3    0.08    0.13
  -4   8  -3   -0.05    0.14
  -5   8  -3   -0.05    0.15
  -6   8  -3   -0.15    0.17
   5   7  -3   -0.02    0.25
  -5  -7   3    0.29    0.18
   4   7  -3   -0.22    0.20
   3   7  -3   -0.10    0.18
   3   7  -3   -0.07    0.16
   2   7  -3    0.87    0.20
   2   7  -3    1.12    0.22
   1   7  -3    0.61    0.17
   1   7  -3    0.30    0.16
   0   7  -3    1.15    0.18
   0   7  -3    1.65    0.24
   0   7  -3    1.19    0.16
  -1   7  -3    3.67    0.33
  -1   7  -3    3.18    0.22
  -1   7  -3    3.51    0.24
  -2   7  -3    2.16    0.20
  -2   7  -3    1.71    0.22
  -2   7  -3    2.26    0.23
  -3   7  -3    0.20    0.17
  -3   7  -3    0.45    0.15
  -4   7  -3    2.00    0.24
  -5   7  -3   -0.04    0.14
  -6   7  -3    0.17    0.18
   6   6  -3    1.26    0.31
  -6  -6   3    1.40    0.25
   5   6  -3    0.00    0.20
  -5  -6   3    0.28    0.17
   4   6  -3    0.20    0.20
   3   6  -3   -0.11    0.15
   3   6  -3   -0.08    0.15
   2   6  -3    0.08    0.13
   2   6  -3   -0.07    0.14
   1   6  -3    0.16    0.14
   1   6  -3   -0.11    0.11
  -1  -6   3    0.21    0.10
   0   6  -3    4.39    0.24
   0   6  -3    4.53    0.27
   0   6  -3    4.80    0.33
  -1   6  -3    1.38    0.16
  -1   6  -3    1.30    0.20
  -1   6  -3    1.12    0.15
  -2   6  -3    0.01    0.13
  -2   6  -3   -0.05    0.10
  -2   6  -3    0.20    0.10
  -3   6  -3    0.28    0.13
  -3   6  -3    0.09    0.14
  -4   6  -3    0.25    0.14
   4  -6   3    0.94    0.16
  -5   6  -3    0.09    0.14
  -6   6  -3   -0.20    0.16
  -7   6  -3   -0.01    0.19
  -7  -5   3    0.34    0.19
   6   5  -3    0.87    0.28
  -6  -5   3    0.79    0.21
   5   5  -3    0.39    0.21
  -5  -5   3    0.43    0.17
   4   5  -3   -0.05    0.16
   3   5  -3    0.46    0.19
   3   5  -3    0.60    0.17
   2   5  -3    0.08    0.13
   2   5  -3    0.28    0.13
  -2  -5   3    0.11    0.11
   1   5  -3    0.15    0.11
   1   5  -3    0.04    0.11
   0   5  -3    6.95    0.27
   0   5  -3    7.02    0.36
   0   5  -3    6.96    0.30
  -1   5  -3   34.07    0.90
  -1   5  -3   35.66    0.96
  -2   5  -3    1.28    0.16
  -2   5  -3    1.74    0.20
  -2   5  -3    1.65    0.14
  -3   5  -3    1.64    0.20
   3  -5   3    1.69    0.18
  -4   5  -3    0.29    0.14
   4  -5   3    0.04    0.10
  -5   5  -3    0.45    0.17
   5  -5   3    0.86    0.16
  -6   5  -3    0.30    0.18
  -7   5  -3    0.13    0.20
   7   4  -3    0.16    0.23
  -7  -4   3   -0.13    0.16
   6   4  -3    0.15    0.20
  -6  -4   3    0.48    0.17
   5   4  -3    2.90    0.33
  -5  -4   3    2.70    0.26
   4   4  -3    0.20    0.17
  -4  -4   3   -0.10    0.14
  -4  -4   3   -0.01    0.11
   3   4  -3    0.15    0.14
  -3  -4   3    0.26    0.12
   2   4  -3    0.20    0.12
   2   4  -3    0.14    0.12
  -2  -4   3    0.34    0.10
   1   4  -3    0.14    0.10
   1   4  -3    0.15    0.10
   0   4  -3    0.45    0.08
   0   4  -3    0.61    0.12
   0   4  -3    0.45    0.10
  -1   4  -3   17.12    0.50
  -1   4  -3   17.72    0.55
  -1   4  -3   17.35    0.46
  -2   4  -3   10.66    0.38
  -2   4  -3    9.81    0.30
  -2   4  -3   10.28    0.40
  -3   4  -3    0.10    0.10
   3  -4   3   -0.02    0.08
  -4   4  -3    2.27    0.24
   4  -4   3    2.09    0.20
  -5   4  -3    0.29    0.16
   5  -4   3    0.43    0.15
  -6   4  -3    0.15    0.16
   6  -4   3    0.36    0.16
  -7   4  -3    0.13    0.20
   8   3  -3    0.00    0.23
   7   3  -3    0.19    0.21
  -7  -3   3    0.02    0.15
   6   3  -3    0.85    0.22
  -6  -3   3    0.61    0.17
   5   3  -3    9.33    0.47
  -5  -3   3    9.01    0.41
  -5  -3   3    8.73    0.40
   4   3  -3    0.13    0.14
  -4  -3   3    0.08    0.14
  -4  -3   3    0.09    0.11
   3   3  -3    6.23    0.33
  -3  -3   3    6.40    0.29
  -3  -3   3    5.95    0.26
   2   3  -3    2.20    0.18
   2   3  -3    1.74    0.18
  -2  -3   3    1.76    0.13
   1   3  -3    3.66    0.21
   1   3  -3    4.16    0.23
   0   3  -3   28.16    0.76
   0   3  -3   28.78    0.69
   0   3  -3   28.63    0.68
  -1   3  -3    4.16    0.25
  -1   3  -3    3.32    0.17
  -1   3  -3    4.34    0.17
  -2   3  -3   38.35    0.97
  -3   3  -3    2.76    0.20
   3  -3   3    2.29    0.19
  -4   3  -3    0.67    0.16
   4  -3   3    0.83    0.14
  -5   3  -3    0.71    0.19
   5  -3   3    1.09    0.19
  -6   3  -3   -0.11    0.15
   6  -3   3    0.22    0.16
  -7   3  -3    0.09    0.18
   7  -3   3    0.51    0.22
  -8   3  -3   -0.21    0.21
   8   2  -3   -0.46    0.19
   7   2  -3   -0.02    0.18
  -7  -2   3   -0.01    0.15
   6   2  -3    0.59    0.20
  -6  -2   3    0.46    0.16
  -6  -2   3    0.27    0.18
   5   2  -3    3.04    0.29
  -5  -2   3    2.85    0.24
  -5  -2   3    2.95    0.26
   4   2  -3    6.23    0.35
  -4  -2   3    5.85    0.28
  -4  -2   3    5.18    0.28
   3   2  -3    0.11    0.10
  -3  -2   3    0.07    0.08
  -3  -2   3    0.12    0.09
   2   2  -3   11.84    0.41
  -2  -2   3   11.94    0.37
  -2  -2   3   12.54    0.33
   1   2  -3    1.64    0.14
  -1  -2   3    1.66    0.14
   0   2  -3   17.70    0.51
   0   2  -3   18.28    0.44
  -2   2  -3  197.44    4.26
   2  -2   3  190.69    4.29
  -3   2  -3    1.25    0.16
   3  -2   3    1.19    0.15
  -4   2  -3   -0.06    0.11
   4  -2   3    0.02    0.11
  -5   2  -3    1.39    0.23
   5  -2   3    1.40    0.21
  -6   2  -3    0.23    0.18
   6  -2   3    0.39    0.20
  -7   2  -3   -0.04    0.18
   7  -2   3   -0.01    0.19
  -8   2  -3    0.12    0.24
   8  -2   3   -0.10    0.22
   8   1  -3   -0.17    0.19
   7   1  -3    1.26    0.24
  -7  -1   3    0.86    0.20
  -7  -1   3    0.59    0.21
   6   1  -3   -0.03    0.15
  -6  -1   3    0.16    0.16
  -6  -1   3    0.13    0.13
   5   1  -3   11.90    0.48
  -5  -1   3   11.70    0.44
  -5  -1   3   12.45    0.46
   4   1  -3   13.93    0.49
  -4  -1   3   13.36    0.44
  -4  -1   3   13.65    0.44
   3   1  -3    1.85    0.17
  -3  -1   3    1.64    0.16
  -3  -1   3    1.94    0.14
   2   1  -3   67.14    1.54
  -2  -1   3   66.54    1.45
  -2  -1   3   64.83    1.43
   1   1  -3  169.72    3.82
  -1  -1   3  177.45    3.55
   0   1  -3  231.40    5.08
   0   1  -3  234.11    4.97
   0  -1   3  231.42    4.70
  -1   1  -3  103.61    2.22
   1  -1   3   96.76    2.24
  -2   1  -3    3.91    0.21
   2  -1   3    3.88    0.21
  -3   1  -3   46.51    1.20
   3  -1   3   47.48    1.17
  -4   1  -3    0.79    0.17
   4  -1   3    1.17    0.17
  -5   1  -3   -0.02    0.15
   5  -1   3    0.37    0.18
  -6   1  -3    0.32    0.18
   6  -1   3    0.35    0.19
  -7   1  -3    0.22    0.20
   7  -1   3   -0.04    0.20
  -8   1  -3   -0.11    0.23
   8  -1   3   -0.29    0.21
  -8   0   3   -0.03    0.18
   7   0  -3    0.49    0.18
  -7   0   3    0.13    0.09
  -7   0   3    0.72    0.21
   6   0  -3    1.61    0.22
  -6   0   3    1.47    0.23
  -6   0   3    1.21    0.20
   5   0  -3   18.89    0.60
  -5   0   3   18.14    0.57
  -5   0   3   19.23    0.61
   4   0  -3    1.99    0.18
  -4   0   3    2.09    0.18
  -4   0   3    2.12    0.18
   3   0  -3   11.89    0.38
  -3   0   3   12.46    0.38
  -3   0   3   12.33    0.36
   2   0  -3    2.96    0.17
  -2   0   3    2.81    0.13
  -2   0   3    3.23    0.17
   1   0  -3  105.91    2.29
  -1   0   3   99.84    2.24
  -1   0   3  105.52    2.14
   0   0   3  173.24    3.49
   0   0   3  170.95    3.76
  -1   0  -3   17.95    0.47
   1   0   3   17.35    0.47
   1   0   3   16.20    0.39
  -2   0  -3    0.01    0.09
   2   0   3    0.09    0.05
   2   0   3    0.02    0.08
  -3   0  -3   71.03    1.73
   3   0   3   72.73    1.50
   3   0   3   69.73    1.70
  -4   0  -3    3.24    0.16
  -4   0  -3    2.95    0.27
   4   0   3    2.52    0.25
  -5   0  -3    2.29    0.28
   5   0   3    1.97    0.25
  -6   0  -3    0.58    0.20
   6   0   3    0.55    0.21
  -7   0  -3    1.04    0.27
   7   0   3    1.09    0.27
  -8   0  -3    0.19    0.25
   8   0   3    0.16    0.24
  -9   1   3   -0.07    0.22
  -8   1   3    0.26    0.20
  -7   1   3    2.17    0.28
   6  -1  -3    2.93    0.27
  -6   1   3    2.85    0.26
   5  -1  -3    0.44    0.13
  -5   1   3    0.37    0.12
  -5   1   3    0.36    0.13
   4  -1  -3   21.92    0.59
  -4   1   3   21.89    0.58
  -4   1   3   21.53    0.62
   3  -1  -3   42.84    1.01
  -3   1   3   43.36    0.99
  -3   1   3   44.54    1.05
  -2   1   3    6.09    0.23
  -2   1   3    6.75    0.24
  -1   1   3    1.92    0.13
  -1   1   3    1.71    0.10
  -1   1   3    1.60    0.12
   0  -1  -3    0.07    0.06
   0   1   3    0.27    0.06
   0   1   3    0.03    0.04
  -1  -1  -3   14.76    0.44
   1   1   3   14.21    0.43
   1   1   3   15.08    0.38
  -2  -1  -3   26.07    0.73
   2   1   3   26.59    0.73
   2   1   3   27.15    0.63
  -3  -1  -3    2.64    0.25
   3   1   3    3.30    0.26
   3   1   3    2.99    0.17
  -4  -1  -3   21.78    0.74
   4   1   3   21.56    0.57
   4   1   3   23.09    0.73
  -5  -1  -3    0.45    0.20
   5   1   3    0.37    0.18
  -6  -1  -3   -0.02    0.16
   6   1   3   -0.15    0.17
  -7  -1  -3    0.11    0.22
   7   1   3    0.00    0.21
  -9   2   3    0.33    0.24
  -8   2   3    0.21    0.20
  -7   2   3   -0.01    0.14
  -6   2   3    0.25    0.15
  -6   2   3    0.21    0.13
   5  -2  -3    0.38    0.11
  -5   2   3    0.13    0.12
  -5   2   3   -0.05    0.05
   4  -2  -3   37.02    0.89
  -4   2   3   37.78    0.98
  -4   2   3   37.58    0.90
  -3   2   3    3.93    0.21
  -3   2   3    3.65    0.20
  -2   2   3   -0.01    0.07
  -2   2   3   -0.07    0.06
  -1   2   3    0.10    0.07
  -1   2   3    0.02    0.05
  -1   2   3    0.05    0.07
   0  -2  -3   46.87    1.10
   0   2   3   46.47    1.03
  -1  -2  -3   63.93    1.50
   1   2   3   62.50    1.38
   1   2   3   63.06    1.50
  -2  -2  -3    0.42    0.13
   2   2   3    0.37    0.09
   2   2   3    0.43    0.12
  -3  -2  -3    1.78    0.22
   3   2   3    1.40    0.19
   3   2   3    1.61    0.15
  -4  -2  -3   15.58    0.62
   4   2   3   17.73    0.51
   4   2   3   17.86    0.63
  -5  -2  -3    0.34    0.21
   5   2   3    0.48    0.20
  -6  -2  -3   -0.29    0.17
   6   2   3   -0.11    0.18
  -7  -2  -3    0.17    0.23
   7   2   3    0.17    0.24
  -9   3   3   -0.01    0.21
  -8   3   3    0.71    0.23
  -7   3   3    1.68    0.25
  -6   3   3    4.01    0.31
  -6   3   3    4.47    0.28
  -5   3   3    1.82    0.18
  -5   3   3    2.47    0.22
  -4   3   3   -0.07    0.08
  -4   3   3    0.06    0.09
  -3   3   3   26.04    0.73
  -3   3   3   26.16    0.67
  -2   3   3   22.18    0.59
  -2   3   3   23.19    0.64
  -1   3   3   16.44    0.43
  -1   3   3   16.35    0.49
  -1   3   3   16.37    0.46
   0  -3  -3    1.01    0.13
   0   3   3    0.96    0.11
   0   3   3    0.98    0.12
  -1  -3  -3    2.96    0.22
   1   3   3    3.05    0.24
   1   3   3    3.48    0.21
  -2  -3  -3    0.35    0.14
   2   3   3    0.20    0.10
   2   3   3    0.16    0.12
  -3  -3  -3    0.61    0.18
   3   3   3    0.38    0.11
   3   3   3    0.36    0.16
  -4  -3  -3    1.54    0.26
   4   3   3    1.69    0.19
   4   3   3    1.74    0.26
  -5  -3  -3    1.18    0.24
   5   3   3    1.23    0.18
   5   3   3    0.61    0.22
  -6  -3  -3    0.38    0.22
   6   3   3   -0.29    0.19
  -7  -3  -3   -0.34    0.20
   7   3   3    0.14    0.23
  -9   4   3   -0.15    0.19
  -8   4   3    0.10    0.18
  -7   4   3    0.57    0.18
  -6   4   3    0.47    0.15
  -6   4   3    0.21    0.14
  -5   4   3    0.30    0.13
  -5   4   3    0.33    0.12
  -4   4   3    0.12    0.10
  -4   4   3    0.10    0.11
  -3   4   3   10.28    0.41
  -3   4   3   10.59    0.37
  -2   4   3    7.77    0.33
  -2   4   3    7.44    0.30
  -1   4   3    1.34    0.16
  -1   4   3    1.14    0.14
  -1   4   3    0.98    0.11
   0  -4  -3   -0.06    0.08
   0   4   3    0.18    0.08
   0   4   3   -0.03    0.08
  -1  -4  -3   19.53    0.61
   1   4   3   19.18    0.62
   1   4   3   18.67    0.56
  -2  -4  -3    4.87    0.32
   2   4   3    4.68    0.33
   2   4   3    5.09    0.28
  -3  -4  -3    1.53    0.24
   3   4   3    1.86    0.20
   3   4   3    1.29    0.22
  -4  -4  -3    0.42    0.20
   4   4   3    0.30    0.20
   4   4   3    0.11    0.12
  -5  -4  -3    2.60    0.34
   5   4   3    2.23    0.32
   5   4   3    2.62    0.26
  -6  -4  -3    0.08    0.23
   6   4   3    0.00    0.22
  -7  -4  -3    0.01    0.26
  -8   5   3    0.06    0.18
  -7   5   3    0.25    0.17
  -6   5   3    7.53    0.41
  -5   5   3    0.27    0.11
  -5   5   3    0.37    0.15
  -4   5   3    0.47    0.13
  -4   5   3    0.36    0.14
  -3   5   3    2.19    0.20
  -3   5   3    1.92    0.21
  -2   5   3   12.81    0.44
  -2   5   3   13.16    0.39
  -2   5   3   12.99    0.49
  -1   5   3    0.10    0.09
  -1   5   3    0.10    0.10
  -1   5   3    0.11    0.08
   0  -5  -3    1.51    0.19
   0   5   3    1.77    0.19
   0   5   3    1.58    0.17
  -1  -5  -3    1.04    0.19
   1   5   3    0.55    0.16
   1   5   3    0.53    0.14
  -2  -5  -3    0.55    0.19
   2   5   3    0.75    0.16
   2   5   3    0.69    0.19
  -3  -5  -3    2.76    0.30
   3   5   3    2.05    0.29
   3   5   3    2.36    0.24
  -4  -5  -3    0.90    0.24
   4   5   3    0.88    0.24
   4   5   3    1.08    0.19
  -5  -5  -3    0.58    0.24
   5   5   3    1.02    0.20
   5   5   3    0.83    0.28
  -6  -5  -3   -0.33    0.22
  -8   6   3   -0.04    0.17
  -7   6   3    0.81    0.23
  -6   6   3    2.31    0.28
  -5   6   3    2.46    0.27
  -4   6   3    0.71    0.17
  -4   6   3    0.58    0.15
  -3   6   3   -0.11    0.10
  -3   6   3   -0.03    0.10
  -2   6   3    2.75    0.24
  -2   6   3    3.02    0.25
  -1   6   3    1.44    0.20
  -1   6   3    1.69    0.17
  -1   6   3    1.80    0.20
   0  -6  -3    3.21    0.26
   0   6   3    3.40    0.28
   0   6   3    3.60    0.26
  -1  -6  -3    9.91    0.46
   1   6   3    9.58    0.43
   1   6   3   10.15    0.47
  -2  -6  -3    0.44    0.18
   2   6   3    0.25    0.18
   2   6   3    0.09    0.14
  -3  -6  -3   -0.10    0.16
   3   6   3   -0.10    0.17
   3   6   3   -0.07    0.13
  -4  -6  -3   -0.11    0.20
   4   6   3    0.24    0.22
   4   6   3    0.23    0.17
  -5  -6  -3    0.25    0.24
   5   6   3    0.21    0.18
   5   6   3    0.08    0.26
  -7   7   3    0.33    0.19
  -6   7   3    0.08    0.14
  -5   7   3    1.21    0.22
  -5   7   3    1.26    0.20
  -4   7   3    4.10    0.32
  -4   7   3    5.43    0.32
  -3   7   3    0.51    0.16
  -3   7   3    0.54    0.15
  -2   7   3    0.08    0.13
  -2   7   3    0.05    0.12
  -1   7   3    1.33    0.21
  -1   7   3    1.31    0.20
   0  -7  -3    0.38    0.15
   0   7   3    0.38    0.15
   0   7   3    0.31    0.15
  -1  -7  -3   -0.03    0.15
   1   7   3   -0.02    0.13
   1   7   3   -0.14    0.14
  -2  -7  -3    0.45    0.21
   2   7   3    0.08    0.16
   2   7   3    0.34    0.20
  -3  -7  -3   -0.12    0.19
   3   7   3    0.20    0.16
   3   7   3   -0.24    0.20
  -4  -7  -3    0.01    0.21
   4   7   3    0.36    0.20
   4   7   3   -0.12    0.24
  -5  -7  -3   -0.38    0.23
  -6   8   3    0.13    0.17
  -5   8   3    2.03    0.27
  -4   8   3    0.95    0.20
  -4   8   3    0.65    0.19
  -3   8   3    0.74    0.18
  -3   8   3    0.55    0.17
  -2   8   3    0.33    0.15
  -2   8   3    0.33    0.16
  -1   8   3    0.13    0.14
  -1   8   3   -0.12    0.12
   0  -8  -3    1.16    0.23
   0   8   3    0.90    0.20
  -1  -8  -3    0.35    0.19
   1   8   3    0.24    0.18
   1   8   3    0.13    0.16
  -2  -8  -3    0.28    0.21
   2   8   3    0.05    0.17
   2   8   3   -0.12    0.20
  -3  -8  -3    0.06    0.21
   3   8   3   -0.09    0.23
   3   8   3    0.18    0.19
  -4  -8  -3   -0.04    0.24
  -5   9   3    0.50    0.19
  -4   9   3    0.70    0.20
  -4   9   3    0.52    0.19
  -3   9   3    1.01    0.22
  -3   9   3    1.34    0.24
  -2   9   3    0.19    0.17
  -2   9   3    0.41    0.18
  -1   9   3    0.01    0.16
   0  -9  -3    0.68    0.22
   0   9   3    0.36    0.22
  -1  -9  -3   -0.05    0.18
   1   9   3    0.05    0.18
  -2  -9  -3    0.18    0.24
  -4  10   3    1.32    0.27
  -3  10   3   -0.04    0.16
  -3  10   3    0.17    0.19
  -2  10   3    0.04    0.17
  -2  10   3    0.06    0.16
   1 -10  -3   -0.09    0.16
   0 -10  -3   -0.13    0.19
   1  10  -4    0.29    0.25
   0  10  -4    0.04    0.22
   0  10  -4    0.12    0.19
   2   9  -4    0.17    0.20
   2   9  -4    0.14    0.21
   1   9  -4   -0.06    0.16
   1   9  -4    0.14    0.21
   0   9  -4    0.03    0.16
   0   9  -4    0.06    0.19
  -1   9  -4   -0.10    0.14
  -1   9  -4    0.15    0.20
  -4   9  -4    0.21    0.17
  -5   9  -4    0.39    0.22
   3   8  -4    0.43    0.20
   3   8  -4    0.11    0.22
   2   8  -4    0.99    0.22
   2   8  -4    1.22    0.26
   1   8  -4   -0.04    0.14
   1   8  -4    0.25    0.19
   0   8  -4    1.27    0.24
   0   8  -4    1.29    0.20
  -1   8  -4    0.00    0.16
  -1   8  -4    0.11    0.13
  -2   8  -4    0.01    0.17
  -2   8  -4    0.05    0.07
  -3   8  -4   -0.14    0.12
  -4   8  -4    0.37    0.18
  -5   8  -4    0.07    0.17
  -6   8  -4    0.24    0.20
   5   7  -4    0.21    0.25
  -5  -7   4    0.20    0.18
   4   7  -4    0.03    0.22
   3   7  -4    2.92    0.34
   3   7  -4    2.69    0.30
   2   7  -4    1.50    0.23
   2   7  -4    1.79    0.27
   1   7  -4    0.02    0.16
   1   7  -4   -0.07    0.13
   0   7  -4   -0.12    0.11
   0   7  -4   -0.08    0.14
  -1   7  -4    0.22    0.10
  -1   7  -4    0.16    0.08
  -1   7  -4    0.24    0.16
  -2   7  -4   -0.12    0.15
  -2   7  -4   -0.01    0.05
  -3   7  -4    1.45    0.21
  -4   7  -4    4.34    0.33
  -5   7  -4    0.39    0.18
  -6   7  -4    0.06    0.18
   6   6  -4    0.13    0.26
  -6  -6   4    0.16    0.18
   5   6  -4    0.18    0.24
  -5  -6   4    0.10    0.16
   4   6  -4    0.18    0.20
  -4  -6   4    0.23    0.15
   3   6  -4    0.33    0.19
   3   6  -4    0.51    0.18
   2   6  -4    5.45    0.37
   2   6  -4    5.54    0.33
   1   6  -4    0.39    0.16
   1   6  -4    0.71    0.16
   0   6  -4    0.05    0.08
   0   6  -4    0.02    0.11
   0   6  -4    0.04    0.13
  -1   6  -4    7.26    0.30
  -1   6  -4    7.92    0.41
  -1   6  -4    7.40    0.33
  -2   6  -4    0.14    0.09
  -2   6  -4    0.30    0.16
  -2   6  -4    0.46    0.11
  -3   6  -4    0.41    0.14
  -4   6  -4    0.31    0.15
   4  -6   4    0.46    0.14
  -5   6  -4    0.81    0.21
  -6   6  -4    0.10    0.19
  -7   6  -4   -0.15    0.20
  -7  -5   4   -0.01    0.18
   6   5  -4    0.16    0.22
  -6  -5   4    0.25    0.18
   5   5  -4    0.25    0.20
  -5  -5   4    0.21    0.15
   4   5  -4    0.63    0.20
  -4  -5   4    0.57    0.17
   3   5  -4    0.14    0.15
   2   5  -4    7.50    0.40
   2   5  -4    7.94    0.36
   1   5  -4    6.12    0.35
   1   5  -4    7.08    0.32
   0   5  -4    0.44    0.14
   0   5  -4    0.44    0.09
   0   5  -4    0.70    0.13
  -1   5  -4    4.46    0.31
  -1   5  -4    4.36    0.24
  -1   5  -4    4.06    0.22
  -2   5  -4    0.23    0.14
  -2   5  -4    0.16    0.08
  -2   5  -4    0.03    0.09
  -3   5  -4    1.94    0.21
   3  -5   4    2.60    0.22
  -4   5  -4    0.00    0.12
   4  -5   4   -0.03    0.10
  -5   5  -4    0.99    0.21
   5  -5   4    1.13    0.18
  -6   5  -4    0.10    0.17
  -7   5  -4    0.16    0.21
   7   4  -4   -0.26    0.21
  -7  -4   4    0.24    0.18
   6   4  -4   -0.21    0.18
  -6  -4   4    0.05    0.15
   5   4  -4   -0.23    0.15
  -5  -4   4    0.17    0.14
   4   4  -4    0.11    0.16
  -4  -4   4    0.13    0.12
   3   4  -4    2.87    0.27
  -3  -4   4    2.66    0.23
   2   4  -4    0.04    0.11
  -2  -4   4   -0.01    0.08
   1   4  -4   12.84    0.41
   1   4  -4   12.33    0.46
   1   4  -4   12.28    0.35
   0   4  -4    5.70    0.22
   0   4  -4    5.92    0.25
   0   4  -4    5.92    0.32
  -1   4  -4    0.05    0.10
  -1   4  -4    0.07    0.07
  -1   4  -4    0.22    0.08
  -2   4  -4    7.49    0.24
  -2   4  -4    7.86    0.37
  -2   4  -4    8.18    0.33
  -3   4  -4    0.22    0.11
   3  -4   4    0.00    0.10
  -4   4  -4    1.00    0.19
   4  -4   4    1.13    0.17
  -5   4  -4   -0.24    0.13
   5  -4   4   -0.17    0.12
  -6   4  -4    0.55    0.21
   6  -4   4    1.32    0.23
  -7   4  -4    0.22    0.21
   8   3  -4    0.26    0.25
  -8  -3   4    0.23    0.19
   7   3  -4    0.03    0.21
  -7  -3   4    0.29    0.17
   6   3  -4    0.72    0.23
  -6  -3   4    0.71    0.17
   5   3  -4    0.34    0.18
  -5  -3   4    0.18    0.13
   4   3  -4    1.99    0.24
  -4  -3   4    1.95    0.22
  -4  -3   4    1.99    0.19
   3   3  -4    0.03    0.11
  -3  -3   4    0.11    0.09
  -3  -3   4   -0.05    0.08
   2   3  -4    5.14    0.29
  -2  -3   4    5.07    0.18
  -2  -3   4    5.44    0.26
   1   3  -4   31.50    0.84
   1   3  -4   30.18    0.71
   0   3  -4   11.60    0.32
   0   3  -4   11.33    0.41
  -1   3  -4    4.57    0.21
  -1   3  -4    4.48    0.26
  -2   3  -4   17.68    0.52
   2  -3   4   16.78    0.52
  -3   3  -4    2.70    0.22
   3  -3   4    2.89    0.22
  -4   3  -4    2.01    0.24
   4  -3   4    2.21    0.22
  -5   3  -4   -0.13    0.14
   5  -3   4    0.00    0.14
  -6   3  -4    0.34    0.20
   6  -3   4    0.15    0.17
  -7   3  -4   -0.08    0.20
   7  -3   4    0.06    0.21
   8   2  -4    0.23    0.22
  -8  -2   4    0.29    0.20
   7   2  -4    0.04    0.18
  -7  -2   4    0.01    0.14
   6   2  -4    0.04    0.16
  -6  -2   4    0.29    0.14
   5   2  -4   -0.02    0.14
  -5  -2   4    0.13    0.13
  -5  -2   4    0.00    0.13
   4   2  -4    2.44    0.24
  -4  -2   4    2.45    0.22
  -4  -2   4    2.69    0.19
   3   2  -4   13.86    0.48
  -3  -2   4   14.09    0.39
  -3  -2   4   14.35    0.45
   2   2  -4    1.80    0.17
  -2  -2   4    1.74    0.16
   1   2  -4    1.84    0.16
  -1  -2   4    1.77    0.14
   0   2  -4   30.35    0.80
   0   2  -4   32.09    0.72
   0  -2   4   31.12    0.71
  -1   2  -4   12.96    0.38
  -1   2  -4   12.73    0.43
   1  -2   4   12.61    0.31
  -2   2  -4    4.55    0.24
   2  -2   4    4.84    0.24
  -3   2  -4    5.91    0.31
   3  -2   4    5.71    0.28
  -4   2  -4   -0.07    0.12
   4  -2   4    0.00    0.12
  -5   2  -4    0.08    0.16
   5  -2   4    0.14    0.15
  -6   2  -4   -0.03    0.18
   6  -2   4   -0.18    0.16
  -7   2  -4    0.00    0.19
   7  -2   4    0.22    0.21
   8  -2   4   -0.09    0.24
   7   1  -4    0.03    0.15
  -7  -1   4    0.11    0.16
   6   1  -4    0.39    0.17
  -6  -1   4    0.46    0.16
  -6  -1   4    0.45    0.17
   5   1  -4    0.57    0.16
  -5  -1   4    0.34    0.14
  -5  -1   4    0.75    0.15
   4   1  -4   13.49    0.47
  -4  -1   4   12.88    0.44
  -4  -1   4   13.40    0.42
   3   1  -4    3.79    0.23
  -3  -1   4    3.83    0.22
  -3  -1   4    3.79    0.17
   2   1  -4    3.45    0.20
  -2  -1   4    3.60    0.19
   1   1  -4  216.36    4.85
  -1  -1   4  225.53    4.51
   0   1  -4    0.39    0.10
   0   1  -4    0.43    0.07
  -1   1  -4    5.54    0.23
   1  -1   4    5.71    0.24
   1  -1   4    5.39    0.16
  -2   1  -4   19.55    0.57
   2  -1   4   19.26    0.56
  -3   1  -4    7.92    0.36
   3  -1   4    8.13    0.34
  -4   1  -4    0.61    0.17
   4  -1   4    0.79    0.16
  -5   1  -4    0.30    0.18
   5  -1   4    0.38    0.18
  -6   1  -4   -0.03    0.17
   6  -1   4    0.13    0.18
  -7   1  -4    0.51    0.25
   7  -1   4    0.87    0.26
   8  -1   4    0.45    0.28
   7   0  -4   -0.07    0.14
  -7   0   4    0.06    0.15
  -7   0   4   -0.03    0.15
   6   0  -4    0.15    0.14
  -6   0   4    0.07    0.14
  -6   0   4    0.00    0.12
   5   0  -4    0.08    0.11
  -5   0   4    0.00    0.11
  -5   0   4    0.01    0.11
   4   0  -4   13.41    0.44
  -4   0   4   13.48    0.43
  -4   0   4   13.53    0.42
   3   0  -4    3.86    0.21
  -3   0   4    3.86    0.18
  -3   0   4    4.47    0.21
   2   0  -4   27.85    0.67
  -2   0   4   25.95    0.64
  -2   0   4   27.37    0.65
   1   0  -4   16.49    0.45
  -1   0   4   17.08    0.43
   0   0   4   38.06    0.83
   0   0   4   38.06    0.91
  -1   0  -4    8.34    0.31
   1   0   4    8.20    0.30
   1   0   4    8.08    0.23
  -2   0  -4   43.95    1.10
   2   0   4   41.95    1.08
   2   0   4   44.07    0.93
  -3   0  -4    0.25    0.14
   3   0   4    0.05    0.10
   3   0   4    0.03    0.06
  -4   0  -4    4.81    0.33
   4   0   4    5.12    0.34
  -5   0  -4    1.89    0.28
   5   0   4    2.15    0.28
  -6   0  -4    0.98    0.25
   6   0   4    0.84    0.23
  -7   0  -4   -0.06    0.21
   7   0   4   -0.16    0.21
   8   0   4   -0.06    0.25
  -8   1   4    0.10    0.18
  -7   1   4    0.30    0.17
  -7   1   4    0.21    0.14
   6  -1  -4    0.22    0.14
  -6   1   4    0.57    0.17
  -6   1   4    0.76    0.17
   5  -1  -4    5.75    0.29
  -5   1   4    6.30    0.31
  -5   1   4    5.77    0.29
   4  -1  -4    7.58    0.28
  -4   1   4    7.86    0.31
  -4   1   4    7.83    0.31
   3  -1  -4   33.51    0.78
  -3   1   4   31.58    0.82
  -3   1   4   34.21    0.80
   2  -1  -4    0.67    0.07
  -2   1   4    0.57    0.09
  -2   1   4    0.70    0.10
  -1   1   4   85.71    1.95
  -1   1   4   89.57    1.94
  -1   1   4   88.11    1.85
   0  -1  -4    0.90    0.11
   0   1   4    0.59    0.08
   0   1   4    0.83    0.09
  -1  -1  -4   27.87    0.72
   1   1   4   27.67    0.71
   1   1   4   25.76    0.63
  -2  -1  -4   11.14    0.42
   2   1   4   11.33    0.33
   2   1   4   11.43    0.41
  -3  -1  -4    3.51    0.27
   3   1   4    3.81    0.30
   3   1   4    3.76    0.19
  -4  -1  -4    7.36    0.42
   4   1   4    7.32    0.41
   4   1   4    7.33    0.28
  -5  -1  -4    0.40    0.21
   5   1   4    0.51    0.20
  -6  -1  -4    0.16    0.18
   6   1   4    0.19    0.20
  -7  -1  -4   -0.40    0.19
   7   1   4   -0.14    0.21
  -9   2   4   -0.05    0.21
  -8   2   4   -0.09    0.16
  -7   2   4    0.50    0.16
  -7   2   4    0.51    0.17
  -6   2   4    0.02    0.14
  -6   2   4    0.16    0.13
  -5   2   4    3.40    0.24
  -5   2   4    3.56    0.24
  -4   2   4   11.98    0.40
  -4   2   4   12.23    0.42
  -3   2   4    3.99    0.22
  -3   2   4    3.57    0.21
  -2   2   4    0.07    0.07
  -2   2   4    0.00    0.07
  -1   2   4   10.65    0.30
  -1   2   4   10.63    0.35
  -1   2   4   10.94    0.33
   0  -2  -4    7.57    0.29
   0   2   4    8.14    0.28
  -1  -2  -4   15.46    0.49
   1   2   4   14.66    0.42
   1   2   4   14.65    0.48
  -2  -2  -4    4.82    0.28
   2   2   4    4.90    0.23
   2   2   4    4.51    0.30
  -3  -2  -4    8.19    0.40
   3   2   4    8.18    0.31
   3   2   4    8.75    0.42
  -4  -2  -4    0.01    0.17
   4   2   4    0.17    0.11
   4   2   4    0.31    0.18
  -5  -2  -4    0.11    0.18
   5   2   4    0.34    0.19
  -6  -2  -4   -0.33    0.17
   6   2   4    0.12    0.20
  -7  -2  -4    0.29    0.24
   7   2   4   -0.07    0.24
  -9   3   4   -0.09    0.20
  -8   3   4    0.30    0.19
  -7   3   4    0.34    0.17
  -6   3   4    1.08    0.20
  -5   3   4    3.12    0.24
  -5   3   4    3.23    0.24
  -4   3   4    7.95    0.34
  -4   3   4    7.14    0.32
  -3   3   4   36.13    0.93
  -3   3   4   34.06    0.87
  -2   3   4    0.33    0.10
  -2   3   4    0.36    0.10
  -1   3   4    4.18    0.22
  -1   3   4    4.26    0.19
  -1   3   4    4.29    0.23
   0  -3  -4   12.44    0.43
   0   3   4   13.37    0.41
   0   3   4   13.07    0.41
  -1  -3  -4    4.70    0.27
   1   3   4    4.88    0.24
   1   3   4    4.48    0.28
  -2  -3  -4   12.91    0.50
   2   3   4   12.83    0.42
   2   3   4   12.53    0.49
  -3  -3  -4    1.44    0.25
   3   3   4    1.47    0.22
   3   3   4    1.71    0.18
  -4  -3  -4    2.26    0.29
   4   3   4    2.86    0.23
   4   3   4    2.60    0.30
  -5  -3  -4    0.45    0.21
   5   3   4    0.55    0.22
  -6  -3  -4    0.00    0.22
   6   3   4   -0.08    0.21
  -7  -3  -4   -0.11    0.23
  -9   4   4    0.24    0.22
  -8   4   4   -0.02    0.17
  -7   4   4    0.82    0.20
  -6   4   4    3.87    0.29
  -5   4   4    0.33    0.14
  -5   4   4    0.21    0.14
  -4   4   4    7.04    0.32
  -4   4   4    6.86    0.34
  -3   4   4   15.37    0.49
  -3   4   4   15.62    0.54
  -2   4   4   13.36    0.44
  -2   4   4   12.78    0.47
  -1   4   4    5.09    0.26
  -1   4   4    5.63    0.28
  -1   4   4    5.35    0.24
   0  -4  -4    0.01    0.09
   0   4   4    0.11    0.09
   0   4   4    0.05    0.09
  -1  -4  -4    2.46    0.24
   1   4   4    2.36    0.22
   1   4   4    2.37    0.20
  -2  -4  -4    0.10    0.15
   2   4   4    0.07    0.11
   2   4   4    0.21    0.15
  -3  -4  -4    0.73    0.21
   3   4   4    0.89    0.21
   3   4   4    0.69    0.16
  -4  -4  -4    0.43    0.20
   4   4   4    0.36    0.13
   4   4   4    0.34    0.19
  -5  -4  -4    0.31    0.22
   5   4   4    0.57    0.25
  -6  -4  -4   -0.02    0.24
   6   4   4    0.15    0.24
  -8   5   4   -0.02    0.17
  -7   5   4    0.34    0.17
  -6   5   4    2.00    0.25
  -5   5   4    4.20    0.28
  -5   5   4    3.81    0.30
  -4   5   4    2.83    0.26
  -4   5   4    2.91    0.23
  -3   5   4    0.00    0.10
  -3   5   4    0.10    0.11
  -2   5   4    1.11    0.17
  -2   5   4    1.15    0.16
  -1   5   4    1.19    0.18
  -1   5   4    1.42    0.14
  -1   5   4    1.27    0.17
   0  -5  -4    0.03    0.10
   0   5   4    0.12    0.10
   0   5   4    0.08    0.10
  -1  -5  -4    0.93    0.19
   1   5   4    1.28    0.19
   1   5   4    1.05    0.17
  -2  -5  -4    0.28    0.18
   2   5   4    0.24    0.14
   2   5   4    0.19    0.17
  -3  -5  -4   -0.07    0.15
   3   5   4    0.07    0.13
   3   5   4   -0.24    0.16
  -4  -5  -4    0.40    0.21
   4   5   4    0.04    0.13
   4   5   4   -0.17    0.19
  -5  -5  -4    0.61    0.26
   5   5   4    0.60    0.18
   5   5   4    0.77    0.29
  -6  -5  -4   -0.38    0.21
  -8   6   4    0.26    0.20
  -7   6   4    0.16    0.17
  -6   6   4    0.06    0.10
  -6   6   4   -0.01    0.14
  -5   6   4    2.32    0.25
  -5   6   4    2.43    0.27
  -4   6   4    0.17    0.13
  -4   6   4    0.00    0.12
  -3   6   4    0.72    0.15
  -3   6   4    0.77    0.17
  -2   6   4    3.99    0.28
  -2   6   4    4.62    0.31
  -1   6   4    2.46    0.26
  -1   6   4    2.18    0.23
   0  -6  -4    9.97    0.45
   0   6   4   10.27    0.43
   0   6   4   10.50    0.45
  -1  -6  -4   15.92    0.64
   1   6   4   17.17    0.59
   1   6   4   16.84    0.63
  -2  -6  -4    3.44    0.36
   2   6   4    3.72    0.35
   2   6   4    3.59    0.30
  -3  -6  -4   -0.07    0.17
   3   6   4    0.06    0.15
   3   6   4    0.18    0.20
  -4  -6  -4    0.06    0.21
   4   6   4   -0.09    0.21
   4   6   4   -0.14    0.15
  -5  -6  -4   -0.13    0.22
   5   6   4    0.07    0.27
   5   6   4    0.37    0.19
  -7   7   4   -0.04    0.15
  -6   7   4   -0.01    0.15
  -5   7   4    0.06    0.14
  -5   7   4   -0.02    0.13
  -4   7   4    0.30    0.14
  -4   7   4    0.23    0.14
  -3   7   4    0.04    0.12
  -3   7   4    0.04    0.13
  -2   7   4    0.86    0.19
  -2   7   4    1.14    0.20
  -1   7   4    1.70    0.24
  -1   7   4    2.14    0.25
   0  -7  -4    0.29    0.16
   0   7   4    0.41    0.16
  -1  -7  -4    1.02    0.22
   1   7   4    0.57    0.18
   1   7   4    0.66    0.18
  -2  -7  -4    0.10    0.19
   2   7   4    0.06    0.16
   2   7   4    0.02    0.18
  -3  -7  -4    0.90    0.27
   3   7   4    0.77    0.21
   3   7   4    0.85    0.26
  -4  -7  -4   -0.17    0.22
   4   7   4    0.01    0.26
   4   7   4    0.02    0.18
  -6   8   4   -0.24    0.12
  -5   8   4    0.15    0.17
  -5   8   4    0.19    0.15
  -4   8   4    0.89    0.20
  -4   8   4    0.20    0.17
  -3   8   4    0.03    0.15
  -3   8   4    0.31    0.16
  -2   8   4   -0.08    0.14
  -2   8   4   -0.06    0.12
  -1   8   4    0.47    0.17
   0  -8  -4    0.17    0.15
   0   8   4    0.07    0.15
  -1  -8  -4   -0.04    0.16
   1   8   4   -0.03    0.15
  -2  -8  -4    1.20    0.28
   2   8   4    1.58    0.27
   2   8   4    1.07    0.27
  -3  -8  -4    0.14    0.23
   3   8   4   -0.05    0.26
   3   8   4    0.07    0.19
  -5   9   4   -0.01    0.16
  -4   9   4    0.10    0.16
  -4   9   4    0.20    0.18
  -3   9   4    0.61    0.19
  -3   9   4    0.09    0.17
  -2   9   4   -0.03    0.15
  -2   9   4    0.09    0.18
   1  -9  -4    0.27    0.18
  -1   9   4    0.03    0.17
   0  -9  -4    0.13    0.18
   0   9   4    0.09    0.18
  -1  -9  -4    0.03    0.20
   1   9   4    0.13    0.19
  -2  -9  -4    0.17    0.26
  -4  10   4   -0.09    0.18
  -3  10   4    0.53    0.22
   0  10  -5    0.32    0.25
   0  10  -5   -0.21    0.18
   2   9  -5    0.62    0.28
   2   9  -5    0.54    0.21
   1   9  -5   -0.13    0.21
   1   9  -5   -0.25    0.16
   0   9  -5    0.32    0.17
   0   9  -5    1.02    0.26
  -1   9  -5    1.62    0.29
  -5   9  -5    0.08    0.20
   3   8  -5   -0.10    0.21
   2   8  -5    0.19    0.20
   2   8  -5   -0.20    0.14
   1   8  -5   -0.06    0.14
   1   8  -5   -0.06    0.18
   0   8  -5    0.96    0.24
   0   8  -5    1.12    0.19
  -1   8  -5    1.05    0.23
  -2   8  -5   -0.17    0.18
  -3   8  -5   -0.10    0.20
  -4   8  -5    0.22    0.16
  -5   8  -5    0.58    0.21
   5   7  -5    0.27    0.25
  -5  -7   5    0.04    0.18
   4   7  -5    0.00    0.21
  -4  -7   5    0.21    0.17
   3   7  -5    1.29    0.26
   2   7  -5    1.59    0.26
   2   7  -5    1.56    0.23
   1   7  -5   -0.05    0.16
   1   7  -5   -0.07    0.13
   0   7  -5    0.16    0.16
   0   7  -5    0.08    0.13
  -1   7  -5    2.48    0.22
  -1   7  -5    3.50    0.33
  -2   7  -5    6.08    0.33
  -2   7  -5    6.15    0.42
  -3   7  -5    3.79    0.29
  -4   7  -5   -0.19    0.13
   4  -7   5    0.04    0.13
  -5   7  -5    0.22    0.17
  -6   7  -5    0.08    0.20
  -6  -6   5    0.14    0.19
   5   6  -5    0.19    0.21
  -5  -6   5   -0.11    0.16
   4   6  -5    0.06    0.17
  -4  -6   5    0.10    0.14
   3   6  -5    0.26    0.18
  -3  -6   5    0.22    0.14
   2   6  -5    3.13    0.31
   1   6  -5    0.44    0.17
   1   6  -5    0.57    0.15
   0   6  -5    1.18    0.17
   0   6  -5    1.07    0.22
  -1   6  -5   -0.17    0.09
  -1   6  -5    0.02    0.15
  -1   6  -5    0.01    0.09
  -2   6  -5    1.93    0.21
  -2   6  -5    3.15    0.30
  -3   6  -5    2.45    0.24
  -4   6  -5    0.89    0.19
   4  -6   5    1.11    0.18
  -5   6  -5    0.40    0.20
   5  -6   5    0.63    0.17
  -6   6  -5    0.10    0.19
   6   5  -5    0.16    0.23
  -6  -5   5    0.26    0.18
   5   5  -5    0.60    0.23
  -5  -5   5    0.57    0.18
   4   5  -5    0.07    0.16
  -4  -5   5    0.03    0.12
   3   5  -5    0.14    0.16
  -3  -5   5    0.08    0.12
   2   5  -5    3.87    0.31
   1   5  -5    2.49    0.25
   0   5  -5    0.12    0.10
   0   5  -5    0.04    0.07
   0   5  -5    0.13    0.13
  -1   5  -5    0.96    0.13
  -1   5  -5    0.81    0.18
  -1   5  -5    0.96    0.13
  -2   5  -5    1.79    0.18
  -2   5  -5    3.13    0.28
  -3   5  -5   -0.01    0.11
   3  -5   5    0.21    0.12
  -4   5  -5   -0.09    0.12
   4  -5   5    0.07    0.12
  -5   5  -5    1.64    0.25
   5  -5   5    1.88    0.23
  -6   5  -5    0.10    0.18
   6  -5   5    0.16    0.16
  -7   5  -5   -0.02    0.21
   7   4  -5    0.14    0.22
  -7  -4   5    0.15    0.19
   6   4  -5    1.09    0.27
  -6  -4   5    1.34    0.23
   5   4  -5   -0.10    0.16
  -5  -4   5   -0.01    0.13
   4   4  -5    0.73    0.20
  -4  -4   5    0.88    0.18
   3   4  -5    0.19    0.14
  -3  -4   5   -0.04    0.11
   2   4  -5   13.48    0.51
  -2  -4   5   13.77    0.47
   1   4  -5    2.53    0.13
   1   4  -5    2.69    0.24
  -1  -4   5    2.75    0.20
   0   4  -5    0.01    0.06
   0   4  -5    0.02    0.11
  -1   4  -5    1.63    0.20
  -1   4  -5    1.48    0.14
  -3   4  -5    2.48    0.22
   3  -4   5    2.15    0.21
  -4   4  -5    0.77    0.18
   4  -4   5    0.99    0.17
  -5   4  -5    0.35    0.17
   5  -4   5    0.59    0.16
  -6   4  -5    0.50    0.22
   6  -4   5    1.05    0.23
  -7   4  -5    0.08    0.21
   7  -4   5    0.43    0.22
   8   3  -5    0.03    0.21
  -8  -3   5    0.20    0.20
   7   3  -5    0.17    0.21
  -7  -3   5   -0.16    0.16
   6   3  -5    0.98    0.24
  -6  -3   5    0.86    0.20
   5   3  -5    0.25    0.17
  -5  -3   5    0.28    0.15
   4   3  -5   -0.19    0.12
  -4  -3   5   -0.08    0.11
   3   3  -5    4.56    0.30
  -3  -3   5    4.56    0.27
   2   3  -5    5.84    0.31
  -2  -3   5    5.79    0.28
   1   3  -5    5.08    0.29
  -1  -3   5    4.61    0.23
   0   3  -5    2.64    0.13
   0   3  -5    2.42    0.21
   0  -3   5    2.48    0.16
  -1   3  -5    3.76    0.27
  -1   3  -5    4.09    0.20
   1  -3   5    3.83    0.16
  -2   3  -5    1.75    0.17
   2  -3   5    2.04    0.18
  -3   3  -5    0.04    0.11
   3  -3   5    0.19    0.10
  -4   3  -5   -0.10    0.14
   4  -3   5    0.00    0.11
  -5   3  -5   -0.16    0.15
   5  -3   5    0.08    0.14
  -6   3  -5    2.42    0.33
   6  -3   5    3.16    0.32
  -7   3  -5    0.14    0.22
   7  -3   5   -0.29    0.19
   8   2  -5   -0.02    0.21
  -8  -2   5    0.31    0.20
   7   2  -5    0.06    0.18
  -7  -2   5    0.19    0.17
   6   2  -5   -0.01    0.16
  -6  -2   5    0.08    0.15
   5   2  -5    6.35    0.37
  -5  -2   5    5.52    0.33
   4   2  -5    2.18    0.23
  -4  -2   5    1.89    0.21
  -4  -2   5    1.88    0.16
   3   2  -5    0.10    0.10
  -3  -2   5    0.03    0.09
   2   2  -5    0.19    0.10
  -2  -2   5    0.13    0.09
   1   2  -5   74.44    1.77
  -1  -2   5   75.98    1.63
   0   2  -5    2.82    0.14
   0   2  -5    2.73    0.22
   0  -2   5    2.75    0.15
  -1   2  -5    0.03    0.07
   1  -2   5    0.06    0.05
  -2   2  -5    1.18    0.15
   2  -2   5    1.16    0.14
  -3   2  -5    0.02    0.11
   3  -2   5    0.06    0.10
  -4   2  -5    0.91    0.19
   4  -2   5    1.28    0.19
  -5   2  -5    0.45    0.19
   5  -2   5    0.43    0.18
  -6   2  -5    0.38    0.21
   6  -2   5    0.74    0.21
  -7   2  -5    0.31    0.23
   7  -2   5    0.31    0.24
   8  -2   5    0.41    0.28
  -8  -1   5    0.16    0.18
   7   1  -5    0.19    0.17
  -7  -1   5    0.02    0.15
   6   1  -5    1.03    0.20
  -6  -1   5    0.66    0.18
   5   1  -5    2.63    0.25
  -5  -1   5    2.80    0.22
  -5  -1   5    2.70    0.25
   4   1  -5    0.90    0.15
  -4  -1   5    0.84    0.15
  -4  -1   5    0.71    0.11
   3   1  -5    1.40    0.15
  -3  -1   5    1.94    0.18
  -3  -1   5    1.49    0.11
   2   1  -5   49.54    1.21
  -2  -1   5   50.42    1.14
   1   1  -5   85.95    1.99
  -1  -1   5   88.00    1.84
   0   1  -5    0.54    0.11
   0   1  -5    0.63    0.08
   0  -1   5    0.56    0.08
   1  -1   5    5.01    0.24
   1  -1   5    5.13    0.17
  -2   1  -5    0.19    0.11
   2  -1   5    0.29    0.10
  -3   1  -5    4.03    0.27
   3  -1   5    4.21    0.27
  -4   1  -5    1.00    0.20
   4  -1   5    0.81    0.18
  -5   1  -5    0.37    0.19
   5  -1   5    0.01    0.16
  -6   1  -5    0.51    0.22
   6  -1   5    0.90    0.25
  -7   1  -5    0.24    0.25
   7  -1   5    0.35    0.25
  -8   0   5   -0.14    0.16
  -7   0   5    1.48    0.22
   6   0  -5    0.63    0.15
  -6   0   5    0.45    0.15
  -6   0   5    0.38    0.15
   5   0  -5    0.16    0.11
  -5   0   5    0.36    0.13
  -5   0   5    0.29    0.13
   4   0  -5   49.44    1.20
  -4   0   5   49.35    1.17
  -4   0   5   48.76    1.18
   3   0  -5    1.21    0.12
  -3   0   5    1.55    0.13
  -3   0   5    1.59    0.15
   2   0  -5    1.72    0.15
  -2   0   5    1.83    0.15
  -2   0   5    1.59    0.11
   1   0  -5    0.13    0.06
   1   0  -5    0.27    0.09
  -1   0   5    0.18    0.08
   0   0  -5   53.75    1.22
   0   0   5   52.08    1.24
   0   0   5   51.74    1.13
  -1   0  -5    1.21    0.14
   1   0   5    1.20    0.10
   1   0   5    1.38    0.14
  -2   0  -5    3.81    0.25
   2   0   5    3.37    0.23
   2   0   5    3.57    0.15
  -3   0  -5    1.57    0.22
   3   0   5    1.36    0.11
   3   0   5    1.31    0.18
  -4   0  -5    2.51    0.29
   4   0   5    2.82    0.28
  -5   0  -5    1.39    0.25
   5   0   5    1.16    0.24
  -6   0  -5    0.59    0.23
   6   0   5    0.99    0.25
  -7   0  -5    0.10    0.22
   7   0   5    0.29    0.24
  -7   1   5    1.19    0.22
  -7   1   5    0.94    0.20
  -6   1   5    0.06    0.13
  -6   1   5    0.00    0.13
   5  -1  -5    6.56    0.29
  -5   1   5    5.63    0.31
  -5   1   5    6.81    0.32
   4  -1  -5   10.50    0.33
  -4   1   5   10.55    0.38
  -4   1   5   10.50    0.37
   3  -1  -5    0.43    0.07
  -3   1   5    0.53    0.10
  -3   1   5    0.37    0.11
   2  -1  -5    0.02    0.06
  -2   1   5    0.03    0.07
  -2   1   5   -0.01    0.07
  -1   1   5    1.73    0.15
  -1   1   5    1.66    0.13
   0  -1  -5   27.83    0.72
   0   1   5   27.98    0.71
   0   1   5   27.91    0.66
  -1  -1  -5    0.08    0.10
   1   1   5   -0.07    0.06
   1   1   5   -0.10    0.08
  -2  -1  -5    2.81    0.25
   2   1   5    2.51    0.23
   2   1   5    2.63    0.16
  -3  -1  -5    6.65    0.38
   3   1   5    6.96    0.37
   3   1   5    6.83    0.26
  -4  -1  -5    1.89    0.27
   4   1   5    2.00    0.26
  -5  -1  -5    0.70    0.22
   5   1   5    0.97    0.24
  -6  -1  -5   -0.04    0.19
   6   1   5   -0.21    0.19
  -7  -1  -5    0.04    0.23
   7   1   5   -0.24    0.22
  -8   2   5    0.24    0.18
  -7   2   5   -0.18    0.14
  -7   2   5    0.09    0.15
  -6   2   5    1.33    0.20
  -6   2   5    1.53    0.21
  -5   2   5    0.24    0.12
  -5   2   5    0.33    0.13
  -4   2   5    4.66    0.26
  -4   2   5    5.66    0.27
  -3   2   5   18.10    0.54
  -3   2   5   17.52    0.51
  -2   2   5    1.45    0.15
  -2   2   5    1.69    0.16
  -1   2   5    0.32    0.07
  -1   2   5    0.38    0.10
  -1   2   5    0.35    0.09
   0   2   5    0.01    0.03
   0   2   5    0.18    0.08
  -1  -2  -5   12.91    0.46
   1   2   5   12.68    0.39
   1   2   5   12.32    0.44
  -2  -2  -5   -0.06    0.12
   2   2   5    0.03    0.08
   2   2   5   -0.18    0.11
  -3  -2  -5    2.78    0.29
   3   2   5    2.99    0.21
   3   2   5    3.03    0.28
  -4  -2  -5   -0.13    0.17
   4   2   5    0.01    0.17
  -5  -2  -5   -0.07    0.20
   5   2   5    0.07    0.19
  -6  -2  -5   -0.23    0.20
   6   2   5   -0.34    0.19
  -7  -2  -5    0.00    0.22
  -9   3   5    0.27    0.21
  -8   3   5    0.59    0.21
  -7   3   5    0.01    0.13
  -7   3   5    0.02    0.13
  -6   3   5    2.78    0.27
  -6   3   5    2.48    0.25
  -5   3   5    0.07    0.12
  -5   3   5    0.01    0.11
  -4   3   5    8.90    0.36
  -4   3   5    9.17    0.38
  -3   3   5   54.08    1.33
  -3   3   5   52.17    1.24
  -2   3   5   14.13    0.44
  -2   3   5   13.85    0.47
  -1   3   5    1.25    0.11
  -1   3   5    1.16    0.15
  -1   3   5    1.23    0.14
   0  -3  -5    2.10    0.19
   0   3   5    1.92    0.17
   0   3   5    2.29    0.20
  -1  -3  -5   12.05    0.47
   1   3   5   13.71    0.48
   1   3   5   12.60    0.42
  -2  -3  -5    1.89    0.24
   2   3   5    1.86    0.23
   2   3   5    2.24    0.20
  -3  -3  -5    0.57    0.20
   3   3   5    0.67    0.14
   3   3   5    0.74    0.20
  -4  -3  -5    1.02    0.24
   4   3   5    0.87    0.22
   4   3   5    1.32    0.18
  -5  -3  -5    0.26    0.20
   5   3   5    0.01    0.20
  -6  -3  -5    0.17    0.23
   6   3   5   -0.10    0.21
  -9   4   5   -0.02    0.19
  -8   4   5    0.23    0.18
  -7   4   5    0.12    0.15
  -7   4   5   -0.10    0.08
  -6   4   5    1.43    0.22
  -6   4   5    1.63    0.21
  -5   4   5    1.09    0.18
  -5   4   5    0.88    0.19
  -4   4   5    0.24    0.12
  -4   4   5    0.00    0.11
  -3   4   5    2.52    0.21
  -3   4   5    2.27    0.22
  -2   4   5   20.53    0.61
  -2   4   5   21.74    0.66
  -1   4   5    0.62    0.13
  -1   4   5    0.50    0.09
  -1   4   5    0.16    0.09
   0  -4  -5    1.11    0.17
   0   4   5    1.23    0.16
   0   4   5    0.94    0.14
  -1  -4  -5    0.37    0.16
   1   4   5    0.42    0.12
   1   4   5    0.58    0.16
  -2  -4  -5    0.53    0.19
   2   4   5    0.27    0.16
   2   4   5    0.77    0.15
  -3  -4  -5    0.08    0.18
   3   4   5    0.16    0.11
   3   4   5    0.06    0.17
  -4  -4  -5    3.92    0.38
   4   4   5    4.81    0.30
   4   4   5    3.80    0.38
  -5  -4  -5    0.11    0.22
   5   4   5   -0.06    0.22
  -6  -4  -5    0.08    0.24
   6   4   5   -0.53    0.21
  -8   5   5    0.23    0.19
  -7   5   5    0.35    0.17
  -6   5   5    0.52    0.18
  -6   5   5    0.23    0.15
  -5   5   5    5.70    0.33
  -5   5   5    6.94    0.38
  -4   5   5    0.15    0.12
  -4   5   5    0.10    0.12
  -3   5   5   13.50    0.49
  -3   5   5   13.27    0.52
  -2   5   5    3.21    0.26
  -2   5   5    3.79    0.25
  -1   5   5   -0.08    0.08
  -1   5   5   -0.13    0.08
  -1   5   5    0.03    0.11
   0  -5  -5    0.12    0.12
   0   5   5    0.10    0.11
   0   5   5    0.08    0.11
  -1  -5  -5    3.24    0.31
   1   5   5    3.01    0.27
   1   5   5    2.94    0.25
  -2  -5  -5   10.58    0.52
   2   5   5   11.09    0.46
   2   5   5   11.58    0.53
  -3  -5  -5    0.61    0.22
   3   5   5    1.26    0.20
   3   5   5    0.90    0.24
  -4  -5  -5    0.28    0.21
   4   5   5    0.37    0.23
   4   5   5    0.52    0.17
  -5  -5  -5   -0.02    0.23
   5   5   5    0.00    0.24
  -8   6   5    0.17    0.19
  -7   6   5    0.07    0.16
  -6   6   5    0.57    0.18
  -6   6   5    0.85    0.19
  -5   6   5    0.10    0.15
  -5   6   5    0.06    0.13
  -4   6   5    0.26    0.14
  -4   6   5    0.17    0.13
  -3   6   5    1.06    0.20
  -3   6   5    0.94    0.17
  -2   6   5    1.66    0.22
  -2   6   5    1.84    0.24
  -1   6   5    7.55    0.37
   0  -6  -5    5.17    0.34
   0   6   5    5.11    0.32
   0   6   5    5.14    0.33
  -1  -6  -5    0.27    0.17
   1   6   5   -0.02    0.15
   1   6   5    0.21    0.14
  -2  -6  -5    0.26    0.19
   2   6   5    0.29    0.15
   2   6   5    0.06    0.17
  -3  -6  -5    0.00    0.18
   3   6   5   -0.09    0.14
   3   6   5    0.10    0.21
  -4  -6  -5    0.60    0.26
   4   6   5    0.41    0.26
   4   6   5    0.26    0.18
  -7   7   5    0.05    0.16
  -6   7   5    0.07    0.16
  -6   7   5   -0.06    0.14
  -5   7   5    0.45    0.16
  -5   7   5    0.75    0.18
  -4   7   5    2.33    0.28
  -4   7   5    3.33    0.30
  -3   7   5    1.64    0.24
  -3   7   5    1.76    0.23
  -2   7   5    0.47    0.16
  -2   7   5    0.19    0.14
  -1   7   5    2.26    0.26
   0  -7  -5    0.53    0.18
   0   7   5    0.12    0.14
  -1  -7  -5   -0.10    0.14
   1   7   5   -0.01    0.13
   1   7   5    0.02    0.14
  -2  -7  -5    0.01    0.18
   2   7   5    0.03    0.16
   2   7   5    0.02    0.18
  -3  -7  -5    0.67    0.26
   3   7   5    0.76    0.22
   3   7   5    0.75    0.27
  -4  -7  -5    0.10    0.25
   4   7   5   -0.03    0.25
   4   7   5    0.31    0.20
  -6   8   5   -0.10    0.14
  -5   8   5    0.26    0.18
  -5   8   5    0.10    0.16
  -4   8   5    0.16    0.15
  -4   8   5    0.28    0.17
  -3   8   5    0.07    0.15
  -3   8   5    0.16    0.17
  -2   8   5    0.93    0.21
  -2   8   5    0.83    0.21
   1  -8  -5    0.54    0.17
  -1   8   5    0.50    0.18
   0  -8  -5    0.06    0.15
   0   8   5    0.20    0.17
  -1  -8  -5    0.10    0.19
   1   8   5    0.10    0.17
  -2  -8  -5    0.24    0.23
   2   8   5   -0.09    0.17
   2   8   5   -0.09    0.20
   3   8   5    0.15    0.27
  -5   9   5   -0.12    0.18
  -4   9   5    0.20    0.18
  -4   9   5    0.22    0.20
  -3   9   5    0.06    0.17
  -3   9   5    0.12    0.18
  -2   9   5   -0.03    0.16
  -2   9   5    0.16    0.18
   1  -9  -5    0.80    0.23
  -1   9   5    1.13    0.26
   0  -9  -5    0.36    0.20
   0   9   5    0.34    0.20
  -1  -9  -5   -0.01    0.19
  -1  10  -6   -0.04    0.23
   2   9  -6    0.32    0.26
   1   9  -6    0.47    0.24
   0   9  -6    0.01    0.21
  -1   9  -6    0.27    0.21
  -2   9  -6    0.13    0.23
   3   8  -6   -0.06    0.21
  -3  -8   6    0.04    0.16
   2   8  -6    0.50    0.24
   1   8  -6    0.31    0.21
   0   8  -6    0.45    0.22
   0   8  -6    0.21    0.15
  -1   8  -6    1.21    0.25
  -2   8  -6    1.12    0.27
  -5   8  -6   -0.07    0.18
   4   7  -6    0.43    0.24
  -4  -7   6    0.47    0.19
   3   7  -6    0.51    0.22
  -3  -7   6    0.47    0.17
   2   7  -6    0.43    0.21
  -2  -7   6    0.15    0.14
   1   7  -6    0.60    0.21
   0   7  -6    0.39    0.14
   0   7  -6    0.44    0.20
  -1   7  -6    0.18    0.18
  -2   7  -6    0.36    0.21
  -3   7  -6    0.02    0.08
  -4   7  -6    0.10    0.15
   4  -7   6    0.12    0.13
  -5   7  -6    0.16    0.18
  -6   7  -6   -0.03    0.19
   5   6  -6    0.04    0.21
  -5  -6   6    0.31    0.20
   4   6  -6    0.10    0.17
  -4  -6   6    0.26    0.17
   3   6  -6    1.68    0.26
  -3  -6   6    1.20    0.21
   2   6  -6    0.26    0.17
  -2  -6   6    0.05    0.12
   1   6  -6    1.50    0.24
   0   6  -6    5.13    0.37
  -1   6  -6    7.84    0.44
  -2   6  -6   -0.02    0.11
  -2   6  -6    0.09    0.17
  -3   6  -6    1.02    0.18
   3  -6   6    1.30    0.20
  -4   6  -6    1.00    0.21
   4  -6   6    1.19    0.19
  -5   6  -6   -0.06    0.16
   5  -6   6    0.11    0.14
  -6   6  -6    0.12    0.21
   6   5  -6    0.39    0.23
  -6  -5   6    0.24    0.18
   5   5  -6    0.41    0.21
  -5  -5   6    0.11    0.17
   4   5  -6    0.11    0.16
  -4  -5   6    0.01    0.14
   3   5  -6    0.95    0.21
  -3  -5   6    1.06    0.19
   2   5  -6    0.16    0.15
  -2  -5   6    0.31    0.12
   1   5  -6    0.72    0.17
  -1  -5   6    0.35    0.13
   0   5  -6    3.04    0.28
   0  -5   6    2.91    0.20
  -1   5  -6    0.48    0.18
  -1   5  -6    0.46    0.11
   1  -5   6    0.56    0.11
  -2   5  -6    1.71    0.19
  -2   5  -6    1.73    0.25
  -3   5  -6    0.05    0.12
   3  -5   6    0.06    0.12
  -4   5  -6    0.05    0.13
   4  -5   6    0.00    0.12
  -5   5  -6    0.51    0.19
   5  -5   6    0.56    0.17
  -6   5  -6   -0.28    0.17
   6  -5   6   -0.07    0.15
   7   4  -6   -0.27    0.20
  -7  -4   6    0.04    0.19
   6   4  -6   -0.03    0.20
  -6  -4   6    0.11    0.16
   5   4  -6   -0.09    0.16
  -5  -4   6    0.08    0.15
   4   4  -6    0.12    0.15
  -4  -4   6   -0.11    0.13
   3   4  -6    0.29    0.14
  -3  -4   6    0.07    0.13
   2   4  -6    1.78    0.22
  -2  -4   6    1.87    0.20
   1   4  -6    8.87    0.41
  -1  -4   6    8.97    0.35
   0   4  -6    0.93    0.10
   0   4  -6    0.95    0.17
   0  -4   6    1.09    0.13
  -1   4  -6    0.42    0.10
  -1   4  -6    0.54    0.16
   1  -4   6    0.47    0.09
  -2   4  -6    3.87    0.24
  -3   4  -6    2.60    0.24
   3  -4   6    3.04    0.24
  -4   4  -6    0.15    0.14
   4  -4   6    0.26    0.12
  -5   4  -6    1.43    0.25
   5  -4   6    1.98    0.24
  -6   4  -6   -0.11    0.18
   6  -4   6    0.39    0.20
  -7   4  -6   -0.15    0.22
   7  -4   6    0.33    0.22
   8   3  -6    0.27    0.25
  -8  -3   6    0.46    0.23
   7   3  -6   -0.01    0.20
  -7  -3   6    0.23    0.19
   6   3  -6    0.06    0.18
  -6  -3   6    0.18    0.16
   5   3  -6    1.70    0.25
  -5  -3   6    1.96    0.24
   4   3  -6    0.55    0.17
  -4  -3   6    0.53    0.15
   3   3  -6    1.97    0.21
  -3  -3   6    1.59    0.19
   2   3  -6    5.09    0.31
  -2  -3   6    6.07    0.29
   1   3  -6    0.06    0.11
  -1  -3   6    0.05    0.08
   0   3  -6   14.19    0.39
   0   3  -6   14.07    0.51
   0  -3   6   14.22    0.40
  -1   3  -6    3.81    0.20
  -1   3  -6    3.77    0.28
   1  -3   6    3.82    0.17
   2  -3   6   12.53    0.45
  -3   3  -6    8.00    0.39
   3  -3   6    8.33    0.36
  -4   3  -6   -0.12    0.13
   4  -3   6    0.14    0.13
  -5   3  -6    0.09    0.17
   5  -3   6    0.16    0.16
  -6   3  -6    0.30    0.22
   6  -3   6    0.49    0.20
  -7   3  -6    0.03    0.22
   7  -3   6    0.05    0.21
  -8  -2   6    0.82    0.24
   7   2  -6    0.49    0.19
  -7  -2   6   -0.07    0.16
   6   2  -6    0.27    0.17
  -6  -2   6    0.09    0.15
   5   2  -6    0.86    0.18
  -5  -2   6    0.93    0.19
   4   2  -6    6.01    0.33
  -4  -2   6    5.91    0.32
   3   2  -6    4.52    0.28
  -3  -2   6    5.13    0.27
   2   2  -6    2.56    0.22
  -2  -2   6    2.92    0.20
   1   2  -6    0.23    0.11
  -1  -2   6    0.18    0.08
   0   2  -6   59.59    1.33
   0   2  -6   56.86    1.43
   0  -2   6   58.82    1.27
  -1   2  -6    0.08    0.08
   1  -2   6   -0.06    0.06
   1  -2   6   -0.05    0.07
  -2   2  -6    7.96    0.34
   2  -2   6    7.52    0.33
  -3   2  -6    2.15    0.23
   3  -2   6    2.46    0.23
  -4   2  -6    2.38    0.28
   4  -2   6    2.82    0.26
  -5   2  -6    0.14    0.17
   5  -2   6    0.07    0.15
  -6   2  -6    0.88    0.26
   6  -2   6    1.65    0.27
  -7   2  -6    0.07    0.24
   7  -2   6   -0.01    0.24
  -8  -1   6    0.39    0.20
   7   1  -6    3.41    0.31
  -7  -1   6    2.67    0.29
   6   1  -6    0.55    0.17
  -6  -1   6    0.97    0.20
   5   1  -6    0.30    0.14
  -5  -1   6    0.12    0.14
   4   1  -6   11.40    0.41
  -4  -1   6   10.79    0.34
  -4  -1   6   11.01    0.42
   3   1  -6    2.10    0.18
  -3  -1   6    2.15    0.19
   2   1  -6    3.69    0.22
  -2  -1   6    3.47    0.20
   1   1  -6   44.63    1.11
   1   1  -6   44.63    1.00
  -1  -1   6   43.96    1.00
   0   1  -6    4.16    0.19
   0  -1   6    3.78    0.18
   1  -1   6    6.86    0.29
   1  -1   6    6.80    0.21
  -2   1  -6    0.08    0.11
   2  -1   6    0.09    0.09
  -3   1  -6    0.47    0.16
   3  -1   6    0.06    0.12
  -4   1  -6    1.78    0.25
   4  -1   6    1.50    0.23
  -5   1  -6    1.20    0.25
   5  -1   6    1.33    0.24
  -6   1  -6    0.84    0.25
   6  -1   6    1.27    0.28
  -7   1  -6   -0.07    0.21
   7  -1   6   -0.12    0.23
  -8   0   6    0.56    0.21
  -7   0   6    1.79    0.24
   6   0  -6    0.50    0.14
  -6   0   6    0.27    0.15
   5   0  -6   -0.02    0.10
  -5   0   6    0.14    0.11
  -5   0   6    0.20    0.13
   4   0  -6    0.31    0.10
  -4   0   6    0.30    0.12
  -4   0   6    0.28    0.09
  -3   0   6    1.03    0.11
   2   0  -6    1.17    0.12
  -2   0   6    1.30    0.14
  -2   0   6    1.01    0.10
   1   0  -6   10.25    0.35
   1   0  -6   10.40    0.31
  -1   0   6   10.17    0.32
   0   0  -6   59.36    1.36
   0   0   6   57.95    1.27
   0   0   6   58.49    1.39
  -1   0  -6   14.93    0.47
   1   0   6   14.86    0.38
   1   0   6   13.52    0.45
  -2   0  -6    0.21    0.13
   2   0   6    0.18    0.07
   2   0   6    0.25    0.11
  -3   0  -6    7.03    0.40
   3   0   6    7.40    0.37
  -4   0  -6    2.26    0.29
   4   0   6    2.55    0.28
  -5   0  -6    3.60    0.33
   5   0   6    2.88    0.33
  -6   0  -6    0.27    0.22
   6   0   6    0.35    0.23
  -7   0  -6    0.18    0.25
   7   0   6    0.19    0.26
  -8   1   6    0.08    0.18
  -7   1   6    1.49    0.23
  -6   1   6    1.65    0.22
  -6   1   6    1.84    0.21
   5  -1  -6    1.51    0.15
  -5   1   6    1.43    0.20
  -5   1   6    1.41    0.17
   4  -1  -6    1.98    0.16
  -4   1   6    2.07    0.18
  -4   1   6    1.93    0.20
   3  -1  -6   10.76    0.33
  -3   1   6   10.42    0.35
  -3   1   6   10.95    0.38
   2  -1  -6    0.62    0.09
  -2   1   6    0.57    0.10
  -2   1   6    0.61    0.11
  -1   1   6    3.81    0.20
  -1   1   6    3.58    0.18
   0  -1  -6   39.40    0.97
   0   1   6   38.31    0.96
   0   1   6   38.16    0.89
  -1  -1  -6    5.46    0.28
   1   1   6    5.50    0.23
   1   1   6    5.95    0.29
  -2  -1  -6   13.44    0.51
   2   1   6   13.61    0.39
   2   1   6   14.09    0.49
  -3  -1  -6    3.28    0.32
   3   1   6    3.43    0.30
   3   1   6    3.54    0.20
  -4  -1  -6    0.29    0.20
   4   1   6   -0.06    0.17
  -5  -1  -6    0.19    0.20
   5   1   6    0.15    0.19
  -6  -1  -6    0.04    0.20
   6   1   6    0.38    0.24
  -8   2   6   -0.01    0.17
  -7   2   6    3.18    0.30
  -7   2   6    3.66    0.29
  -6   2   6    0.74    0.17
  -6   2   6    0.68    0.16
  -5   2   6    0.15    0.11
  -5   2   6    0.08    0.12
  -4   2   6    2.84    0.22
  -4   2   6    2.97    0.23
  -3   2   6    0.72    0.13
  -3   2   6    0.73    0.12
  -2   2   6    1.14    0.15
  -2   2   6    1.00    0.08
  -2   2   6    1.17    0.14
   1  -2  -6    0.83    0.12
  -1   2   6    0.72    0.10
  -1   2   6    0.78    0.12
   0  -2  -6    0.33    0.11
   0   2   6    0.34    0.10
  -1  -2  -6   21.65    0.67
   1   2   6   22.11    0.65
   1   2   6   21.08    0.58
  -2  -2  -6   -0.12    0.12
   2   2   6    0.08    0.13
   2   2   6   -0.06    0.08
  -3  -2  -6   -0.08    0.15
   3   2   6   -0.05    0.10
   3   2   6   -0.10    0.15
  -4  -2  -6    0.24    0.18
   4   2   6    0.81    0.23
  -5  -2  -6   -0.08    0.20
   5   2   6   -0.21    0.18
  -6  -2  -6   -0.13    0.21
   6   2   6   -0.09    0.23
  -8   3   6    0.03    0.15
  -7   3   6    0.44    0.18
  -7   3   6    0.67    0.19
  -6   3   6    0.87    0.18
  -6   3   6    1.25    0.20
  -5   3   6    0.14    0.13
  -5   3   6    0.01    0.12
  -4   3   6    0.17    0.12
  -4   3   6    0.17    0.11
  -3   3   6    0.37    0.11
  -3   3   6    0.29    0.12
  -2   3   6    1.61    0.17
  -2   3   6    1.49    0.17
  -1   3   6    0.46    0.10
  -1   3   6    0.66    0.12
   0  -3  -6   -0.03    0.10
   0   3   6    0.12    0.09
   0   3   6    0.00    0.09
  -1  -3  -6   12.05    0.49
   1   3   6   12.64    0.43
   1   3   6   13.31    0.49
  -2  -3  -6    0.11    0.15
   2   3   6    0.25    0.11
   2   3   6    0.10    0.14
  -3  -3  -6   -0.12    0.16
   3   3   6    0.08    0.11
   3   3   6    0.13    0.17
  -4  -3  -6    1.52    0.27
   4   3   6    1.50    0.27
  -5  -3  -6    0.24    0.22
   5   3   6    0.18    0.23
  -6  -3  -6   -0.22    0.22
   6   3   6   -0.32    0.22
  -9   4   6    0.02    0.20
  -8   4   6    0.08    0.17
  -7   4   6    0.63    0.19
  -7   4   6    0.52    0.17
  -6   4   6    9.80    0.43
  -6   4   6    9.74    0.46
  -5   4   6    1.14    0.19
  -5   4   6    1.24    0.19
  -4   4   6    0.78    0.16
  -4   4   6    0.47    0.14
  -3   4   6    0.53    0.14
  -3   4   6    0.57    0.14
  -2   4   6    0.02    0.09
  -2   4   6    0.01    0.11
  -1   4   6    1.33    0.14
  -1   4   6    1.08    0.15
   0  -4  -6    0.42    0.14
   0   4   6    0.59    0.13
   0   4   6    0.62    0.13
  -1  -4  -6    0.41    0.17
   1   4   6    0.46    0.15
   1   4   6    0.30    0.13
  -2  -4  -6    0.51    0.21
   2   4   6    0.66    0.15
   2   4   6    0.63    0.19
  -3  -4  -6    1.33    0.26
   3   4   6    1.31    0.19
   3   4   6    1.09    0.24
  -4  -4  -6    0.36    0.21
   4   4   6    0.72    0.25
  -5  -4  -6    0.15    0.22
   5   4   6   -0.26    0.22
  -8   5   6    0.22    0.18
  -7   5   6    0.31    0.18
  -7   5   6    0.01    0.16
  -6   5   6    0.33    0.17
  -6   5   6    0.39    0.16
  -5   5   6    1.98    0.24
  -5   5   6    1.90    0.24
  -4   5   6    0.12    0.12
  -4   5   6    0.68    0.17
  -3   5   6    0.06    0.12
  -3   5   6   -0.10    0.11
  -2   5   6    3.68    0.27
  -2   5   6    3.99    0.29
  -1   5   6    2.01    0.22
   0  -5  -6    1.03    0.19
   0   5   6    1.03    0.18
   0   5   6    0.82    0.16
  -1  -5  -6    6.84    0.41
   1   5   6    7.73    0.42
   1   5   6    7.33    0.36
  -2  -5  -6    0.42    0.19
   2   5   6    0.35    0.14
   2   5   6    0.06    0.16
  -3  -5  -6    0.02    0.18
   3   5   6    0.11    0.19
   3   5   6   -0.08    0.12
  -4  -5  -6    0.09    0.22
   4   5   6   -0.08    0.12
   4   5   6    0.31    0.23
  -5  -5  -6    0.18    0.26
   5   5   6    0.03    0.26
  -8   6   6    0.01    0.17
  -7   6   6   -0.04    0.15
  -6   6   6    0.22    0.16
  -6   6   6    0.27    0.16
  -5   6   6    0.40    0.14
  -5   6   6    0.35    0.16
  -4   6   6    0.63    0.17
  -4   6   6    0.54    0.17
  -3   6   6    0.19    0.14
  -3   6   6    0.30    0.16
  -2   6   6    0.14    0.13
  -2   6   6    0.05    0.14
   1  -6  -6    1.38    0.22
  -1   6   6    1.46    0.21
   0  -6  -6    0.09    0.13
   0   6   6   -0.21    0.11
   0   6   6    0.08    0.13
  -1  -6  -6    0.12    0.15
   1   6   6   -0.08    0.13
   1   6   6   -0.10    0.12
  -2  -6  -6    0.43    0.21
   2   6   6    0.63    0.18
   2   6   6    0.45    0.20
  -3  -6  -6    0.03    0.20
   3   6   6    0.24    0.17
   3   6   6    0.22    0.23
  -4  -6  -6   -0.21    0.21
   4   6   6   -0.11    0.24
   4   6   6    0.13    0.16
  -7   7   6    0.03    0.18
  -6   7   6    0.15    0.16
  -6   7   6   -0.22    0.16
  -5   7   6    0.50    0.18
  -5   7   6    0.95    0.20
  -4   7   6    0.50    0.17
  -4   7   6    0.54    0.18
  -3   7   6    0.87    0.20
  -3   7   6    0.77    0.20
  -2   7   6    1.75    0.24
  -2   7   6    1.48    0.24
   1  -7  -6    0.23    0.15
  -1   7   6    0.27    0.16
   0  -7  -6    0.09    0.14
   0   7   6    0.11    0.13
  -1  -7  -6    0.66    0.21
   1   7   6    0.27    0.16
  -2  -7  -6   -0.06    0.20
   2   7   6   -0.03    0.19
   2   7   6   -0.14    0.15
  -3  -7  -6    0.32    0.24
   3   7   6    0.13    0.19
   3   7   6   -0.02    0.24
   4   7   6   -0.05    0.18
  -6   8   6   -0.03    0.15
  -6   8   6   -0.16    0.18
  -5   8   6    0.08    0.15
  -5   8   6   -0.06    0.16
  -4   8   6    0.17    0.18
  -4   8   6    0.02    0.14
  -3   8   6    0.49    0.19
  -3   8   6    0.68    0.21
  -2   8   6   -0.07    0.15
  -2   8   6   -0.03    0.16
   1  -8  -6    0.28    0.17
  -1   8   6    0.03    0.16
   0  -8  -6    0.11    0.18
   0   8   6    0.07    0.16
  -1  -8  -6   -0.12    0.19
   1   8   6   -0.12    0.16
  -2  -8  -6   -0.22    0.22
   2   8   6    0.15    0.20
  -5   9   6   -0.05    0.19
  -4   9   6    0.57    0.22
  -4   9   6    0.52    0.21
  -3   9   6    0.04    0.18
  -3   9   6    0.28    0.20
  -2   9   6    0.10    0.19
   1  -9  -6    0.12    0.19
  -1   9   6    0.39    0.21
   0  -9  -6    0.03    0.20
  -2  -9   7    0.19    0.17
   1   9  -7    0.15    0.24
  -1  -9   7    0.04    0.16
   0   9  -7    1.14    0.28
  -1   9  -7    0.18    0.23
  -2   9  -7   -0.14    0.24
   3   8  -7    0.33    0.25
  -3  -8   7    0.05    0.16
   2   8  -7    0.23    0.23
  -2  -8   7    0.03    0.15
   1   8  -7    0.49    0.24
  -1  -8   7    0.24    0.16
   0   8  -7    0.05    0.20
   0  -8   7    0.30    0.14
  -1   8  -7    0.88    0.26
  -2   8  -7    0.49    0.25
   4  -8   7    1.28    0.23
   4   7  -7    0.03    0.20
  -4  -7   7   -0.06    0.17
   3   7  -7    1.49    0.30
  -3  -7   7    1.78    0.26
   2   7  -7    0.65    0.23
  -2  -7   7    1.16    0.20
   1   7  -7    0.06    0.18
  -1  -7   7    0.27    0.13
   0   7  -7    1.66    0.27
   0  -7   7    1.04    0.17
  -1   7  -7    4.51    0.40
  -2   7  -7   -0.08    0.19
   3  -7   7    1.39    0.22
   4  -7   7    0.51    0.17
  -5   7  -7   -0.02    0.17
   5  -7   7    0.38    0.16
  -6   7  -7    0.00    0.22
   5   6  -7    0.01    0.21
  -5  -6   7   -0.07    0.17
   4   6  -7   -0.08    0.17
  -4  -6   7   -0.10    0.16
   3   6  -7    1.35    0.25
  -3  -6   7    1.15    0.22
   2   6  -7    0.60    0.19
  -2  -6   7    0.77    0.16
   1   6  -7    0.62    0.19
  -1  -6   7    0.68    0.16
   0   6  -7    0.07    0.17
   0  -6   7    0.04    0.10
  -1   6  -7   -0.09    0.17
  -2   6  -7   -0.17    0.17
  -3   6  -7    0.08    0.10
   3  -6   7    0.20    0.14
  -4   6  -7    0.19    0.17
   4  -6   7    0.56    0.16
  -5   6  -7    0.02    0.19
   5  -6   7    0.31    0.16
  -6   6  -7   -0.04    0.20
   6   5  -7   -0.07    0.20
  -6  -5   7   -0.02    0.20
   5   5  -7    0.80    0.24
  -5  -5   7    0.58    0.21
   4   5  -7    0.19    0.16
  -4  -5   7    0.00    0.14
   3   5  -7    0.19    0.15
  -3  -5   7    0.33    0.16
   2   5  -7    4.06    0.33
  -2  -5   7    3.64    0.28
   1   5  -7    2.73    0.28
  -1  -5   7    2.69    0.23
   0   5  -7    0.65    0.19
   0  -5   7    0.46    0.12
  -1   5  -7    3.42    0.32
   1  -5   7    2.90    0.21
  -2   5  -7    4.20    0.28
  -3   5  -7    0.06    0.11
   3  -5   7    0.01    0.11
  -4   5  -7    1.05    0.21
   4  -5   7    1.22    0.19
  -5   5  -7    0.05    0.18
   5  -5   7    0.20    0.15
  -6   5  -7    0.04    0.21
   6  -5   7    0.31    0.18
   7   4  -7    0.12    0.22
  -7  -4   7   -0.04    0.18
   6   4  -7    1.53    0.27
  -6  -4   7    1.70    0.28
   5   4  -7    0.72    0.21
  -5  -4   7    0.69    0.19
   4   4  -7    1.98    0.26
  -4  -4   7    1.49    0.23
   3   4  -7    2.67    0.27
  -3  -4   7    2.85    0.27
   2   4  -7    3.96    0.30
  -2  -4   7    4.16    0.27
   1   4  -7    0.26    0.14
  -1  -4   7    0.27    0.11
   0   4  -7    0.52    0.16
   0  -4   7    0.67    0.12
  -1   4  -7    1.50    0.16
  -1   4  -7    1.85    0.24
   1  -4   7    1.47    0.14
  -2   4  -7    0.27    0.12
   2  -4   7    0.37    0.13
  -3   4  -7    0.14    0.13
   3  -4   7   -0.01    0.11
  -4   4  -7    0.06    0.14
   4  -4   7   -0.10    0.11
  -5   4  -7    0.38    0.20
   5  -4   7    0.75    0.19
  -6   4  -7   -0.17    0.19
   6  -4   7   -0.09    0.17
   7  -4   7    0.36    0.23
   7   3  -7   -0.10    0.19
  -7  -3   7   -0.05    0.18
   6   3  -7    0.10    0.17
  -6  -3   7    0.30    0.17
   5   3  -7   -0.06    0.14
  -5  -3   7   -0.06    0.14
   4   3  -7    1.42    0.21
  -4  -3   7    1.37    0.21
   3   3  -7    0.48    0.15
  -3  -3   7    0.57    0.16
   2   3  -7    5.01    0.31
  -2  -3   7    5.09    0.28
   1   3  -7   16.14    0.56
  -1  -3   7   16.52    0.49
   0   3  -7    0.70    0.09
   0   3  -7    0.57    0.15
   0  -3   7    0.92    0.12
  -1   3  -7    2.20    0.19
   1  -3   7    2.29    0.15
  -2   3  -7    1.41    0.17
  -3   3  -7    2.44    0.25
   3  -3   7    2.52    0.23
  -4   3  -7    0.18    0.16
   4  -3   7   -0.01    0.12
  -5   3  -7    0.48    0.21
   5  -3   7    1.17    0.22
  -6   3  -7    0.03    0.22
   6  -3   7    0.03    0.19
   7  -3   7    0.04    0.23
  -8  -2   7   -0.14    0.19
   7   2  -7   -0.01    0.17
  -7  -2   7    0.04    0.18
   6   2  -7   -0.03    0.14
  -6  -2   7    0.11    0.16
   5   2  -7    1.71    0.22
  -5  -2   7    1.63    0.23
   4   2  -7    0.39    0.14
  -4  -2   7   -0.04    0.13
   3   2  -7   11.50    0.44
  -3  -2   7   11.06    0.42
   2   2  -7   54.16    1.37
  -2  -2   7   55.03    1.27
   1   2  -7    0.22    0.12
  -1  -2   7    0.15    0.10
   0   2  -7    0.01    0.07
   0   2  -7   -0.04    0.11
   0  -2   7   -0.03    0.07
  -1   2  -7    0.20    0.10
   1  -2   7    0.14    0.07
   1  -2   7    0.26    0.09
  -2   2  -7    0.51    0.14
   2  -2   7    0.40    0.12
  -3   2  -7    1.44    0.22
   3  -2   7    1.50    0.19
  -4   2  -7    0.09    0.16
   4  -2   7    0.16    0.14
  -5   2  -7    0.06    0.18
   5  -2   7   -0.18    0.16
  -6   2  -7    0.30    0.23
   6  -2   7    0.55    0.22
   7  -2   7    0.67    0.28
  -8  -1   7    0.05    0.19
  -7  -1   7    0.19    0.17
   6   1  -7    1.31    0.20
  -6  -1   7    1.57    0.22
   5   1  -7   -0.07    0.12
  -5  -1   7   -0.03    0.13
   4   1  -7    0.09    0.11
  -4  -1   7    0.24    0.12
   3   1  -7    2.74    0.22
  -3  -1   7    2.98    0.22
   2   1  -7    5.08    0.27
  -2  -1   7    5.04    0.25
   1   1  -7   80.36    1.90
   1   1  -7   80.90    1.78
  -1  -1   7   80.14    1.74
   0   1  -7   12.15    0.37
   0  -1   7   11.44    0.40
   0  -1   7   11.31    0.34
   1  -1   7   10.48    0.30
   1  -1   7   10.26    0.38
  -2   1  -7    0.24    0.14
   2  -1   7    0.06    0.10
  -3   1  -7    6.56    0.37
   3  -1   7    6.39    0.35
  -4   1  -7    5.46    0.38
   4  -1   7    5.75    0.38
  -5   1  -7    1.84    0.29
   5  -1   7    2.12    0.28
  -6   1  -7   -0.04    0.20
   6  -1   7    0.04    0.22
   7  -1   7    0.18    0.25
  -8   0   7   -0.09    0.18
  -7   0   7    0.10    0.16
  -6   0   7    0.93    0.20
   5   0  -7    0.59    0.13
  -5   0   7    0.45    0.15
   4   0  -7    4.81    0.26
  -4   0   7    4.66    0.28
  -4   0   7    4.83    0.23
   3   0  -7    6.82    0.28
  -3   0   7    6.78    0.25
  -3   0   7    6.76    0.30
   2   0  -7    0.64    0.08
  -2   0   7    0.97    0.13
   1   0  -7    4.92    0.21
  -1   0   7    4.87    0.23
   0   0  -7   30.84    0.79
   0   0   7   30.53    0.80
   0   0   7   29.91    0.72
  -1   0  -7    2.88    0.22
   1   0   7    2.57    0.16
   1   0   7    2.94    0.22
  -2   0  -7    0.07    0.13
   2   0   7   -0.08    0.06
   2   0   7    0.14    0.11
  -3   0  -7    0.99    0.23
   3   0   7    0.56    0.18
  -4   0  -7    0.00    0.18
   4   0   7    0.14    0.16
  -5   0  -7    0.22    0.19
   5   0   7    0.21    0.18
  -6   0  -7    0.13    0.22
   6   0   7    0.30    0.23
  -8   1   7    0.06    0.18
  -7   1   7    0.15    0.16
  -6   1   7    3.02    0.28
  -5   1   7    0.37    0.13
  -5   1   7    0.31    0.15
   4  -1  -7    1.53    0.14
  -4   1   7    1.28    0.18
  -4   1   7    1.57    0.17
   3  -1  -7    5.55    0.23
  -3   1   7    5.38    0.25
  -3   1   7    5.37    0.27
  -2   1   7    8.91    0.33
   1  -1  -7    2.83    0.18
  -1   1   7    2.86    0.18
  -1   1   7    2.97    0.19
   0  -1  -7   46.93    1.15
   0   1   7   45.15    1.13
   0   1   7   45.70    1.05
  -1  -1  -7    0.26    0.13
   1   1   7    0.25    0.09
   1   1   7    0.40    0.12
  -2  -1  -7    0.67    0.18
   2   1   7    0.80    0.17
   2   1   7    0.90    0.12
  -3  -1  -7    0.07    0.17
   3   1   7    0.06    0.15
  -4  -1  -7    1.63    0.28
   4   1   7    0.93    0.23
  -5  -1  -7    0.54    0.23
   5   1   7    0.42    0.21
  -6  -1  -7    0.08    0.23
   6   1   7    0.52    0.25
  -8   2   7    0.07    0.18
  -7   2   7   -0.08    0.13
  -7   2   7    0.13    0.16
  -6   2   7    0.89    0.19
  -6   2   7    0.86    0.17
  -5   2   7    1.31    0.18
  -5   2   7    1.78    0.21
  -4   2   7    3.32    0.24
  -4   2   7    3.19    0.24
  -3   2   7    5.95    0.28
  -3   2   7    5.87    0.29
  -2   2   7   19.85    0.58
  -2   2   7   18.88    0.56
   1  -2  -7    0.22    0.10
  -1   2   7    0.32    0.09
  -1   2   7    0.35    0.10
   0  -2  -7   15.72    0.52
   0   2   7   15.64    0.47
  -1  -2  -7   12.50    0.49
   1   2   7   13.15    0.48
   1   2   7   12.69    0.42
  -2  -2  -7    2.63    0.28
   2   2   7    2.84    0.21
   2   2   7    2.59    0.27
  -3  -2  -7    0.26    0.18
   3   2   7    0.28    0.19
  -4  -2  -7   -0.18    0.17
   4   2   7   -0.09    0.17
  -5  -2  -7   -0.14    0.19
   5   2   7    0.00    0.20
  -6  -2  -7   -0.07    0.23
   6   2   7   -0.26    0.21
  -8   3   7    0.22    0.19
  -7   3   7    0.06    0.15
  -7   3   7    0.28    0.17
  -6   3   7    0.14    0.15
  -6   3   7    0.16    0.15
  -5   3   7    6.42    0.34
  -5   3   7    6.82    0.36
  -4   3   7    0.27    0.13
  -4   3   7    0.18    0.12
  -3   3   7    0.14    0.12
  -3   3   7    0.48    0.13
  -2   3   7    0.26    0.11
  -2   3   7    0.27    0.13
  -2   3   7    0.35    0.08
   1  -3  -7   10.05    0.40
  -1   3   7   11.04    0.39
  -1   3   7   11.09    0.38
   0  -3  -7    6.15    0.33
   0   3   7    6.72    0.30
   0   3   7    6.89    0.34
  -1  -3  -7    4.27    0.30
   1   3   7    4.28    0.26
   1   3   7    3.88    0.32
  -2  -3  -7    1.40    0.24
   2   3   7    1.41    0.17
   2   3   7    1.14    0.22
  -3  -3  -7    0.23    0.20
   3   3   7    0.22    0.11
   3   3   7    0.07    0.17
  -4  -3  -7    0.07    0.20
   4   3   7   -0.09    0.19
  -5  -3  -7   -0.11    0.21
   5   3   7   -0.41    0.18
  -8   4   7    0.04    0.16
  -7   4   7    0.13    0.16
  -7   4   7   -0.03    0.15
  -6   4   7    0.16    0.15
  -6   4   7    0.48    0.17
  -5   4   7    3.55    0.27
  -5   4   7    3.64    0.30
  -4   4   7    0.11    0.13
  -4   4   7    0.00    0.12
  -3   4   7    0.89    0.16
  -3   4   7    1.22    0.19
  -2   4   7    0.69    0.16
  -2   4   7    0.64    0.14
   1  -4  -7    2.17    0.22
  -1   4   7    1.82    0.20
  -1   4   7    1.76    0.17
   0  -4  -7    0.56    0.16
   0   4   7    0.75    0.16
   0   4   7    0.66    0.15
  -1  -4  -7    5.74    0.38
   1   4   7    6.46    0.33
   1   4   7    6.22    0.39
  -2  -4  -7   -0.07    0.17
   2   4   7   -0.08    0.10
   2   4   7   -0.09    0.16
  -3  -4  -7    0.48    0.20
   3   4   7    0.21    0.13
   3   4   7    0.29    0.19
  -4  -4  -7   -0.09    0.20
   4   4   7    0.01    0.21
  -5  -4  -7    0.27    0.24
   5   4   7    0.00    0.24
  -8   5   7    0.09    0.17
  -7   5   7    0.28    0.17
  -7   5   7   -0.10    0.16
  -6   5   7    0.21    0.15
  -6   5   7    0.63    0.18
  -5   5   7    0.28    0.14
  -5   5   7    0.42    0.16
  -4   5   7    1.57    0.23
  -4   5   7    1.52    0.22
  -3   5   7    0.49    0.15
  -3   5   7    0.87    0.19
  -2   5   7    0.19    0.14
  -2   5   7   -0.06    0.11
   1  -5  -7    1.03    0.19
  -1   5   7    0.99    0.18
   0  -5  -7   16.74    0.64
   0   5   7   17.11    0.59
   0   5   7   17.97    0.60
  -1  -5  -7   14.48    0.61
   1   5   7   14.88    0.59
   1   5   7   13.84    0.53
  -2  -5  -7   -0.01    0.17
   2   5   7    0.03    0.12
   2   5   7   -0.13    0.15
  -3  -5  -7    0.06    0.20
   3   5   7    0.10    0.14
   3   5   7    0.19    0.20
  -4  -5  -7    0.21    0.23
   4   5   7   -0.16    0.22
  -8   6   7    0.34    0.20
  -7   6   7    0.00    0.17
  -7   6   7    0.23    0.19
  -6   6   7    0.41    0.17
  -6   6   7    0.19    0.17
  -5   6   7    0.72    0.19
  -5   6   7    0.68    0.19
  -4   6   7   -0.05    0.13
  -4   6   7    0.17    0.15
  -3   6   7    0.89    0.20
  -3   6   7    0.40    0.16
  -2   6   7    3.68    0.31
  -2   6   7    3.52    0.29
   1  -6  -7    0.26    0.14
  -1   6   7    0.13    0.13
   0  -6  -7    0.40    0.18
   0   6   7    0.41    0.15
  -1  -6  -7    0.86    0.21
   1   6   7    0.81    0.17
  -2  -6  -7    0.57    0.23
   2   6   7    0.26    0.21
   2   6   7    1.04    0.20
  -3  -6  -7    0.16    0.22
   3   6   7    0.28    0.24
   3   6   7    0.21    0.17
   4   6   7    0.01    0.27
  -7   7   7    0.21    0.18
  -6   7   7    0.20    0.16
  -6   7   7    0.19    0.18
  -5   7   7    0.33    0.17
  -5   7   7    0.48    0.19
  -4   7   7    0.03    0.15
  -4   7   7    0.37    0.17
  -3   7   7    0.13    0.15
  -3   7   7    0.17    0.16
  -2   7   7    0.77    0.20
   1  -7  -7    0.11    0.15
  -1   7   7    0.08    0.15
   0  -7  -7    1.04    0.23
   0   7   7    1.10    0.22
  -1  -7  -7    0.08    0.18
   1   7   7   -0.01    0.14
  -2  -7  -7    1.31    0.29
   2   7   7    1.03    0.24
   2   7   7    0.69    0.26
   3   7   7    0.02    0.24
   3   7   7    0.16    0.19
  -6   8   7    0.02    0.17
  -6   8   7   -0.15    0.19
  -5   8   7   -0.11    0.15
  -5   8   7    0.23    0.20
  -4   8   7    0.00    0.17
  -4   8   7    0.24    0.19
  -3   8   7   -0.07    0.16
  -3   8   7    0.05    0.17
  -2   8   7    0.12    0.17
   1  -8  -7    0.58    0.20
  -1   8   7    0.19    0.18
   0  -8  -7   -0.03    0.17
   0   8   7    0.02    0.17
  -1  -8  -7    0.04    0.21
   1   8   7    0.18    0.18
  -4   9   7    0.16    0.22
  -3   9   7   -0.21    0.18
  -3   9   7   -0.21    0.17
   2  -9  -7    0.08    0.17
  -2   9   7    0.29    0.20
  -1  -9   8    0.43    0.19
   0   9  -8    3.22    0.39
  -1   9  -8    0.03    0.26
  -2   9  -8    0.25    0.29
  -3  -8   8    0.26    0.19
   2   8  -8    0.23    0.24
  -2  -8   8    0.02    0.16
   1   8  -8    0.50    0.24
  -1  -8   8    0.22    0.15
   0   8  -8    4.48    0.44
  -1   8  -8    0.09    0.23
  -2   8  -8    0.84    0.29
   3  -8   8    0.96    0.23
   4  -8   8    0.35    0.18
   4   7  -8    0.96    0.28
  -4  -7   8    0.90    0.24
   3   7  -8    0.75    0.25
  -3  -7   8    0.39    0.18
   2   7  -8    0.36    0.22
  -2  -7   8    0.38    0.16
   1   7  -8    0.09    0.20
  -1  -7   8   -0.10    0.12
   0   7  -8    2.97    0.35
  -1   7  -8    5.37    0.44
  -2   7  -8    0.73    0.26
   3  -7   8    0.16    0.16
   4  -7   8    0.80    0.19
   5  -7   8    0.14    0.16
   5   6  -8    0.82    0.27
  -5  -6   8    0.82    0.24
   4   6  -8    0.41    0.22
  -4  -6   8    0.24    0.19
   3   6  -8    0.24    0.19
  -3  -6   8    0.11    0.15
   2   6  -8    0.08    0.16
  -2  -6   8   -0.21    0.12
   1   6  -8    1.82    0.27
  -1  -6   8    1.32    0.19
   0   6  -8    5.63    0.40
   0  -6   8    5.86    0.31
  -1   6  -8    7.91    0.48
   3  -6   8    0.59    0.17
  -4   6  -8    0.15    0.17
   4  -6   8    0.11    0.15
  -5   6  -8    0.38    0.22
   5  -6   8    0.55    0.18
  -6   6  -8    0.32    0.25
   6  -6   8    0.08    0.18
   6   5  -8    2.33    0.33
  -6  -5   8    1.83    0.31
   5   5  -8    0.16    0.19
  -5  -5   8    0.21    0.20
   4   5  -8    0.15    0.17
  -4  -5   8    0.13    0.15
   3   5  -8    0.67    0.20
  -3  -5   8    0.93    0.19
   2   5  -8    0.00    0.15
  -2  -5   8    0.06    0.12
   1   5  -8    0.85    0.20
  -1  -5   8    0.42    0.13
   0   5  -8    0.77    0.22
   0  -5   8    1.26    0.16
  -1   5  -8    3.55    0.34
  -3   5  -8    0.15    0.12
   3  -5   8    0.72    0.17
  -4   5  -8   -0.04    0.16
   4  -5   8    0.12    0.13
  -5   5  -8   -0.06    0.19
   5  -5   8    0.33    0.17
  -6   5  -8    0.12    0.23
   6  -5   8    0.34    0.20
   7   4  -8    0.10    0.21
  -7  -4   8    0.22    0.22
   6   4  -8    0.16    0.19
  -6  -4   8    0.10    0.19
   5   4  -8    1.69    0.27
  -5  -4   8    1.72    0.26
   4   4  -8   -0.24    0.13
  -4  -4   8   -0.14    0.14
   3   4  -8    0.34    0.15
  -3  -4   8    0.18    0.14
   2   4  -8    2.26    0.26
  -2  -4   8    2.57    0.24
   1   4  -8    1.16    0.20
  -1  -4   8    1.34    0.17
   0   4  -8    2.81    0.29
   0  -4   8    3.05    0.21
  -1   4  -8   27.62    0.88
  -2   4  -8    5.19    0.31
   2  -4   8    5.44    0.32
  -3   4  -8    0.09    0.13
   3  -4   8    0.04    0.12
  -4   4  -8    0.16    0.18
   4  -4   8    0.25    0.14
  -5   4  -8   -0.30    0.17
   5  -4   8    0.06    0.15
  -6   4  -8    0.00    0.22
   6  -4   8    0.32    0.19
   7   3  -8   -0.17    0.17
  -7  -3   8    0.34    0.22
   6   3  -8    0.06    0.17
  -6  -3   8    0.07    0.17
   5   3  -8    3.11    0.30
  -5  -3   8    3.57    0.34
   4   3  -8    2.18    0.25
  -4  -3   8    2.26    0.26
   3   3  -8    3.99    0.29
  -3  -3   8    3.64    0.28
   2   3  -8    0.45    0.15
  -2  -3   8    0.42    0.13
   1   3  -8    1.83    0.22
  -1  -3   8    1.61    0.17
   0   3  -8    4.84    0.32
   0  -3   8    4.10    0.23
  -1   3  -8    4.38    0.25
  -2   3  -8    8.70    0.39
   2  -3   8    9.16    0.41
  -3   3  -8    5.29    0.34
   3  -3   8    5.17    0.31
  -4   3  -8    0.67    0.20
   4  -3   8    1.06    0.19
  -5   3  -8    0.02    0.18
   5  -3   8    0.06    0.16
  -6   3  -8   -0.01    0.22
   6  -3   8    0.14    0.20
  -8  -2   8    0.09    0.20
  -7  -2   8    0.22    0.19
   6   2  -8    1.24    0.21
  -6  -2   8    1.27    0.24
   5   2  -8    0.19    0.15
  -5  -2   8    0.13    0.16
   4   2  -8    2.49    0.24
  -4  -2   8    2.03    0.24
   3   2  -8    1.07    0.17
  -3  -2   8    1.04    0.17
   2   2  -8    4.08    0.27
  -2  -2   8    3.83    0.24
   1   2  -8   25.64    0.76
  -1  -2   8   24.68    0.65
   0   2  -8    9.24    0.32
   0   2  -8    9.53    0.42
   0  -2   8    9.26    0.31
  -1   2  -8    0.17    0.11
   1  -2   8    0.04    0.09
   1  -2   8   -0.12    0.07
  -2   2  -8   11.73    0.46
  -3   2  -8    5.85    0.36
   3  -2   8    6.32    0.34
  -4   2  -8    0.54    0.18
   4  -2   8    0.50    0.17
  -5   2  -8    0.01    0.18
   5  -2   8    0.27    0.19
  -6   2  -8    0.26    0.25
   6  -2   8    0.40    0.22
  -8  -1   8    1.12    0.27
  -7  -1   8    0.39    0.19
   6   1  -8    0.07    0.13
  -6  -1   8   -0.06    0.14
   5   1  -8    2.39    0.23
  -5  -1   8    2.48    0.26
   4   1  -8   14.48    0.50
  -4  -1   8   13.88    0.50
   3   1  -8    0.95    0.15
  -3  -1   8    0.89    0.16
   2   1  -8   15.79    0.53
  -2  -1   8   16.47    0.49
   1   1  -8    1.65    0.19
   1   1  -8    1.46    0.14
  -1  -1   8    1.59    0.16
   0   1  -8    4.30    0.23
   0  -1   8    3.94    0.24
   0  -1   8    3.82    0.21
  -1   1  -8    1.42    0.18
   1  -1   8    1.16    0.16
   1  -1   8    1.22    0.12
  -2   1  -8    4.49    0.32
   2  -1   8    4.82    0.30
  -3   1  -8    8.67    0.45
   3  -1   8    9.93    0.44
  -4   1  -8   -0.08    0.15
   4  -1   8   -0.10    0.15
  -5   1  -8    0.17    0.21
   5  -1   8    0.14    0.18
  -6   1  -8    0.23    0.25
   6  -1   8    0.28    0.24
  -9   0   8   -0.15    0.23
  -8   0   8    1.08    0.25
  -7   0   8    0.39    0.18
  -6   0   8    0.12    0.14
   5   0  -8    1.46    0.18
  -5   0   8    1.64    0.22
   4   0  -8    0.66    0.13
  -4   0   8    0.75    0.16
   3   0  -8    0.09    0.09
  -3   0   8   -0.01    0.08
  -3   0   8    0.07    0.10
   2   0  -8    8.62    0.28
   2   0  -8    8.22    0.34
  -2   0   8    8.30    0.33
   1   0  -8   12.70    0.39
  -1   0   8   12.20    0.39
  -1   0   8   12.21    0.41
   0   0  -8    5.47    0.27
   0   0   8    5.64    0.27
   0   0   8    5.37    0.24
  -1   0  -8    1.68    0.20
   1   0   8    1.58    0.18
   1   0   8    1.89    0.17
  -2   0  -8    0.42    0.16
   2   0   8    0.62    0.15
  -3   0  -8   16.53    0.66
   3   0   8   16.79    0.63
  -4   0  -8    1.96    0.29
   4   0   8    1.97    0.27
  -5   0  -8    0.40    0.23
   5   0   8    0.15    0.20
  -6   0  -8   -0.19    0.22
   6   0   8    0.11    0.23
  -8   1   8    0.54    0.21
  -7   1   8    2.27    0.28
  -6   1   8    0.23    0.16
  -5   1   8    0.40    0.15
   4  -1  -8    0.21    0.09
  -4   1   8    0.36    0.12
  -4   1   8    0.50    0.14
   3  -1  -8    3.85    0.22
  -3   1   8    3.84    0.22
  -3   1   8    3.69    0.25
   2  -1  -8    1.46    0.14
  -2   1   8    1.77    0.15
  -2   1   8    1.31    0.16
   1  -1  -8    4.98    0.24
  -1   1   8    4.56    0.25
  -1   1   8    4.77    0.23
   0  -1  -8    0.11    0.12
   0   1   8    0.23    0.10
   0   1   8    0.20    0.10
  -1  -1  -8    7.42    0.36
   1   1   8    6.79    0.28
   1   1   8    6.99    0.35
  -2  -1  -8    0.82    0.19
   2   1   8    0.92    0.18
   2   1   8    0.92    0.13
  -3  -1  -8    4.39    0.36
   3   1   8    4.05    0.34
  -4  -1  -8    1.19    0.27
   4   1   8    0.97    0.24
  -5  -1  -8    0.32    0.23
   5   1   8    0.10    0.21
  -6  -1  -8   -0.09    0.23
   6   1   8   -0.10    0.24
  -8   2   8    0.13    0.18
  -7   2   8    1.98    0.26
  -6   2   8    0.33    0.14
  -6   2   8    0.47    0.16
  -5   2   8    0.00    0.11
  -5   2   8    0.03    0.12
  -4   2   8   -0.09    0.10
  -4   2   8    0.07    0.11
  -3   2   8    0.55    0.14
  -3   2   8    0.72    0.15
  -2   2   8    0.24    0.08
  -2   2   8    0.11    0.11
   1  -2  -8    0.87    0.14
  -1   2   8    0.72    0.12
  -1   2   8    0.60    0.13
   0  -2  -8    5.98    0.32
   0   2   8    6.32    0.28
   0   2   8    5.11    0.29
  -1  -2  -8    2.33    0.25
   1   2   8    2.37    0.21
   1   2   8    2.08    0.23
  -2  -2  -8    1.80    0.26
   2   2   8    1.78    0.18
   2   2   8    1.67    0.23
  -3  -2  -8    0.21    0.18
   3   2   8    0.60    0.20
  -4  -2  -8    3.21    0.36
   4   2   8    4.00    0.38
  -5  -2  -8    0.15    0.25
   5   2   8    0.12    0.22
  -8   3   8   -0.05    0.17
  -7   3   8    3.66    0.30
  -7   3   8    3.00    0.31
  -6   3   8    1.82    0.23
  -6   3   8    1.42    0.21
  -5   3   8    0.11    0.13
  -5   3   8   -0.05    0.11
  -4   3   8    0.49    0.14
  -4   3   8    0.23    0.13
  -3   3   8    7.05    0.35
  -3   3   8    7.12    0.35
  -2   3   8   10.53    0.41
   1  -3  -8    0.28    0.12
  -1   3   8    0.38    0.12
  -1   3   8    0.31    0.11
   0  -3  -8    3.38    0.27
   0   3   8    3.59    0.25
   0   3   8    3.37    0.28
  -1  -3  -8    0.34    0.17
   1   3   8    0.52    0.14
   1   3   8    0.48    0.17
  -2  -3  -8    1.69    0.26
   2   3   8    1.87    0.20
   2   3   8    1.55    0.25
  -3  -3  -8    0.94    0.24
   3   3   8    1.25    0.26
  -4  -3  -8    2.83    0.36
   4   3   8    3.29    0.37
  -5  -3  -8    0.18    0.23
   5   3   8   -0.17    0.23
  -8   4   8    0.40    0.21
  -7   4   8    0.55    0.19
  -7   4   8    0.39    0.16
  -6   4   8    4.08    0.33
  -6   4   8    3.39    0.29
  -5   4   8   -0.02    0.12
  -5   4   8    0.05    0.14
  -4   4   8    1.21    0.20
  -4   4   8    1.60    0.22
  -3   4   8    2.88    0.26
  -3   4   8    2.55    0.25
  -2   4   8    0.84    0.17
   1  -4  -8    0.81    0.17
  -1   4   8    0.75    0.16
   0  -4  -8    0.45    0.16
   0   4   8    0.58    0.16
   0   4   8    0.46    0.14
  -1  -4  -8    0.56    0.19
   1   4   8    0.27    0.17
   1   4   8    0.38    0.14
  -2  -4  -8    3.10    0.33
   2   4   8    3.47    0.26
   2   4   8    2.77    0.31
  -3  -4  -8    0.53    0.24
   3   4   8    0.37    0.22
  -4  -4  -8    0.06    0.21
   4   4   8    0.10    0.23
  -8   5   8    0.29    0.19
  -7   5   8    0.15    0.17
  -7   5   8    0.12    0.16
  -6   5   8    1.42    0.23
  -6   5   8    1.65    0.24
  -5   5   8    3.56    0.29
  -5   5   8    3.57    0.30
  -4   5   8    0.89    0.18
  -4   5   8    0.49    0.16
  -3   5   8    0.13    0.13
  -3   5   8    0.15    0.15
  -2   5   8    2.42    0.26
   1  -5  -8   11.33    0.50
  -1   5   8   11.83    0.48
   0  -5  -8    4.82    0.35
   0   5   8    5.59    0.34
   0   5   8    4.59    0.35
  -1  -5  -8    0.06    0.17
   1   5   8    0.08    0.16
   1   5   8    0.16    0.13
  -2  -5  -8   -0.05    0.17
   2   5   8   -0.01    0.11
   2   5   8   -0.22    0.16
  -3  -5  -8   -0.08    0.19
   3   5   8   -0.22    0.19
   3   5   8    0.08    0.14
  -4  -5  -8   -0.05    0.23
   4   5   8   -0.26    0.23
  -8   6   8    0.07    0.20
  -7   6   8    0.09    0.19
  -7   6   8    0.00    0.15
  -6   6   8    0.20    0.18
  -6   6   8    0.45    0.18
  -5   6   8    3.89    0.33
  -5   6   8    3.47    0.30
  -4   6   8    0.72    0.19
  -4   6   8    1.20    0.21
  -3   6   8    0.16    0.15
  -3   6   8    0.11    0.15
  -2   6   8   -0.16    0.11
   1  -6  -8    0.07    0.14
  -1   6   8   -0.08    0.13
   0  -6  -8    1.38    0.25
   0   6   8    1.58    0.24
  -1  -6  -8    0.90    0.24
   1   6   8    0.73    0.18
  -2  -6  -8    0.84    0.25
   2   6   8    1.10    0.26
   2   6   8    1.07    0.21
  -3  -6  -8    0.03    0.24
   3   6   8    0.42    0.18
   3   6   8   -0.18    0.22
  -7   7   8    0.42    0.20
  -7   7   8    0.28    0.22
  -6   7   8    0.14    0.19
  -6   7   8    0.22    0.18
  -5   7   8    0.91    0.22
  -5   7   8    0.88    0.23
  -4   7   8    1.61    0.27
  -4   7   8    0.92    0.21
  -3   7   8    0.72    0.20
  -3   7   8    0.42    0.19
   2  -7  -8    0.18    0.15
  -2   7   8   -0.07    0.15
   1  -7  -8    0.22    0.16
  -1   7   8    0.09    0.15
   0  -7  -8   -0.02    0.17
   0   7   8   -0.09    0.15
  -1  -7  -8   -0.08    0.18
   1   7   8    0.04    0.15
  -2  -7  -8    0.67    0.26
   2   7   8    1.01    0.24
   3   7   8   -0.15    0.26
   3   7   8   -0.04    0.19
  -6   8   8   -0.02    0.19
  -5   8   8    0.68    0.24
  -5   8   8    0.73    0.24
  -4   8   8    0.55    0.21
  -4   8   8    0.68    0.22
  -3   8   8    0.02    0.17
  -3   8   8   -0.12    0.18
   2  -8  -8    0.38    0.17
  -2   8   8    0.04    0.18
   1  -8  -8    0.08    0.17
  -1   8   8    0.05    0.18
   0  -8  -8    0.51    0.24
   0   8   8    0.09    0.18
  -3  -8   9    0.16    0.20
   2   8  -9    0.72    0.27
  -2  -8   9    0.82    0.22
   1   8  -9    0.27    0.24
   0   8  -9    0.13    0.23
  -1   8  -9    0.28    0.26
  -2   8  -9    0.22    0.28
   3  -8   9    0.61    0.21
  -4  -7   9    0.06    0.20
   3   7  -9    0.02    0.20
  -3  -7   9    0.35    0.18
   2   7  -9    0.02    0.22
  -2  -7   9    0.38    0.17
   1   7  -9    0.99    0.27
  -1  -7   9    0.72    0.17
   0   7  -9    2.59    0.36
  -1   7  -9    0.09    0.23
   3  -7   9    0.45    0.18
   4  -7   9    0.15    0.17
   5  -7   9    0.26    0.17
   5   6  -9    0.03    0.22
  -5  -6   9    0.14    0.21
   4   6  -9    0.22    0.21
  -4  -6   9    0.26    0.19
   3   6  -9    0.17    0.19
  -3  -6   9    0.68    0.20
   2   6  -9   -0.07    0.17
  -2  -6   9    0.30    0.14
   1   6  -9    0.65    0.21
  -1  -6   9    1.08    0.18
   0   6  -9    0.03    0.19
  -1   6  -9    0.03    0.21
   3  -6   9    0.63    0.18
   4  -6   9    0.28    0.16
   5  -6   9    0.15    0.17
   6   5  -9    2.53    0.35
  -6  -5   9    2.54    0.35
   5   5  -9    0.31    0.21
  -5  -5   9   -0.10    0.18
   4   5  -9    0.11    0.18
  -4  -5   9   -0.09    0.16
   3   5  -9    0.19    0.17
  -3  -5   9    0.18    0.14
   2   5  -9   -0.11    0.15
  -2  -5   9    0.14    0.14
   1   5  -9    0.01    0.16
  -1  -5   9    0.08    0.12
   0   5  -9   -0.03    0.16
   0  -5   9    0.15    0.11
  -1   5  -9    2.54    0.32
   2  -5   9    0.67    0.17
   3  -5   9    0.23    0.14
  -4   5  -9    0.11    0.17
   4  -5   9    0.14    0.14
  -5   5  -9    0.05    0.20
   5  -5   9   -0.03    0.16
  -6   5  -9   -0.07    0.23
   7   4  -9    0.00    0.21
   6   4  -9    2.46    0.32
  -6  -4   9    2.02    0.31
   5   4  -9    0.68    0.21
  -5  -4   9    0.38    0.20
   4   4  -9    0.11    0.15
  -4  -4   9    0.13    0.15
   3   4  -9    0.22    0.15
  -3  -4   9    0.54    0.17
   2   4  -9    2.68    0.29
  -2  -4   9    2.43    0.25
   1   4  -9    0.29    0.17
  -1  -4   9    0.38    0.13
   0   4  -9    0.12    0.17
   0  -4   9    0.05    0.11
   2  -4   9    1.41    0.21
  -3   4  -9   -0.03    0.09
   3  -4   9    0.73    0.17
  -4   4  -9    0.22    0.18
   4  -4   9    0.21    0.15
  -5   4  -9   -0.12    0.19
   5  -4   9    0.12    0.16
  -6   4  -9    0.03    0.24
   6  -4   9    0.42    0.21
   7   3  -9    0.14    0.20
  -7  -3   9    0.12    0.21
   6   3  -9    0.20    0.17
  -6  -3   9    0.63    0.22
   5   3  -9   14.47    0.58
  -5  -3   9   14.25    0.60
   4   3  -9    0.17    0.15
  -4  -3   9    0.18    0.16
   3   3  -9   -0.01    0.13
  -3  -3   9   -0.16    0.12
   2   3  -9    1.84    0.22
  -2  -3   9    1.34    0.19
   1   3  -9   -0.07    0.14
  -1  -3   9    0.24    0.12
   0   3  -9    0.13    0.14
   0  -3   9    0.04    0.10
   1  -3   9    0.45    0.14
  -2   3  -9    7.26    0.38
   2  -3   9    7.77    0.39
  -3   3  -9    1.89    0.24
   3  -3   9    1.72    0.22
  -4   3  -9    0.25    0.18
   4  -3   9    0.37    0.16
  -5   3  -9   -0.06    0.19
   5  -3   9    0.10    0.17
  -6   3  -9   -0.12    0.23
   6  -3   9   -0.05    0.20
  -7  -2   9    0.51    0.20
   6   2  -9    0.57    0.19
  -6  -2   9    0.33    0.18
   5   2  -9    9.93    0.44
  -5  -2   9    8.65    0.44
   4   2  -9    0.06    0.13
  -4  -2   9    0.26    0.15
   3   2  -9    1.16    0.18
  -3  -2   9    1.36    0.19
   2   2  -9    0.19    0.14
  -2  -2   9    0.27    0.13
   1   2  -9    9.12    0.41
  -1  -2   9    8.65    0.34
   0   2  -9    0.73    0.12
   0  -2   9    0.39    0.12
  -1   2  -9    6.79    0.33
   1  -2   9    7.03    0.35
  -2   2  -9   -0.05    0.07
   2  -2   9    0.42    0.14
  -3   2  -9    0.12    0.16
   3  -2   9   -0.12    0.12
  -4   2  -9    0.06    0.19
   4  -2   9    0.08    0.13
  -5   2  -9   -0.04    0.19
   5  -2   9    0.07    0.19
  -6   2  -9    0.11    0.25
   6  -2   9    0.34    0.23
  -8  -1   9   -0.06    0.21
  -7  -1   9   -0.08    0.18
  -6  -1   9   -0.08    0.15
   5   1  -9    5.58    0.32
  -5  -1   9    5.56    0.35
   4   1  -9   17.71    0.57
  -4  -1   9   16.09    0.57
   3   1  -9    0.10    0.11
  -3  -1   9   -0.17    0.10
   2   1  -9    0.55    0.15
  -2  -1   9    0.64    0.13
   1   1  -9    1.20    0.13
  -1  -1   9    1.24    0.16
   0   1  -9    2.59    0.21
   0  -1   9    2.94    0.23
   0  -1   9    3.06    0.20
  -1   1  -9    0.52    0.15
   1  -1   9    0.67    0.11
   1  -1   9    0.63    0.14
  -2   1  -9    0.43    0.18
   2  -1   9    0.41    0.15
  -3   1  -9    8.51    0.45
   3  -1   9    7.89    0.41
  -4   1  -9    3.81    0.34
   4  -1   9    4.26    0.35
  -5   1  -9   -0.06    0.20
   5  -1   9   -0.26    0.17
  -6   1  -9   -0.04    0.25
   6  -1   9   -0.04    0.22
  -8   0   9   -0.16    0.19
  -7   0   9   -0.12    0.17
  -6   0   9    0.16    0.15
  -5   0   9    2.85    0.28
   4   0  -9   15.07    0.50
  -4   0   9   15.59    0.54
   3   0  -9    0.67    0.13
  -3   0   9    0.50    0.15
   2   0  -9    0.61    0.14
   2   0  -9    0.56    0.10
  -2   0   9    0.35    0.12
   1   0  -9    2.48    0.19
  -1   0   9    2.81    0.21
  -1   0   9    2.17    0.19
   0   0  -9   11.75    0.43
   0   0   9   11.40    0.43
   0   0   9   11.88    0.38
  -1   0  -9    7.13    0.37
   1   0   9    7.15    0.36
   1   0   9    7.47    0.29
  -2   0  -9   -0.05    0.15
   2   0   9    0.19    0.14
  -3   0  -9    0.36    0.20
   3   0   9    0.40    0.18
  -4   0  -9   -0.16    0.19
   4   0   9   -0.18    0.16
  -5   0  -9   -0.14    0.19
   5   0   9    0.18    0.20
  -6   0  -9    0.03    0.24
  -8   1   9   -0.05    0.18
  -7   1   9    0.53    0.20
  -6   1   9    0.45    0.17
  -5   1   9    0.93    0.18
  -4   1   9    2.82    0.26
  -3   1   9   22.37    0.66
   2  -1  -9    0.78    0.12
  -2   1   9    0.70    0.14
  -2   1   9    0.87    0.12
   1  -1  -9    0.05    0.10
  -1   1   9    0.02    0.06
  -1   1   9    0.03    0.10
   0  -1  -9    1.17    0.18
   0   1   9    1.15    0.17
   0   1   9    1.17    0.15
  -1  -1  -9    3.11    0.28
   1   1   9    3.42    0.27
   1   1   9    3.60    0.24
  -2  -1  -9    0.69    0.20
   2   1   9    0.44    0.17
  -3  -1  -9   -0.07    0.17
   3   1   9    0.19    0.17
  -4  -1  -9    0.43    0.24
   4   1   9    0.46    0.22
  -5  -1  -9    0.52    0.26
   5   1   9    0.22    0.24
  -8   2   9   -0.28    0.17
  -7   2   9   -0.19    0.15
  -6   2   9   -0.07    0.13
  -5   2   9    0.24    0.12
  -5   2   9    0.23    0.15
  -4   2   9   15.32    0.53
  -4   2   9   14.40    0.52
  -3   2   9    5.85    0.31
  -3   2   9    6.04    0.31
   2  -2  -9    0.03    0.07
  -2   2   9    0.26    0.12
  -2   2   9    0.21    0.09
   1  -2  -9    0.12    0.12
  -1   2   9    0.00    0.10
  -1   2   9    0.05    0.10
   0  -2  -9    0.47    0.16
   0   2   9    0.58    0.14
   0   2   9    0.58    0.13
  -1  -2  -9    0.72    0.19
   1   2   9    0.78    0.18
   1   2   9    0.71    0.14
  -2  -2  -9    0.25    0.18
   2   2   9    0.44    0.18
  -3  -2  -9   -0.06    0.18
   3   2   9   -0.11    0.16
  -4  -2  -9   -0.20    0.19
   4   2   9   -0.03    0.20
  -5  -2  -9    0.13    0.26
   5   2   9   -0.19    0.23
  -8   3   9    0.04    0.20
  -7   3   9    0.63    0.20
  -6   3   9    3.16    0.30
  -6   3   9    3.65    0.28
  -5   3   9    1.41    0.21
  -5   3   9    1.72    0.22
  -4   3   9    1.23    0.20
  -4   3   9    1.30    0.21
  -3   3   9    7.37    0.36
  -3   3   9    6.70    0.36
   2  -3  -9    4.53    0.27
  -2   3   9    4.57    0.29
   1  -3  -9    0.48    0.15
  -1   3   9    0.46    0.13
  -1   3   9    0.59    0.14
   0  -3  -9    0.37    0.16
   0   3   9    0.50    0.14
   0   3   9    0.47    0.14
  -1  -3  -9    0.34    0.18
   1   3   9    0.67    0.19
   1   3   9    0.39    0.14
  -2  -3  -9    0.21    0.18
   2   3   9   -0.15    0.16
   2   3   9   -0.07    0.10
  -3  -3  -9    0.64    0.23
   3   3   9    0.60    0.22
  -4  -3  -9   -0.40    0.19
   4   3   9   -0.17    0.21
  -8   4   9    0.19    0.21
  -7   4   9    0.02    0.15
  -7   4   9    0.05    0.17
  -6   4   9   -0.01    0.15
  -6   4   9    0.30    0.15
  -5   4   9    0.28    0.16
  -5   4   9    0.17    0.14
  -4   4   9   -0.19    0.12
  -4   4   9    0.16    0.14
  -3   4   9    3.50    0.29
  -3   4   9    2.73    0.27
   2  -4  -9    7.47    0.37
  -2   4   9    7.81    0.37
   1  -4  -9    0.67    0.17
  -1   4   9    0.79    0.17
   0  -4  -9    2.49    0.28
   0   4   9    2.85    0.28
   0   4   9    2.95    0.27
  -1  -4  -9    0.69    0.21
   1   4   9    0.98    0.18
   1   4   9    0.57    0.19
  -2  -4  -9    0.02    0.17
   2   4   9   -0.02    0.11
   2   4   9   -0.17    0.16
  -3  -4  -9    0.12    0.22
   3   4   9    0.05    0.21
  -4  -4  -9   -0.27    0.22
   4   4   9   -0.06    0.24
  -8   5   9   -0.22    0.19
  -7   5   9    0.25    0.16
  -7   5   9   -0.05    0.17
  -6   5   9    0.25    0.18
  -6   5   9    0.10    0.15
  -5   5   9    0.27    0.16
  -5   5   9    0.66    0.19
  -4   5   9   -0.10    0.13
  -4   5   9    0.07    0.15
  -3   5   9    0.90    0.19
  -3   5   9    1.05    0.21
   2  -5  -9    5.05    0.32
  -2   5   9    4.70    0.33
   1  -5  -9    0.32    0.15
  -1   5   9    0.26    0.14
   0  -5  -9    0.45    0.17
   0   5   9    0.16    0.14
  -1  -5  -9    0.36    0.20
   1   5   9    0.81    0.20
   1   5   9    0.73    0.17
  -2  -5  -9    0.35    0.21
   2   5   9    0.32    0.15
   2   5   9    0.04    0.19
  -3  -5  -9    0.53    0.25
   3   5   9    0.09    0.23
   4   5   9   -0.33    0.24
  -7   6   9    0.11    0.17
  -7   6   9    0.03    0.18
  -6   6   9   -0.04    0.17
  -6   6   9   -0.01    0.15
  -5   6   9    0.03    0.15
  -5   6   9   -0.19    0.15
  -4   6   9    0.75    0.22
  -4   6   9    0.85    0.21
  -3   6   9    0.59    0.19
  -3   6   9    0.46    0.18
   2  -6  -9    2.91    0.30
  -2   6   9    2.99    0.31
   1  -6  -9    1.68    0.26
  -1   6   9    2.09    0.27
   0  -6  -9   -0.12    0.16
   0   6   9   -0.15    0.13
  -1  -6  -9   -0.03    0.19
   1   6   9   -0.03    0.13
  -2  -6  -9   -0.01    0.22
   2   6   9   -0.30    0.20
   2   6   9    0.17    0.15
   3   6   9   -0.24    0.23
  -7   7   9   -0.04    0.20
  -6   7   9   -0.10    0.17
  -6   7   9   -0.04    0.18
  -5   7   9    0.14    0.19
  -5   7   9   -0.02    0.16
  -4   7   9    0.14    0.18
  -4   7   9    0.04    0.17
  -3   7   9    0.17    0.18
   2  -7  -9    0.54    0.20
  -2   7   9    0.48    0.19
   1  -7  -9    0.21    0.17
  -1   7   9    0.34    0.18
   0  -7  -9    0.16    0.19
   0   7   9    0.00    0.15
  -1  -7  -9    0.11    0.22
   1   7   9    0.04    0.17
   2   7   9    0.32    0.20
  -5   8   9    0.14    0.21
  -4   8   9    0.37    0.22
  -4   8   9    0.10    0.21
  -3   8   9    0.00    0.19
   2  -8  -9    0.08    0.17
  -2   8   9    0.09    0.18
   1  -8  -9    0.78    0.24
  -1   8   9    0.74    0.23
  -2  -8  10    0.31    0.19
   0   8 -10   -0.05    0.25
  -1   8 -10    0.10    0.27
   3   7 -10    0.14    0.21
  -3  -7  10    0.30    0.19
   2   7 -10    0.09    0.22
  -2  -7  10    0.27    0.17
   1   7 -10    1.70    0.31
   0   7 -10    2.61    0.36
  -1   7 -10   -0.12    0.24
   3  -7  10    0.15    0.18
   4   6 -10   -0.05    0.20
  -4  -6  10    0.31    0.20
   3   6 -10   -0.13    0.18
  -3  -6  10   -0.03    0.16
   2   6 -10   -0.01    0.19
  -2  -6  10    0.09    0.14
   1   6 -10    0.05    0.19
  -1  -6  10   -0.01    0.13
   0   6 -10    8.23    0.51
  -1   6 -10    0.33    0.25
   2  -6  10    0.48    0.18
   3  -6  10    0.16    0.16
   4  -6  10    0.26    0.17
   6   5 -10    0.31    0.24
   5   5 -10    0.16    0.20
  -5  -5  10   -0.06    0.19
   4   5 -10    0.29    0.19
  -4  -5  10    0.31    0.19
   3   5 -10    0.15    0.17
  -3  -5  10    0.17    0.15
   2   5 -10    0.50    0.18
  -2  -5  10    0.57    0.16
   1   5 -10    0.37    0.19
  -1  -5  10    0.18    0.12
   0   5 -10    1.40    0.26
   2  -5  10    0.23    0.14
   3  -5  10    0.09    0.14
   4  -5  10    0.17    0.16
   5  -5  10    0.26    0.19
   7   4 -10    0.14    0.21
   6   4 -10    1.08    0.25
  -6  -4  10    1.11    0.28
   5   4 -10    1.28    0.24
  -5  -4  10    2.05    0.29
   4   4 -10    0.40    0.19
  -4  -4  10    0.72    0.20
   3   4 -10   -0.06    0.14
  -3  -4  10   -0.11    0.13
   2   4 -10    0.20    0.16
  -2  -4  10   -0.14    0.12
   1   4 -10    2.92    0.30
  -1  -4  10    2.71    0.24
   0   4 -10    4.06    0.35
   1  -4  10   10.60    0.49
   2  -4  10    0.78    0.18
   3  -4  10    0.10    0.13
  -4   4 -10   -0.01    0.18
   4  -4  10    0.22    0.16
  -5   4 -10    0.03    0.21
   5  -4  10    0.28    0.18
  -7  -3  10    0.05    0.20
   6   3 -10    1.54    0.25
  -6  -3  10    1.84    0.29
   5   3 -10    1.55    0.23
  -5  -3  10    1.38    0.25
   4   3 -10    0.38    0.16
  -4  -3  10    0.10    0.15
   3   3 -10    0.42    0.16
  -3  -3  10    0.67    0.17
   2   3 -10    2.82    0.28
  -2  -3  10    2.45    0.23
   1   3 -10    6.09    0.38
  -1  -3  10    6.15    0.30
   0   3 -10    0.11    0.17
   0  -3  10   -0.17    0.10
   1  -3  10    8.25    0.41
   2  -3  10   16.90    0.62
  -3   3 -10    0.15    0.16
   3  -3  10    0.15    0.14
  -4   3 -10   -0.12    0.17
   4  -3  10    0.06    0.15
  -5   3 -10   -0.22    0.20
   5  -3  10    0.25    0.18
  -7  -2  10    0.40    0.22
  -6  -2  10    0.11    0.18
   5   2 -10    5.04    0.33
  -5  -2  10    5.04    0.36
   4   2 -10    0.87    0.18
  -4  -2  10    0.85    0.19
   3   2 -10    1.64    0.21
  -3  -2  10    1.18    0.19
   2   2 -10    0.16    0.14
  -2  -2  10    0.15    0.13
   1   2 -10   -0.13    0.13
  -1  -2  10    0.02    0.11
   0  -2  10    2.58    0.24
   0  -2  10    2.79    0.21
  -1   2 -10    2.26    0.23
   1  -2  10    2.31    0.25
  -2   2 -10   21.44    0.72
   2  -2  10   23.10    0.72
  -3   2 -10   -0.01    0.16
   3  -2  10   -0.11    0.12
  -4   2 -10    0.79    0.23
   4  -2  10    0.71    0.20
  -5   2 -10    0.25    0.23
   5  -2  10    0.50    0.22
  -7  -1  10    0.03    0.19
  -6  -1  10    0.17    0.17
   5   1 -10   12.65    0.49
  -5  -1  10   12.23    0.52
   4   1 -10    0.05    0.11
  -4  -1  10   -0.12    0.13
   3   1 -10    0.13    0.13
  -3  -1  10    0.10    0.13
   2   1 -10    6.46    0.35
  -2  -1  10    6.33    0.31
  -1  -1  10    2.20    0.22
  -1  -1  10    2.91    0.22
   0   1 -10    2.33    0.22
   0  -1  10    2.52    0.21
   0  -1  10    1.69    0.20
  -1   1 -10   -0.07    0.14
   1  -1  10   -0.04    0.10
  -2   1 -10   14.23    0.58
   2  -1  10   14.78    0.56
  -3   1 -10    8.58    0.46
   3  -1  10    8.88    0.44
  -4   1 -10    0.01    0.18
   4  -1  10    0.23    0.18
  -5   1 -10   -0.16    0.21
   5  -1  10    0.33    0.21
  -8   0  10   -0.16    0.20
  -7   0  10    0.09    0.19
  -6   0  10    0.26    0.17
  -5   0  10    2.17    0.26
   4   0 -10    4.42    0.29
  -4   0  10    3.61    0.30
   3   0 -10    1.07    0.17
  -3   0  10    0.89    0.17
  -2   0  10    1.37    0.18
   1   0 -10    1.02    0.15
  -1   0  10    0.84    0.15
  -1   0  10    0.80    0.15
   0   0 -10    0.41    0.15
   0   0  10    0.46    0.13
   0   0  10    0.39    0.13
  -1   0 -10    4.52    0.31
   1   0  10    5.48    0.33
  -2   0 -10    9.30    0.46
   2   0  10   10.13    0.45
  -3   0 -10   14.47    0.63
   3   0  10   13.91    0.59
  -4   0 -10    0.00    0.21
   4   0  10   -0.07    0.19
  -5   0 -10   -0.51    0.19
   5   0  10    0.00    0.21
  -8   1  10   -0.07    0.20
  -7   1  10    0.16    0.18
  -6   1  10    0.11    0.16
  -5   1  10    1.35    0.22
  -4   1  10   17.37    0.60
  -3   1  10    0.44    0.14
   2  -1 -10    0.78    0.14
  -2   1  10    0.81    0.16
  -2   1  10    0.61    0.12
   1  -1 -10    0.92    0.17
  -1   1  10    0.93    0.16
   0  -1 -10    0.46    0.14
   0   1  10    0.64    0.14
   0   1  10    0.68    0.15
  -1  -1 -10    0.77    0.19
   1   1  10    1.13    0.19
   1   1  10    0.91    0.15
  -2  -1 -10    0.38    0.19
   2   1  10    0.53    0.19
  -3  -1 -10    5.08    0.39
   3   1  10    5.99    0.40
  -4  -1 -10    5.86    0.47
   4   1  10    6.52    0.46
  -5  -1 -10    0.17    0.25
   5   1  10   -0.07    0.23
  -8   2  10    0.25    0.20
  -7   2  10    0.05    0.17
  -6   2  10    0.08    0.15
  -5   2  10    0.08    0.14
  -4   2  10    3.72    0.29
  -4   2  10    3.81    0.27
  -3   2  10    3.96    0.28
   2  -2 -10    0.20    0.11
  -2   2  10   -0.01    0.12
   1  -2 -10    0.71    0.16
  -1   2  10    0.63    0.14
  -1   2  10    0.50    0.13
   0  -2 -10    1.79    0.23
   0   2  10    2.23    0.22
   0   2  10    1.43    0.20
  -1  -2 -10    3.65    0.32
   1   2  10    4.67    0.27
   1   2  10    4.34    0.33
  -2  -2 -10   -0.17    0.15
   2   2  10    0.14    0.16
  -3  -2 -10    7.07    0.47
   3   2  10    7.81    0.48
  -4  -2 -10    2.81    0.37
   4   2  10    3.03    0.37
  -8   3  10   -0.17    0.18
  -7   3  10   -0.15    0.16
  -6   3  10    0.12    0.15
  -5   3  10    0.23    0.15
  -5   3  10    0.20    0.15
  -4   3  10    1.74    0.23
  -4   3  10    1.77    0.24
  -3   3  10   11.29    0.47
   2  -3 -10    0.13    0.12
  -2   3  10   -0.17    0.11
   1  -3 -10    1.09    0.19
  -1   3  10    1.37    0.18
  -1   3  10    0.96    0.18
   0  -3 -10   -0.01    0.15
   0   3  10    0.07    0.11
   0   3  10    0.19    0.13
  -1  -3 -10    0.06    0.16
   1   3  10    0.41    0.19
   1   3  10    0.45    0.14
  -2  -3 -10    2.61    0.32
   2   3  10    2.15    0.30
  -3  -3 -10    2.24    0.32
   3   3  10    2.05    0.32
  -4  -3 -10    2.95    0.40
   4   3  10    2.80    0.38
  -8   4  10    0.11    0.20
  -7   4  10    0.38    0.19
  -6   4  10    0.32    0.16
  -6   4  10    0.49    0.18
  -5   4  10   -0.03    0.15
  -5   4  10   -0.01    0.14
  -4   4  10    0.50    0.18
  -4   4  10    0.65    0.18
  -3   4  10    0.89    0.19
   2  -4 -10    3.86    0.28
  -2   4  10    3.50    0.29
   1  -4 -10    2.74    0.29
  -1   4  10    2.79    0.27
   0  -4 -10    1.05    0.22
   0   4  10    1.42    0.20
  -1  -4 -10    1.74    0.28
   1   4  10    1.81    0.23
   1   4  10    2.28    0.29
  -2  -4 -10    0.39    0.22
   2   4  10    1.38    0.27
  -3  -4 -10   -0.23    0.22
   3   4  10    0.05    0.22
   4   4  10    2.39    0.38
  -7   5  10    0.14    0.20
  -7   5  10    0.17    0.17
  -6   5  10    1.33    0.23
  -6   5  10    1.85    0.28
  -5   5  10    1.86    0.27
  -5   5  10    1.79    0.26
  -4   5  10    0.20    0.16
  -4   5  10    0.06    0.16
  -3   5  10    0.07    0.13
   2  -5 -10    8.43    0.43
  -2   5  10    8.33    0.42
   1  -5 -10    0.06    0.14
  -1   5  10   -0.05    0.13
   0  -5 -10    3.01    0.34
   0   5  10    2.39    0.28
  -1  -5 -10   -0.10    0.19
   1   5  10    0.09    0.14
  -2  -5 -10    0.03    0.21
   2   5  10    0.09    0.14
   2   5  10   -0.14    0.19
  -3  -5 -10   -0.13    0.24
   3   5  10   -0.13    0.23
  -7   6  10   -0.22    0.19
  -7   6  10    0.22    0.18
  -6   6  10    0.19    0.18
  -6   6  10    0.25    0.19
  -5   6  10    0.08    0.19
  -5   6  10    0.30    0.19
  -4   6  10    0.08    0.17
  -4   6  10    0.19    0.18
  -3   6  10   -0.02    0.15
   2  -6 -10    1.55    0.25
  -2   6  10    1.71    0.26
   1  -6 -10    0.10    0.17
  -1   6  10    0.41    0.18
   0  -6 -10    0.23    0.20
   0   6  10    0.29    0.17
  -1  -6 -10    0.86    0.27
   1   6  10    0.41    0.19
  -2  -6 -10    0.14    0.25
   2   6  10    0.01    0.15
   3   6  10   -0.16    0.26
  -6   7  10   -0.14    0.17
  -5   7  10    0.72    0.24
  -5   7  10    0.38    0.22
  -4   7  10    0.52    0.24
  -4   7  10    0.48    0.21
   3  -7 -10    0.10    0.15
  -3   7  10    0.06    0.18
   2  -7 -10   -0.04    0.16
  -2   7  10   -0.17    0.15
   1  -7 -10    1.96    0.31
  -1   7  10    1.79    0.28
   0  -7 -10   -0.03    0.18
   0   7  10    0.09    0.18
   1   7  10    0.56    0.21
   3  -8 -10    0.19    0.18
  -3  -7  11    0.47    0.22
   2   7 -11   -0.10    0.21
  -2  -7  11    0.06    0.17
   1   7 -11    0.08    0.23
   0   7 -11    0.17    0.26
  -1   7 -11    0.43    0.30
   2  -7  11    0.41    0.21
   4   6 -11    0.24    0.22
  -4  -6  11    0.44    0.21
   3   6 -11    0.14    0.21
  -3  -6  11    0.10    0.18
   2   6 -11    0.65    0.24
  -2  -6  11    0.87    0.20
   1   6 -11    0.25    0.21
   0   6 -11   -0.06    0.22
   2  -6  11    0.43    0.18
   3  -6  11    0.23    0.18
   5   5 -11   -0.12    0.20
  -5  -5  11    0.09    0.22
   4   5 -11    0.27    0.21
  -4  -5  11    0.30    0.20
   3   5 -11    1.01    0.24
  -3  -5  11    1.08    0.22
   2   5 -11   -0.06    0.17
  -2  -5  11    0.17    0.15
   1   5 -11   -0.14    0.18
   0   5 -11    0.23    0.21
   2  -5  11    1.37    0.24
   3  -5  11    0.40    0.17
   4  -5  11    0.31    0.18
   6   4 -11    0.44    0.23
  -6  -4  11    0.91    0.27
   5   4 -11   -0.11    0.16
  -5  -4  11   -0.14    0.18
   4   4 -11   -0.08    0.16
  -4  -4  11    0.25    0.18
   3   4 -11    0.03    0.15
  -3  -4  11    0.16    0.15
   2   4 -11    0.81    0.21
  -2  -4  11    0.51    0.17
   1   4 -11    0.18    0.18
  -1  -4  11   -0.06    0.11
   0   4 -11   -0.01    0.18
   1  -4  11    0.53    0.17
   2  -4  11    0.39    0.17
   3  -4  11    0.11    0.15
   4  -4  11    0.17    0.16
  -5   4 -11    0.01    0.25
   6   3 -11    4.57    0.36
  -6  -3  11    5.28    0.40
   5   3 -11    0.12    0.15
  -5  -3  11   -0.08    0.16
   4   3 -11    0.11    0.15
  -4  -3  11    0.05    0.15
   3   3 -11    1.58    0.23
  -3  -3  11    1.54    0.22
   2   3 -11    5.48    0.36
  -2  -3  11    5.13    0.30
   1   3 -11    0.18    0.16
  -1  -3  11   -0.03    0.11
   1  -3  11    0.05    0.13
   2  -3  11    0.17    0.14
   3  -3  11    0.75    0.18
  -4   3 -11    0.16    0.21
   4  -3  11    0.25    0.17
  -5   3 -11   -0.03    0.25
  -7  -2  11   -0.06    0.20
  -6  -2  11    3.00    0.35
   5   2 -11    0.86    0.19
  -5  -2  11    1.04    0.22
   4   2 -11    0.32    0.15
  -4  -2  11    0.36    0.16
   3   2 -11    0.96    0.19
  -3  -2  11    0.88    0.18
   2   2 -11    4.06    0.32
  -2  -2  11    4.38    0.28
  -1  -2  11    1.56    0.19
   0  -2  11    0.60    0.16
   1  -2  11    0.43    0.15
  -2   2 -11    0.03    0.15
   2  -2  11   -0.11    0.11
  -3   2 -11    0.19    0.18
   3  -2  11   -0.21    0.13
  -4   2 -11    0.94    0.26
   4  -2  11    1.21    0.24
  -5   2 -11    0.45    0.27
   5  -2  11    0.49    0.24
  -7  -1  11    0.15    0.21
  -6  -1  11    0.09    0.17
  -5  -1  11   13.26    0.55
   4   1 -11    0.42    0.14
  -4  -1  11    0.31    0.17
   3   1 -11    3.85    0.28
  -3  -1  11    3.28    0.27
   2   1 -11    2.23    0.25
  -2  -1  11    2.84    0.25
  -1  -1  11    0.61    0.15
  -1  -1  11    0.53    0.14
   0  -1  11    0.45    0.13
   0  -1  11    0.45    0.13
  -1   1 -11    0.74    0.19
   1  -1  11    0.82    0.16
  -2   1 -11    1.62    0.25
   2  -1  11    1.72    0.23
  -3   1 -11    0.36    0.20
   3  -1  11    0.34    0.17
  -4   1 -11    0.10    0.21
   4  -1  11    0.12    0.20
  -5   1 -11   -0.14    0.23
  -7   0  11    0.38    0.21
  -6   0  11   -0.09    0.17
  -5   0  11    4.43    0.33
  -4   0  11    4.02    0.30
   3   0 -11    0.70    0.16
  -3   0  11    0.41    0.15
  -2   0  11   -0.04    0.12
  -2   0  11    0.11    0.05
  -1   0  11    2.86    0.24
  -1   0  11    2.63    0.23
   0   0 -11    2.48    0.24
   0   0  11    2.47    0.22
   0   0  11    2.58    0.24
  -1   0 -11    0.01    0.09
   1   0  11   -0.05    0.12
  -2   0 -11   -0.02    0.16
   2   0  11    0.20    0.15
  -3   0 -11   -0.12    0.18
   3   0  11    0.16    0.18
  -4   0 -11    0.60    0.25
   4   0  11    1.06    0.25
  -5   0 -11    0.21    0.25
  -7   1  11   -0.30    0.16
  -6   1  11    0.82    0.22
  -5   1  11    1.01    0.20
  -4   1  11   19.21    0.64
  -3   1  11    0.82    0.18
  -2   1  11    1.37    0.17
  -2   1  11    1.45    0.20
   1  -1 -11    0.02    0.13
  -1   1  11    0.25    0.12
  -1   1  11    0.13    0.06
   0   1  11    0.45    0.15
   0   1  11    0.36    0.13
  -1  -1 -11    0.11    0.16
   1   1  11    0.05    0.14
  -2  -1 -11    0.03    0.18
   2   1  11    0.03    0.16
  -3  -1 -11    0.36    0.22
   3   1  11    0.03    0.19
  -4  -1 -11   -0.34    0.20
   4   1  11    0.05    0.22
  -7   2  11    0.11    0.18
  -6   2  11    1.80    0.26
  -5   2  11    0.02    0.14
  -4   2  11   13.19    0.52
  -3   2  11    1.04    0.19
   2  -2 -11    1.48    0.20
  -2   2  11    1.67    0.22
   1  -2 -11    0.21    0.13
  -1   2  11    0.50    0.14
  -1   2  11    0.39    0.14
   0  -2 -11    0.24    0.16
   0   2  11    0.51    0.16
   0   2  11    0.50    0.14
  -1  -2 -11    0.76    0.21
   1   2  11    0.78    0.19
  -2  -2 -11   -0.26    0.16
   2   2  11    0.09    0.17
  -3  -2 -11   -0.10    0.21
   3   2  11    0.11    0.21
  -4  -2 -11    0.25    0.24
   4   2  11    0.34    0.25
  -7   3  11    0.17    0.19
  -6   3  11    0.65    0.21
  -5   3  11    0.21    0.16
  -4   3  11    1.58    0.22
  -4   3  11    1.30    0.21
  -3   3  11   31.13    0.90
   2  -3 -11    0.23    0.14
  -2   3  11    0.34    0.15
   1  -3 -11    0.32    0.16
  -1   3  11    0.70    0.16
   0  -3 -11    0.04    0.16
   0   3  11    0.30    0.14
   0   3  11    0.27    0.11
  -1  -3 -11    0.27    0.19
   1   3  11    0.73    0.17
   1   3  11    0.38    0.19
  -2  -3 -11    0.07    0.20
   2   3  11   -0.01    0.19
  -3  -3 -11    0.27    0.24
   3   3  11    0.00    0.22
   4   3  11   -0.08    0.25
  -7   4  11    0.27    0.21
  -6   4  11    0.06    0.17
  -5   4  11    0.83    0.21
  -5   4  11    0.90    0.23
  -4   4  11    0.61    0.19
  -4   4  11    0.11    0.16
   3  -4 -11   14.73    0.56
  -3   4  11   14.03    0.56
   2  -4 -11   -0.02    0.12
  -2   4  11    0.16    0.14
   1  -4 -11    4.37    0.32
  -1   4  11    4.27    0.31
   0  -4 -11    2.17    0.29
   0   4  11    2.68    0.28
  -1  -4 -11    0.01    0.18
   1   4  11    0.21    0.20
   1   4  11    0.06    0.13
  -2  -4 -11    0.30    0.24
   2   4  11    0.49    0.23
  -3  -4 -11    0.02    0.24
   3   4  11   -0.03    0.23
  -7   5  11    0.39    0.22
  -6   5  11   -0.12    0.16
  -6   5  11    0.12    0.19
  -5   5  11    0.06    0.17
  -5   5  11    0.04    0.17
  -4   5  11    1.21    0.23
  -4   5  11    1.12    0.24
   3  -5 -11    6.56    0.38
  -3   5  11    6.33    0.40
   2  -5 -11   10.88    0.52
  -2   5  11   12.18    0.52
   1  -5 -11    1.35    0.24
  -1   5  11    1.16    0.22
   0  -5 -11    0.44    0.21
   0   5  11    0.05    0.15
  -1  -5 -11    0.01    0.22
   1   5  11    0.36    0.16
  -2  -5 -11   -0.09    0.21
   2   5  11    0.05    0.22
   3   5  11   -0.19    0.24
  -6   6  11   -0.34    0.18
  -6   6  11    0.05    0.19
  -5   6  11    0.10    0.19
  -5   6  11    0.13    0.19
  -4   6  11   -0.30    0.16
  -4   6  11    0.26    0.20
   3  -6 -11    1.44    0.25
  -3   6  11    1.32    0.24
   2  -6 -11    4.57    0.37
  -2   6  11    3.40    0.35
   1  -6 -11    1.34    0.26
  -1   6  11    1.20    0.24
   0  -6 -11    0.07    0.21
   0   6  11    0.10    0.16
  -1  -6 -11    0.01    0.22
   1   6  11    0.17    0.17
  -5   7  11    0.09    0.22
  -4   7  11    0.29    0.22
   3  -7 -11    0.31    0.19
  -3   7  11    0.02    0.18
   2  -7 -11    2.14    0.30
  -2   7  11    1.71    0.29
   1  -7 -11    1.84    0.31
  -1   7  11    1.95    0.31
   0   7  11    0.08    0.18
  -3  -7  12    0.18    0.20
  -4  -6  12    0.13    0.21
   3   6 -12    0.04    0.22
  -3  -6  12    0.04    0.18
   2   6 -12    0.01    0.22
  -2  -6  12    0.13    0.16
   1   6 -12   -0.17    0.21
   0   6 -12   -0.08    0.24
   2  -6  12    0.34    0.20
   5   5 -12   -0.05    0.22
   4   5 -12    0.07    0.20
  -4  -5  12    0.04    0.19
   3   5 -12    0.67    0.23
  -3  -5  12    0.29    0.18
   2   5 -12   -0.06    0.18
  -2  -5  12    0.06    0.15
   1   5 -12   -0.11    0.20
   0   5 -12    0.14    0.23
   1  -5  12    0.09    0.16
   2  -5  12    0.02    0.16
   3  -5  12    0.40    0.18
   6   4 -12    0.13    0.20
   5   4 -12    0.31    0.21
  -5  -4  12    0.08    0.20
   4   4 -12    0.82    0.21
  -4  -4  12    0.61    0.20
   3   4 -12   -0.01    0.17
  -3  -4  12    0.17    0.15
   2   4 -12    0.11    0.18
  -2  -4  12   -0.13    0.13
   1   4 -12    0.00    0.18
   1  -4  12    0.80    0.19
   2  -4  12    0.14    0.15
   3  -4  12    0.11    0.16
  -6  -3  12    0.04    0.21
   5   3 -12    0.33    0.16
  -5  -3  12    0.30    0.19
   4   3 -12    0.89    0.20
  -4  -3  12    0.50    0.19
   3   3 -12    0.02    0.16
  -3  -3  12    0.17    0.15
   2   3 -12    0.79    0.21
  -2  -3  12    0.63    0.17
   1   3 -12    0.01    0.16
  -1  -3  12   -0.02    0.12
   0  -3  12    0.04    0.13
   1  -3  12    3.01    0.31
   2  -3  12    1.70    0.23
   3  -3  12    0.33    0.17
   4  -3  12    0.14    0.18
  -5   3 -12    0.90    0.30
  -6  -2  12    0.55    0.21
  -5  -2  12    0.24    0.18
   4   2 -12    0.05    0.15
  -4  -2  12    0.12    0.15
   3   2 -12    1.37    0.22
  -3  -2  12    1.32    0.21
   2   2 -12    0.53    0.18
  -2  -2  12    0.40    0.15
  -1  -2  12    0.31    0.14
  -1  -2  12    0.51    0.14
   0  -2  12    0.11    0.12
   1  -2  12    3.31    0.28
   2  -2  12    1.54    0.24
   3  -2  12    0.99    0.22
  -4   2 -12    0.06    0.22
   4  -2  12    0.39    0.20
  -5   2 -12    0.57    0.30
  -7  -1  12   -0.11    0.22
  -6  -1  12    0.04    0.18
  -5  -1  12    0.14    0.16
   4   1 -12    1.26    0.20
  -4  -1  12    1.17    0.22
   3   1 -12    0.06    0.14
  -3  -1  12    0.04    0.13
  -2  -1  12    1.45    0.20
  -1  -1  12    4.21    0.29
  -1  -1  12    3.55    0.25
   0  -1  12    0.69    0.16
   1  -1  12    1.15    0.20
   2  -1  12    2.26    0.27
  -3   1 -12    0.97    0.24
   3  -1  12    1.00    0.23
  -4   1 -12   -0.12    0.21
   4  -1  12   -0.12    0.19
  -7   0  12    0.00    0.20
  -6   0  12    0.24    0.19
  -5   0  12   -0.01    0.16
  -4   0  12    2.71    0.27
  -3   0  12    0.16    0.14
  -2   0  12    0.37    0.14
  -2   0  12    0.13    0.06
  -1   0  12    0.42    0.14
  -1   0  12    0.59    0.15
   0   0  12    0.13    0.12
  -1   0 -12   -0.10    0.12
   1   0  12    0.08    0.13
  -2   0 -12    2.55    0.31
   2   0  12    2.40    0.28
  -3   0 -12   -0.14    0.20
   3   0  12    0.31    0.20
  -4   0 -12   -0.05    0.21
   4   0  12    0.02    0.21
  -7   1  12    0.02    0.19
  -6   1  12    0.00    0.17
  -5   1  12    2.14    0.26
  -4   1  12   -0.10    0.13
  -3   1  12    2.01    0.24
  -2   1  12    0.59    0.14
  -2   1  12    0.62    0.15
  -1   1  12    0.08    0.08
  -1   1  12   -0.10    0.11
   0  -1 -12    0.25    0.15
   0   1  12    0.52    0.15
   0   1  12    0.72    0.17
  -1  -1 -12   -0.11    0.16
   1   1  12    0.09    0.15
  -2  -1 -12    0.95    0.24
   2   1  12    0.76    0.21
  -3  -1 -12    2.35    0.34
   3   1  12    1.40    0.28
  -4  -1 -12   -0.15    0.25
   4   1  12    0.35    0.25
  -7   2  12    0.10    0.20
  -6   2  12    0.17    0.18
  -5   2  12    0.40    0.17
  -4   2  12    1.85    0.25
  -3   2  12    0.86    0.19
  -2   2  12   -0.09    0.12
   1  -2 -12    0.05    0.08
  -1   2  12    0.00    0.12
   0  -2 -12    0.24    0.16
   0   2  12    0.21    0.15
   0   2  12    0.09    0.12
  -1  -2 -12    0.35    0.19
   1   2  12    0.06    0.16
  -2  -2 -12    1.24    0.26
   2   2  12    1.22    0.25
  -3  -2 -12    0.78    0.27
   3   2  12    0.99    0.28
  -7   3  12    0.29    0.22
  -6   3  12    0.09    0.18
  -5   3  12   -0.07    0.15
  -4   3  12    1.19    0.23
   3  -3 -12    1.07    0.18
  -3   3  12    0.82    0.20
   2  -3 -12    0.01    0.13
  -2   3  12    0.05    0.14
   1  -3 -12    0.78    0.20
  -1   3  12    0.88    0.19
   0  -3 -12    1.05    0.22
   0   3  12    1.02    0.19
  -1  -3 -12   -0.13    0.17
   1   3  12    0.34    0.20
  -2  -3 -12   -0.37    0.19
   2   3  12    0.11    0.21
  -3  -3 -12    1.29    0.32
   3   3  12    1.09    0.30
  -6   4  12    0.16    0.20
  -5   4  12   -0.28    0.16
  -4   4  12    0.30    0.18
   3  -4 -12    2.21    0.26
  -3   4  12    2.45    0.29
   2  -4 -12    0.04    0.14
  -2   4  12   -0.10    0.13
   1  -4 -12    0.84    0.21
  -1   4  12    0.85    0.20
   0  -4 -12    0.34    0.19
   0   4  12    0.30    0.15
  -1  -4 -12    0.00    0.19
  -2  -4 -12   -0.25    0.21
   2   4  12   -0.06    0.22
   3   4  12    0.14    0.27
  -6   5  12    0.04    0.19
  -5   5  12    0.03    0.19
  -5   5  12    0.40    0.20
  -4   5  12    0.10    0.18
   3  -5 -12    3.63    0.32
  -3   5  12    2.59    0.31
   2  -5 -12    0.06    0.16
  -2   5  12    0.45    0.19
   1  -5 -12    0.16    0.19
  -1   5  12    0.16    0.17
   0  -5 -12    0.02    0.19
   0   5  12   -0.04    0.15
  -1  -5 -12   -0.27    0.19
   1   5  12   -0.05    0.14
  -5   6  12   -0.19    0.19
  -5   6  12    0.02    0.20
   4  -6 -12    0.15    0.16
  -4   6  12   -0.10    0.17
   3  -6 -12    0.10    0.16
  -3   6  12    0.30    0.20
   2  -6 -12    0.26    0.19
  -2   6  12    0.10    0.19
   1  -6 -12    1.44    0.28
  -1   6  12    1.33    0.26
   0  -6 -12    0.23    0.23
   0   6  12   -0.04    0.16
   1   6  12    0.06    0.16
   4  -7 -12    0.10    0.17
   3  -7 -12    0.10    0.18
  -3  -6  13    0.43    0.21
   2   6 -13    0.15    0.24
   1   6 -13    0.36    0.26
   0   6 -13   -0.28    0.24
   4   5 -13    0.00    0.20
  -4  -5  13    0.11    0.20
   3   5 -13    1.16    0.27
  -3  -5  13    0.74    0.20
   2   5 -13    0.12    0.21
   1   5 -13   -0.17    0.20
   1  -5  13    0.37    0.19
   2  -5  13    0.29    0.18
   5   4 -13    0.18    0.20
  -5  -4  13   -0.12    0.19
   4   4 -13   -0.18    0.17
  -4  -4  13    0.05    0.18
   3   4 -13    2.26    0.30
  -3  -4  13    2.03    0.26
   2   4 -13    0.39    0.21
  -2  -4  13    0.23    0.16
   1   4 -13   -0.09    0.20
   0  -4  13    0.36    0.17
   1  -4  13    0.21    0.16
   2  -4  13    0.12    0.17
   5   3 -13    0.07    0.17
  -5  -3  13    0.01    0.19
   4   3 -13    0.01    0.17
  -4  -3  13    0.27    0.18
   3   3 -13    0.96    0.23
  -3  -3  13    1.05    0.21
   2   3 -13    2.34    0.30
  -2  -3  13    2.55    0.26
   0  -3  13    1.09    0.21
   1  -3  13   -0.02    0.14
   2  -3  13    0.10    0.14
   3  -3  13    0.50    0.20
  -6  -2  13   -0.12    0.20
  -5  -2  13   -0.21    0.17
   4   2 -13    0.36    0.17
  -4  -2  13    0.49    0.20
   3   2 -13    2.42    0.28
  -3  -2  13    1.53    0.22
  -2  -2  13    0.68    0.18
  -1  -2  13    2.17    0.25
   0  -2  13    0.26    0.14
   1  -2  13    0.25    0.15
   2  -2  13    0.14    0.16
   3  -2  13    0.35    0.19
  -6  -1  13    0.10    0.20
  -5  -1  13    0.16    0.18
  -4  -1  13    0.64    0.19
   3   1 -13    0.10    0.16
  -3  -1  13    0.13    0.15
  -2  -1  13    3.44    0.29
  -2  -1  13    2.63    0.26
  -1  -1  13    2.28    0.24
  -1  -1  13    2.19    0.25
   0  -1  13    1.01    0.18
   1  -1  13    0.05    0.14
   2  -1  13    0.37    0.18
   3  -1  13    0.06    0.18
  -4   1 -13   -0.02    0.25
  -6   0  13    0.14    0.18
  -5   0  13    0.08    0.17
  -4   0  13    0.32    0.17
  -3   0  13    0.30    0.15
  -2   0  13    1.71    0.22
  -1   0  13    1.82    0.22
  -1   0  13    2.37    0.24
   0   0  13    1.12    0.19
   1   0  13    0.35    0.17
  -2   0 -13    0.54    0.24
   2   0  13    0.68    0.21
  -3   0 -13    0.52    0.26
   3   0  13    0.48    0.23
  -4   0 -13   -0.24    0.24
  -6   1  13   -0.22    0.17
  -5   1  13    0.35    0.19
  -4   1  13    0.33    0.18
  -3   1  13    0.17    0.15
  -2   1  13    0.28    0.15
  -1   1  13    3.08    0.25
   0   1  13    0.17    0.14
  -1  -1 -13    0.13    0.18
   1   1  13    0.20    0.16
  -2  -1 -13   -0.18    0.19
   2   1  13    0.00    0.17
  -3  -1 -13    0.02    0.23
   3   1  13    0.17    0.22
  -6   2  13    0.03    0.18
  -5   2  13    0.44    0.20
  -4   2  13   -0.03    0.16
  -3   2  13    0.17    0.15
  -2   2  13   -0.21    0.13
  -1   2  13    0.77    0.18
   0  -2 -13    2.66    0.30
   0   2  13    2.95    0.30
  -1  -2 -13    0.03    0.19
   1   2  13    0.13    0.17
  -2  -2 -13    0.03    0.22
   2   2  13    0.06    0.20
  -3  -2 -13    0.12    0.24
   3   2  13   -0.04    0.24
  -6   3  13    0.29    0.21
  -5   3  13    0.15    0.18
  -4   3  13    3.94    0.37
  -3   3  13    1.31    0.24
  -2   3  13    0.18    0.16
   1  -3 -13    0.13    0.17
  -1   3  13    0.00    0.14
   0  -3 -13    3.77    0.34
   0   3  13    4.84    0.32
  -1  -3 -13   -0.38    0.17
   1   3  13    0.24    0.21
  -2  -3 -13   -0.07    0.22
   2   3  13    0.54    0.25
  -6   4  13    0.27    0.23
  -5   4  13    0.87    0.23
  -4   4  13    1.27    0.25
  -3   4  13   -0.07    0.17
   2  -4 -13    0.41    0.18
  -2   4  13    0.25    0.17
   1  -4 -13    0.02    0.18
  -1   4  13    0.11    0.15
   0  -4 -13    0.07    0.21
   0   4  13   -0.10    0.15
  -1  -4 -13    1.08    0.27
  -5   5  13    0.54    0.23
  -4   5  13    0.28    0.21
   3  -5 -13    2.21    0.28
  -3   5  13    2.59    0.32
   2  -5 -13    0.04    0.17
  -2   5  13    0.00    0.17
   1  -5 -13    0.41    0.23
  -1   5  13    0.17    0.18
   0  -5 -13    0.88    0.27
   0   5  13    0.84    0.22
   4  -6 -13    0.32    0.19
   3  -6 -13    1.55    0.28
  -3   6  13    1.57    0.29
   2  -6 -13    0.50    0.24
  -2   6  13    0.44    0.21
   1  -6 -13   -0.16    0.21
  -1   6  13    0.16    0.19
   0   6  13    0.05    0.19
   3   5 -14   -0.20    0.20
  -3  -5  14    0.37    0.20
   2   5 -14    0.16    0.24
   1   5 -14   -0.10    0.25
   0  -5  14    0.12    0.19
   5   4 -14    0.09    0.19
   4   4 -14    0.60    0.23
  -4  -4  14    0.04    0.19
   3   4 -14    0.15    0.19
  -3  -4  14    0.21    0.17
   2   4 -14   -0.04    0.20
   0  -4  14    0.46    0.19
   1  -4  14    0.57    0.21
  -5  -3  14    0.26    0.21
   4   3 -14   -0.01    0.18
  -4  -3  14   -0.12    0.17
   3   3 -14    1.21    0.25
  -3  -3  14    0.87    0.21
   2   3 -14    0.20    0.21
  -1  -3  14    0.11    0.16
   0  -3  14    0.23    0.17
   1  -3  14    1.55    0.26
   2  -3  14    0.04    0.16
  -5  -2  14    0.64    0.23
  -4  -2  14    0.07    0.17
   3   2 -14    0.38    0.20
  -3  -2  14    0.65    0.18
  -2  -2  14    2.19    0.27
  -2  -2  14    2.32    0.26
  -1  -2  14    0.78    0.19
   0  -2  14    0.19    0.15
   1  -2  14    1.15    0.21
   2  -2  14    0.01    0.17
  -5  -1  14    0.12    0.19
  -4  -1  14   -0.02    0.16
  -3  -1  14    0.13    0.15
  -2  -1  14    0.72    0.18
  -2  -1  14    0.80    0.18
  -1  -1  14    0.28    0.14
   0  -1  14    0.01    0.12
   1  -1  14    0.18    0.16
   2  -1  14    0.55    0.21
  -6   0  14    0.31    0.21
  -5   0  14   -0.01    0.17
  -4   0  14    0.23    0.17
  -3   0  14    1.25    0.22
  -2   0  14    0.03    0.14
  -1   0  14    0.97    0.18
   0   0  14    0.26    0.16
   1   0  14    0.15    0.16
   2   0  14    0.58    0.22
  -6   1  14   -0.16    0.18
  -5   1  14    0.52    0.20
  -4   1  14    0.24    0.17
  -3   1  14    0.32    0.17
  -2   1  14    0.07    0.14
  -1   1  14    0.50    0.17
   0   1  14    0.09    0.14
   1   1  14    0.15    0.17
  -2  -1 -14   -0.18    0.20
   2   1  14    0.03    0.20
  -3  -1 -14    0.00    0.25
  -6   2  14    0.00    0.18
  -5   2  14    0.46    0.21
  -4   2  14    0.15    0.17
  -3   2  14    0.97    0.22
  -2   2  14    1.63    0.25
  -1   2  14    0.16    0.15
  -1  -2 -14   -0.09    0.19
   1   2  14    0.11    0.19
  -2  -2 -14   -0.16    0.22
   2   2  14    0.08    0.22
  -5   3  14    0.08    0.18
  -4   3  14    0.14    0.19
  -3   3  14    0.38    0.19
  -2   3  14    1.83    0.27
  -1   3  14    1.14    0.22
   0  -3 -14    0.06    0.19
  -1  -3 -14   -0.09    0.21
  -2  -3 -14    0.04    0.23
   2   3  14    0.29    0.26
  -5   4  14    0.46    0.22
  -4   4  14   -0.07    0.18
  -3   4  14   -0.15    0.16
  -2   4  14    0.48    0.20
   1  -4 -14    1.43    0.28
  -1   4  14    1.82    0.27
   0  -4 -14    0.56    0.25
  -1  -4 -14    0.05    0.23
  -3   5  14    0.09    0.19
   2  -5 -14    0.31    0.22
  -2   5  14    0.22    0.20
   1  -5 -14    0.27    0.24
  -1   5  14   -0.04    0.17
   3  -6 -14    0.01    0.20
   3   4 -15    0.08    0.22
   2   4 -15   -0.28    0.21
  -1  -4  15    0.27    0.20
   0  -4  15   -0.04    0.17
   4   3 -15    0.16    0.20
  -4  -3  15    0.14    0.19
   3   3 -15    0.00    0.19
  -3  -3  15    0.28    0.19
  -1  -3  15    0.11    0.16
   0  -3  15    0.90    0.23
   1  -3  15    0.94    0.22
  -4  -2  15    0.44    0.21
  -3  -2  15    0.24    0.18
  -2  -2  15    1.09    0.22
  -1  -2  15   -0.07    0.15
   0  -2  15    0.88    0.22
   1  -2  15    0.39    0.18
  -5  -1  15    0.00    0.19
  -4  -1  15   -0.08    0.17
  -3  -1  15    0.29    0.17
  -2  -1  15    0.42    0.16
  -1  -1  15    0.06    0.14
   0  -1  15    0.12    0.15
   1  -1  15    0.08    0.18
  -5   0  15    0.14    0.20
  -4   0  15    0.85    0.21
  -3   0  15    0.28    0.17
  -2   0  15   -0.04    0.14
  -1   0  15    0.87    0.19
   0   0  15    0.46    0.18
   1   0  15    0.05    0.17
  -5   1  15    0.25    0.21
  -4   1  15    0.04    0.16
  -3   1  15    0.08    0.17
  -2   1  15    0.65    0.19
   0   1  15    0.28    0.16
   1   1  15    0.46    0.21
  -5   2  15   -0.04    0.19
  -4   2  15    0.49    0.21
  -3   2  15    0.07    0.18
  -2   2  15   -0.02    0.15
  -4   3  15    0.53    0.23
  -3   3  15   -0.11    0.17
  -2   3  15    0.20    0.17
  -1   3  15    1.11    0.23
  -1  -3 -15   -0.12    0.22
  -3   4  15   -0.01    0.19
  -2   4  15    0.00    0.18
  -1   4  15   -0.18    0.17
   0  -4 -15    0.44    0.26
  -2  -3  16    0.23    0.19
  -1  -3  16    0.42    0.21
  -4  -2  16   -0.02    0.19
  -3  -2  16   -0.20    0.16
  -2  -2  16    0.42    0.19
  -1  -2  16    0.29    0.18
   0  -2  16    0.27    0.18
  -4  -1  16   -0.05    0.18
  -3  -1  16   -0.02    0.17
  -1  -1  16    0.11    0.16
   0  -1  16    0.06    0.18
  -4   0  16    0.31    0.21
  -3   0  16    0.29    0.19
   0   0  16    0.11    0.18
  -4   1  16    1.42    0.27
  -3   1  16    0.09    0.18
   1   1  16    0.13    0.21
  -3   2  16   -0.15    0.18
  -2   2  16    0.59    0.21
  -3   3  16    0.45    0.22
  -2   3  16    0.23    0.19
  -3   0  17    0.01    0.18
  -3   1  17    0.14    0.21
   0   0   0    0.00    0.00
;
_shelx_hkl_checksum              57680
loop_
_space_group_symop_operation_xyz
'x, y, z'
'-x, -y, -z'
loop_
_atom_site_label
_atom_site_type_symbol
_atom_site_fract_x
_atom_site_fract_y
_atom_site_fract_z
_atom_site_U_iso_or_equiv
_atom_site_adp_type
_atom_site_occupancy
_atom_site_site_symmetry_order
_atom_site_calc_flag
_atom_site_refinement_flags_posn
_atom_site_refinement_flags_adp
O1 O 0.1951(3) 0.4006(3) 0.44483(15) 0.0656(7) Uani 1 1 d . .
H1A H 0.2977 0.3715 0.4817 0.098 Uiso 1 1 d R U
O2 O 0.3193(3) 0.3631(3) 0.31577(17) 0.0789(8) Uani 1 1 d . .
O3 O 0.1735(3) 0.4551(3) 0.14082(16) 0.0841(8) Uani 1 1 d . .
H3A H 0.2490 0.4173 0.1823 0.126 Uiso 1 1 calc R U
C1 C 0.1990(5) 0.4103(4) 0.3491(2) 0.0554(8) Uani 1 1 d . .
C2 C 0.0509(4) 0.4786(3) 0.2872(2) 0.0469(7) Uani 1 1 d . .
C3 C 0.0447(4) 0.4971(4) 0.1852(2) 0.0557(8) Uani 1 1 d . .
C4 C -0.0973(4) 0.5597(4) 0.1251(2) 0.0555(8) Uani 1 1 d . .
H4A H -0.0989 0.5721 0.0573 0.067 Uiso 1 1 calc R U
C5 C -0.2367(4) 0.6039(3) 0.1641(2) 0.0463(7) Uani 1 1 d . .
C6 C -0.2302(4) 0.5873(3) 0.2664(2) 0.0503(8) Uani 1 1 d . .
H6A H -0.3216 0.6182 0.2943 0.060 Uiso 1 1 calc R U
C7 C -0.0900(4) 0.5257(3) 0.3256(2) 0.0496(7) Uani 1 1 d . .
H7A H -0.0883 0.5148 0.3935 0.060 Uiso 1 1 calc R U
C8 C -0.3913(4) 0.6660(3) 0.0980(2) 0.0466(7) Uani 1 1 d . .
C9 C -0.4182(5) 0.8280(3) 0.1253(2) 0.0567(9) Uani 1 1 d . .
C10 C -0.5906(6) 0.8717(4) 0.0996(3) 0.0721(10) Uani 1 1 d . .
H10A H -0.6947 0.7967 0.0662 0.087 Uiso 1 1 calc R U
C11 C -0.6109(8) 1.0259(5) 0.1228(3) 0.0982(14) Uani 1 1 d . .
H11A H -0.7274 1.0540 0.1034 0.118 Uiso 1 1 calc R U
C12 C -0.4623(10) 1.1350(5) 0.1733(4) 0.1075(16) Uani 1 1 d . U
H12A H -0.4770 1.2374 0.1898 0.129 Uiso 1 1 calc R U
C13 C -0.2926(9) 1.0957(4) 0.2000(3) 0.1051(16) Uani 1 1 d . U
H13A H -0.1907 1.1718 0.2345 0.126 Uiso 1 1 calc R U
C14 C -0.2678(6) 0.9429(4) 0.1766(3) 0.0825(11) Uani 1 1 d . .
H14A H -0.1497 0.9177 0.1954 0.099 Uiso 1 1 calc R U
C15 C -0.5022(4) 0.5800(3) 0.0164(2) 0.0468(7) Uani 1 1 d . .
H15A H -0.5916 0.6292 -0.0232 0.056 Uiso 1 1 calc R U
O4 O 0.4428(4) 0.2673(3) 0.54928(18) 0.0797(8) Uani 1 1 d . .
N1 N 0.6959(4) 0.1560(3) 0.5575(2) 0.0676(8) Uani 1 1 d . .
C16 C 0.5700(6) 0.2368(4) 0.5113(3) 0.0760(10) Uani 1 1 d . .
H16A H 0.5766 0.2723 0.4479 0.091 Uiso 1 1 calc R U
C17 C 0.6986(6) 0.1049(5) 0.6561(3) 0.0979(13) Uani 1 1 d . .
H17A H 0.7991 0.0485 0.6771 0.147 Uiso 1 1 calc R U
H17B H 0.5820 0.0350 0.6564 0.147 Uiso 1 1 calc R U
H17C H 0.7167 0.1965 0.7017 0.147 Uiso 1 1 calc R U
C18 C 0.8349(6) 0.1214(6) 0.5065(4) 0.1122(16) Uani 1 1 d . .
H18A H 0.9160 0.0626 0.5490 0.168 Uiso 1 1 calc R U
H18B H 0.9071 0.2201 0.4916 0.168 Uiso 1 1 calc R U
H18C H 0.7737 0.0587 0.4449 0.168 Uiso 1 1 calc R U
loop_
_atom_site_aniso_label
_atom_site_aniso_U_11
_atom_site_aniso_U_22
_atom_site_aniso_U_33
_atom_site_aniso_U_23
_atom_site_aniso_U_13
_atom_site_aniso_U_12
O1 0.0685(15) 0.0824(16) 0.0495(13) 0.0118(11) 0.0120(11) 0.0256(12)
O2 0.0734(17) 0.113(2) 0.0603(15) 0.0029(13) 0.0171(13) 0.0420(15)
O3 0.0683(16) 0.143(2) 0.0553(14) 0.0089(14) 0.0258(12) 0.0428(16)
C1 0.060(2) 0.0554(18) 0.0484(19) 0.0002(15) 0.0110(16) 0.0075(15)
C2 0.0478(17) 0.0461(16) 0.0432(16) -0.0027(13) 0.0107(14) 0.0009(13)
C3 0.0502(19) 0.068(2) 0.0492(18) -0.0045(15) 0.0175(16) 0.0061(15)
C4 0.0542(19) 0.070(2) 0.0393(16) 0.0015(15) 0.0115(15) 0.0040(16)
C5 0.0486(17) 0.0416(15) 0.0439(16) -0.0025(12) 0.0084(14) 0.0004(13)
C6 0.0555(19) 0.0516(17) 0.0449(17) -0.0031(13) 0.0152(15) 0.0095(14)
C7 0.0615(19) 0.0507(16) 0.0366(16) 0.0004(13) 0.0137(15) 0.0083(14)
C8 0.0567(18) 0.0385(15) 0.0432(16) 0.0001(13) 0.0125(14) 0.0047(13)
C9 0.086(2) 0.0403(16) 0.0426(17) 0.0013(13) 0.0169(17) 0.0060(16)
C10 0.099(3) 0.058(2) 0.068(2) 0.0018(17) 0.024(2) 0.033(2)
C11 0.159(4) 0.076(3) 0.083(3) 0.015(2) 0.049(3) 0.057(3)
C12 0.194(5) 0.057(2) 0.085(3) 0.011(2) 0.051(3) 0.035(3)
C13 0.174(5) 0.046(2) 0.081(3) -0.013(2) 0.028(3) -0.011(3)
C14 0.113(3) 0.052(2) 0.069(2) -0.0081(17) 0.010(2) -0.003(2)
C15 0.0531(17) 0.0436(14) 0.0422(16) 0.0023(13) 0.0091(13) 0.0088(13)
O4 0.0813(18) 0.0929(18) 0.0716(16) 0.0075(13) 0.0191(14) 0.0319(15)
N1 0.0628(18) 0.0576(16) 0.078(2) 0.0019(15) 0.0113(16) 0.0090(14)
C16 0.086(3) 0.064(2) 0.069(2) 0.0064(18) 0.008(2) 0.005(2)
C17 0.102(3) 0.090(3) 0.088(3) 0.023(2) 0.000(3) 0.010(2)
C18 0.087(3) 0.104(3) 0.151(4) -0.014(3) 0.049(3) 0.011(3)
loop_
_atom_type_symbol
_atom_type_description
_atom_type_scat_dispersion_real
_atom_type_scat_dispersion_imag
_atom_type_scat_source
C C 0.0033 0.0016 'International Tables Vol C Tables 4.2.6.8 and 6.1.1.4'
H H 0.0000 0.0000 'International Tables Vol C Tables 4.2.6.8 and 6.1.1.4'
N N 0.0061 0.0033 'International Tables Vol C Tables 4.2.6.8 and 6.1.1.4'
O O 0.0106 0.0060 'International Tables Vol C Tables 4.2.6.8 and 6.1.1.4'
loop_
_geom_angle_atom_site_label_1
_geom_angle_atom_site_label_2
_geom_angle_atom_site_label_3
_geom_angle
_geom_angle_site_symmetry_1
_geom_angle_site_symmetry_3
C1 O1 H1A 112.2 . .
C3 O3 H3A 109.5 . .
O2 C1 O1 121.4(3) . .
O2 C1 C2 123.2(3) . .
O1 C1 C2 115.4(3) . .
C3 C2 C7 117.6(3) . .
C3 C2 C1 120.0(3) . .
C7 C2 C1 122.4(3) . .
O3 C3 C4 117.2(3) . .
O3 C3 C2 122.2(3) . .
C4 C3 C2 120.5(3) . .
C5 C4 C3 121.1(3) . .
C5 C4 H4A 119.5 . .
C3 C4 H4A 119.5 . .
C4 C5 C6 118.7(3) . .
C4 C5 C8 120.5(3) . .
C6 C5 C8 120.9(3) . .
C7 C6 C5 120.1(3) . .
C7 C6 H6A 119.9 . .
C5 C6 H6A 119.9 . .
C6 C7 C2 122.0(3) . .
C6 C7 H7A 119.0 . .
C2 C7 H7A 119.0 . .
C15 C8 C9 120.9(3) . .
C15 C8 C5 121.5(2) . .
C9 C8 C5 117.6(2) . .
C10 C9 C14 117.4(3) . .
C10 C9 C8 122.1(3) . .
C14 C9 C8 120.4(3) . .
C9 C10 C11 121.0(4) . .
C9 C10 H10A 119.5 . .
C11 C10 H10A 119.5 . .
C12 C11 C10 120.2(5) . .
C12 C11 H11A 119.9 . .
C10 C11 H11A 119.9 . .
C13 C12 C11 120.1(4) . .
C13 C12 H12A 120.0 . .
C11 C12 H12A 120.0 . .
C12 C13 C14 120.9(4) . .
C12 C13 H13A 119.6 . .
C14 C13 H13A 119.6 . .
C9 C14 C13 120.3(4) . .
C9 C14 H14A 119.8 . .
C13 C14 H14A 119.8 . .
C8 C15 C15 127.0(3) . 2_465
C8 C15 H15A 116.5 . .
C15 C15 H15A 116.5 2_465 .
C16 N1 C17 121.3(3) . .
C16 N1 C18 119.0(4) . .
C17 N1 C18 119.7(3) . .
O4 C16 N1 122.7(4) . .
O4 C16 H16A 118.6 . .
N1 C16 H16A 118.6 . .
N1 C17 H17A 109.5 . .
N1 C17 H17B 109.5 . .
H17A C17 H17B 109.5 . .
N1 C17 H17C 109.5 . .
H17A C17 H17C 109.5 . .
H17B C17 H17C 109.5 . .
N1 C18 H18A 109.5 . .
N1 C18 H18B 109.5 . .
H18A C18 H18B 109.5 . .
N1 C18 H18C 109.5 . .
H18A C18 H18C 109.5 . .
H18B C18 H18C 109.5 . .
loop_
_geom_bond_atom_site_label_1
_geom_bond_atom_site_label_2
_geom_bond_distance
_geom_bond_site_symmetry_2
O1 C1 1.317(3) .
O1 H1A 0.8975 .
O2 C1 1.224(3) .
O3 C3 1.347(3) .
O3 H3A 0.8200 .
C1 C2 1.455(4) .
C2 C3 1.396(4) .
C2 C7 1.397(4) .
C3 C4 1.386(4) .
C4 C5 1.382(4) .
C4 H4A 0.9300 .
C5 C6 1.397(4) .
C5 C8 1.485(4) .
C6 C7 1.367(4) .
C6 H6A 0.9300 .
C7 H7A 0.9300 .
C8 C15 1.339(4) .
C8 C9 1.484(4) .
C9 C10 1.382(5) .
C9 C14 1.386(5) .
C10 C11 1.390(5) .
C10 H10A 0.9300 .
C11 C12 1.348(7) .
C11 H11A 0.9300 .
C12 C13 1.347(7) .
C12 H12A 0.9300 .
C13 C14 1.391(5) .
C13 H13A 0.9300 .
C14 H14A 0.9300 .
C15 C15 1.436(5) 2_465
C15 H15A 0.9300 .
O4 C16 1.248(4) .
N1 C16 1.322(4) .
N1 C17 1.418(5) .
N1 C18 1.447(5) .
C16 H16A 0.9300 .
C17 H17A 0.9600 .
C17 H17B 0.9600 .
C17 H17C 0.9600 .
C18 H18A 0.9600 .
C18 H18B 0.9600 .
C18 H18C 0.9600 .
