#------------------------------------------------------------------------------
#$Date: 2017-03-04 15:03:10 +0200 (Sat, 04 Mar 2017) $
#$Revision: 193395 $
#$URL: file:///home/coder/svn-repositories/cod/cif/4/51/40/4514022.cif $
#------------------------------------------------------------------------------
#
# This file is available in the Crystallography Open Database (COD),
# http://www.crystallography.net/
#
# All data on this site have been placed in the public domain by the
# contributors.
#
data_4514022
loop_
_publ_author_name
'Gong, Teng'
'Yang, Xiao'
'Fang, Jia-Jia'
'Sui, Qi'
'Xi, Fu-Gui'
'Gao, En-Qing'
_publ_section_title
;
 Distinct Chromic and Magnetic Properties of Metal-Organic Frameworks with
 a Redox Ligand.
;
_journal_issue                   6
_journal_name_full               'ACS applied materials &amp; interfaces'
_journal_page_first              5503
_journal_page_last               5512
_journal_paper_doi               10.1021/acsami.6b15540
_journal_volume                  9
_journal_year                    2017
_chemical_formula_sum            'C28 H18 Co3 N14 O8'
_chemical_formula_weight         855.35
_chemical_name_systematic
;
 ?
;
_space_group_crystal_system      triclinic
_space_group_IT_number           2
_space_group_name_Hall           '-P 1'
_space_group_name_H-M_alt        'P -1'
_symmetry_space_group_name_Hall  '-P 1'
_symmetry_space_group_name_H-M   'P -1'
_atom_sites_solution_hydrogens   geom
_audit_creation_method           SHELXL-2014
_cell_angle_alpha                62.920(3)
_cell_angle_beta                 86.045(3)
_cell_angle_gamma                83.467(3)
_cell_formula_units_Z            1
_cell_length_a                   9.2232(6)
_cell_length_b                   9.4833(6)
_cell_length_c                   9.9839(7)
_cell_measurement_reflns_used    7977
_cell_measurement_temperature    150(2)
_cell_measurement_theta_max      68.202
_cell_measurement_theta_min      4.827
_cell_volume                     772.33(9)
_computing_structure_refinement  'SHELXL-2014 (Sheldrick, 2014)'
_diffrn_ambient_temperature      150(2)
_diffrn_measured_fraction_theta_full 0.915
_diffrn_measured_fraction_theta_max 0.970
_diffrn_measurement_device_type  'CCD area detector'
_diffrn_measurement_method       'phi and omega scans'
_diffrn_radiation_type           CuK\a
_diffrn_radiation_wavelength     1.54178
_diffrn_reflns_av_R_equivalents  0.0556
_diffrn_reflns_av_unetI/netI     0.0365
_diffrn_reflns_Laue_measured_fraction_full 0.915
_diffrn_reflns_Laue_measured_fraction_max 0.970
_diffrn_reflns_limit_h_max       10
_diffrn_reflns_limit_h_min       -10
_diffrn_reflns_limit_k_max       11
_diffrn_reflns_limit_k_min       -11
_diffrn_reflns_limit_l_max       11
_diffrn_reflns_limit_l_min       -11
_diffrn_reflns_number            14033
_diffrn_reflns_point_group_measured_fraction_full 0.915
_diffrn_reflns_point_group_measured_fraction_max 0.970
_diffrn_reflns_theta_full        67.679
_diffrn_reflns_theta_max         64.907
_diffrn_reflns_theta_min         6.809
_exptl_absorpt_coefficient_mu    13.153
_exptl_crystal_colour            red
_exptl_crystal_density_diffrn    1.839
_exptl_crystal_description       block
_exptl_crystal_F_000             429
_refine_diff_density_max         0.697
_refine_diff_density_min         -0.763
_refine_diff_density_rms         0.134
_refine_ls_extinction_method     none
_refine_ls_goodness_of_fit_ref   1.174
_refine_ls_hydrogen_treatment    constr
_refine_ls_matrix_type           full
_refine_ls_number_parameters     217
_refine_ls_number_reflns         2549
_refine_ls_number_restraints     0
_refine_ls_restrained_S_all      1.174
_refine_ls_R_factor_all          0.1170
_refine_ls_R_factor_gt           0.1085
_refine_ls_shift/su_max          0.000
_refine_ls_shift/su_mean         0.000
_refine_ls_structure_factor_coef Fsqd
_refine_ls_weighting_details
'w=1/[\s^2^(Fo^2^)+(0.0930P)^2^+2.0824P] where P=(Fo^2^+2Fc^2^)/3'
_refine_ls_weighting_scheme      calc
_refine_ls_wR_factor_gt          0.2544
_refine_ls_wR_factor_ref         0.2599
_reflns_Friedel_coverage         0.000
_reflns_number_gt                2084
_reflns_number_total             2549
_reflns_threshold_expression     'I > 2\s(I)'
_cod_data_source_file            am6b15540_si_002.cif
_cod_data_source_block           compound_1
_cod_depositor_comments          'Adding full bibliography for 4514022.cif.'
_cod_database_code               4514022
_shelx_space_group_comment
;
The symmetry employed for this shelxl refinement is uniquely defined
by the following loop, which should always be used as a source of
symmetry information in preference to the above space-group names.
They are only intended as comments.
;
_shelxl_version_number           2014-3
_shelx_res_file
;
TITL 1 in P1                     New: P-1
CELL  1.54178    9.2232    9.4833    9.9839    62.920    86.045    83.467
ZERR        1    0.0006    0.0006    0.0007     0.003     0.003     0.003
LATT 1
SFAC C  Co N  O H
UNIT 28 3 14 8  18
TEMP -123.140
L.S. 14
ACTA
BOND $H
FMAP 2
omit -3 130
OMIT      0   1   0
OMIT      0   0   1
OMIT      0   1   1
omit     1   1   1
omit    -1   0   1
omit     1   0   1
omit     1   0   0
omit     0  -1   1
omit    -1   1   0
omit     2   0   0
omit     0   0   2
omit     0   2   1
omit     1  -1   1
omit     1   1   2
omit     1   0   2
omit     2   0   1
omit     2   1   0
omit     0   1   2
omit    -1   1   2
omit     0  -1   2
omit    -1   0   2
omit    -1   2   0
omit    -1   2   2
omit     2   0   2
omit    -2   1   0
omit     1  -1   2
omit     0   2   0
omit     2   1   1
omit     0   2   2
omit     1   2   1
omit     0   2   3
omit     2   2   2
omit     2  -1   1
omit     2   2   1
omit     0   3   1
omit    -2   2   0
omit    -2   1   1
omit    -1  -2   1
omit     0   3   2
omit     3   0   1
omit     1   2   0
omit    -3  -1   1
omit     1   0   3
omit     1   1   3
omit    -2   2   1
omit    -1   2   1

rem ISOR 0.01 C14 N2
PLAN 20
CONF
WGHT    0.093000    2.082399
FVAR       0.10794
CO1   2    0.166612    0.001800    0.508535    11.00000    0.07982    0.07404 =
         0.09238   -0.04247    0.00438   -0.01483
CO2   2    0.500000    0.000000    0.500000    10.50000    0.08331    0.08369 =
         0.09783   -0.05343    0.00260   -0.01963
C1    1    0.270335    0.271371    0.415235    11.00000    0.09447    0.08300 =
         0.09362   -0.04407   -0.00635   -0.01412
AFIX  66
C2    1    0.344564    0.424167    0.351096    11.00000    0.08692    0.07368 =
         0.09350   -0.04483   -0.00517   -0.01244
C3    1    0.302852    0.541824    0.396224    11.00000    0.07693    0.08212 =
         0.08574   -0.04567   -0.00038   -0.01026
AFIX  43
H3A   5    0.219719    0.532703    0.460375    11.00000   -1.20000
AFIX  65
C4    1    0.382775    0.672826    0.347491    11.00000    0.07744    0.07193 =
         0.08330   -0.03922   -0.00467   -0.00970
C5    1    0.504411    0.686172    0.253629    11.00000    0.08820    0.07134 =
         0.08865   -0.03942   -0.00199   -0.01821
AFIX  43
H5A   5    0.559034    0.775707    0.220322    11.00000   -1.20000
AFIX  65
C6    1    0.546124    0.568517    0.208500    11.00000    0.08352    0.09081 =
         0.09080   -0.04897   -0.00237   -0.01499
C7    1    0.466202    0.437514    0.257232    11.00000    0.08653    0.07789 =
         0.09401   -0.04943    0.00209   -0.01455
AFIX  43
H7A   5    0.494711    0.357101    0.226388    11.00000   -1.20000
AFIX   0
C8    1    0.674445    0.578100    0.098759    11.00000    0.10269    0.10384 =
         0.13262   -0.07598    0.01881   -0.03169
AFIX  23
H8A   5    0.734657    0.474658    0.139074    11.00000   -1.20000
H8B   5    0.635701    0.597801    0.001109    11.00000   -1.20000
AFIX  66
N7    3    0.765964    0.702902    0.074362    11.00000    0.08909    0.10522 =
         0.10420   -0.06135    0.01474   -0.02481
C9    1    0.865095    0.682438    0.181919    11.00000    0.13522    0.10998 =
         0.10146   -0.02916    0.00395   -0.03816
AFIX  43
H9A   5    0.870297    0.588057    0.274655    11.00000   -1.20000
AFIX  65
C10   1    0.956614    0.800068    0.153790    11.00000    0.11753    0.12185 =
         0.10311   -0.03439   -0.01630   -0.04717
AFIX  43
H10A  5    1.024366    0.786081    0.227301    11.00000   -1.20000
AFIX  65
C11   1    0.949003    0.938162    0.018103    11.00000    0.07990    0.09336 =
         0.08488   -0.04837    0.00593   -0.01496
C12   1    0.849872    0.958628   -0.089456    11.00000    0.10194    0.09104 =
         0.09742   -0.04263   -0.00446   -0.02170
AFIX  43
H12A  5    0.844671    1.053010   -0.182192    11.00000   -1.20000
AFIX  65
C13   1    0.758352    0.841000   -0.061329    11.00000    0.10463    0.12059 =
         0.10971   -0.06571   -0.00428   -0.02229
AFIX  43
H13A  5    0.690601    0.854988   -0.134840    11.00000   -1.20000
AFIX   0
C14   1    0.350522    0.795422    0.405010    11.00000    0.07588    0.06897 =
         0.08073   -0.03439   -0.00753   -0.00789
N1    3    0.334471   -0.094723    0.667241    11.00000    0.07949    0.08906 =
         0.09269   -0.04601    0.00231   -0.01888
N2    3    0.342392   -0.106842    0.788614    11.00000    0.10799    0.10829 =
         0.08514   -0.04720   -0.00444   -0.00287
N3    3    0.355624   -0.122397    0.903501    11.00000    0.14296    0.21517 =
         0.09860   -0.07662   -0.01160    0.00183
N4    3   -0.002781   -0.103373    0.654765    11.00000    0.07037    0.08790 =
         0.09121   -0.03425    0.00291   -0.01106
N5    3    0.002562   -0.241926    0.743472    11.00000    0.09441    0.08864 =
         0.10089   -0.02014    0.00560   -0.00717
N6    3    0.002704   -0.367864    0.828832    11.00000    0.13700    0.09609 =
         0.12658   -0.00653    0.00517    0.00048
O1    4    0.320575    0.166618    0.372570    11.00000    0.08748    0.07220 =
         0.09826   -0.04470    0.00413   -0.02088
O2    4    0.164768    0.249895    0.504177    11.00000    0.10963    0.08684 =
         0.10847   -0.05203    0.01471   -0.02682
O3    4    0.224630    0.818666    0.447646    11.00000    0.08044    0.08227 =
         0.10789   -0.05800   -0.00099   -0.00900
O4    4    0.457549    0.866906    0.399964    11.00000    0.08862    0.08813 =
         0.10236   -0.05909    0.00456   -0.02389

HKLF 4

REM  1 in P1                     New: P-1
REM R1 =  0.1085 for    2084 Fo > 4sig(Fo)  and  0.1170 for all    2549 data
REM    217 parameters refined using      0 restraints

END

WGHT      0.1904      0.7306

REM Highest difference peak  0.697,  deepest hole -0.763,  1-sigma level  0.134
Q1    1   0.4179  0.0774  0.4493  11.00000  0.05    0.70
Q2    1   0.0913  0.0725  0.4343  11.00000  0.05    0.68
Q3    1   0.4837 -0.0973  0.4975  11.00000  0.05    0.61
Q4    1   0.1962  0.8957  0.4908  11.00000  0.05    0.56
Q5    1   0.0856 -0.0122  0.5824  11.00000  0.05    0.55
Q6    1   0.4130 -0.0202  0.5609  11.00000  0.05    0.49
Q7    1   0.2266 -0.0652  0.6018  11.00000  0.05    0.46
Q8    1   0.1790  0.0950  0.5134  11.00000  0.05    0.46
Q9    1   0.4631 -0.0752  0.5977  11.00000  0.05    0.45
Q10   1   0.8335  0.7157  0.1463  11.00000  0.05    0.42
Q11   1   0.0653  0.2075  0.5608  11.00000  0.05    0.38
Q12   1   0.7079  0.5186  0.0398  11.00000  0.05    0.37
Q13   1   0.3185  0.2576  0.2984  11.00000  0.05    0.36
Q14   1   0.0387 -0.1699  0.7521  11.00000  0.05    0.36
Q15   1   0.2952 -0.0253  0.8164  11.00000  0.05    0.33
Q16   1   0.8414  0.9207 -0.0599  11.00000  0.05    0.33
Q17   1  -0.0435 -0.3340  0.8033  11.00000  0.05    0.29
Q18   1  -0.0442 -0.4073  0.8531  11.00000  0.05    0.29
Q19   1   0.7677  1.0022 -0.1802  11.00000  0.05    0.27
Q20   1   0.0391 -0.2949  0.8648  11.00000  0.05    0.27
;
_shelx_res_checksum              31504
_shelx_hkl_file
;
  -1   0   0   36.04    2.53
   1   0   0   38.12    2.59
   1   0   0   35.37    2.53
  -2   0   0    3.15    0.26
  -2   0   0    2.87    0.26
   2   0   0    2.78    0.27
   2   0   0    3.60    0.31
   2   0   0    3.19    0.27
  -3   0   0    2.80    0.22
  -3   0   0    2.71    0.22
   3   0   0    2.12    0.22
   3   0   0    2.64    0.22
   3   0   0    2.73    0.25
   4   0   0    4.83    0.39
   4   0   0    5.88    0.39
  -5   0   0    0.11    0.05
  -5   0   0    0.06    0.04
   5   0   0    0.03    0.04
  -6   0   0   17.84    1.31
  -6   0   0   18.44    1.30
  -6   0   0   17.87    1.30
  -6   0   0   19.26    1.30
   6   0   0   18.11    1.30
   6   0   0   19.70    1.29
   6   0   0   20.53    1.31
  -7   0   0    0.04    0.03
  -7   0   0    0.05    0.03
  -7   0   0    0.03    0.04
   7   0   0    0.04    0.03
   7   0   0    0.03    0.05
   7   0   0    0.05    0.03
   7   0   0    0.09    0.05
  -8   0   0   -0.01    0.02
  -8   0   0    0.02    0.03
  -8   0   0    0.00    0.03
   8   0   0    0.04    0.02
   8   0   0    0.04    0.03
  -9   0   0    0.04    0.03
  -9   0   0    0.08    0.02
   9   0   0    0.13    0.03
   9   0   0    0.05    0.03
   9   0   0    0.11    0.02
 -10   0   0    0.05    0.02
 -10   0   0    0.06    0.01
  10   0   0    0.09    0.01
  10   0   0    0.08    0.02
 -11   0   0    0.00    0.01
 -11   0   0    0.00    0.01
  10  -1   0    0.01    0.01
  10  -1   0    0.02    0.02
 -10   1   0    0.01    0.02
 -10   1   0    0.01    0.01
   9  -1   0    0.37    0.04
   9  -1   0    0.21    0.03
  -9   1   0    0.27    0.05
  -9   1   0    0.32    0.04
   8  -1   0    0.14    0.02
   8  -1   0    0.13    0.04
   8  -1   0    0.15    0.03
  -8   1   0    0.07    0.03
  -8   1   0    0.16    0.03
   7  -1   0    0.02    0.03
   7  -1   0   -0.02    0.02
  -7   1   0   -0.01    0.02
  -7   1   0   -0.03    0.04
   6  -1   0    2.64    0.20
   6  -1   0    2.60    0.20
  -6   1   0    2.57    0.20
  -6   1   0    2.68    0.19
  -6   1   0    2.86    0.22
  -6   1   0    2.42    0.21
   5  -1   0    1.32    0.14
  -5   1   0    1.45    0.13
  -5   1   0    1.66    0.15
   4  -1   0    0.34    0.07
   3  -1   0   32.13    2.22
   2  -1   0   40.30    2.79
  -2   1   0   39.72    2.78
   1  -1   0  189.91   12.46
   1  -1   0  189.09   12.39
   1  -1   0  183.29   12.41
  -1   1   0  185.69   12.44
  -1   1   0  172.07   12.45
  -1   1   0  159.93   12.39
   0  -1   0  684.25   51.03
   0  -1   0  794.04   51.06
   0  -1   0  679.57   51.34
   0   1   0  746.32   51.15
   0   1   0  801.52   51.15
   0   1   0  745.68   51.04
  -1  -1   0   -0.05    0.18
  -1  -1   0   -0.05    0.14
  -1  -1   0    0.09    0.12
  -1  -1   0   -0.02    0.14
  -1  -1   0   -0.01    0.13
   1   1   0   -0.18    0.18
   1   1   0   -0.15    0.18
   1   1   0   -0.17    0.15
   1   1   0   -0.12    0.13
   1   1   0    0.08    0.17
   1   1   0   -0.03    0.16
   1   1   0    0.01    0.16
  -2  -1   0   87.54    5.94
  -2  -1   0   79.30    5.89
  -2  -1   0   83.15    5.90
   2   1   0   96.92    5.91
   2   1   0   74.01    5.89
   2   1   0   83.17    5.89
   2   1   0   93.72    5.90
  -3  -1   0   15.44    1.11
  -3  -1   0   15.25    1.13
  -3  -1   0   15.74    1.10
   3   1   0   16.84    1.12
   3   1   0   14.15    1.11
   3   1   0   16.60    1.11
   3   1   0   17.41    1.11
   3   1   0   15.29    1.11
  -4  -1   0    0.37    0.07
  -4  -1   0    0.55    0.11
   4   1   0    0.48    0.08
   4   1   0    0.68    0.11
  -5  -1   0   -0.01    0.06
  -5  -1   0   -0.05    0.06
  -5  -1   0    0.09    0.05
   5   1   0    0.05    0.06
   5   1   0    0.09    0.04
   5   1   0    0.02    0.05
   5   1   0    0.07    0.06
   5   1   0    0.07    0.07
   5   1   0   -0.03    0.06
  -6  -1   0   10.02    0.68
  -6  -1   0    8.76    0.69
  -6  -1   0    9.67    0.69
   6   1   0   10.83    0.70
   6   1   0   10.26    0.69
   6   1   0   10.51    0.69
   6   1   0    9.12    0.69
  -7  -1   0    0.14    0.04
  -7  -1   0    0.23    0.03
  -7  -1   0    0.18    0.03
   7   1   0    0.22    0.04
   7   1   0    0.23    0.03
   7   1   0    0.18    0.06
   7   1   0    0.15    0.05
  -8  -1   0    0.15    0.04
  -8  -1   0    0.17    0.03
   8   1   0    0.24    0.05
   8   1   0    0.22    0.03
   8   1   0    0.16    0.06
   8   1   0    0.22    0.04
  -9  -1   0    0.42    0.05
  -9  -1   0    0.40    0.06
   9   1   0    0.46    0.04
   9   1   0    0.51    0.06
   9   1   0    0.40    0.07
 -10  -1   0    0.01    0.01
 -10  -1   0    0.02    0.02
  10   1   0    0.01    0.02
  10   1   0    0.03    0.01
 -11  -1   0    0.00    0.01
 -11  -1   0    0.00    0.01
  11   1   0    0.00    0.01
 -10   2   0    0.03    0.02
   9  -2   0    0.61    0.05
   9  -2   0    0.71    0.07
  -9   2   0    0.78    0.06
  -9   2   0    0.80    0.07
   8  -2   0    0.11    0.03
   8  -2   0    0.14    0.02
   8  -2   0    0.15    0.03
  -8   2   0    0.11    0.03
  -8   2   0    0.08    0.02
  -8   2   0    0.20    0.04
   7  -2   0    0.07    0.03
   7  -2   0    0.06    0.04
  -7   2   0    0.02    0.04
  -7   2   0    0.02    0.02
  -7   2   0    0.06    0.03
  -7   2   0    0.00    0.04
   6  -2   0    4.30    0.30
   6  -2   0    4.11    0.30
  -6   2   0    4.33    0.30
  -6   2   0    4.30    0.31
  -6   2   0    4.60    0.31
  -6   2   0    3.61    0.30
   5  -2   0    0.38    0.05
  -5   2   0    0.39    0.05
  -5   2   0    0.33    0.07
  -5   2   0    0.43    0.08
   4  -2   0    0.05    0.08
   3  -2   0   22.72    1.68
   3  -2   0   25.31    1.66
   2  -2   0   36.55    2.66
   2  -2   0   41.09    2.65
   2  -2   0   37.24    2.63
   2  -2   0   38.09    2.64
  -2   2   0   37.23    2.64
  -2   2   0   39.08    2.65
   1  -2   0   75.43    5.00
   1  -2   0   69.95    4.97
   1  -2   0   72.29    4.99
  -1   2   0   70.33    5.00
  -1   2   0   72.76    4.96
   0  -2   0   21.63    1.50
   0  -2   0   19.90    1.50
   0  -2   0   21.93    1.50
   0  -2   0   19.83    1.49
   0  -2   0   20.81    1.49
   0   2   0   22.67    1.52
   0   2   0   21.42    1.49
   0   2   0   21.50    1.50
   0   2   0   22.53    1.51
  -1  -2   0    8.47    0.64
  -1  -2   0    7.52    0.63
  -1  -2   0    8.87    0.62
  -1  -2   0    8.21    0.64
  -1  -2   0    7.57    0.63
   1   2   0    9.77    0.65
   1   2   0    8.46    0.63
   1   2   0    9.93    0.66
   1   2   0    7.90    0.65
   1   2   0    8.95    0.67
   1   2   0    9.30    0.66
   1   2   0    9.24    0.65
   1   2   0    8.36    0.64
  -2  -2   0    7.48    0.58
  -2  -2   0    7.91    0.59
  -2  -2   0    7.85    0.59
   2   2   0    9.44    0.60
   2   2   0    7.26    0.59
   2   2   0    7.92    0.59
   2   2   0    7.93    0.59
   2   2   0    8.58    0.60
   2   2   0    8.50    0.60
  -3  -2   0   20.81    1.41
  -3  -2   0   20.08    1.39
   3   2   0   20.26    1.40
   3   2   0   21.12    1.40
   3   2   0   21.06    1.40
   3   2   0   17.39    1.39
   3   2   0   17.39    1.39
   3   2   0   22.22    1.41
  -4  -2   0    8.45    0.57
  -4  -2   0    7.92    0.58
   4   2   0    8.48    0.57
   4   2   0    8.71    0.58
   4   2   0    8.36    0.58
   4   2   0    7.40    0.58
   4   2   0    7.41    0.58
  -5  -2   0    2.02    0.18
  -5  -2   0    1.89    0.16
  -5  -2   0    2.36    0.19
   5   2   0    2.37    0.18
   5   2   0    2.04    0.19
   5   2   0    2.49    0.17
   5   2   0    2.38    0.19
   5   2   0    1.75    0.20
   5   2   0    2.13    0.19
  -6  -2   0    3.28    0.24
  -6  -2   0    2.95    0.23
   6   2   0    3.48    0.23
   6   2   0    3.47    0.24
   6   2   0    3.11    0.25
   6   2   0    3.04    0.24
  -7  -2   0    0.38    0.05
  -7  -2   0    0.29    0.06
  -7  -2   0    0.44    0.04
   7   2   0    0.42    0.06
   7   2   0    0.42    0.06
   7   2   0    0.35    0.06
  -8  -2   0    2.52    0.16
  -8  -2   0    2.31    0.17
  -8  -2   0    1.97    0.16
   8   2   0    1.98    0.17
   8   2   0    2.13    0.18
   8   2   0    2.33    0.16
   8   2   0    2.34    0.17
  -9  -2   0    0.13    0.02
  -9  -2   0    0.10    0.03
   9   2   0    0.18    0.02
   9   2   0    0.20    0.04
 -10  -2   0   -0.01    0.01
 -10  -2   0   -0.01    0.02
  10   2   0    0.01    0.02
  10   2   0    0.01    0.01
 -11  -2   0    0.00    0.01
  11   2   0    0.00    0.01
 -10   3   0    0.10    0.02
   9  -3   0    0.58    0.06
  -9   3   0    0.75    0.06
   8  -3   0    0.01    0.02
   8  -3   0    0.05    0.02
  -8   3   0    0.05    0.03
  -8   3   0    0.01    0.03
  -8   3   0    0.01    0.02
   7  -3   0    0.11    0.02
   7  -3   0    0.10    0.03
   7  -3   0    0.06    0.03
  -7   3   0    0.07    0.04
  -7   3   0    0.10    0.04
  -7   3   0    0.04    0.02
   6  -3   0    1.67    0.14
   6  -3   0    1.68    0.13
  -6   3   0    1.90    0.15
  -6   3   0    1.45    0.14
  -6   3   0    1.87    0.15
  -6   3   0    1.74    0.13
   5  -3   0    0.24    0.04
   5  -3   0    0.29    0.05
  -5   3   0    0.37    0.07
  -5   3   0    0.35    0.07
  -5   3   0    0.33    0.04
  -5   3   0    0.37    0.06
   4  -3   0    0.40    0.06
   4  -3   0    0.43    0.05
  -4   3   0    0.44    0.08
  -4   3   0    0.58    0.08
  -4   3   0    0.41    0.08
  -4   3   0    0.45    0.06
   3  -3   0   15.83    1.14
   3  -3   0   18.11    1.12
   3  -3   0   14.52    1.12
   2  -3   0    2.55    0.23
   2  -3   0    2.72    0.20
   2  -3   0    2.65    0.21
   2  -3   0    2.23    0.19
   2  -3   0    2.87    0.21
  -2   3   0    2.72    0.22
   1  -3   0    0.24    0.08
   1  -3   0    0.26    0.05
   1  -3   0    0.27    0.07
   1  -3   0    0.21    0.04
   1  -3   0    0.25    0.08
   1  -3   0    0.22    0.06
  -1   3   0    0.26    0.07
  -1   3   0    0.32    0.10
  -1   3   0    0.11    0.07
   0  -3   0    6.97    0.58
   0  -3   0    8.35    0.59
   0  -3   0    8.78    0.60
   0  -3   0    7.83    0.59
   0  -3   0    7.75    0.58
   0  -3   0    7.82    0.58
   0   3   0    9.25    0.61
   0   3   0    9.30    0.59
   0   3   0    8.22    0.60
  -1  -3   0   20.76    1.48
  -1  -3   0   21.99    1.50
  -1  -3   0   19.09    1.49
  -1  -3   0   20.47    1.49
  -1  -3   0   21.12    1.50
  -1  -3   0   19.98    1.49
   1   3   0   22.64    1.50
   1   3   0   21.88    1.49
   1   3   0   22.57    1.50
   1   3   0   20.78    1.50
   1   3   0   23.43    1.50
   1   3   0   23.34    1.50
   1   3   0   20.99    1.49
  -2  -3   0    4.50    0.34
  -2  -3   0    3.89    0.35
  -2  -3   0    4.05    0.41
  -2  -3   0    4.67    0.35
   2   3   0    5.10    0.35
   2   3   0    5.11    0.35
   2   3   0    4.50    0.33
   2   3   0    4.27    0.35
   2   3   0    4.95    0.35
   2   3   0    4.73    0.35
   2   3   0    4.34    0.35
  -3  -3   0   77.56    5.69
  -3  -3   0   84.34    5.68
  -3  -3   0   77.73    5.68
  -3  -3   0   82.67    5.67
   3   3   0   81.66    5.69
   3   3   0   84.76    5.67
   3   3   0   85.35    5.67
   3   3   0   89.19    5.68
   3   3   0   74.80    5.69
   3   3   0   83.17    5.66
   3   3   0   83.58    5.68
  -4  -3   0    0.71    0.14
  -4  -3   0    1.17    0.21
   4   3   0    0.62    0.10
   4   3   0    0.76    0.12
   4   3   0    0.85    0.13
   4   3   0    0.59    0.11
   4   3   0    0.87    0.13
   4   3   0    0.72    0.09
  -5  -3   0    0.02    0.02
   5   3   0    0.02    0.04
   5   3   0    0.00    0.06
   5   3   0    0.02    0.05
   5   3   0    0.20    0.10
   5   3   0    0.02    0.07
  -6  -3   0    2.38    0.17
  -6  -3   0    2.33    0.18
  -6  -3   0    2.46    0.18
   6   3   0    2.20    0.20
   6   3   0    2.18    0.19
   6   3   0    2.63    0.18
   6   3   0    2.48    0.18
   6   3   0    2.58    0.19
  -7  -3   0   -0.05    0.03
  -7  -3   0    0.02    0.02
  -7  -3   0    0.00    0.02
   7   3   0   -0.04    0.04
   7   3   0    0.00    0.04
   7   3   0    0.01    0.03
   7   3   0    0.05    0.05
   7   3   0    0.01    0.05
  -8  -3   0    0.52    0.06
  -8  -3   0    0.53    0.04
   8   3   0    0.46    0.07
   8   3   0    0.41    0.06
   8   3   0    0.48    0.05
   8   3   0    0.46    0.08
  -9  -3   0    2.15    0.15
  -9  -3   0    2.06    0.15
  -9  -3   0    2.28    0.15
   9   3   0    2.15    0.16
   9   3   0    1.98    0.15
 -10  -3   0    0.01    0.02
 -10  -3   0    0.01    0.01
  10   3   0    0.01    0.02
  10   3   0    0.01    0.01
  -9   4   0    0.34    0.04
   8  -4   0    0.02    0.01
  -8   4   0    0.03    0.03
  -8   4   0    0.04    0.02
   7  -4   0    0.04    0.04
  -7   4   0    0.07    0.04
  -7   4   0   -0.01    0.03
   6  -4   0    0.77    0.07
   6  -4   0    0.84    0.07
  -6   4   0    0.86    0.09
  -6   4   0    0.92    0.08
  -6   4   0    0.84    0.08
   5  -4   0    0.16    0.03
   5  -4   0    0.20    0.02
   5  -4   0    0.19    0.03
  -5   4   0    0.11    0.04
  -5   4   0    0.13    0.03
  -5   4   0    0.15    0.05
   4  -4   0    0.14    0.03
   4  -4   0    0.18    0.03
   4  -4   0    0.15    0.04
  -4   4   0    0.17    0.03
  -4   4   0    0.16    0.06
  -4   4   0    0.23    0.06
  -4   4   0    0.25    0.03
   3  -4   0   19.81    1.43
   3  -4   0   19.53    1.43
   3  -4   0   20.04    1.43
   3  -4   0   19.20    1.43
  -3   4   0   21.61    1.43
  -3   4   0   22.91    1.44
  -3   4   0   20.54    1.43
  -3   4   0   21.98    1.43
   2  -4   0    1.73    0.18
   2  -4   0    1.70    0.13
   2  -4   0    1.69    0.12
   2  -4   0    1.51    0.15
   2  -4   0    1.48    0.15
   2  -4   0    1.65    0.13
   2  -4   0    1.64    0.14
  -2   4   0    1.62    0.15
   1  -4   0    4.27    0.29
   1  -4   0    4.13    0.29
   1  -4   0    3.85    0.30
   1  -4   0    3.92    0.29
   1  -4   0    3.62    0.28
   1  -4   0    3.81    0.30
   1  -4   0    4.03    0.31
  -1   4   0    4.13    0.30
  -1   4   0    3.74    0.30
  -1   4   0    4.48    0.31
   0  -4   0    6.12    0.48
   0  -4   0    7.08    0.50
   0  -4   0    6.67    0.48
   0  -4   0    6.88    0.49
   0  -4   0    6.97    0.50
   0  -4   0    6.97    0.48
   0  -4   0    6.10    0.48
   0   4   0    7.72    0.50
   0   4   0    7.59    0.50
   0   4   0    6.78    0.50
  -1  -4   0    2.95    0.23
  -1  -4   0    3.20    0.26
  -1  -4   0    3.11    0.25
  -1  -4   0    3.40    0.24
  -1  -4   0    3.34    0.26
  -1  -4   0    3.34    0.24
  -1  -4   0    3.19    0.24
   1   4   0    3.81    0.27
   1   4   0    3.75    0.25
   1   4   0    3.37    0.27
   1   4   0    2.73    0.25
  -2  -4   0   21.95    1.52
  -2  -4   0   19.51    1.51
  -2  -4   0   19.86    1.51
  -2  -4   0   22.57    1.52
  -2  -4   0   21.04    1.52
  -2  -4   0   23.39    1.51
   2   4   0   23.54    1.52
   2   4   0   24.85    1.52
   2   4   0   23.29    1.51
   2   4   0   19.30    1.51
   2   4   0   22.43    1.52
   2   4   0   20.47    1.52
  -3  -4   0   14.01    0.95
  -3  -4   0   14.87    0.95
  -3  -4   0   12.85    0.94
  -3  -4   0   12.44    0.96
  -3  -4   0   13.31    0.95
   3   4   0   13.79    0.95
   3   4   0   13.85    0.94
   3   4   0   14.04    0.95
   3   4   0   13.23    0.96
   3   4   0   13.45    0.95
   3   4   0   13.31    0.95
   3   4   0   14.11    0.95
  -4  -4   0    1.04    0.14
  -4  -4   0    0.82    0.07
  -4  -4   0    0.71    0.15
   4   4   0    0.88    0.11
   4   4   0    1.09    0.19
   4   4   0    0.78    0.12
   4   4   0    0.82    0.09
   4   4   0    0.97    0.09
   4   4   0    0.94    0.13
  -5  -4   0    0.06    0.02
   5   4   0    0.11    0.07
   5   4   0    0.02    0.05
   5   4   0    0.07    0.04
   5   4   0    0.13    0.06
   5   4   0    0.12    0.03
  -6  -4   0    1.34    0.11
  -6  -4   0    1.42    0.10
   6   4   0    1.08    0.13
   6   4   0    1.52    0.11
   6   4   0    1.25    0.13
   6   4   0    1.52    0.11
  -7  -4   0    0.71    0.08
  -7  -4   0    0.56    0.06
   7   4   0    0.60    0.07
   7   4   0    0.65    0.08
   7   4   0    0.65    0.10
   7   4   0    0.66    0.06
   7   4   0    0.65    0.06
  -8  -4   0    0.12    0.02
  -8  -4   0    0.07    0.02
  -8  -4   0    0.09    0.03
   8   4   0    0.10    0.05
   8   4   0    0.11    0.02
   8   4   0    0.09    0.03
   8   4   0    0.06    0.04
  -9  -4   0    1.52    0.11
  -9  -4   0    1.62    0.11
  -9  -4   0    1.55    0.11
   9   4   0    1.59    0.12
   9   4   0    1.40    0.11
 -10  -4   0    0.01    0.01
  10   4   0    0.00    0.02
   7  -5   0    0.02    0.02
   7  -5   0    0.01    0.01
  -7   5   0   -0.03    0.03
   6  -5   0    0.69    0.06
   6  -5   0    0.68    0.06
  -6   5   0    0.69    0.08
   5  -5   0    0.10    0.02
   5  -5   0    0.04    0.04
   5  -5   0    0.10    0.04
   5  -5   0    0.13    0.03
  -5   5   0    0.12    0.04
  -5   5   0    0.08    0.04
   4  -5   0    0.67    0.07
   4  -5   0    0.59    0.08
   4  -5   0    0.62    0.05
   4  -5   0    0.61    0.06
  -4   5   0    0.55    0.06
  -4   5   0    0.67    0.09
  -4   5   0    0.76    0.08
   3  -5   0    1.03    0.10
   3  -5   0    1.03    0.08
   3  -5   0    1.12    0.09
   3  -5   0    0.92    0.10
  -3   5   0    1.09    0.12
  -3   5   0    1.23    0.12
  -3   5   0    1.16    0.11
  -3   5   0    1.00    0.08
   2  -5   0    0.01    0.02
   2  -5   0   -0.01    0.03
   2  -5   0    0.01    0.04
   2  -5   0    0.01    0.03
  -2   5   0    0.02    0.04
  -2   5   0    0.04    0.03
  -2   5   0   -0.06    0.05
   1  -5   0    1.29    0.11
   1  -5   0    1.15    0.17
   1  -5   0    1.39    0.15
   1  -5   0    1.25    0.12
   1  -5   0    1.50    0.10
   1  -5   0    1.49    0.11
  -1   5   0    1.53    0.11
  -1   5   0    1.36    0.16
  -1   5   0    1.32    0.13
  -1   5   0    1.41    0.14
   0  -5   0    5.25    0.39
   0  -5   0    5.57    0.41
   0  -5   0    5.57    0.39
   0  -5   0    5.32    0.39
   0  -5   0    5.96    0.40
   0  -5   0    5.72    0.40
   0  -5   0    5.54    0.41
   0  -5   0    5.28    0.41
   0   5   0    5.58    0.41
   0   5   0    5.82    0.39
   0   5   0    5.80    0.41
   0   5   0    5.14    0.40
   0   5   0    6.11    0.40
  -1  -5   0    0.35    0.05
  -1  -5   0    0.36    0.08
  -1  -5   0    0.35    0.09
  -1  -5   0    0.39    0.07
  -1  -5   0    0.35    0.05
  -1  -5   0    0.40    0.05
  -1  -5   0    0.34    0.06
   1   5   0    0.44    0.06
   1   5   0    0.35    0.08
   1   5   0    0.24    0.06
   1   5   0    0.37    0.05
  -2  -5   0    0.17    0.04
  -2  -5   0    0.27    0.05
  -2  -5   0    0.19    0.03
  -2  -5   0    0.28    0.08
  -2  -5   0    0.12    0.06
   2   5   0    0.24    0.06
   2   5   0    0.17    0.06
   2   5   0    0.13    0.05
   2   5   0    0.23    0.04
   2   5   0    0.24    0.05
   2   5   0    0.16    0.03
   2   5   0    0.18    0.07
   2   5   0    0.06    0.09
  -3  -5   0   10.75    0.72
  -3  -5   0   10.78    0.74
  -3  -5   0   10.73    0.72
  -3  -5   0   11.06    0.73
   3   5   0   10.75    0.72
   3   5   0   10.50    0.72
   3   5   0   10.20    0.72
   3   5   0    9.46    0.73
   3   5   0    9.70    0.73
   3   5   0   10.08    0.73
  -4  -5   0    1.12    0.09
  -4  -5   0    1.60    0.16
   4   5   0    1.23    0.13
   4   5   0    1.27    0.12
   4   5   0    1.37    0.11
   4   5   0    1.36    0.10
   4   5   0    1.24    0.10
   4   5   0    1.00    0.13
  -5  -5   0    0.03    0.02
   5   5   0    0.03    0.04
   5   5   0   -0.01    0.03
   5   5   0    0.08    0.06
   5   5   0    0.02    0.03
   5   5   0   -0.02    0.05
   5   5   0    0.01    0.05
  -6  -5   0    1.94    0.13
  -6  -5   0    1.62    0.13
   6   5   0    1.50    0.16
   6   5   0    1.91    0.13
   6   5   0    1.67    0.15
   6   5   0    1.92    0.13
   6   5   0    1.89    0.15
  -7  -5   0    0.23    0.04
   7   5   0    0.32    0.06
   7   5   0    0.31    0.05
   7   5   0    0.20    0.06
   7   5   0    0.26    0.04
   7   5   0    0.26    0.03
  -8  -5   0    0.06    0.02
  -8  -5   0    0.07    0.02
   8   5   0    0.07    0.03
   8   5   0    0.07    0.02
   8   5   0    0.00    0.04
   8   5   0    0.08    0.02
  -9  -5   0    0.76    0.05
  -9  -5   0    0.70    0.05
   9   5   0    0.64    0.06
   9   5   0    0.60    0.05
  10   5   0    0.01    0.01
   5  -6   0    0.02    0.02
   5  -6   0    0.01    0.01
   5  -6   0    0.00    0.03
  -5   6   0    0.02    0.03
   4  -6   0    0.03    0.03
  -4   6   0    0.03    0.04
   3  -6   0    1.62    0.11
   3  -6   0    1.78    0.12
   3  -6   0    1.35    0.13
   3  -6   0    1.40    0.12
  -3   6   0    1.53    0.11
  -3   6   0    1.59    0.13
  -3   6   0    1.53    0.13
   2  -6   0    0.18    0.04
   2  -6   0    0.18    0.04
   2  -6   0    0.11    0.04
   2  -6   0    0.24    0.04
  -2   6   0    0.20    0.03
  -2   6   0    0.16    0.04
  -2   6   0    0.15    0.04
   1  -6   0    0.08    0.04
   1  -6   0    0.07    0.03
   1  -6   0    0.11    0.03
   1  -6   0    0.08    0.02
   1  -6   0    0.14    0.05
  -1   6   0    0.13    0.03
  -1   6   0    0.01    0.03
  -1   6   0    0.10    0.05
  -1   6   0    0.06    0.05
   0  -6   0    2.19    0.17
   0  -6   0    2.05    0.15
   0  -6   0    2.07    0.16
   0  -6   0    2.05    0.14
   0  -6   0    1.85    0.15
   0   6   0    1.85    0.16
   0   6   0    1.98    0.15
   0   6   0    1.99    0.15
   0   6   0    2.07    0.15
  -1  -6   0   -0.01    0.05
  -1  -6   0   -0.01    0.04
  -1  -6   0    0.00    0.02
  -1  -6   0    0.06    0.02
  -1  -6   0    0.06    0.03
   1   6   0    0.04    0.03
   1   6   0    0.07    0.03
  -2  -6   0    0.41    0.07
  -2  -6   0    0.49    0.07
  -2  -6   0    0.26    0.04
  -2  -6   0    0.31    0.05
   2   6   0    0.34    0.06
  -3  -6   0    9.37    0.60
  -3  -6   0    9.68    0.62
  -3  -6   0    7.84    0.60
  -3  -6   0    9.01    0.60
  -3  -6   0    8.54    0.61
   3   6   0    8.80    0.60
   3   6   0    8.04    0.60
   3   6   0    8.73    0.60
   3   6   0    7.95    0.61
  -4  -6   0    0.04    0.02
  -4  -6   0    0.00    0.08
   4   6   0    0.01    0.02
   4   6   0    0.02    0.05
   4   6   0    0.10    0.06
   4   6   0    0.04    0.04
   4   6   0    0.01    0.02
   4   6   0    0.02    0.03
  -5  -6   0    0.00    0.02
   5   6   0    0.01    0.02
   5   6   0    0.06    0.05
   5   6   0   -0.01    0.03
   5   6   0   -0.01    0.04
   5   6   0   -0.01    0.02
   5   6   0   -0.05    0.06
  -6  -6   0    0.42    0.05
  -6  -6   0    0.43    0.04
   6   6   0    0.43    0.07
   6   6   0    0.39    0.06
   6   6   0    0.45    0.05
   6   6   0    0.49    0.05
   6   6   0    0.36    0.04
  -7  -6   0    0.37    0.04
   7   6   0    0.29    0.06
   7   6   0    0.37    0.04
   7   6   0    0.31    0.06
   7   6   0    0.39    0.04
  -8  -6   0    0.04    0.01
  -8  -6   0    0.03    0.01
   8   6   0    0.01    0.02
   8   6   0    0.01    0.01
   8   6   0    0.01    0.01
  -9  -6   0    0.42    0.03
   9   6   0    0.31    0.03
   7  -7   0    0.01    0.01
  -7   7   0    0.03    0.01
   6  -7   0    0.09    0.02
   6  -7   0    0.07    0.01
  -6   7   0    0.06    0.02
   5  -7   0    0.07    0.03
   5  -7   0    0.07    0.01
   5  -7   0    0.10    0.02
  -5   7   0    0.04    0.03
   4  -7   0    0.08    0.03
   4  -7   0    0.00    0.07
   4  -7   0    0.07    0.02
   4  -7   0    0.07    0.01
  -4   7   0    0.05    0.03
   3  -7   0    0.85    0.08
   3  -7   0    0.97    0.08
   3  -7   0    0.89    0.11
   3  -7   0    0.94    0.07
  -3   7   0    0.90    0.07
  -3   7   0    0.91    0.09
   2  -7   0    0.11    0.02
   2  -7   0    0.13    0.05
   2  -7   0    0.08    0.04
   2  -7   0    0.14    0.03
  -2   7   0    0.07    0.04
  -2   7   0    0.09    0.02
   1  -7   0    0.39    0.07
   1  -7   0    0.44    0.06
   1  -7   0    0.58    0.10
   1  -7   0    0.46    0.04
  -1   7   0    0.40    0.05
  -1   7   0    0.40    0.04
  -1   7   0    0.35    0.07
   0  -7   0    2.87    0.19
   0  -7   0    2.62    0.20
   0  -7   0    2.81    0.19
   0   7   0    2.40    0.19
   0   7   0    2.65    0.19
   0   7   0    2.43    0.20
  -1  -7   0    0.79    0.07
  -1  -7   0    0.72    0.14
  -1  -7   0    0.66    0.09
  -1  -7   0    0.77    0.06
   1   7   0    0.70    0.06
   1   7   0    0.59    0.07
  -2  -7   0    0.19    0.05
  -2  -7   0    0.20    0.04
  -2  -7   0    0.13    0.02
  -2  -7   0    0.14    0.02
   2   7   0    0.12    0.03
   2   7   0    0.18    0.03
  -3  -7   0    3.26    0.28
   3   7   0    4.17    0.27
   3   7   0    3.78    0.26
  -4  -7   0   -0.01    0.02
   4   7   0    0.03    0.03
   4   7   0    0.08    0.07
   4   7   0    0.01    0.02
  -5  -7   0    0.10    0.02
   5   7   0    0.11    0.03
   5   7   0    0.14    0.02
   5   7   0    0.19    0.05
   5   7   0    0.12    0.03
  -6  -7   0    1.17    0.08
   6   7   0    0.99    0.07
   6   7   0    0.86    0.07
  -7  -7   0    0.06    0.01
   7   7   0    0.04    0.01
   7   7   0    0.02    0.01
  -8  -7   0    0.01    0.01
   8   7   0    0.02    0.01
   6  -8   0    0.10    0.01
  -6   8   0    0.12    0.02
   5  -8   0    0.01    0.01
   5  -8   0    0.01    0.01
  -5   8   0   -0.01    0.01
   4  -8   0    0.05    0.01
   4  -8   0    0.04    0.02
  -4   8   0    0.05    0.02
   3  -8   0    0.41    0.05
   3  -8   0    0.42    0.05
   3  -8   0    0.49    0.04
  -3   8   0    0.39    0.05
  -3   8   0    0.42    0.03
   2  -8   0    0.08    0.02
   2  -8   0    0.06    0.02
   2  -8   0    0.07    0.03
  -2   8   0    0.08    0.01
   1  -8   0    1.09    0.12
   1  -8   0    1.01    0.10
   1  -8   0    1.18    0.08
   1  -8   0    1.19    0.09
  -1   8   0    1.03    0.08
  -1   8   0    0.98    0.09
   0  -8   0    0.20    0.03
   0  -8   0    0.29    0.06
   0  -8   0    0.24    0.03
   0   8   0    0.15    0.02
   0   8   0    0.19    0.02
  -1  -8   0    0.20    0.04
  -1  -8   0    0.25    0.07
  -1  -8   0    0.24    0.03
   1   8   0    0.14    0.02
   1   8   0    0.15    0.02
  -2  -8   0    0.34    0.06
  -2  -8   0    0.40    0.04
   2   8   0    0.35    0.04
   2   8   0    0.43    0.04
  -3  -8   0    0.50    0.05
   3   8   0    0.70    0.05
   3   8   0    0.58    0.05
  -4  -8   0    0.09    0.03
  -4  -8   0    0.05    0.02
   4   8   0    0.09    0.02
   4   8   0    0.10    0.02
  -5  -8   0    0.41    0.03
   5   8   0    0.43    0.04
   5   8   0    0.40    0.03
   6   8   0    0.50    0.04
   6   8   0    0.49    0.04
  -7  -8   0    0.08    0.01
   7   8   0    0.07    0.01
   4  -9   0    0.02    0.01
  -4   9   0    0.01    0.01
  -3   9   0    0.16    0.02
   2  -9   0    0.16    0.02
   2  -9   0    0.14    0.02
  -2   9   0    0.10    0.02
  -2   9   0    0.12    0.01
   1  -9   0    0.03    0.02
   1  -9   0    0.04    0.01
  -1   9   0    0.04    0.01
   0  -9   0    0.75    0.05
   0  -9   0    0.69    0.06
   0   9   0    0.60    0.05
  -1  -9   0    0.18    0.02
  -1  -9   0    0.04    0.03
   1   9   0    0.11    0.01
   1   9   0    0.11    0.02
  -2  -9   0    0.06    0.02
  -2  -9   0    0.03    0.02
   2   9   0    0.05    0.01
   2   9   0    0.06    0.01
  -3  -9   0    0.19    0.02
   3   9   0    0.22    0.02
   3   9   0    0.24    0.03
  -4  -9   0    0.00    0.01
   4   9   0    0.01    0.01
   4   9   0    0.01    0.01
   5   9   0    0.10    0.01
   5   9   0    0.11    0.01
  -6  -9   0    0.40    0.03
   6   9   0    0.35    0.03
   6   9   0    0.33    0.03
   0  10   0    0.16    0.01
   1  10   0    0.01    0.01
   2  10   0    0.01    0.01
   2  10   0    0.02    0.01
   3  10   0    0.13    0.01
   3  10   0    0.12    0.01
   4   9  -1    0.00    0.01
   4   9  -1    0.00    0.01
  -4  -9   1    0.01    0.01
   3   9  -1    0.24    0.02
   3   9  -1    0.22    0.02
  -3  -9   1    0.26    0.02
   2   9  -1    0.01    0.01
   2   9  -1    0.00    0.01
  -2  -9   1    0.03    0.02
   1   9  -1    0.00    0.01
   1   9  -1    0.03    0.01
   0   9  -1    0.26    0.02
   0  -9   1    0.30    0.03
  -1   9  -1    0.00    0.01
   1  -9   1    0.01    0.01
   2  -9   1    0.02    0.01
   3  -9   1    0.09    0.01
   6   8  -1    0.60    0.04
   6   8  -1    0.56    0.04
   5   8  -1    0.03    0.01
   5   8  -1    0.01    0.01
  -5  -8   1    0.01    0.01
   4   8  -1    0.00    0.02
   4   8  -1    0.01    0.01
  -4  -8   1    0.00    0.01
   3   8  -1    1.22    0.09
   3   8  -1    1.31    0.09
  -3  -8   1    1.09    0.09
   2   8  -1    0.11    0.02
  -2  -8   1    0.06    0.01
   1   8  -1    0.09    0.02
   1   8  -1    0.11    0.02
  -1  -8   1    0.12    0.03
  -1  -8   1    0.07    0.02
  -1  -8   1    0.11    0.02
   0   8  -1    0.54    0.05
   0   8  -1    0.51    0.05
   0  -8   1    0.59    0.08
   0  -8   1    0.71    0.05
   0  -8   1    0.65    0.06
  -1   8  -1    0.06    0.01
  -1   8  -1    0.05    0.03
   1  -8   1    0.09    0.01
   1  -8   1    0.09    0.03
   1  -8   1    0.07    0.02
  -2   8  -1    0.03    0.02
  -2   8  -1    0.04    0.01
   2  -8   1    0.05    0.01
   2  -8   1    0.06    0.03
   2  -8   1    0.07    0.03
  -3   8  -1    0.45    0.05
  -3   8  -1    0.46    0.04
   3  -8   1    0.54    0.05
   3  -8   1    0.54    0.04
  -4   8  -1    0.03    0.02
   4  -8   1    0.04    0.01
   4  -8   1    0.04    0.02
  -5   8  -1    0.00    0.01
   5  -8   1    0.01    0.01
   8   7  -1    0.09    0.01
  -8  -7   1    0.09    0.01
   7   7  -1    0.02    0.01
   6   7  -1    1.37    0.10
   6   7  -1    1.37    0.10
  -6  -7   1    1.35    0.10
  -6  -7   1    1.45    0.10
   5   7  -1    0.00    0.01
   5   7  -1    0.00    0.02
  -5  -7   1    0.01    0.01
  -5  -7   1   -0.01    0.01
   4   7  -1    0.03    0.02
   4   7  -1    0.01    0.03
  -4  -7   1    0.02    0.01
   3   7  -1    0.71    0.06
   3   7  -1    0.69    0.06
  -3  -7   1    0.59    0.05
   2   7  -1    0.64    0.06
   2   7  -1    0.61    0.06
  -2  -7   1    0.57    0.05
  -2  -7   1    0.98    0.14
  -2  -7   1    0.77    0.06
   1   7  -1    0.43    0.05
   1   7  -1    0.39    0.05
  -1  -7   1    0.69    0.11
  -1  -7   1    0.44    0.07
  -1  -7   1    0.50    0.06
  -1  -7   1    0.34    0.04
  -1  -7   1    0.48    0.04
   0   7  -1    3.10    0.23
   0   7  -1    2.92    0.23
   0  -7   1    3.45    0.23
   0  -7   1    3.36    0.23
   0  -7   1    3.42    0.24
   0  -7   1    3.51    0.25
  -1   7  -1    0.01    0.04
  -1   7  -1    0.01    0.02
   1  -7   1    0.05    0.03
   1  -7   1    0.05    0.05
   1  -7   1    0.03    0.03
  -2   7  -1   -0.03    0.03
  -2   7  -1   -0.01    0.02
  -2   7  -1    0.01    0.03
   2  -7   1    0.02    0.02
   2  -7   1   -0.02    0.05
   2  -7   1    0.00    0.03
   2  -7   1    0.02    0.03
  -3   7  -1    0.10    0.03
  -3   7  -1    0.14    0.02
   3  -7   1    0.12    0.03
   3  -7   1    0.17    0.03
   3  -7   1    0.02    0.06
   3  -7   1    0.13    0.03
  -4   7  -1    0.09    0.03
   4  -7   1    0.11    0.01
   4  -7   1    0.11    0.02
   4  -7   1    0.05    0.03
  -5   7  -1   -0.01    0.02
   5  -7   1    0.01    0.01
   5  -7   1    0.02    0.02
  -6   7  -1    0.15    0.03
   6  -7   1    0.18    0.02
   6  -7   1    0.19    0.03
   8   6  -1    0.01    0.01
   8   6  -1   -0.02    0.01
  -8  -6   1    0.00    0.01
  -8  -6   1    0.01    0.01
   7   6  -1    0.28    0.03
   7   6  -1    0.28    0.05
   7   6  -1    0.32    0.04
  -7  -6   1    0.29    0.03
  -7  -6   1    0.28    0.04
   6   6  -1    1.10    0.08
   6   6  -1    0.92    0.13
   6   6  -1    0.97    0.09
   6   6  -1    0.97    0.08
  -6  -6   1    1.11    0.08
  -6  -6   1    1.00    0.08
   5   6  -1   -0.07    0.06
   5   6  -1   -0.01    0.02
   5   6  -1    0.00    0.05
   5   6  -1    0.01    0.03
   5   6  -1    0.04    0.04
  -5  -6   1    0.01    0.01
   4   6  -1    0.04    0.04
   4   6  -1    0.05    0.02
   4   6  -1   -0.04    0.05
   4   6  -1    0.01    0.02
   4   6  -1    0.00    0.03
  -4  -6   1    0.03    0.02
   3   6  -1    0.52    0.05
   3   6  -1    0.78    0.10
   3   6  -1    0.52    0.06
   3   6  -1    0.59    0.07
  -3  -6   1    0.65    0.05
  -3  -6   1    0.48    0.05
   2   6  -1    0.20    0.03
   2   6  -1    0.35    0.07
   2   6  -1    0.24    0.04
  -2  -6   1    0.31    0.05
  -2  -6   1    0.20    0.05
  -2  -6   1    0.32    0.04
   1   6  -1    0.39    0.07
   1   6  -1    0.41    0.05
   1   6  -1    0.30    0.04
  -1  -6   1    0.34    0.06
  -1  -6   1    0.37    0.06
  -1  -6   1    0.41    0.04
  -1  -6   1    0.34    0.05
  -1  -6   1    0.26    0.04
   0   6  -1    1.94    0.18
   0   6  -1    2.19    0.17
   0   6  -1    2.38    0.20
   0   6  -1    2.15    0.16
   0  -6   1    2.54    0.18
   0  -6   1    2.23    0.17
   0  -6   1    2.35    0.16
   0  -6   1    2.44    0.17
   0  -6   1    2.09    0.17
  -1   6  -1    0.02    0.04
  -1   6  -1   -0.01    0.02
  -1   6  -1    0.02    0.04
   1  -6   1   -0.02    0.03
   1  -6   1    0.03    0.02
   1  -6   1    0.04    0.05
   1  -6   1   -0.01    0.04
   1  -6   1    0.00    0.03
  -2   6  -1    0.53    0.08
  -2   6  -1    0.45    0.08
  -2   6  -1    0.47    0.05
   2  -6   1    0.41    0.07
   2  -6   1    0.40    0.05
   2  -6   1    0.48    0.06
   2  -6   1    0.53    0.05
  -3   6  -1    0.46    0.05
  -3   6  -1    0.54    0.07
  -3   6  -1    0.46    0.08
   3  -6   1    0.56    0.06
   3  -6   1    0.51    0.07
   3  -6   1    0.49    0.07
   3  -6   1    0.58    0.05
  -4   6  -1    0.09    0.04
  -4   6  -1    0.10    0.06
  -4   6  -1    0.07    0.02
  -4   6  -1    0.10    0.04
   4  -6   1    0.03    0.03
   4  -6   1    0.08    0.02
   4  -6   1    0.08    0.03
  -5   6  -1    0.04    0.03
  -5   6  -1    0.05    0.06
  -5   6  -1    0.00    0.03
   5  -6   1    0.01    0.03
   5  -6   1    0.02    0.01
   5  -6   1    0.00    0.02
  -6   6  -1    0.10    0.03
   6  -6   1    0.15    0.03
   6  -6   1    0.12    0.03
   6  -6   1    0.17    0.02
   9   5  -1    0.51    0.04
   9   5  -1    0.50    0.05
  -9  -5   1    0.58    0.04
  -9  -5   1    0.54    0.04
   8   5  -1    0.05    0.03
   8   5  -1    0.00    0.02
   8   5  -1    0.02    0.02
   8   5  -1   -0.10    0.04
  -8  -5   1    0.02    0.01
  -8  -5   1    0.01    0.01
   7   5  -1   -0.03    0.05
   7   5  -1    0.02    0.02
   7   5  -1    0.01    0.05
   7   5  -1    0.03    0.03
   7   5  -1    0.04    0.02
  -7  -5   1    0.02    0.02
  -7  -5   1    0.01    0.02
   6   5  -1    0.90    0.09
   6   5  -1    0.75    0.11
   6   5  -1    0.75    0.10
   6   5  -1    0.86    0.08
   6   5  -1    0.80    0.07
  -6  -5   1    0.92    0.06
  -6  -5   1    0.80    0.07
   5   5  -1    0.06    0.06
   5   5  -1    0.18    0.03
   5   5  -1    0.15    0.06
   5   5  -1    0.18    0.04
   5   5  -1    0.21    0.05
   5   5  -1    0.13    0.03
  -5  -5   1    0.19    0.03
   4   5  -1    0.14    0.06
   4   5  -1    0.09    0.07
   4   5  -1    0.10    0.05
   4   5  -1    0.09    0.03
   4   5  -1    0.12    0.04
   4   5  -1    0.09    0.03
  -4  -5   1    0.12    0.02
   3   5  -1    1.57    0.15
   3   5  -1    1.70    0.16
   3   5  -1    1.92    0.17
   3   5  -1    1.90    0.14
   3   5  -1    1.50    0.17
   3   5  -1    1.67    0.13
   3   5  -1    1.77    0.13
  -3  -5   1    1.89    0.13
  -3  -5   1    1.72    0.15
   2   5  -1    1.26    0.16
   2   5  -1    1.40    0.14
   2   5  -1    1.44    0.12
   2   5  -1    1.64    0.12
   2   5  -1    1.52    0.13
   2   5  -1    1.31    0.14
   2   5  -1    1.67    0.16
  -2  -5   1    1.60    0.14
  -2  -5   1    1.69    0.13
  -2  -5   1    1.60    0.11
  -2  -5   1    1.79    0.15
   1   5  -1    0.76    0.07
   1   5  -1    0.69    0.09
   1   5  -1    0.49    0.09
   1   5  -1    0.64    0.10
  -1  -5   1    0.76    0.06
  -1  -5   1    0.63    0.08
  -1  -5   1    0.68    0.09
  -1  -5   1    0.74    0.10
  -1  -5   1    0.70    0.08
   0   5  -1    4.16    0.29
   0   5  -1    3.92    0.30
   0   5  -1    3.48    0.30
   0   5  -1    3.65    0.28
   0   5  -1    4.12    0.28
   0  -5   1    4.43    0.29
   0  -5   1    4.03    0.27
   0  -5   1    3.59    0.33
   0  -5   1    3.94    0.28
   0  -5   1    3.82    0.28
  -1   5  -1    1.16    0.12
  -1   5  -1    1.13    0.09
  -1   5  -1    1.04    0.13
  -1   5  -1    0.98    0.14
   1  -5   1    0.96    0.10
   1  -5   1    1.16    0.09
   1  -5   1    1.11    0.10
   1  -5   1    1.13    0.10
  -2   5  -1    1.46    0.11
  -2   5  -1    1.50    0.14
  -2   5  -1    1.46    0.15
  -2   5  -1    1.46    0.13
   2  -5   1    1.36    0.12
   2  -5   1    1.38    0.12
   2  -5   1    1.53    0.12
   2  -5   1    1.44    0.11
  -3   5  -1    2.35    0.18
  -3   5  -1    2.34    0.19
  -3   5  -1    2.35    0.17
   3  -5   1    2.30    0.18
   3  -5   1    2.43    0.17
   3  -5   1    2.19    0.16
   3  -5   1    2.22    0.17
  -4   5  -1    0.36    0.04
  -4   5  -1    0.38    0.08
  -4   5  -1    0.37    0.06
   4  -5   1    0.36    0.05
   4  -5   1    0.30    0.04
   4  -5   1    0.44    0.06
   4  -5   1    0.35    0.04
  -6   5  -1    0.66    0.08
  -6   5  -1    0.64    0.07
   6  -5   1    0.68    0.06
   6  -5   1    0.68    0.07
   6  -5   1    0.77    0.06
  10   4  -1    0.01    0.01
   9   4  -1    1.01    0.08
   9   4  -1    0.96    0.08
  -9  -4   1    1.03    0.08
  -9  -4   1    1.16    0.07
  -9  -4   1    1.11    0.08
   8   4  -1    0.18    0.03
   8   4  -1    0.19    0.05
   8   4  -1    0.20    0.03
   8   4  -1    0.22    0.03
  -8  -4   1    0.14    0.02
  -8  -4   1    0.24    0.02
   7   4  -1   -0.06    0.04
   7   4  -1    0.01    0.04
   7   4  -1    0.00    0.05
   7   4  -1    0.02    0.03
  -7  -4   1   -0.04    0.03
  -7  -4   1    0.00    0.02
  -7  -4   1   -0.01    0.02
   6   4  -1    2.16    0.21
   6   4  -1    2.25    0.20
   6   4  -1    2.73    0.20
   6   4  -1    2.57    0.19
   6   4  -1    2.65    0.19
  -6  -4   1    2.59    0.19
  -6  -4   1    2.74    0.18
  -6  -4   1    2.58    0.19
   5   4  -1    0.01    0.06
   5   4  -1    0.03    0.05
   5   4  -1   -0.01    0.06
   5   4  -1   -0.03    0.03
  -5  -4   1    0.00    0.02
   4   4  -1    0.40    0.07
   4   4  -1    0.38    0.07
   4   4  -1    0.43    0.05
   4   4  -1    0.43    0.05
   4   4  -1    0.38    0.07
   4   4  -1    0.43    0.09
  -4  -4   1    0.52    0.09
  -4  -4   1    0.43    0.04
   3   4  -1    7.31    0.51
   3   4  -1    7.14    0.51
   3   4  -1    6.10    0.54
   3   4  -1    7.19    0.52
   3   4  -1    6.96    0.52
   3   4  -1    6.87    0.52
   3   4  -1    7.86    0.52
  -3  -4   1    7.02    0.50
  -3  -4   1    6.92    0.51
  -3  -4   1    7.88    0.52
  -3  -4   1    8.07    0.52
   2   4  -1   -0.01    0.07
   2   4  -1    0.15    0.07
   2   4  -1    0.14    0.08
   2   4  -1   -0.02    0.08
   2   4  -1    0.17    0.10
   2   4  -1    0.00    0.06
   2   4  -1    0.09    0.07
   2   4  -1    0.06    0.04
  -2  -4   1    0.03    0.04
  -2  -4   1    0.04    0.07
  -2  -4   1    0.02    0.02
  -2  -4   1    0.01    0.05
  -2  -4   1   -0.01    0.08
  -2  -4   1    0.07    0.07
   1   4  -1    0.71    0.08
   1   4  -1    0.45    0.10
   1   4  -1    0.51    0.10
   1   4  -1    0.62    0.10
   1   4  -1    0.67    0.11
   1   4  -1    0.56    0.11
   1   4  -1    0.54    0.08
   1   4  -1    0.36    0.08
  -1  -4   1    0.54    0.09
  -1  -4   1    0.67    0.06
  -1  -4   1    0.73    0.08
  -1  -4   1    0.59    0.08
  -1  -4   1    0.63    0.09
  -1  -4   1    0.50    0.12
  -1  -4   1    0.49    0.09
   0   4  -1   11.04    0.90
   0   4  -1   14.26    0.89
   0   4  -1   13.08    0.90
   0   4  -1   13.54    0.89
   0  -4   1   12.16    0.88
   0  -4   1   12.71    0.88
   0  -4   1   12.23    0.89
   0  -4   1   12.12    0.88
   0  -4   1   12.46    0.87
   0  -4   1   12.53    0.89
   0  -4   1   13.28    0.89
  -1   4  -1    0.10    0.08
  -1   4  -1    0.28    0.04
  -1   4  -1    0.35    0.09
  -1   4  -1    0.16    0.08
  -1   4  -1    0.13    0.08
   1  -4   1    0.16    0.05
   1  -4   1    0.25    0.04
   1  -4   1    0.25    0.04
   1  -4   1    0.22    0.04
   1  -4   1    0.23    0.07
   1  -4   1    0.18    0.07
   1  -4   1    0.28    0.08
  -2   4  -1    1.08    0.13
  -2   4  -1    1.13    0.15
  -2   4  -1    1.23    0.10
  -2   4  -1    0.83    0.14
   2  -4   1    1.23    0.09
   2  -4   1    1.01    0.14
   2  -4   1    1.30    0.10
   2  -4   1    1.05    0.11
   2  -4   1    1.21    0.11
   2  -4   1    1.02    0.15
  -3   4  -1   11.54    0.75
  -3   4  -1   10.94    0.74
  -3   4  -1   11.01    0.75
   3  -4   1   10.36    0.75
   3  -4   1   10.16    0.74
   3  -4   1   10.89    0.75
   3  -4   1   10.34    0.75
  -4   4  -1   -0.03    0.05
  -4   4  -1    0.01    0.03
  -4   4  -1   -0.01    0.02
   4  -4   1   -0.02    0.03
   4  -4   1    0.01    0.04
   4  -4   1   -0.02    0.03
   4  -4   1    0.01    0.02
  -5   4  -1   -0.02    0.05
  -5   4  -1    0.03    0.05
  -5   4  -1    0.00    0.02
  -5   4  -1    0.02    0.03
   5  -4   1    0.03    0.03
   5  -4   1    0.01    0.03
   5  -4   1    0.01    0.02
   5  -4   1   -0.03    0.03
  -6   4  -1    0.94    0.10
  -6   4  -1    0.78    0.08
   6  -4   1    0.83    0.08
   6  -4   1    0.91    0.07
   6  -4   1    0.98    0.08
   6  -4   1    0.73    0.08
  -7   4  -1    0.01    0.03
  -7   4  -1    0.05    0.04
  -7   4  -1    0.03    0.04
   7  -4   1    0.01    0.02
   7  -4   1    0.06    0.03
   7  -4   1    0.02    0.01
  -8   4  -1    0.00    0.02
   8  -4   1    0.00    0.02
   8  -4   1    0.02    0.01
  10   3  -1    0.02    0.02
  10   3  -1    0.01    0.02
 -10  -3   1    0.02    0.01
 -10  -3   1    0.01    0.01
   9   3  -1    1.50    0.11
   9   3  -1    1.35    0.10
  -9  -3   1    1.42    0.11
  -9  -3   1    1.43    0.10
   8   3  -1    0.00    0.02
   8   3  -1    0.01    0.03
   8   3  -1   -0.01    0.04
   8   3  -1    0.06    0.05
  -8  -3   1   -0.02    0.02
  -8  -3   1    0.01    0.01
  -8  -3   1   -0.02    0.03
   7   3  -1    1.58    0.12
   7   3  -1    1.43    0.14
   7   3  -1    1.58    0.13
   7   3  -1    1.52    0.12
   7   3  -1    1.26    0.14
  -7  -3   1    1.60    0.12
  -7  -3   1    1.54    0.12
   6   3  -1    0.36    0.07
   6   3  -1    0.37    0.04
   6   3  -1    0.32    0.06
   6   3  -1    0.29    0.07
  -6  -3   1    0.33    0.06
  -6  -3   1    0.36    0.04
   5   3  -1    0.06    0.07
   5   3  -1   -0.01    0.06
   5   3  -1    0.01    0.04
   5   3  -1    0.07    0.06
  -5  -3   1    0.08    0.04
  -5  -3   1    0.04    0.02
   4   3  -1    0.04    0.10
   4   3  -1    0.05    0.07
   4   3  -1    0.01    0.06
   4   3  -1    0.05    0.08
   4   3  -1    0.00    0.07
   4   3  -1    0.06    0.06
  -4  -3   1    0.04    0.02
  -4  -3   1   -0.01    0.06
   3   3  -1   24.15    1.76
   3   3  -1   28.44    1.75
   3   3  -1   24.00    1.76
   3   3  -1   25.73    1.76
   3   3  -1   22.39    1.76
   3   3  -1   26.32    1.75
   3   3  -1   25.90    1.75
   3   3  -1   24.62    1.75
  -3  -3   1   24.11    1.76
  -3  -3   1   27.01    1.76
   2   3  -1    2.10    0.19
   2   3  -1    1.46    0.19
   2   3  -1    1.85    0.19
   2   3  -1    2.07    0.20
   2   3  -1    1.84    0.16
   2   3  -1    2.09    0.20
   2   3  -1    1.65    0.19
   2   3  -1    1.83    0.19
  -2  -3   1    1.81    0.16
  -2  -3   1    1.80    0.19
  -2  -3   1    1.78    0.18
  -2  -3   1    1.85    0.16
   1   3  -1    5.76    0.47
   1   3  -1    6.77    0.47
   1   3  -1    6.85    0.46
   1   3  -1    6.70    0.45
   1   3  -1    6.25    0.45
   1   3  -1    6.73    0.46
   1   3  -1    6.58    0.47
  -1  -3   1    6.25    0.46
  -1  -3   1    5.20    0.43
  -1  -3   1    6.18    0.44
  -1  -3   1    5.82    0.45
  -1  -3   1    6.47    0.46
  -1  -3   1    5.82    0.44
   0   3  -1    2.22    0.22
   0   3  -1    2.32    0.20
   0   3  -1    1.65    0.20
   0   3  -1    2.21    0.22
   0  -3   1    2.13    0.18
   0  -3   1    1.73    0.15
   0  -3   1    1.94    0.19
   0  -3   1    1.88    0.16
   0  -3   1    1.82    0.17
  -1   3  -1    5.40    0.42
  -1   3  -1    6.06    0.43
  -1   3  -1    5.62    0.43
  -1   3  -1    6.33    0.41
   1  -3   1    5.63    0.40
   1  -3   1    4.81    0.39
   1  -3   1    5.72    0.42
   1  -3   1    5.83    0.41
   1  -3   1    5.19    0.41
   1  -3   1    5.72    0.40
  -2   3  -1    0.21    0.08
  -2   3  -1    0.14    0.07
  -2   3  -1    0.12    0.07
   2  -3   1    0.20    0.07
   2  -3   1    0.15    0.07
   2  -3   1    0.19    0.05
   2  -3   1    0.24    0.04
   2  -3   1    0.19    0.03
   2  -3   1    0.27    0.07
   2  -3   1    0.17    0.04
  -3   3  -1   11.04    0.70
  -3   3  -1    9.00    0.70
  -3   3  -1   10.14    0.69
  -3   3  -1    9.72    0.70
   3  -3   1   10.91    0.69
   3  -3   1    9.46    0.68
   3  -3   1   10.47    0.69
   3  -3   1    9.54    0.69
   3  -3   1    9.54    0.70
   3  -3   1    9.24    0.69
   3  -3   1    9.52    0.71
  -4   3  -1   -0.02    0.06
  -4   3  -1    0.06    0.04
  -4   3  -1    0.07    0.03
  -4   3  -1    0.08    0.03
   4  -3   1    0.06    0.04
   4  -3   1    0.07    0.03
   4  -3   1    0.06    0.04
   4  -3   1    0.04    0.02
  -5   3  -1    0.12    0.03
  -5   3  -1    0.20    0.06
  -5   3  -1    0.16    0.02
  -5   3  -1    0.06    0.03
  -5   3  -1    0.18    0.05
  -5   3  -1    0.06    0.06
   5  -3   1    0.10    0.04
   5  -3   1    0.16    0.04
   5  -3   1    0.11    0.03
   5  -3   1    0.07    0.02
  -6   3  -1    1.40    0.11
  -6   3  -1    1.58    0.13
  -6   3  -1    1.41    0.11
  -6   3  -1    1.32    0.13
  -6   3  -1    1.30    0.12
   6  -3   1    1.29    0.10
   6  -3   1    1.17    0.11
   6  -3   1    1.52    0.11
   6  -3   1    1.26    0.11
  -7   3  -1    0.01    0.04
  -7   3  -1    0.07    0.04
  -7   3  -1   -0.01    0.02
  -7   3  -1    0.02    0.04
   7  -3   1   -0.02    0.03
   7  -3   1    0.02    0.03
   7  -3   1   -0.01    0.02
   7  -3   1    0.06    0.03
  -8   3  -1    0.02    0.02
  -8   3  -1    0.02    0.04
   8  -3   1    0.01    0.01
   8  -3   1    0.02    0.02
  -9   3  -1    0.44    0.04
   9  -3   1    0.50    0.04
   9  -3   1    0.45    0.04
 -10   3  -1    0.24    0.03
  10   2  -1   -0.01    0.02
  10   2  -1    0.01    0.01
 -10  -2   1   -0.01    0.01
 -10  -2   1    0.01    0.01
   9   2  -1    0.23    0.04
   9   2  -1    0.39    0.05
   9   2  -1    0.30    0.04
   8   2  -1    0.08    0.04
   8   2  -1    0.10    0.05
   8   2  -1    0.02    0.04
   8   2  -1    0.10    0.04
  -8  -2   1    0.03    0.03
  -8  -2   1    0.05    0.02
  -8  -2   1    0.09    0.01
   7   2  -1    0.02    0.05
   7   2  -1    0.07    0.05
   7   2  -1   -0.03    0.04
   7   2  -1   -0.02    0.03
  -7  -2   1   -0.04    0.03
  -7  -2   1    0.01    0.02
  -7  -2   1    0.00    0.01
   6   2  -1    1.38    0.13
   6   2  -1    1.29    0.11
   6   2  -1    1.29    0.14
   6   2  -1    1.19    0.13
  -6  -2   1    1.30    0.09
  -6  -2   1    1.29    0.11
  -6  -2   1    1.18    0.11
   5   2  -1    1.15    0.13
   5   2  -1    1.06    0.14
   5   2  -1    0.84    0.14
   5   2  -1    1.35    0.13
  -5  -2   1    1.15    0.13
  -5  -2   1    1.23    0.11
  -5  -2   1    1.06    0.08
   4   2  -1    2.75    0.21
   4   2  -1    2.72    0.19
   4   2  -1    2.46    0.21
   4   2  -1    2.30    0.22
   4   2  -1    2.32    0.22
   4   2  -1    2.39    0.22
  -4  -2   1    2.57    0.20
  -4  -2   1    2.33    0.21
   3   2  -1   52.52    3.27
   3   2  -1   46.67    3.27
   3   2  -1   42.57    3.27
   3   2  -1   46.78    3.27
   3   2  -1   51.96    3.28
   3   2  -1   48.76    3.28
   3   2  -1   46.98    3.26
   3   2  -1   42.42    3.25
  -3  -2   1   46.27    3.27
  -3  -2   1   47.69    3.26
   2   2  -1    6.12    0.46
   2   2  -1    6.01    0.46
   2   2  -1    6.06    0.46
   2   2  -1    6.58    0.46
   2   2  -1    6.66    0.46
   2   2  -1    5.36    0.45
   2   2  -1    6.20    0.45
  -2  -2   1    5.63    0.45
  -2  -2   1    5.97    0.45
   1   2  -1   13.59    0.99
   1   2  -1   15.35    1.00
   1   2  -1   14.25    0.99
   1   2  -1   16.03    1.00
   1   2  -1   13.54    0.99
   1   2  -1   15.01    0.99
  -1  -2   1   13.99    0.99
  -1  -2   1   12.30    0.97
  -1  -2   1   14.77    0.99
  -1  -2   1   12.23    0.98
  -1  -2   1   12.67    0.97
   0   2  -1    2.84    0.27
   0   2  -1    2.17    0.30
   0   2  -1    2.82    0.29
   0   2  -1    2.63    0.29
   0   2  -1    2.47    0.26
   0   2  -1    2.95    0.26
   0  -2   1    2.63    0.22
   0  -2   1    2.68    0.26
   0  -2   1    2.52    0.23
   0  -2   1    2.82    0.23
   0  -2   1    2.56    0.25
  -1   2  -1    0.25    0.10
  -1   2  -1    0.38    0.12
  -1   2  -1    0.21    0.08
  -1   2  -1    0.36    0.13
   1  -2   1    0.34    0.06
   1  -2   1    0.21    0.09
   1  -2   1    0.25    0.06
   1  -2   1    0.16    0.09
  -2   2  -1    9.15    0.66
  -2   2  -1    9.60    0.66
  -2   2  -1    8.86    0.65
  -2   2  -1    9.88    0.65
   2  -2   1    8.50    0.64
   2  -2   1    9.15    0.65
   2  -2   1    9.27    0.66
   2  -2   1    9.16    0.64
  -3   2  -1   21.86    1.49
  -3   2  -1   19.95    1.50
   3  -2   1   22.51    1.49
   3  -2   1   22.03    1.49
   3  -2   1   20.80    1.50
   3  -2   1   21.85    1.49
  -4   2  -1    2.76    0.22
  -4   2  -1    2.79    0.21
   4  -2   1    2.51    0.22
   4  -2   1    2.35    0.20
   4  -2   1    2.82    0.20
   4  -2   1    3.28    0.21
   4  -2   1    3.18    0.21
  -5   2  -1    0.19    0.04
  -5   2  -1    0.14    0.03
  -5   2  -1    0.15    0.07
  -5   2  -1    0.27    0.05
   5  -2   1    0.20    0.03
   5  -2   1    0.15    0.03
   5  -2   1    0.18    0.04
  -6   2  -1    0.27    0.06
  -6   2  -1    0.32    0.06
  -6   2  -1    0.33    0.07
  -6   2  -1    0.42    0.05
   6  -2   1    0.27    0.04
   6  -2   1    0.23    0.04
   6  -2   1    0.40    0.05
  -7   2  -1   -0.01    0.04
  -7   2  -1    0.00    0.03
  -7   2  -1    0.00    0.04
  -7   2  -1    0.00    0.02
   7  -2   1    0.01    0.03
   7  -2   1   -0.04    0.03
   7  -2   1    0.03    0.02
  -8   2  -1    0.03    0.03
  -8   2  -1    0.01    0.02
  -8   2  -1    0.02    0.03
   8  -2   1    0.03    0.02
   8  -2   1    0.04    0.03
   8  -2   1    0.05    0.02
   8  -2   1    0.02    0.04
  -9   2  -1    0.45    0.04
   9  -2   1    0.36    0.04
 -10   2  -1    0.01    0.01
 -10   2  -1    0.01    0.02
  10  -2   1    0.01    0.01
 -11  -1   1    0.00    0.01
  10   1  -1    0.01    0.01
  10   1  -1    0.01    0.02
 -10  -1   1    0.00    0.01
 -10  -1   1   -0.03    0.02
   9   1  -1    0.30    0.05
   9   1  -1    0.23    0.04
   9   1  -1    0.23    0.04
  -9  -1   1    0.25    0.04
  -9  -1   1    0.18    0.03
   8   1  -1    0.24    0.05
   8   1  -1    0.28    0.05
   8   1  -1    0.31    0.04
   8   1  -1    0.19    0.05
  -8  -1   1    0.24    0.04
  -8  -1   1    0.24    0.05
   7   1  -1    0.30    0.06
   7   1  -1    0.27    0.06
   7   1  -1    0.21    0.03
   7   1  -1    0.23    0.05
  -7  -1   1    0.23    0.05
  -7  -1   1    0.22    0.04
  -7  -1   1    0.26    0.03
   6   1  -1    6.04    0.45
   6   1  -1    6.32    0.44
   6   1  -1    6.63    0.44
   6   1  -1    6.55    0.45
  -6  -1   1    6.19    0.44
  -6  -1   1    5.55    0.44
  -6  -1   1    6.33    0.43
   5   1  -1    0.43    0.06
   5   1  -1    0.25    0.08
   5   1  -1    0.33    0.06
   5   1  -1    0.32    0.07
   5   1  -1    0.43    0.07
  -5  -1   1    0.27    0.04
  -5  -1   1    0.35    0.06
   4   1  -1    1.33    0.14
   4   1  -1    1.29    0.14
   4   1  -1    1.16    0.16
   4   1  -1    1.46    0.16
   4   1  -1    1.15    0.14
  -4  -1   1    1.29    0.13
  -4  -1   1    1.24    0.13
   3   1  -1  152.11    9.26
   3   1  -1  121.99    9.21
   3   1  -1  119.42    9.22
   3   1  -1  127.32    9.22
   3   1  -1  149.89    9.26
  -3  -1   1  130.00    9.22
  -3  -1   1  136.71    9.24
   2   1  -1    3.33    0.29
   2   1  -1    3.75    0.30
   2   1  -1    2.74    0.29
   2   1  -1    3.51    0.30
   2   1  -1    3.11    0.30
   2   1  -1    3.32    0.28
  -2  -1   1    3.40    0.28
  -2  -1   1    3.15    0.27
   1   1  -1   -0.04    0.15
   1   1  -1   -0.01    0.13
   1   1  -1    0.29    0.18
   1   1  -1   -0.07    0.14
   1   1  -1    0.13    0.14
   1   1  -1   -0.08    0.13
  -1  -1   1    0.10    0.08
  -1  -1   1    0.07    0.09
  -1  -1   1    0.01    0.12
  -1  -1   1   -0.02    0.12
   0   1  -1  192.10   13.12
   0   1  -1  202.52   13.14
   0   1  -1  204.50   13.09
   0   1  -1  185.95   13.15
   0  -1   1  181.03   13.07
   0  -1   1  171.26   13.20
   0  -1   1  190.41   13.15
   0  -1   1  193.76   13.14
  -1   1  -1  126.77    7.97
  -1   1  -1  112.15    8.01
  -1   1  -1  120.95    7.98
  -1   1  -1  124.64    8.02
   1  -1   1  118.06    7.98
   1  -1   1   98.20    8.00
   1  -1   1  119.97    8.02
   1  -1   1  110.87    7.99
   1  -1   1  110.57    7.96
  -2   1  -1   34.41    2.30
  -2   1  -1   34.53    2.31
  -2   1  -1   32.42    2.32
  -2   1  -1   33.01    2.31
   2  -1   1   32.13    2.30
   2  -1   1   33.72    2.30
   2  -1   1   33.13    2.30
   2  -1   1   32.89    2.32
  -3   1  -1   95.65    7.18
  -3   1  -1  108.09    7.16
  -3   1  -1  112.93    7.17
   3  -1   1   97.45    7.20
   3  -1   1  105.96    7.16
  -4   1  -1    0.07    0.06
   4  -1   1    0.09    0.06
  -5   1  -1    0.18    0.05
  -5   1  -1    0.25    0.05
  -5   1  -1    0.16    0.04
   5  -1   1    0.16    0.03
   5  -1   1    0.10    0.03
  -6   1  -1    0.35    0.06
  -6   1  -1    0.27    0.05
  -6   1  -1    0.33    0.04
   6  -1   1    0.42    0.06
   6  -1   1    0.28    0.03
  -7   1  -1    0.02    0.04
  -7   1  -1    0.01    0.02
  -7   1  -1    0.06    0.03
  -7   1  -1    0.06    0.05
   7  -1   1    0.09    0.04
   7  -1   1    0.00    0.04
   7  -1   1    0.05    0.05
   7  -1   1    0.03    0.02
  -8   1  -1    0.12    0.04
  -8   1  -1    0.20    0.03
   8  -1   1    0.22    0.04
   8  -1   1    0.17    0.03
   8  -1   1    0.21    0.04
  -9   1  -1    0.57    0.06
   9  -1   1    0.66    0.05
   9  -1   1    0.55    0.05
 -10   1  -1    0.01    0.01
 -10   1  -1    0.02    0.02
  10  -1   1    0.02    0.01
  10  -1   1    0.01    0.02
 -11   0   1    0.00    0.01
  10   0  -1    0.04    0.02
 -10   0   1    0.04    0.01
 -10   0   1    0.04    0.02
   9   0  -1    0.30    0.04
  -9   0   1    0.27    0.05
  -9   0   1    0.36    0.04
   8   0  -1    0.00    0.03
   8   0  -1    0.01    0.02
   8   0  -1    0.07    0.06
  -8   0   1   -0.01    0.02
  -8   0   1   -0.02    0.03
   7   0  -1    0.13    0.03
   7   0  -1    0.10    0.04
   7   0  -1    0.15    0.05
  -7   0   1    0.07    0.03
  -7   0   1    0.11    0.03
   6   0  -1    9.53    0.63
   6   0  -1    9.37    0.63
  -6   0   1    9.09    0.63
  -6   0   1    7.92    0.63
   5   0  -1    0.23    0.05
   5   0  -1    0.13    0.07
   5   0  -1    0.09    0.08
  -5   0   1    0.25    0.05
  -5   0   1    0.17    0.04
   4   0  -1    0.34    0.09
   3   0  -1   29.14    2.04
   2   0  -1   -0.05    0.09
   2   0  -1    0.13    0.09
   2   0  -1   -0.09    0.08
  -2   0   1    0.01    0.07
  -2   0   1    0.00    0.08
   1   0  -1  102.12    7.01
   1   0  -1  101.19    7.01
   1   0  -1  100.44    7.01
  -1   0   1  100.76    7.01
  -1   0   1  103.03    7.00
   0   0  -1  893.88   59.24
   0   0  -1 1000.00   59.61
   0   0   1  756.38   59.21
   0   0   1  880.19   59.11
   0   0   1  768.06   59.09
  -1   0  -1   59.05    3.86
  -1   0  -1   56.69    3.84
  -1   0  -1   53.59    3.85
  -1   0  -1   53.99    3.85
  -1   0  -1   55.42    3.83
   1   0   1   51.72    3.83
   1   0   1   52.69    3.85
   1   0   1   51.03    3.82
   1   0   1   56.80    3.84
   1   0   1   50.34    3.84
  -2   0  -1   34.57    2.40
  -2   0  -1   34.40    2.39
   2   0   1   34.08    2.39
   2   0   1   34.23    2.39
   2   0   1   35.65    2.39
   2   0   1   34.09    2.40
  -3   0  -1   67.95    4.62
  -3   0  -1   69.48    4.63
   3   0   1   64.80    4.62
   3   0   1   66.16    4.65
  -4   0  -1    0.40    0.08
  -4   0  -1    0.49    0.07
   4   0   1    0.42    0.08
   4   0   1    0.50    0.08
   4   0   1    0.44    0.07
   4   0   1    0.58    0.10
  -5   0  -1    0.09    0.04
  -5   0  -1    0.06    0.06
   5   0   1   -0.02    0.04
   5   0   1    0.03    0.06
   5   0   1    0.05    0.05
   5   0   1   -0.05    0.06
   5   0   1   -0.01    0.05
   5   0   1    0.03    0.04
  -6   0  -1    5.01    0.40
  -6   0  -1    5.95    0.39
  -6   0  -1    5.29    0.40
  -6   0  -1    5.36    0.39
   6   0   1    5.50    0.39
   6   0   1    6.11    0.39
   6   0   1    5.64    0.40
  -7   0  -1   -0.02    0.03
  -7   0  -1    0.00    0.03
  -7   0  -1   -0.01    0.04
   7   0   1   -0.01    0.02
   7   0   1   -0.02    0.05
   7   0   1    0.05    0.04
   7   0   1    0.03    0.03
  -8   0  -1    0.04    0.03
  -8   0  -1   -0.01    0.02
  -8   0  -1   -0.01    0.03
   8   0   1    0.02    0.03
   8   0   1    0.01    0.02
   8   0   1    0.00    0.04
  -9   0  -1    0.30    0.04
  -9   0  -1    0.33    0.04
  -9   0  -1    0.29    0.05
   9   0   1    0.23    0.04
   9   0   1    0.31    0.03
 -10   0  -1    0.00    0.02
 -10   0  -1   -0.01    0.01
  10   0   1   -0.01    0.01
  10   0   1   -0.01    0.02
 -11   0  -1    0.08    0.02
  11   0   1    0.06    0.01
  10  -1  -1    0.00    0.02
  10  -1  -1    0.01    0.01
 -10   1   1    0.00    0.01
 -10   1   1    0.01    0.02
   9  -1  -1    0.11    0.02
   9  -1  -1    0.16    0.02
  -9   1   1    0.09    0.02
  -9   1   1    0.05    0.03
   8  -1  -1    0.14    0.03
   8  -1  -1    0.13    0.03
  -8   1   1    0.11    0.03
   7  -1  -1    0.60    0.08
   7  -1  -1    0.66    0.11
  -7   1   1    0.73    0.07
  -7   1   1    0.64    0.09
   6  -1  -1    7.59    0.51
  -6   1   1    6.96    0.51
  -6   1   1    7.37    0.52
   5  -1  -1    2.30    0.20
   5  -1  -1    1.95    0.22
  -5   1   1    2.44    0.18
   4  -1  -1   15.99    1.03
   4  -1  -1   13.66    1.05
   3  -1  -1    1.97    0.21
   2  -1  -1   10.72    0.78
   1  -1  -1    0.82    0.24
  -1   1   1    0.89    0.19
   0  -1  -1  446.66   32.63
   0  -1  -1  496.96   32.63
   0   1   1  449.72   32.63
   0   1   1  500.01   32.62
  -1  -1  -1   35.30    2.62
  -1  -1  -1   36.05    2.61
  -1  -1  -1   36.43    2.65
  -1  -1  -1   36.83    2.62
   1   1   1   38.77    2.61
   1   1   1   37.33    2.62
   1   1   1   36.82    2.62
   1   1   1   41.28    2.63
  -2  -1  -1   22.60    1.54
  -2  -1  -1   23.03    1.58
  -2  -1  -1   20.33    1.54
   2   1   1   22.25    1.56
   2   1   1   22.20    1.54
   2   1   1   22.21    1.54
   2   1   1   21.47    1.54
   2   1   1   22.38    1.54
  -3  -1  -1    6.01    0.43
  -3  -1  -1    5.60    0.46
  -3  -1  -1    5.73    0.43
   3   1   1    6.06    0.42
   3   1   1    4.90    0.42
   3   1   1    6.01    0.43
   3   1   1    5.92    0.43
   3   1   1    5.41    0.42
  -4  -1  -1    0.75    0.12
  -4  -1  -1    0.68    0.12
   4   1   1    0.88    0.13
   4   1   1    0.55    0.09
   4   1   1    0.84    0.12
   4   1   1    0.60    0.09
   4   1   1    0.47    0.08
  -5  -1  -1    7.65    0.61
  -5  -1  -1    8.04    0.61
   5   1   1    9.41    0.60
   5   1   1    9.21    0.61
   5   1   1    9.16    0.61
   5   1   1    9.13    0.61
   5   1   1    7.69    0.61
  -6  -1  -1   11.81    0.88
  -6  -1  -1   12.39    0.88
  -6  -1  -1   11.32    0.89
  -6  -1  -1   12.38    0.88
   6   1   1   13.06    0.88
   6   1   1   13.45    0.88
   6   1   1   13.54    0.88
   6   1   1   13.73    0.89
  -7  -1  -1   -0.01    0.02
  -7  -1  -1    0.03    0.02
  -7  -1  -1   -0.01    0.04
   7   1   1    0.07    0.05
   7   1   1    0.02    0.03
   7   1   1    0.06    0.05
   7   1   1    0.04    0.04
  -8  -1  -1    0.08    0.03
  -8  -1  -1    0.16    0.02
  -8  -1  -1    0.14    0.03
   8   1   1    0.14    0.04
   8   1   1    0.11    0.02
   8   1   1    0.04    0.05
   8   1   1    0.16    0.03
  -9  -1  -1    0.06    0.03
  -9  -1  -1    0.07    0.02
   9   1   1    0.07    0.04
   9   1   1    0.10    0.02
   9   1   1    0.13    0.03
 -10  -1  -1    0.10    0.02
 -10  -1  -1    0.12    0.02
  10   1   1    0.15    0.02
  10   1   1    0.16    0.02
 -11  -1  -1    0.04    0.01
 -11  -1  -1    0.04    0.01
  11   1   1    0.04    0.01
 -10   2   1    0.03    0.02
 -10   2   1    0.03    0.01
   9  -2  -1    0.27    0.04
  -9   2   1    0.39    0.05
  -9   2   1    0.41    0.04
   8  -2  -1    0.05    0.03
   8  -2  -1    0.03    0.04
  -8   2   1    0.00    0.02
  -8   2   1    0.01    0.03
   7  -2  -1    0.05    0.04
  -7   2   1   -0.01    0.04
  -7   2   1   -0.01    0.04
  -7   2   1   -0.02    0.02
  -6   2   1    4.56    0.32
  -6   2   1    4.39    0.32
  -6   2   1    4.54    0.32
  -6   2   1    4.19    0.31
  -5   2   1    3.33    0.26
  -5   2   1    3.68    0.27
  -5   2   1    3.81    0.28
   4  -2  -1    0.52    0.09
   3  -2  -1    8.92    0.65
   2  -2  -1   46.12    3.20
   1  -2  -1    4.30    0.37
  -1   2   1    4.27    0.40
   0  -2  -1  224.45   15.51
   0  -2  -1  217.91   15.56
   0  -2  -1  223.80   15.59
   0  -2  -1  219.30   15.58
   0  -2  -1  221.44   15.55
   0   2   1  226.66   15.51
   0   2   1  236.21   15.50
   0   2   1  225.71   15.59
   0   2   1  232.22   15.58
  -1  -2  -1   17.28    1.22
  -1  -2  -1   16.27    1.23
  -1  -2  -1   17.65    1.22
  -1  -2  -1   17.03    1.22
  -1  -2  -1   15.84    1.22
   1   2   1   17.62    1.22
   1   2   1   18.65    1.23
   1   2   1   17.03    1.22
   1   2   1   17.48    1.23
   1   2   1   18.43    1.23
  -2  -2  -1   18.13    1.36
  -2  -2  -1   17.32    1.35
  -2  -2  -1   19.26    1.33
  -2  -2  -1   18.84    1.34
  -2  -2  -1   19.22    1.34
   2   2   1   19.46    1.34
   2   2   1   18.78    1.34
   2   2   1   19.07    1.35
   2   2   1   20.16    1.34
   2   2   1   20.98    1.34
  -3  -2  -1    6.56    0.50
  -3  -2  -1    6.59    0.48
   3   2   1    6.29    0.48
   3   2   1    6.95    0.48
   3   2   1    7.24    0.48
   3   2   1    6.28    0.48
   3   2   1    5.78    0.48
  -4  -2  -1    2.73    0.26
  -4  -2  -1    2.83    0.24
  -4  -2  -1    3.11    0.24
   4   2   1    2.87    0.24
   4   2   1    3.27    0.23
   4   2   1    2.73    0.24
   4   2   1    3.12    0.22
   4   2   1    2.86    0.24
   4   2   1    2.53    0.23
  -5  -2  -1    1.43    0.15
  -5  -2  -1    1.39    0.15
  -5  -2  -1    1.30    0.18
   5   2   1    1.44    0.11
   5   2   1    1.42    0.14
   5   2   1    1.19    0.15
   5   2   1    1.54    0.13
   5   2   1    1.28    0.15
   5   2   1    1.13    0.15
  -6  -2  -1    6.31    0.49
  -6  -2  -1    6.76    0.49
  -6  -2  -1    6.86    0.49
  -6  -2  -1    6.77    0.49
   6   2   1    6.88    0.49
   6   2   1    7.22    0.49
   6   2   1    7.37    0.50
   6   2   1    7.69    0.49
  -7  -2  -1    0.02    0.04
  -7  -2  -1   -0.01    0.02
  -7  -2  -1    0.02    0.02
   7   2   1    0.06    0.03
   7   2   1    0.08    0.05
   7   2   1    0.06    0.05
   7   2   1    0.02    0.04
  -8  -2  -1    0.00    0.03
  -8  -2  -1    0.00    0.02
  -8  -2  -1   -0.01    0.03
  -8  -2  -1    0.01    0.01
   8   2   1    0.06    0.05
   8   2   1    0.04    0.05
   8   2   1    0.02    0.02
   8   2   1    0.03    0.03
  -9  -2  -1    0.07    0.02
  -9  -2  -1    0.08    0.03
   9   2   1    0.06    0.04
   9   2   1    0.11    0.02
   9   2   1    0.11    0.03
 -10  -2  -1    0.06    0.01
 -10  -2  -1    0.07    0.02
  10   2   1    0.06    0.02
  10   2   1    0.07    0.01
 -11  -2  -1    0.03    0.01
 -11  -2  -1    0.02    0.01
  11   2   1    0.02    0.01
 -10   3   1    0.01    0.01
  -9   3   1    0.41    0.04
  -9   3   1    0.47    0.05
   8  -3  -1    0.02    0.02
  -8   3   1    0.02    0.02
  -8   3   1   -0.02    0.03
  -8   3   1    0.01    0.03
   7  -3  -1    0.18    0.04
  -7   3   1    0.14    0.04
  -7   3   1    0.13    0.04
  -7   3   1    0.15    0.03
   6  -3  -1    3.30    0.28
  -6   3   1    3.95    0.28
  -6   3   1    4.39    0.29
  -6   3   1    4.00    0.28
   5  -3  -1    0.04    0.04
  -5   3   1    0.03    0.04
  -5   3   1    0.10    0.05
  -5   3   1    0.21    0.05
  -5   3   1    0.03    0.03
   4  -3  -1    2.18    0.17
  -4   3   1    2.26    0.19
   3  -3  -1   12.59    0.81
   3  -3  -1   10.87    0.83
   2  -3  -1   -0.01    0.07
   2  -3  -1    0.08    0.04
   1  -3  -1    0.79    0.12
   1  -3  -1    0.73    0.09
   1  -3  -1    0.75    0.13
  -1   3   1    0.87    0.12
  -1   3   1    0.97    0.12
   0  -3  -1   53.93    4.02
   0  -3  -1   56.12    4.04
   0  -3  -1   56.42    4.03
   0  -3  -1   58.62    4.04
   0  -3  -1   58.14    4.05
   0  -3  -1   59.60    4.02
   0   3   1   57.94    4.04
   0   3   1   59.51    4.02
   0   3   1   61.52    4.05
   0   3   1   61.30    4.02
  -1  -3  -1    0.34    0.09
  -1  -3  -1    0.27    0.07
  -1  -3  -1    0.44    0.08
  -1  -3  -1    0.29    0.09
  -1  -3  -1    0.28    0.09
   1   3   1    0.36    0.09
   1   3   1    0.31    0.09
   1   3   1    0.25    0.09
   1   3   1    0.24    0.08
   1   3   1    0.48    0.08
  -2  -3  -1    2.77    0.23
  -2  -3  -1    2.87    0.22
  -2  -3  -1    2.75    0.23
  -2  -3  -1    2.11    0.24
   2   3   1    3.11    0.24
   2   3   1    2.28    0.23
   2   3   1    2.80    0.24
   2   3   1    2.54    0.23
  -3  -3  -1    3.25    0.26
  -3  -3  -1    3.20    0.27
  -3  -3  -1    3.20    0.28
  -3  -3  -1    3.37    0.27
   3   3   1    3.54    0.25
   3   3   1    3.21    0.27
   3   3   1    3.50    0.27
   3   3   1    3.42    0.27
   3   3   1    2.82    0.26
   3   3   1    3.55    0.27
   3   3   1    3.27    0.26
  -4  -3  -1    0.79    0.16
  -4  -3  -1    1.02    0.14
   4   3   1    0.95    0.09
   4   3   1    0.79    0.13
   4   3   1    1.00    0.13
   4   3   1    0.92    0.13
   4   3   1    0.80    0.11
  -5  -3  -1    0.01    0.08
  -5  -3  -1    0.16    0.05
  -5  -3  -1   -0.07    0.08
  -5  -3  -1    0.06    0.07
  -5  -3  -1    0.05    0.02
   5   3   1    0.02    0.06
   5   3   1    0.03    0.03
   5   3   1   -0.07    0.07
   5   3   1    0.08    0.08
   5   3   1    0.11    0.06
   5   3   1    0.01    0.05
  -6  -3  -1    4.80    0.33
  -6  -3  -1    4.54    0.32
  -6  -3  -1    4.71    0.33
   6   3   1    4.30    0.34
   6   3   1    4.76    0.33
   6   3   1    4.78    0.34
   6   3   1    4.49    0.34
  -7  -3  -1    0.05    0.03
  -7  -3  -1    0.09    0.02
  -7  -3  -1    0.05    0.03
  -7  -3  -1    0.07    0.04
   7   3   1    0.09    0.05
   7   3   1    0.09    0.04
   7   3   1    0.05    0.03
   7   3   1    0.06    0.05
  -8  -3  -1    1.12    0.10
  -8  -3  -1    1.12    0.08
  -8  -3  -1    1.25    0.09
   8   3   1    1.12    0.11
   8   3   1    1.06    0.10
   8   3   1    1.01    0.11
   8   3   1    1.09    0.10
  -9  -3  -1    0.96    0.10
   9   3   1    0.88    0.10
   9   3   1    1.21    0.08
 -10  -3  -1    0.07    0.02
 -10  -3  -1    0.05    0.01
  10   3   1    0.05    0.02
  10   3   1    0.09    0.01
 -11  -3  -1    0.02    0.01
  -9   4   1    0.35    0.04
  -8   4   1    0.04    0.02
  -8   4   1    0.07    0.03
  -8   4   1    0.03    0.03
  -7   4   1    0.01    0.03
  -7   4   1    0.03    0.03
  -7   4   1    0.02    0.02
  -6   4   1    1.48    0.13
  -6   4   1    1.56    0.12
  -6   4   1    1.71    0.14
   5  -4  -1    0.65    0.08
  -5   4   1    0.80    0.08
  -5   4   1    0.68    0.08
  -5   4   1    0.83    0.10
   4  -4  -1    1.12    0.10
   4  -4  -1    1.29    0.11
  -4   4   1    1.38    0.12
  -4   4   1    1.33    0.13
  -4   4   1    1.40    0.12
   3  -4  -1    6.25    0.49
   3  -4  -1    6.89    0.49
  -3   4   1    7.49    0.50
  -3   4   1    7.69    0.51
   2  -4  -1    0.75    0.07
   2  -4  -1    0.79    0.13
   1  -4  -1    2.85    0.25
   1  -4  -1    3.03    0.24
   1  -4  -1    2.96    0.23
   1  -4  -1    2.94    0.24
  -1   4   1    3.17    0.24
  -1   4   1    3.20    0.23
   0  -4  -1   30.95    2.18
   0  -4  -1   32.26    2.17
   0  -4  -1   27.15    2.16
   0  -4  -1   31.08    2.16
   0  -4  -1   30.31    2.16
   0  -4  -1   32.94    2.18
   0  -4  -1   29.28    2.17
   0   4   1   32.30    2.17
   0   4   1   32.45    2.17
   0   4   1   34.23    2.17
  -1  -4  -1    3.15    0.23
  -1  -4  -1    3.08    0.24
  -1  -4  -1    2.52    0.21
  -1  -4  -1    3.22    0.24
  -1  -4  -1    2.72    0.24
  -1  -4  -1    2.53    0.22
   1   4   1    2.82    0.24
   1   4   1    3.50    0.23
   1   4   1    2.98    0.24
   1   4   1    3.28    0.24
  -2  -4  -1    2.92    0.27
  -2  -4  -1    3.33    0.24
  -2  -4  -1    3.38    0.27
  -2  -4  -1    3.46    0.26
  -2  -4  -1    3.78    0.26
  -2  -4  -1    3.26    0.27
   2   4   1    3.40    0.26
   2   4   1    3.43    0.27
   2   4   1    3.19    0.27
   2   4   1    3.59    0.25
   2   4   1    3.56    0.28
   2   4   1    3.44    0.26
  -3  -4  -1    4.37    0.31
  -3  -4  -1    4.18    0.30
  -3  -4  -1    3.75    0.29
  -3  -4  -1    3.93    0.32
   3   4   1    4.18    0.30
   3   4   1    4.26    0.31
   3   4   1    3.49    0.30
   3   4   1    4.33    0.29
   3   4   1    4.03    0.31
   3   4   1    3.94    0.30
   3   4   1    4.26    0.32
  -4  -4  -1    0.50    0.06
  -4  -4  -1    0.49    0.10
  -4  -4  -1    0.44    0.13
  -4  -4  -1    0.61    0.09
   4   4   1    0.62    0.11
   4   4   1    0.55    0.10
   4   4   1    0.70    0.10
   4   4   1    0.71    0.11
   4   4   1    0.51    0.08
   4   4   1    0.40    0.08
   4   4   1    0.60    0.09
   4   4   1    0.60    0.07
  -5  -4  -1    0.80    0.09
  -5  -4  -1    0.88    0.07
  -5  -4  -1    0.90    0.16
  -5  -4  -1    1.11    0.13
   5   4   1    0.92    0.12
   5   4   1    0.83    0.12
   5   4   1    0.89    0.08
   5   4   1    0.84    0.10
   5   4   1    0.81    0.09
  -6  -4  -1    4.16    0.31
  -6  -4  -1    3.91    0.26
  -6  -4  -1    3.62    0.27
  -6  -4  -1    3.32    0.27
  -6  -4  -1    3.95    0.27
   6   4   1    3.48    0.28
   6   4   1    3.64    0.26
   6   4   1    3.55    0.28
   6   4   1    3.96    0.27
   6   4   1    3.87    0.27
  -7  -4  -1    0.13    0.04
  -7  -4  -1    0.12    0.04
  -7  -4  -1    0.06    0.02
  -7  -4  -1    0.09    0.02
   7   4   1    0.08    0.04
   7   4   1    0.10    0.03
   7   4   1    0.04    0.05
   7   4   1    0.13    0.05
   7   4   1    0.08    0.03
  -8  -4  -1    0.02    0.02
  -8  -4  -1    0.02    0.03
  -8  -4  -1    0.05    0.02
   8   4   1    0.02    0.02
   8   4   1    0.09    0.05
   8   4   1    0.03    0.04
   8   4   1    0.06    0.03
  -9  -4  -1    0.77    0.05
  -9  -4  -1    0.69    0.06
  -9  -4  -1    0.73    0.07
   9   4   1    0.68    0.07
   9   4   1    0.66    0.06
 -10  -4  -1    0.00    0.02
 -10  -4  -1    0.01    0.01
  10   4   1    0.01    0.01
  10   4   1   -0.02    0.02
  -9   5   1    0.51    0.05
   7  -5  -1    0.33    0.04
  -7   5   1    0.46    0.05
  -7   5   1    0.37    0.05
   6  -5  -1    0.66    0.07
  -6   5   1    0.72    0.08
  -6   5   1    0.83    0.07
   5  -5  -1    0.70    0.07
  -5   5   1    0.68    0.09
  -5   5   1    0.89    0.08
   4  -5  -1    1.50    0.14
   4  -5  -1    1.64    0.13
   4  -5  -1    1.47    0.12
  -4   5   1    1.88    0.15
  -4   5   1    1.94    0.14
  -4   5   1    1.87    0.14
   3  -5  -1    5.85    0.47
   3  -5  -1    6.46    0.47
  -3   5   1    7.07    0.47
  -3   5   1    7.06    0.47
  -3   5   1    6.66    0.46
  -3   5   1    7.11    0.48
   2  -5  -1    0.40    0.05
   2  -5  -1    0.33    0.04
   2  -5  -1    0.41    0.06
  -2   5   1    0.42    0.09
  -2   5   1    0.35    0.05
  -2   5   1    0.44    0.06
   1  -5  -1    0.53    0.08
   1  -5  -1    0.60    0.06
   1  -5  -1    0.63    0.11
   1  -5  -1    0.64    0.07
   1  -5  -1    0.57    0.08
  -1   5   1    0.58    0.10
  -1   5   1    0.75    0.09
  -1   5   1    0.75    0.12
  -1   5   1    0.63    0.07
   0  -5  -1   15.71    1.07
   0  -5  -1   14.71    1.05
   0  -5  -1   15.62    1.05
   0  -5  -1   15.01    1.06
   0  -5  -1   14.84    1.05
   0  -5  -1   14.65    1.06
   0  -5  -1   14.64    1.05
   0  -5  -1   13.02    1.09
   0   5   1   15.99    1.05
   0   5   1   16.85    1.06
   0   5   1   15.90    1.07
  -1  -5  -1    0.33    0.05
  -1  -5  -1    0.20    0.06
  -1  -5  -1    0.20    0.04
  -1  -5  -1    0.22    0.07
  -1  -5  -1    0.22    0.03
  -1  -5  -1    0.37    0.08
   1   5   1    0.25    0.06
   1   5   1    0.29    0.04
   1   5   1    0.31    0.06
   1   5   1    0.33    0.08
   1   5   1    0.27    0.08
  -2  -5  -1    2.44    0.21
  -2  -5  -1    2.62    0.19
  -2  -5  -1    2.39    0.17
  -2  -5  -1    2.27    0.21
  -2  -5  -1    2.49    0.19
  -2  -5  -1    2.13    0.22
   2   5   1    2.58    0.18
   2   5   1    2.32    0.18
   2   5   1    2.21    0.22
   2   5   1    2.20    0.20
   2   5   1    2.61    0.20
   2   5   1    2.27    0.22
   2   5   1    2.83    0.18
  -3  -5  -1   14.58    1.20
  -3  -5  -1   17.08    1.22
  -3  -5  -1   18.43    1.21
  -3  -5  -1   17.41    1.22
  -3  -5  -1   18.33    1.21
   3   5   1   16.32    1.22
   3   5   1   18.11    1.21
   3   5   1   19.62    1.20
   3   5   1   17.62    1.20
   3   5   1   15.31    1.21
   3   5   1   18.89    1.21
   3   5   1   17.26    1.21
  -4  -5  -1    2.92    0.24
  -4  -5  -1    2.31    0.19
  -4  -5  -1    2.78    0.20
   4   5   1    2.86    0.20
   4   5   1    2.65    0.22
   4   5   1    2.83    0.20
   4   5   1    3.11    0.20
   4   5   1    2.84    0.21
   4   5   1    2.51    0.22
  -5  -5  -1    0.36    0.06
  -5  -5  -1    0.40    0.04
  -5  -5  -1    0.46    0.09
   5   5   1    0.43    0.06
   5   5   1    0.36    0.07
   5   5   1    0.45    0.07
   5   5   1    0.36    0.05
   5   5   1    0.38    0.05
   5   5   1    0.43    0.07
  -6  -5  -1    2.25    0.15
  -6  -5  -1    2.41    0.22
  -6  -5  -1    2.22    0.16
  -6  -5  -1    1.85    0.16
   6   5   1    2.30    0.17
   6   5   1    2.00    0.18
   6   5   1    2.01    0.17
   6   5   1    2.20    0.16
   6   5   1    2.22    0.16
  -7  -5  -1    0.11    0.02
  -7  -5  -1    0.07    0.02
  -7  -5  -1    0.09    0.04
   7   5   1    0.09    0.04
   7   5   1    0.06    0.03
   7   5   1    0.05    0.04
   7   5   1    0.08    0.02
   7   5   1    0.10    0.05
  -8  -5  -1    0.02    0.01
   8   5   1   -0.01    0.03
   8   5   1    0.01    0.02
   8   5   1    0.05    0.05
   8   5   1    0.03    0.02
  -9  -5  -1    0.60    0.05
  -9  -5  -1    0.64    0.04
   9   5   1    0.56    0.05
   9   5   1    0.58    0.06
  10   5   1    0.05    0.01
  -8   6   1    0.00    0.01
   5  -6  -1    0.06    0.03
  -5   6   1    0.01    0.03
   4  -6  -1    0.07    0.03
   4  -6  -1    0.09    0.03
   4  -6  -1    0.07    0.02
  -4   6   1    0.04    0.04
   3  -6  -1    2.69    0.22
   3  -6  -1    2.93    0.21
   3  -6  -1    3.30    0.22
  -3   6   1    2.85    0.22
  -3   6   1    3.08    0.21
  -3   6   1    3.15    0.22
   2  -6  -1    0.68    0.08
   2  -6  -1    0.85    0.08
   2  -6  -1    0.74    0.06
   2  -6  -1    0.93    0.12
  -2   6   1    0.69    0.08
  -2   6   1    0.79    0.06
   1  -6  -1    0.83    0.07
   1  -6  -1    0.98    0.11
   1  -6  -1    0.89    0.09
   1  -6  -1    0.79    0.08
  -1   6   1    0.89    0.07
  -1   6   1    0.97    0.10
  -1   6   1    0.70    0.08
   0  -6  -1    5.29    0.39
   0  -6  -1    5.02    0.38
   0  -6  -1    5.62    0.39
   0  -6  -1    5.87    0.40
   0   6   1    5.68    0.38
   0   6   1    5.50    0.39
   0   6   1    5.44    0.38
  -1  -6  -1    0.02    0.05
  -1  -6  -1    0.04    0.03
  -1  -6  -1    0.06    0.04
  -1  -6  -1    0.02    0.02
   1   6   1    0.07    0.03
   1   6   1   -0.16    0.10
   1   6   1    0.06    0.03
  -2  -6  -1    0.17    0.04
  -2  -6  -1    0.13    0.03
  -2  -6  -1    0.14    0.05
  -2  -6  -1    0.18    0.03
  -2  -6  -1    0.12    0.06
   2   6   1    0.13    0.05
   2   6   1    0.18    0.03
   2   6   1    0.21    0.03
  -3  -6  -1    5.93    0.42
  -3  -6  -1    5.96    0.40
  -3  -6  -1    6.23    0.42
  -3  -6  -1    5.76    0.40
   3   6   1    5.87    0.40
   3   6   1    5.13    0.40
   3   6   1    5.12    0.40
   3   6   1    5.73    0.41
  -4  -6  -1    0.67    0.06
  -4  -6  -1    0.79    0.15
  -4  -6  -1    0.87    0.07
   4   6   1    0.72    0.07
   4   6   1    0.62    0.10
   4   6   1    0.87    0.07
   4   6   1    0.81    0.10
   4   6   1    0.69    0.09
   4   6   1    0.82    0.08
  -5  -6  -1    0.44    0.09
  -5  -6  -1    0.22    0.04
  -5  -6  -1    0.34    0.04
   5   6   1    0.39    0.05
   5   6   1    0.28    0.05
   5   6   1    0.29    0.05
   5   6   1    0.33    0.06
   5   6   1    0.26    0.06
   5   6   1    0.31    0.04
  -6  -6  -1    2.66    0.18
  -6  -6  -1    2.60    0.17
   6   6   1    2.45    0.18
   6   6   1    2.06    0.19
   6   6   1    2.48    0.17
   6   6   1    2.40    0.17
   6   6   1    2.25    0.19
   6   6   1    2.32    0.17
  -7  -6  -1    0.04    0.02
   7   6   1    0.00    0.03
   7   6   1    0.01    0.02
   7   6   1   -0.07    0.06
   7   6   1   -0.03    0.04
   7   6   1    0.03    0.02
  -8  -6  -1    0.05    0.01
   8   6   1    0.06    0.02
   8   6   1   -0.06    0.07
   8   6   1    0.06    0.02
   8   6   1    0.04    0.03
  -9  -6  -1    0.39    0.03
   7  -7  -1    0.01    0.01
  -7   7   1    0.03    0.01
   5  -7  -1    0.15    0.02
   5  -7  -1    0.10    0.02
  -5   7   1    0.10    0.03
   4  -7  -1    0.01    0.06
   4  -7  -1    0.00    0.03
   4  -7  -1    0.04    0.02
   4  -7  -1    0.02    0.01
  -4   7   1    0.00    0.03
  -4   7   1    0.11    0.05
   3  -7  -1    1.30    0.13
   3  -7  -1    1.25    0.11
   3  -7  -1    1.38    0.11
   3  -7  -1    1.36    0.10
  -3   7   1    1.40    0.10
  -3   7   1    1.47    0.12
   2  -7  -1    0.00    0.03
   2  -7  -1    0.02    0.02
   2  -7  -1    0.00    0.05
   2  -7  -1    0.02    0.03
  -2   7   1    0.03    0.02
  -2   7   1    0.03    0.04
   1  -7  -1    0.64    0.07
   1  -7  -1    0.54    0.05
   1  -7  -1    0.52    0.10
   1  -7  -1    0.56    0.07
  -1   7   1    0.58    0.08
  -1   7   1    0.51    0.05
  -1   7   1    0.46    0.05
   0  -7  -1    0.76    0.06
   0  -7  -1    0.74    0.10
   0  -7  -1    0.80    0.08
   0  -7  -1    0.67    0.07
   0   7   1    0.66    0.06
   0   7   1    0.66    0.07
   0   7   1    0.77    0.08
  -1  -7  -1    0.61    0.11
  -1  -7  -1    0.71    0.08
  -1  -7  -1    0.68    0.06
  -1  -7  -1    0.66    0.07
   1   7   1    0.60    0.06
   1   7   1    0.59    0.06
  -2  -7  -1    0.03    0.04
  -2  -7  -1    0.06    0.02
  -2  -7  -1    0.04    0.02
  -2  -7  -1    0.05    0.04
  -2  -7  -1    0.01    0.06
   2   7   1    0.05    0.02
   2   7   1    0.03    0.03
  -3  -7  -1    5.38    0.36
  -3  -7  -1    5.47    0.38
  -3  -7  -1    5.28    0.36
  -3  -7  -1    5.24    0.35
   3   7   1    4.76    0.35
   3   7   1    4.51    0.36
   3   7   1    4.85    0.35
  -4  -7  -1    0.02    0.08
  -4  -7  -1   -0.01    0.03
  -4  -7  -1    0.00    0.02
   4   7   1    0.00    0.02
   4   7   1    0.02    0.03
   4   7   1   -0.03    0.04
  -5  -7  -1    0.02    0.03
  -5  -7  -1    0.27    0.17
   5   7   1    0.02    0.02
   5   7   1    0.11    0.04
   5   7   1    0.03    0.03
  -6  -7  -1    0.70    0.08
  -6  -7  -1    0.80    0.06
   6   7   1    0.77    0.06
   6   7   1    0.75    0.06
   6   7   1    0.74    0.06
  -7  -7  -1    0.06    0.01
   7   7   1    0.05    0.02
   7   7   1    0.05    0.01
   7   7   1    0.04    0.01
  -8  -7  -1    0.15    0.02
   8   7   1    0.10    0.01
   8   7   1    0.10    0.01
  -9  -7  -1    0.34    0.03
   6  -8  -1    0.08    0.01
  -6   8   1    0.12    0.02
   5  -8  -1    0.15    0.02
   5  -8  -1    0.17    0.03
  -5   8   1    0.16    0.03
   4  -8  -1    0.04    0.02
   4  -8  -1    0.04    0.03
   4  -8  -1    0.05    0.01
  -4   8   1    0.03    0.02
   3  -8  -1    0.82    0.08
   3  -8  -1    0.95    0.07
   3  -8  -1    0.91    0.07
  -3   8   1    0.93    0.08
   2  -8  -1    0.24    0.03
   2  -8  -1    0.27    0.06
   2  -8  -1    0.25    0.04
  -2   8   1    0.21    0.03
  -2   8   1    0.18    0.03
   1  -8  -1    0.28    0.03
   1  -8  -1    0.31    0.05
   1  -8  -1    0.31    0.06
   1  -8  -1    0.27    0.04
  -1   8   1    0.23    0.03
  -1   8   1    0.21    0.03
  -1   8   1    0.26    0.05
   0  -8  -1    1.51    0.11
   0  -8  -1    1.77    0.15
   0  -8  -1    1.53    0.12
   0  -8  -1    1.59    0.12
   0   8   1    1.46    0.11
   0   8   1    1.34    0.12
   0   8   1    1.43    0.11
  -1  -8  -1    0.18    0.06
  -1  -8  -1    0.09    0.04
  -1  -8  -1    0.15    0.04
   1   8   1    0.10    0.02
   1   8   1    0.09    0.02
  -2  -8  -1    0.33    0.07
  -2  -8  -1    0.22    0.03
  -2  -8  -1    0.23    0.05
  -2  -8  -1    0.28    0.04
  -2  -8  -1    0.22    0.04
   2   8   1    0.24    0.03
   2   8   1    0.22    0.03
  -3  -8  -1    2.21    0.14
  -3  -8  -1    2.44    0.20
  -3  -8  -1    1.70    0.14
   3   8   1    1.91    0.14
   3   8   1    1.87    0.14
  -4  -8  -1    0.24    0.03
   4   8   1    0.27    0.03
   4   8   1    0.27    0.04
  -5  -8  -1    0.19    0.02
  -5  -8  -1    0.23    0.03
   5   8   1    0.18    0.03
   5   8   1    0.14    0.03
  -6  -8  -1    0.50    0.04
   6   8   1    0.45    0.04
   6   8   1    0.46    0.04
  -7  -8  -1    0.02    0.01
   7   8   1   -0.01    0.01
   7   8   1    0.01    0.01
  -8  -8  -1    0.02    0.01
   8   8   1    0.03    0.01
   4  -9  -1    0.01    0.01
   4  -9  -1   -0.03    0.02
  -4   9   1    0.00    0.01
   3  -9  -1    0.46    0.04
   3  -9  -1    0.51    0.04
  -3   9   1    0.43    0.04
   2  -9  -1    0.14    0.02
   2  -9  -1    0.12    0.02
   2  -9  -1    0.12    0.03
  -2   9   1    0.10    0.01
  -2   9   1    0.11    0.02
   1  -9  -1    0.36    0.04
   1  -9  -1    0.32    0.03
   1  -9  -1    0.21    0.04
  -1   9   1    0.20    0.04
  -1   9   1    0.28    0.03
   0  -9  -1    0.95    0.10
   0  -9  -1    1.22    0.08
   0  -9  -1    1.26    0.09
   0   9   1    1.07    0.08
  -1  -9  -1    0.07    0.03
  -1  -9  -1    0.08    0.02
  -1  -9  -1    0.07    0.04
   1   9   1    0.06    0.02
   1   9   1    0.06    0.02
  -2  -9  -1    0.01    0.01
  -2  -9  -1   -0.05    0.04
   2   9   1    0.00    0.02
   2   9   1    0.01    0.01
  -3  -9  -1    0.46    0.04
   3   9   1    0.46    0.04
   3   9   1    0.43    0.04
  -4  -9  -1   -0.01    0.01
  -4  -9  -1   -0.01    0.02
   4   9   1    0.01    0.01
   4   9   1   -0.01    0.01
  -5  -9  -1    0.16    0.02
   5   9   1    0.14    0.02
   5   9   1    0.15    0.02
  -6  -9  -1    0.31    0.02
   6   9   1    0.26    0.03
   6   9   1    0.28    0.02
   2 -10  -1    0.00    0.01
   1 -10  -1    0.16    0.02
   0 -10  -1    0.14    0.02
   0  10   1    0.13    0.01
  -1 -10  -1    0.00    0.01
   1  10   1    0.00    0.01
   1  10   1    0.00    0.01
   2  10   1    0.02    0.01
   2  10   1    0.02    0.01
  -3 -10  -1    0.19    0.02
   3  10   1    0.17    0.02
   3  10   1    0.16    0.02
  -4 -10  -1    0.00    0.01
   4  10   1    0.01    0.01
   4  10   1    0.00    0.01
   2   9  -2    0.00    0.01
   2   9  -2    0.01    0.01
   1   9  -2    0.02    0.01
   0   9  -2    0.13    0.01
  -1   9  -2    0.03    0.01
   5   8  -2    0.04    0.01
   5   8  -2    0.05    0.02
  -5  -8   2    0.04    0.01
   4   8  -2    0.01    0.01
   4   8  -2    0.02    0.01
  -4  -8   2    0.03    0.01
   3   8  -2    1.03    0.08
   3   8  -2    1.08    0.08
  -3  -8   2    1.04    0.07
   2   8  -2    0.01    0.01
   2   8  -2    0.00    0.01
  -2  -8   2    0.01    0.01
   1   8  -2    0.04    0.01
   1   8  -2    0.03    0.01
  -1  -8   2    0.01    0.01
   0   8  -2    0.19    0.02
   0  -8   2    0.23    0.03
  -1   8  -2    0.03    0.01
   1  -8   2    0.06    0.01
   1  -8   2    0.02    0.02
  -2   8  -2    0.18    0.03
  -2   8  -2    0.17    0.02
   2  -8   2    0.17    0.02
   2  -8   2    0.19    0.02
  -3   8  -2    0.67    0.06
  -3   8  -2    0.71    0.05
   3  -8   2    0.85    0.06
  -4   8  -2    0.00    0.01
   4  -8   2   -0.01    0.01
   7   7  -2    0.00    0.01
  -7  -7   2    0.02    0.01
   6   7  -2    0.65    0.05
  -6  -7   2    0.67    0.05
  -6  -7   2    0.61    0.05
   5   7  -2    0.01    0.01
   5   7  -2    0.02    0.02
  -5  -7   2    0.02    0.01
  -5  -7   2    0.01    0.01
   4   7  -2    0.02    0.01
   4   7  -2    0.00    0.02
  -4  -7   2    0.01    0.01
   3   7  -2    0.26    0.03
   3   7  -2    0.29    0.04
  -3  -7   2    0.27    0.03
   2   7  -2    0.06    0.02
   2   7  -2    0.03    0.02
  -2  -7   2    0.02    0.01
   1   7  -2    0.04    0.02
   1   7  -2    0.07    0.02
  -1  -7   2    0.05    0.02
  -1  -7   2    0.03    0.01
  -1  -7   2   -0.02    0.03
   0   7  -2    0.81    0.08
   0   7  -2    0.89    0.08
   0  -7   2    1.04    0.10
   0  -7   2    1.15    0.07
   0  -7   2    1.09    0.08
  -1   7  -2    0.01    0.02
  -1   7  -2    0.04    0.03
   1  -7   2    0.04    0.01
   1  -7   2   -0.01    0.04
   1  -7   2    0.03    0.02
  -2   7  -2    0.20    0.03
  -2   7  -2    0.18    0.03
  -2   7  -2    0.16    0.04
   2  -7   2    0.16    0.04
   2  -7   2    0.27    0.04
  -3   7  -2    0.13    0.03
  -3   7  -2    0.13    0.02
  -3   7  -2    0.12    0.03
   3  -7   2    0.22    0.04
   3  -7   2    0.12    0.03
   3  -7   2    0.18    0.02
  -4   7  -2    0.00    0.01
  -4   7  -2    0.00    0.02
   4  -7   2   -0.01    0.02
   4  -7   2    0.01    0.01
   5  -7   2    0.07    0.01
   5  -7   2    0.08    0.02
  -6   7  -2    0.04    0.01
   6  -7   2    0.04    0.01
   8   6  -2    0.03    0.01
   8   6  -2    0.02    0.01
  -8  -6   2    0.04    0.01
  -8  -6   2    0.04    0.01
   7   6  -2    0.03    0.02
   7   6  -2    0.02    0.01
   7   6  -2    0.06    0.03
  -7  -6   2    0.03    0.01
  -7  -6   2    0.02    0.01
   6   6  -2    0.98    0.08
   6   6  -2    1.02    0.08
  -6  -6   2    0.97    0.08
  -6  -6   2    1.12    0.07
   5   6  -2    0.16    0.04
   5   6  -2    0.15    0.02
   5   6  -2    0.11    0.02
   5   6  -2    0.18    0.03
  -5  -6   2    0.15    0.02
   4   6  -2    0.15    0.02
   4   6  -2    0.09    0.03
   4   6  -2    0.10    0.02
  -4  -6   2    0.12    0.02
   3   6  -2    1.28    0.14
   3   6  -2    1.33    0.10
   3   6  -2    1.53    0.11
   2   6  -2    0.11    0.03
   2   6  -2    0.11    0.06
   2   6  -2    0.08    0.03
  -2  -6   2    0.10    0.02
  -2  -6   2    0.14    0.02
   1   6  -2    0.05    0.06
   1   6  -2    0.02    0.03
   1   6  -2    0.03    0.03
   1   6  -2   -0.06    0.03
  -1  -6   2    0.05    0.02
  -1  -6   2    0.15    0.06
  -1  -6   2    0.04    0.03
  -1  -6   2    0.02    0.01
  -1  -6   2    0.04    0.04
   0   6  -2    2.39    0.21
   0   6  -2    2.50    0.19
   0   6  -2    2.55    0.20
   0   6  -2    2.30    0.19
   0  -6   2    2.89    0.19
   0  -6   2    2.90    0.18
   0  -6   2    2.75    0.20
  -1   6  -2    0.06    0.04
  -1   6  -2    0.05    0.04
  -1   6  -2    0.12    0.06
  -1   6  -2    0.06    0.03
   1  -6   2    0.04    0.03
   1  -6   2    0.07    0.03
   1  -6   2    0.07    0.02
   1  -6   2    0.09    0.05
   1  -6   2    0.10    0.04
  -2   6  -2    0.01    0.02
  -2   6  -2    0.04    0.04
  -2   6  -2    0.05    0.04
   2  -6   2    0.03    0.03
   2  -6   2    0.00    0.03
   2  -6   2    0.01    0.02
   2  -6   2    0.03    0.03
   2  -6   2    0.00    0.05
  -3   6  -2    0.15    0.02
  -3   6  -2    0.14    0.04
  -3   6  -2    0.12    0.04
   3  -6   2    0.16    0.02
   3  -6   2    0.11    0.04
   3  -6   2    0.16    0.04
   3  -6   2    0.16    0.03
  -4   6  -2    0.01    0.04
  -4   6  -2    0.00    0.02
  -4   6  -2   -0.01    0.04
   4  -6   2    0.02    0.02
   4  -6   2    0.03    0.02
   4  -6   2    0.03    0.03
  -5   6  -2    0.08    0.03
  -5   6  -2    0.07    0.03
   5  -6   2    0.13    0.02
   5  -6   2    0.15    0.02
   5  -6   2    0.15    0.03
   6  -6   2    0.27    0.03
   6  -6   2    0.28    0.03
  -7   6  -2    0.00    0.01
   7  -6   2    0.00    0.01
   9   5  -2    0.26    0.02
  -9  -5   2    0.26    0.03
   8   5  -2    0.00    0.01
   8   5  -2    0.00    0.01
   8   5  -2    0.02    0.02
  -8  -5   2    0.00    0.01
  -8  -5   2   -0.01    0.01
   7   5  -2    0.14    0.02
   7   5  -2    0.14    0.03
   7   5  -2    0.15    0.02
   7   5  -2    0.10    0.05
  -7  -5   2    0.16    0.03
   6   5  -2    0.86    0.12
   6   5  -2    1.06    0.09
   6   5  -2    1.19    0.09
   6   5  -2    1.30    0.11
  -6  -5   2    1.18    0.09
  -6  -5   2    1.25    0.08
   5   5  -2    0.03    0.05
   5   5  -2    0.00    0.04
   5   5  -2    0.02    0.03
   5   5  -2    0.06    0.06
   5   5  -2    0.01    0.04
   5   5  -2    0.03    0.04
  -5  -5   2    0.03    0.02
   4   5  -2    1.16    0.13
   4   5  -2    1.24    0.10
   4   5  -2    1.24    0.09
   4   5  -2    1.16    0.12
   4   5  -2    1.06    0.13
   4   5  -2    1.20    0.10
   4   5  -2    1.13    0.13
  -4  -5   2    1.11    0.09
   3   5  -2    2.44    0.17
   3   5  -2    2.17    0.19
   3   5  -2    2.53    0.17
   3   5  -2    2.30    0.19
   3   5  -2    2.67    0.18
   3   5  -2    2.22    0.20
   3   5  -2    2.54    0.20
  -3  -5   2    2.10    0.17
   2   5  -2    0.80    0.11
   2   5  -2    0.78    0.09
   2   5  -2    0.81    0.11
   2   5  -2    0.78    0.08
   2   5  -2    0.62    0.09
   2   5  -2    1.04    0.13
  -2  -5   2    1.02    0.10
  -2  -5   2    0.94    0.09
  -2  -5   2    0.97    0.07
   1   5  -2    0.08    0.04
   1   5  -2    0.14    0.08
   1   5  -2    0.05    0.05
   1   5  -2    0.10    0.04
  -1  -5   2    0.07    0.02
  -1  -5   2    0.05    0.04
  -1  -5   2    0.05    0.04
  -1  -5   2    0.03    0.05
  -1  -5   2    0.07    0.03
  -1  -5   2    0.07    0.02
   0   5  -2    2.06    0.17
   0   5  -2    1.91    0.18
   0   5  -2    1.80    0.19
   0  -5   2    2.24    0.16
   0  -5   2    1.91    0.16
   0  -5   2    2.14    0.16
   0  -5   2    2.17    0.15
   0  -5   2    2.29    0.17
  -1   5  -2    0.22    0.06
  -1   5  -2    0.14    0.07
  -1   5  -2    0.22    0.03
  -1   5  -2    0.18    0.06
   1  -5   2    0.17    0.04
   1  -5   2    0.18    0.04
   1  -5   2    0.19    0.04
   1  -5   2    0.24    0.04
  -2   5  -2    0.26    0.03
  -2   5  -2    0.19    0.07
  -2   5  -2    0.29    0.06
  -2   5  -2    0.18    0.05
   2  -5   2    0.29    0.04
   2  -5   2    0.20    0.04
   2  -5   2    0.22    0.04
  -3   5  -2    1.52    0.14
  -3   5  -2    1.43    0.11
  -3   5  -2    1.59    0.16
  -3   5  -2    1.46    0.14
   3  -5   2    1.62    0.11
   3  -5   2    1.66    0.12
   3  -5   2    1.50    0.13
   3  -5   2    1.49    0.12
  -4   5  -2   -0.04    0.06
  -4   5  -2    0.00    0.02
  -4   5  -2    0.02    0.05
  -4   5  -2    0.02    0.05
   4  -5   2    0.03    0.04
   4  -5   2    0.02    0.02
   4  -5   2    0.03    0.03
   4  -5   2    0.01    0.03
  -5   5  -2    0.20    0.05
  -5   5  -2    0.25    0.05
  -5   5  -2    0.20    0.03
   5  -5   2    0.26    0.04
   5  -5   2    0.24    0.03
   5  -5   2    0.16    0.04
   5  -5   2    0.26    0.05
  -6   5  -2    0.94    0.09
  -6   5  -2    0.97    0.11
   6  -5   2    0.94    0.09
   6  -5   2    1.15    0.08
  -7   5  -2    0.02    0.02
   7  -5   2    0.01    0.02
   7  -5   2    0.02    0.01
  -8   5  -2    0.03    0.01
  -8   5  -2    0.08    0.03
   8  -5   2    0.01    0.01
   9   4  -2    0.68    0.06
   9   4  -2    0.66    0.05
  -9  -4   2    0.74    0.05
   8   4  -2    0.03    0.04
   8   4  -2    0.03    0.03
   8   4  -2    0.03    0.02
   8   4  -2    0.03    0.02
  -8  -4   2    0.03    0.01
  -8  -4   2    0.01    0.01
  -8  -4   2    0.02    0.02
   7   4  -2   -0.01    0.02
   7   4  -2    0.04    0.05
   7   4  -2   -0.01    0.03
   7   4  -2    0.04    0.09
   7   4  -2    0.01    0.04
  -7  -4   2    0.03    0.03
  -7  -4   2   -0.01    0.02
  -7  -4   2    0.00    0.01
   6   4  -2    2.26    0.16
   6   4  -2    1.81    0.18
   6   4  -2    1.78    0.18
   6   4  -2    2.34    0.17
   6   4  -2    2.25    0.16
  -6  -4   2    2.21    0.15
  -6  -4   2    2.12    0.16
  -6  -4   2    2.26    0.16
   5   4  -2    0.57    0.08
   5   4  -2    0.53    0.10
   5   4  -2    0.58    0.08
   5   4  -2    0.57    0.07
  -5  -4   2    0.62    0.05
   4   4  -2    1.76    0.16
   4   4  -2    1.61    0.16
   4   4  -2    1.75    0.16
   4   4  -2    1.60    0.13
   4   4  -2    1.65    0.15
   4   4  -2    1.77    0.13
  -4  -4   2    1.57    0.12
   3   4  -2    1.89    0.17
   3   4  -2    2.01    0.20
   3   4  -2    2.05    0.18
   3   4  -2    2.07    0.14
   3   4  -2    1.98    0.15
   3   4  -2    1.70    0.19
   3   4  -2    1.98    0.17
  -3  -4   2    1.66    0.13
   2   4  -2    0.03    0.03
   2   4  -2    0.01    0.06
   2   4  -2    0.10    0.07
   2   4  -2    0.07    0.06
   2   4  -2    0.03    0.07
   2   4  -2    0.02    0.04
   2   4  -2    0.07    0.07
  -2  -4   2    0.20    0.08
  -2  -4   2    0.02    0.02
  -2  -4   2    0.09    0.04
  -2  -4   2    0.01    0.02
  -2  -4   2    0.05    0.05
  -2  -4   2    0.06    0.04
   1   4  -2    1.55    0.19
   1   4  -2    1.85    0.13
   1   4  -2    1.68    0.18
   1   4  -2    1.46    0.17
   1   4  -2    1.70    0.13
   1   4  -2    1.74    0.18
   1   4  -2    1.42    0.16
   1   4  -2    1.48    0.16
  -1  -4   2    1.63    0.14
  -1  -4   2    1.86    0.13
  -1  -4   2    1.64    0.12
  -1  -4   2    1.86    0.14
  -1  -4   2    1.86    0.15
  -1  -4   2    1.63    0.18
   0   4  -2    7.92    0.63
   0   4  -2    8.48    0.63
   0   4  -2    9.16    0.62
   0   4  -2    8.37    0.63
   0   4  -2    9.36    0.61
   0  -4   2    8.92    0.61
   0  -4   2    8.89    0.63
   0  -4   2    9.10    0.62
   0  -4   2    7.95    0.63
   0  -4   2    8.65    0.61
   0  -4   2    8.94    0.60
   0  -4   2    9.23    0.61
  -1   4  -2    0.06    0.09
  -1   4  -2    0.26    0.07
  -1   4  -2    0.31    0.10
  -1   4  -2    0.24    0.04
  -1   4  -2    0.22    0.08
   1  -4   2    0.29    0.09
   1  -4   2    0.20    0.05
   1  -4   2    0.26    0.04
   1  -4   2    0.24    0.04
   1  -4   2    0.21    0.08
   1  -4   2    0.25    0.04
  -2   4  -2    0.07    0.08
  -2   4  -2    0.02    0.03
  -2   4  -2    0.01    0.06
   2  -4   2    0.02    0.02
   2  -4   2    0.01    0.04
   2  -4   2    0.02    0.03
   2  -4   2    0.02    0.04
  -3   4  -2    3.34    0.24
  -3   4  -2    3.36    0.26
  -3   4  -2    3.83    0.26
   3  -4   2    3.27    0.24
   3  -4   2    3.31    0.25
   3  -4   2    3.35    0.25
   3  -4   2    3.35    0.24
  -4   4  -2    0.55    0.09
  -4   4  -2    0.37    0.05
   4  -4   2    0.42    0.04
   4  -4   2    0.33    0.05
   4  -4   2    0.34    0.05
  -5   4  -2    0.05    0.05
  -5   4  -2    0.10    0.05
  -5   4  -2    0.12    0.02
   5  -4   2    0.05    0.03
   5  -4   2    0.11    0.02
   5  -4   2    0.12    0.03
   5  -4   2    0.05    0.04
  -6   4  -2    1.25    0.11
  -6   4  -2    1.45    0.10
  -6   4  -2    1.38    0.12
   6  -4   2    1.25    0.11
   6  -4   2    1.49    0.10
   6  -4   2    1.28    0.11
  10   3  -2    0.04    0.01
   9   3  -2    0.79    0.06
   9   3  -2    0.86    0.07
  -9  -3   2    0.88    0.07
  -9  -3   2    0.84    0.07
   8   3  -2    0.06    0.04
   8   3  -2    0.07    0.04
   8   3  -2    0.07    0.02
  -8  -3   2    0.06    0.03
  -8  -3   2    0.09    0.01
  -8  -3   2    0.06    0.02
   7   3  -2    1.15    0.13
   7   3  -2    1.45    0.11
   7   3  -2    1.34    0.12
   7   3  -2    1.39    0.14
   7   3  -2    1.53    0.11
  -7  -3   2    1.49    0.10
  -7  -3   2    1.56    0.11
  -7  -3   2    1.34    0.11
   6   3  -2    0.21    0.04
   6   3  -2    0.19    0.06
   6   3  -2    0.22    0.05
   6   3  -2    0.16    0.06
  -6  -3   2    0.26    0.05
  -6  -3   2    0.25    0.03
   5   3  -2   -0.02    0.06
   5   3  -2    0.09    0.07
   5   3  -2    0.05    0.06
   5   3  -2   -0.01    0.04
  -5  -3   2    0.03    0.03
  -5  -3   2    0.01    0.02
   4   3  -2    0.25    0.07
   4   3  -2    0.25    0.07
   4   3  -2    0.23    0.11
   4   3  -2    0.22    0.07
   4   3  -2    0.52    0.20
   4   3  -2    0.20    0.07
   4   3  -2    0.24    0.05
  -4  -3   2    0.31    0.08
  -4  -3   2    0.25    0.03
  -4  -3   2    0.41    0.07
   3   3  -2   10.01    0.68
   3   3  -2    8.22    0.70
   3   3  -2    9.88    0.68
   3   3  -2   10.44    0.68
   3   3  -2   10.07    0.68
   3   3  -2   10.60    0.67
   3   3  -2    9.60    0.68
   3   3  -2    9.50    0.69
  -3  -3   2    8.30    0.66
   2   3  -2    0.32    0.10
   2   3  -2    0.38    0.09
   2   3  -2    0.43    0.09
   2   3  -2    0.39    0.09
   2   3  -2    0.28    0.09
   2   3  -2    0.27    0.08
   2   3  -2    0.36    0.05
  -2  -3   2    0.31    0.05
  -2  -3   2    0.30    0.08
  -2  -3   2    0.28    0.05
  -2  -3   2    0.31    0.06
  -2  -3   2    0.34    0.05
  -2  -3   2    0.33    0.08
   1   3  -2    6.11    0.43
   1   3  -2    6.33    0.45
   1   3  -2    6.87    0.44
   1   3  -2    5.61    0.46
   1   3  -2    5.73    0.45
   1   3  -2    6.32    0.45
   1   3  -2    6.49    0.46
   1   3  -2    6.00    0.46
  -1  -3   2    5.28    0.43
  -1  -3   2    6.08    0.43
  -1  -3   2    6.41    0.44
  -1  -3   2    5.58    0.42
  -1  -3   2    6.48    0.45
  -1  -3   2    6.37    0.44
  -1  -3   2    6.24    0.45
   0   3  -2    8.72    0.64
   0   3  -2    9.50    0.66
   0   3  -2    9.76    0.65
   0   3  -2    7.96    0.66
   0   3  -2    9.39    0.66
   0  -3   2    9.34    0.64
   0  -3   2    8.61    0.63
   0  -3   2    9.12    0.64
   0  -3   2    8.77    0.63
   0  -3   2    9.33    0.65
   0  -3   2    9.46    0.66
   0  -3   2    9.69    0.64
  -1   3  -2    0.12    0.08
  -1   3  -2    0.04    0.10
  -1   3  -2    0.15    0.09
  -1   3  -2    0.14    0.09
   1  -3   2    0.06    0.07
   1  -3   2    0.06    0.04
   1  -3   2    0.11    0.04
   1  -3   2    0.11    0.06
   1  -3   2    0.17    0.05
   1  -3   2    0.14    0.02
   1  -3   2    0.11    0.07
  -2   3  -2    0.19    0.09
  -2   3  -2    0.15    0.09
  -2   3  -2    0.25    0.04
  -2   3  -2    0.21    0.08
  -2   3  -2    0.28    0.08
  -2   3  -2    0.16    0.08
   2  -3   2    0.17    0.04
   2  -3   2    0.20    0.04
   2  -3   2    0.28    0.08
   2  -3   2    0.23    0.03
   2  -3   2    0.23    0.07
   2  -3   2    0.20    0.08
   2  -3   2    0.23    0.05
  -3   3  -2    5.93    0.46
  -3   3  -2    6.21    0.47
  -3   3  -2    6.49    0.46
  -3   3  -2    6.55    0.45
  -3   3  -2    7.01    0.45
   3  -3   2    6.43    0.45
   3  -3   2    7.02    0.45
   3  -3   2    6.84    0.45
   3  -3   2    6.17    0.45
   3  -3   2    5.54    0.47
  -4   3  -2    0.31    0.04
  -4   3  -2    0.31    0.06
  -4   3  -2    0.40    0.07
  -4   3  -2    0.32    0.04
  -4   3  -2    0.35    0.07
  -4   3  -2    0.26    0.07
   4  -3   2    0.29    0.06
   4  -3   2    0.26    0.04
   4  -3   2    0.22    0.04
   4  -3   2    0.26    0.04
  -5   3  -2    0.03    0.02
  -5   3  -2    0.09    0.05
  -5   3  -2    0.08    0.05
  -5   3  -2    0.03    0.03
  -5   3  -2    0.06    0.03
   5  -3   2    0.10    0.04
   5  -3   2    0.04    0.02
   5  -3   2    0.08    0.04
   5  -3   2    0.08    0.03
  -6   3  -2    1.47    0.12
  -6   3  -2    1.61    0.12
  -6   3  -2    1.56    0.14
  -6   3  -2    1.52    0.13
  -6   3  -2    1.63    0.11
   6  -3   2    1.66    0.12
   6  -3   2    1.61    0.11
   6  -3   2    1.40    0.13
   6  -3   2    1.49    0.13
  -7   3  -2    0.05    0.02
  -7   3  -2   -0.02    0.04
  -7   3  -2   -0.02    0.03
  -7   3  -2    0.02    0.04
   7  -3   2   -0.01    0.03
   7  -3   2    0.06    0.03
   7  -3   2    0.01    0.02
   7  -3   2    0.02    0.02
  -8   3  -2   -0.02    0.03
   8  -3   2    0.05    0.03
   8  -3   2    0.01    0.01
   8  -3   2    0.02    0.02
  -9   3  -2    0.30    0.04
   9  -3   2    0.41    0.03
   9  -3   2    0.40    0.04
  10   2  -2    0.02    0.01
  10   2  -2    0.01    0.02
 -10  -2   2    0.00    0.01
 -10  -2   2    0.00    0.01
   9   2  -2    0.39    0.04
   9   2  -2    0.41    0.05
   9   2  -2    0.30    0.05
  -9  -2   2    0.39    0.05
  -9  -2   2    0.40    0.04
   8   2  -2    0.05    0.02
   8   2  -2    0.03    0.04
   8   2  -2    0.06    0.05
   8   2  -2    0.07    0.05
  -8  -2   2    0.02    0.02
  -8  -2   2    0.00    0.02
   7   2  -2    0.45    0.08
   7   2  -2    0.46    0.07
   7   2  -2    0.46    0.07
   7   2  -2    0.46    0.06
  -7  -2   2    0.46    0.06
  -7  -2   2    0.46    0.06
   6   2  -2    3.48    0.29
   6   2  -2    4.05    0.27
   6   2  -2    3.95    0.28
   6   2  -2    3.44    0.29
  -6  -2   2    3.95    0.27
  -6  -2   2    3.66    0.27
  -6  -2   2    4.00    0.27
   5   2  -2    0.11    0.04
   5   2  -2    0.20    0.07
   5   2  -2    0.13    0.06
   5   2  -2    0.11    0.07
  -5  -2   2    0.16    0.02
  -5  -2   2    0.18    0.04
   4   2  -2    0.88    0.14
   4   2  -2    0.77    0.13
   4   2  -2    0.86    0.13
   4   2  -2    0.74    0.10
   4   2  -2    1.06    0.10
   4   2  -2    0.92    0.12
   4   2  -2    0.89    0.17
   4   2  -2    0.87    0.12
  -4  -2   2    0.65    0.07
  -4  -2   2    0.79    0.12
  -4  -2   2    0.96    0.12
   3   2  -2   31.24    2.53
   3   2  -2   38.83    2.52
   3   2  -2   35.85    2.52
   3   2  -2   37.94    2.52
   3   2  -2   36.02    2.54
   3   2  -2   35.72    2.52
   3   2  -2   35.00    2.53
  -3  -2   2   39.29    2.53
  -3  -2   2   38.55    2.53
   2   2  -2    2.92    0.25
   2   2  -2    3.14    0.26
   2   2  -2    2.70    0.26
   2   2  -2    3.20    0.26
   2   2  -2    2.84    0.23
   2   2  -2    3.13    0.25
   2   2  -2    2.99    0.26
  -2  -2   2    2.83    0.24
  -2  -2   2    2.83    0.23
  -2  -2   2    3.26    0.25
   1   2  -2    0.55    0.11
   1   2  -2    0.43    0.10
   1   2  -2    0.59    0.11
   1   2  -2    0.47    0.07
   1   2  -2    0.55    0.12
   1   2  -2    0.40    0.10
   1   2  -2    0.47    0.10
  -1  -2   2    0.37    0.06
  -1  -2   2    0.47    0.09
  -1  -2   2    0.45    0.09
  -1  -2   2    0.49    0.07
  -1  -2   2    0.41    0.06
   0   2  -2   34.71    2.34
   0   2  -2   33.97    2.35
   0   2  -2   36.14    2.34
   0   2  -2   33.56    2.34
   0  -2   2   28.48    2.31
   0  -2   2   35.07    2.35
   0  -2   2   35.20    2.32
   0  -2   2   34.13    2.34
   0  -2   2   32.42    2.34
   0  -2   2   33.04    2.33
  -1   2  -2    8.15    0.53
  -1   2  -2    7.61    0.54
  -1   2  -2    7.05    0.53
  -1   2  -2    7.94    0.54
   1  -2   2    5.96    0.56
   1  -2   2    6.24    0.50
   1  -2   2    7.26    0.51
   1  -2   2    7.39    0.52
   1  -2   2    7.45    0.51
  -2   2  -2    0.05    0.06
  -2   2  -2   -0.04    0.09
  -2   2  -2    0.09    0.09
   2  -2   2    0.03    0.03
   2  -2   2    0.00    0.05
   2  -2   2   -0.07    0.07
   2  -2   2   -0.06    0.05
   2  -2   2    0.00    0.04
   2  -2   2    0.04    0.07
  -3   2  -2   11.67    0.85
  -3   2  -2   12.37    0.85
  -3   2  -2   11.57    0.85
  -3   2  -2   13.30    0.85
   3  -2   2   12.23    0.85
   3  -2   2   12.93    0.84
   3  -2   2   11.09    0.84
   3  -2   2   11.40    0.85
   3  -2   2   13.12    0.84
   3  -2   2   11.22    0.84
  -4   2  -2   -0.11    0.07
  -4   2  -2    0.02    0.07
  -4   2  -2   -0.10    0.09
  -4   2  -2    0.05    0.04
  -4   2  -2   -0.06    0.06
  -4   2  -2    0.07    0.03
  -4   2  -2    0.07    0.03
  -4   2  -2    0.12    0.07
   4  -2   2    0.07    0.07
   4  -2   2    0.06    0.04
   4  -2   2    0.00    0.02
   4  -2   2    0.02    0.03
   4  -2   2    0.05    0.04
  -5   2  -2    0.00    0.06
  -5   2  -2    0.05    0.03
  -5   2  -2    0.04    0.02
  -5   2  -2    0.02    0.03
  -5   2  -2   -0.04    0.05
   5  -2   2    0.01    0.04
   5  -2   2    0.04    0.03
   5  -2   2    0.02    0.04
   5  -2   2    0.01    0.02
  -6   2  -2    0.64    0.07
  -6   2  -2    0.58    0.10
  -6   2  -2    0.72    0.05
  -6   2  -2    0.54    0.09
  -6   2  -2    0.53    0.07
   6  -2   2    0.58    0.08
   6  -2   2    0.61    0.05
   6  -2   2    0.68    0.08
   6  -2   2    0.62    0.08
  -7   2  -2   -0.04    0.04
  -7   2  -2    0.06    0.03
  -7   2  -2    0.06    0.05
  -7   2  -2    0.04    0.04
  -7   2  -2    0.02    0.02
   7  -2   2    0.04    0.04
   7  -2   2    0.04    0.03
   7  -2   2    0.06    0.03
   7  -2   2    0.05    0.02
  -8   2  -2   -0.03    0.03
  -8   2  -2    0.04    0.03
  -8   2  -2   -0.02    0.02
   8  -2   2    0.00    0.02
   8  -2   2    0.00    0.02
   8  -2   2    0.00    0.03
  -9   2  -2    0.42    0.06
  -9   2  -2    0.25    0.04
  -9   2  -2    0.42    0.04
   9  -2   2    0.37    0.04
   9  -2   2    0.30    0.03
  10   1  -2    0.03    0.02
  10   1  -2    0.01    0.01
 -10  -1   2    0.01    0.01
 -10  -1   2    0.01    0.01
   9   1  -2    0.60    0.08
   9   1  -2    0.75    0.06
   9   1  -2    0.95    0.07
  -9  -1   2    0.82    0.07
  -9  -1   2    0.85    0.07
   8   1  -2    0.01    0.05
   8   1  -2    0.04    0.04
   8   1  -2   -0.01    0.02
   8   1  -2   -0.04    0.05
  -8  -1   2   -0.03    0.03
  -8  -1   2    0.00    0.02
   7   1  -2    0.05    0.04
   7   1  -2    0.02    0.03
   7   1  -2    0.02    0.05
   7   1  -2    0.05    0.06
  -7  -1   2    0.02    0.03
  -7  -1   2    0.03    0.01
  -7  -1   2    0.05    0.02
   6   1  -2    0.99    0.11
   6   1  -2    0.84    0.12
   6   1  -2    0.71    0.12
   6   1  -2    0.92    0.09
  -6  -1   2    1.06    0.07
  -6  -1   2    0.88    0.09
  -6  -1   2    0.89    0.09
   5   1  -2    0.22    0.04
   5   1  -2    0.13    0.06
   5   1  -2    0.09    0.07
   5   1  -2    0.11    0.06
  -5  -1   2    0.14    0.02
  -5  -1   2    0.09    0.04
  -5  -1   2    0.11    0.03
   4   1  -2    0.20    0.05
   4   1  -2    0.10    0.07
   4   1  -2   -0.03    0.05
   4   1  -2    0.10    0.08
   4   1  -2    0.05    0.07
   4   1  -2    0.06    0.06
  -4  -1   2    0.08    0.06
  -4  -1   2    0.06    0.05
   3   1  -2   69.29    4.60
   3   1  -2   65.74    4.56
   3   1  -2   64.62    4.58
   3   1  -2   61.48    4.57
   3   1  -2   63.59    4.57
   3   1  -2   67.03    4.56
  -3  -1   2   66.22    4.58
  -3  -1   2   71.75    4.57
   2   1  -2    6.74    0.48
   2   1  -2    6.82    0.48
   2   1  -2    6.57    0.48
   2   1  -2    6.51    0.48
   2   1  -2    6.32    0.48
   2   1  -2    6.04    0.48
  -2  -1   2    7.03    0.47
  -2  -1   2    6.19    0.47
  -2  -1   2    6.16    0.46
   1   1  -2    3.07    0.26
   1   1  -2    2.41    0.25
   1   1  -2    2.85    0.26
   1   1  -2    2.46    0.26
   1   1  -2    2.73    0.27
   1   1  -2    2.70    0.25
  -1  -1   2    2.56    0.24
  -1  -1   2    2.36    0.21
  -1  -1   2    2.31    0.22
  -1  -1   2    2.54    0.24
   0   1  -2  156.92   10.92
   0   1  -2  163.54   10.91
   0   1  -2  149.00   10.96
   0   1  -2  159.73   10.94
   0   1  -2  161.30   10.95
   0  -1   2  149.21   10.96
   0  -1   2  153.66   10.91
   0  -1   2  167.63   10.97
   0  -1   2  166.18   10.97
  -1   1  -2   35.79    2.46
  -1   1  -2   34.56    2.45
  -1   1  -2   35.88    2.44
  -1   1  -2   37.78    2.45
   1  -1   2   36.44    2.46
   1  -1   2   31.79    2.44
   1  -1   2   33.25    2.43
   1  -1   2   36.62    2.45
  -2   1  -2   12.42    0.91
  -2   1  -2   12.60    0.91
  -2   1  -2   13.03    0.91
  -2   1  -2   14.00    0.90
   2  -1   2   12.29    0.89
   2  -1   2   13.02    0.91
   2  -1   2   13.21    0.90
   2  -1   2   11.93    0.89
  -3   1  -2   49.27    3.44
  -3   1  -2   53.36    3.42
  -3   1  -2   54.82    3.43
  -3   1  -2   50.57    3.43
   3  -1   2   50.41    3.42
   3  -1   2   51.55    3.43
   3  -1   2   43.62    3.44
   3  -1   2   42.40    3.45
   3  -1   2   49.75    3.43
   3  -1   2   51.27    3.45
  -4   1  -2    0.17    0.07
  -4   1  -2    0.29    0.07
   4  -1   2    0.25    0.05
   4  -1   2    0.23    0.03
   4  -1   2    0.21    0.05
   4  -1   2    0.20    0.07
   4  -1   2    0.24    0.07
   4  -1   2    0.32    0.06
  -5   1  -2    0.92    0.12
  -5   1  -2    0.97    0.07
  -5   1  -2    0.67    0.09
  -5   1  -2    0.82    0.09
  -5   1  -2    0.78    0.11
   5  -1   2    0.80    0.11
   5  -1   2    0.74    0.07
   5  -1   2    0.95    0.09
   5  -1   2    0.93    0.08
  -6   1  -2    2.37    0.22
  -6   1  -2    3.21    0.20
   6  -1   2    2.74    0.20
   6  -1   2    2.98    0.21
   6  -1   2    2.87    0.21
   6  -1   2    2.86    0.21
  -7   1  -2    0.17    0.04
  -7   1  -2    0.22    0.04
  -7   1  -2    0.28    0.03
  -7   1  -2    0.29    0.06
   7  -1   2    0.24    0.03
   7  -1   2    0.19    0.04
   7  -1   2    0.23    0.04
  -8   1  -2    0.02    0.02
  -8   1  -2    0.04    0.03
  -8   1  -2    0.09    0.03
  -8   1  -2    0.10    0.04
   8  -1   2    0.06    0.02
   8  -1   2    0.06    0.03
   8  -1   2    0.09    0.04
   8  -1   2    0.06    0.03
  -9   1  -2    0.60    0.06
  -9   1  -2    0.45    0.05
   9  -1   2    0.46    0.04
   9  -1   2    0.34    0.06
 -10   1  -2    0.03    0.01
 -10   1  -2    0.03    0.02
  10  -1   2    0.01    0.02
  10  -1   2    0.01    0.01
  10   0  -2    0.04    0.01
  10   0  -2    0.06    0.02
 -10   0   2    0.04    0.01
 -10   0   2    0.03    0.02
   9   0  -2    1.26    0.09
   9   0  -2    1.05    0.09
  -9   0   2    1.15    0.10
   8   0  -2    0.08    0.05
   8   0  -2    0.06    0.03
  -8   0   2   -0.01    0.03
   7   0  -2    0.40    0.06
   7   0  -2    0.33    0.06
  -7   0   2    0.37    0.06
   6   0  -2    0.73    0.12
   6   0  -2    0.92    0.10
  -6   0   2    0.86    0.09
  -6   0   2    0.90    0.08
   5   0  -2   -0.03    0.07
   5   0  -2    0.03    0.04
  -5   0   2    0.01    0.03
  -5   0   2    0.07    0.04
   4   0  -2    4.70    0.34
   3   0  -2   70.96    4.80
   3   0  -2   72.69    4.81
   3   0  -2   70.76    4.82
   3   0  -2   66.17    4.80
  -3   0   2   67.52    4.79
   2   0  -2    1.39    0.18
   2   0  -2    1.21    0.18
   2   0  -2    1.30    0.22
   2   0  -2    1.82    0.17
   2   0  -2    1.61    0.18
  -2   0   2    1.64    0.16
  -2   0   2    1.54    0.16
   1   0  -2   82.08    5.38
   1   0  -2   84.54    5.41
   1   0  -2   78.62    5.38
   1   0  -2   69.73    5.33
   1   0  -2   77.41    5.38
   1   0  -2   75.52    5.37
  -1   0   2   67.50    5.36
  -1   0   2   82.74    5.39
  -1   0   2   81.60    5.36
   0   0  -2  140.55    8.53
   0   0  -2  124.71    8.46
   0   0  -2  123.07    8.48
   0   0  -2  122.63    8.45
   0   0  -2  124.04    8.49
   0   0  -2  102.87    8.40
   0   0   2  133.68    8.46
   0   0   2  114.74    8.44
   0   0   2  111.86    8.46
   0   0   2  128.39    8.50
  -1   0  -2  258.76   18.39
  -1   0  -2  272.76   18.33
  -1   0  -2  264.24   18.38
  -1   0  -2  270.80   18.44
   1   0   2  282.93   18.41
   1   0   2  253.42   18.27
   1   0   2  282.30   18.41
   1   0   2  247.61   18.37
  -2   0  -2  269.32   18.30
  -2   0  -2  259.75   18.26
  -2   0  -2  262.47   18.39
  -2   0  -2  294.01   18.37
  -2   0  -2  250.58   18.32
   2   0   2  252.56   18.38
   2   0   2  268.78   18.32
   2   0   2  265.97   18.32
   2   0   2  271.80   18.39
   2   0   2  264.33   18.25
  -3   0  -2   42.48    3.25
  -3   0  -2   49.35    3.24
  -3   0  -2   45.70    3.25
   3   0   2   45.02    3.25
   3   0   2   50.26    3.25
   3   0   2   47.03    3.23
   3   0   2   48.64    3.24
  -4   0  -2    1.95    0.17
  -4   0  -2    1.89    0.17
   4   0   2    1.63    0.14
   4   0   2    1.79    0.15
   4   0   2    1.67    0.17
   4   0   2    1.95    0.16
   4   0   2    1.92    0.15
  -5   0  -2    0.54    0.10
  -5   0  -2    0.67    0.09
  -5   0  -2    0.71    0.09
  -5   0  -2    0.84    0.12
  -5   0  -2    0.95    0.12
  -5   0  -2    0.69    0.07
   5   0   2    0.86    0.09
   5   0   2    0.68    0.13
   5   0   2    0.74    0.12
   5   0   2    0.75    0.09
   5   0   2    0.71    0.07
   5   0   2    0.75    0.08
  -6   0  -2    0.96    0.07
  -6   0  -2    0.85    0.11
  -6   0  -2    0.80    0.09
  -6   0  -2    0.92    0.09
   6   0   2    1.01    0.09
   6   0   2    0.86    0.07
   6   0   2    0.94    0.09
   6   0   2    0.85    0.10
  -7   0  -2    0.02    0.02
  -7   0  -2    0.03    0.03
  -7   0  -2   -0.01    0.03
  -7   0  -2   -0.02    0.04
   7   0   2    0.05    0.04
   7   0   2    0.04    0.02
   7   0   2   -0.01    0.03
   7   0   2    0.01    0.04
  -8   0  -2    0.43    0.05
  -8   0  -2    0.46    0.04
  -8   0  -2    0.31    0.05
   8   0   2    0.49    0.07
   8   0   2    0.37    0.05
   8   0   2    0.48    0.05
   8   0   2    0.44    0.05
  -9   0  -2    0.51    0.05
  -9   0  -2    0.44    0.07
  -9   0  -2    0.41    0.05
   9   0   2    0.49    0.04
   9   0   2    0.39    0.06
   9   0   2    0.56    0.05
 -10   0  -2    0.00    0.01
 -10   0  -2    0.03    0.02
  10   0   2    0.02    0.02
  10   0   2    0.02    0.01
 -10   1   2    0.00    0.01
 -10   1   2    0.01    0.01
   9  -1  -2    0.64    0.06
   8  -1  -2    0.03    0.03
  -8   1   2    0.02    0.03
  -8   1   2    0.03    0.02
   7  -1  -2    0.07    0.04
   7  -1  -2    0.06    0.05
  -7   1   2    0.08    0.02
  -7   1   2    0.04    0.03
   6  -1  -2    3.35    0.26
  -6   1   2    3.40    0.25
  -6   1   2    3.44    0.25
   5  -1  -2    4.46    0.31
  -5   1   2    4.35    0.30
  -5   1   2    3.65    0.30
   4  -1  -2    4.41    0.33
   3  -1  -2   67.42    5.02
   3  -1  -2   77.36    4.98
   2  -1  -2    9.82    0.70
   1  -1  -2  125.83    8.88
   1  -1  -2  127.44    8.92
  -1   1   2  122.97    8.87
  -1   1   2  131.64    8.88
  -1   1   2  137.13    8.92
   0  -1  -2  521.77   35.95
  -1  -1  -2   34.98    2.46
  -1  -1  -2   34.77    2.46
  -1  -1  -2   35.62    2.45
  -1  -1  -2   35.99    2.48
   1   1   2   36.56    2.46
   1   1   2   33.96    2.44
   1   1   2   33.72    2.46
   1   1   2   35.26    2.44
   1   1   2   36.96    2.46
  -2  -1  -2    2.17    0.24
  -2  -1  -2    2.18    0.24
   2   1   2    2.71    0.23
   2   1   2    2.66    0.22
   2   1   2    2.35    0.24
  -3  -1  -2   32.26    2.22
  -3  -1  -2   33.10    2.21
  -3  -1  -2   30.54    2.25
   3   1   2   32.79    2.21
   3   1   2   32.47    2.22
   3   1   2   31.15    2.22
   3   1   2   31.79    2.22
  -4  -1  -2    0.84    0.14
  -4  -1  -2    0.82    0.13
   4   1   2    1.09    0.11
   4   1   2    1.05    0.13
   4   1   2    0.92    0.09
   4   1   2    0.85    0.14
   4   1   2    0.97    0.13
   4   1   2    1.24    0.12
  -5  -1  -2    0.62    0.11
  -5  -1  -2    0.42    0.08
  -5  -1  -2    0.51    0.08
  -5  -1  -2    0.39    0.06
   5   1   2    0.48    0.08
   5   1   2    0.58    0.06
   5   1   2    0.44    0.09
   5   1   2    0.42    0.07
   5   1   2    0.66    0.10
  -6  -1  -2    4.13    0.33
  -6  -1  -2    4.49    0.32
  -6  -1  -2    4.54    0.33
   6   1   2    4.67    0.32
   6   1   2    4.68    0.33
   6   1   2    4.88    0.33
   6   1   2    4.58    0.33
  -7  -1  -2    0.01    0.04
  -7  -1  -2    0.08    0.02
  -7  -1  -2    0.03    0.02
  -7  -1  -2    0.09    0.04
   7   1   2    0.11    0.04
   7   1   2    0.07    0.05
   7   1   2    0.06    0.02
  -8  -1  -2    0.42    0.05
  -8  -1  -2    0.43    0.04
  -8  -1  -2    0.32    0.06
  -8  -1  -2    0.37    0.07
   8   1   2    0.45    0.05
   8   1   2    0.35    0.05
   8   1   2    0.42    0.06
  -9  -1  -2    0.44    0.05
  -9  -1  -2    0.53    0.06
  -9  -1  -2    0.59    0.07
   9   1   2    0.51    0.07
   9   1   2    0.64    0.06
   9   1   2    0.56    0.05
 -10  -1  -2    0.00    0.01
 -10  -1  -2    0.01    0.02
  10   1   2    0.01    0.01
  10   1   2    0.02    0.02
 -11  -1  -2    0.01    0.01
 -11  -1  -2    0.00    0.01
  11   1   2    0.00    0.01
 -10   2   2    0.15    0.02
 -10   2   2    0.22    0.03
  -9   2   2    0.43    0.05
  -9   2   2    0.52    0.05
   8  -2  -2   -0.06    0.04
  -8   2   2   -0.02    0.03
  -8   2   2   -0.01    0.02
  -7   2   2    0.81    0.08
  -7   2   2    0.82    0.09
   6  -2  -2    4.86    0.34
  -6   2   2    4.71    0.34
  -6   2   2    4.56    0.34
   5  -2  -2    0.03    0.06
  -5   2   2    0.05    0.03
  -5   2   2    0.06    0.04
   4  -2  -2    0.08    0.07
   3  -2  -2    1.51    0.17
   2  -2  -2   65.28    4.51
   1  -2  -2  198.40   13.32
   1  -2  -2  186.23   13.29
  -1   2   2  193.99   13.30
   0  -2  -2   26.55    1.94
   0  -2  -2   25.56    1.94
   0  -2  -2   27.95    1.94
   0  -2  -2   27.05    1.95
   0   2   2   29.90    1.94
   0   2   2   27.81    1.94
   0   2   2   27.19    1.95
   0   2   2   27.59    1.94
  -1  -2  -2    4.14    0.36
  -1  -2  -2    3.93    0.36
  -1  -2  -2    4.12    0.34
  -1  -2  -2    3.69    0.34
  -1  -2  -2    4.40    0.35
   1   2   2    4.55    0.34
   1   2   2    4.55    0.34
   1   2   2    4.38    0.35
   1   2   2    4.04    0.33
  -2  -2  -2   46.65    3.33
  -2  -2  -2   45.51    3.31
  -2  -2  -2   48.06    3.33
  -2  -2  -2   47.82    3.29
  -2  -2  -2   47.87    3.30
   2   2   2   50.05    3.28
   2   2   2   50.85    3.31
   2   2   2   46.28    3.33
   2   2   2   47.37    3.30
   2   2   2   47.29    3.30
  -3  -2  -2    3.56    0.30
  -3  -2  -2    3.51    0.31
  -3  -2  -2    3.45    0.30
  -3  -2  -2    3.80    0.33
   3   2   2    3.98    0.29
   3   2   2    4.06    0.30
   3   2   2    3.97    0.29
   3   2   2    3.61    0.29
   3   2   2    3.69    0.30
  -4  -2  -2    0.34    0.10
  -4  -2  -2    0.42    0.08
  -4  -2  -2    0.43    0.08
   4   2   2    0.43    0.08
   4   2   2    0.65    0.09
   4   2   2    0.53    0.07
   4   2   2    0.45    0.08
   4   2   2    0.35    0.08
   4   2   2    0.41    0.08
  -5  -2  -2    0.31    0.06
  -5  -2  -2    0.29    0.06
  -5  -2  -2    0.17    0.08
  -5  -2  -2    0.35    0.04
  -5  -2  -2    0.23    0.08
   5   2   2    0.31    0.07
   5   2   2    0.37    0.09
   5   2   2    0.39    0.06
   5   2   2    0.24    0.06
   5   2   2    0.50    0.08
   5   2   2    0.22    0.08
  -6  -2  -2    8.33    0.63
  -6  -2  -2    8.47    0.63
  -6  -2  -2    8.68    0.63
   6   2   2    9.22    0.63
   6   2   2    9.89    0.64
   6   2   2    8.86    0.63
   6   2   2    9.84    0.63
  -7  -2  -2    0.06    0.02
  -7  -2  -2    0.08    0.03
  -7  -2  -2    0.04    0.04
  -7  -2  -2    0.02    0.02
   7   2   2    0.05    0.05
   7   2   2    0.10    0.05
   7   2   2    0.04    0.03
  -8  -2  -2   -0.01    0.03
  -8  -2  -2    0.01    0.03
  -8  -2  -2   -0.01    0.02
  -8  -2  -2   -0.01    0.02
   8   2   2    0.03    0.03
   8   2   2    0.05    0.04
   8   2   2    0.04    0.04
   8   2   2    0.00    0.02
  -9  -2  -2    2.01    0.16
  -9  -2  -2    2.38    0.15
  -9  -2  -2    2.24    0.16
   9   2   2    2.13    0.15
   9   2   2    2.26    0.16
   9   2   2    1.84    0.16
 -10  -2  -2    0.46    0.05
 -10  -2  -2    0.39    0.04
  10   2   2    0.44    0.04
 -11  -2  -2   -0.01    0.01
 -11  -2  -2   -0.01    0.01
  11   2   2    0.01    0.01
 -10   3   2    0.00    0.01
 -10   3   2    0.03    0.02
  -9   3   2    0.24    0.03
  -9   3   2    0.23    0.04
  -8   3   2    0.13    0.03
  -8   3   2    0.14    0.02
   7  -3  -2    0.29    0.05
  -7   3   2    0.47    0.06
  -7   3   2    0.37    0.06
  -7   3   2    0.43    0.07
   6  -3  -2    3.83    0.31
  -6   3   2    4.61    0.31
  -6   3   2    4.35    0.30
  -5   3   2    0.42    0.06
  -5   3   2    0.44    0.08
   4  -3  -2    0.36    0.10
  -4   3   2    0.48    0.07
   3  -3  -2    2.25    0.20
   2  -3  -2    0.81    0.14
   1  -3  -2    7.69    0.60
   1  -3  -2    7.82    0.57
  -1   3   2    8.28    0.57
  -1   3   2    8.46    0.59
   0  -3  -2   30.75    2.05
   0  -3  -2   28.65    2.05
   0  -3  -2   28.81    2.06
   0  -3  -2   29.82    2.04
   0  -3  -2   25.12    2.04
   0  -3  -2   29.00    2.06
   0   3   2   32.15    2.05
   0   3   2   30.85    2.05
   0   3   2   29.49    2.06
   0   3   2   31.03    2.04
  -1  -3  -2    6.82    0.50
  -1  -3  -2    6.34    0.51
  -1  -3  -2    6.31    0.48
  -1  -3  -2    6.51    0.50
  -1  -3  -2    6.83    0.49
   1   3   2    7.12    0.50
   1   3   2    6.93    0.49
   1   3   2    6.75    0.49
   1   3   2    7.10    0.50
   1   3   2    7.18    0.49
  -2  -3  -2   12.73    0.94
  -2  -3  -2   13.57    0.93
  -2  -3  -2   13.29    0.94
  -2  -3  -2   12.05    0.95
   2   3   2   13.57    0.94
   2   3   2   12.84    0.94
   2   3   2   14.72    0.93
   2   3   2   14.38    0.94
   2   3   2   12.83    0.95
   2   3   2   13.74    0.94
  -3  -3  -2    8.34    0.53
  -3  -3  -2    7.20    0.53
  -3  -3  -2    6.83    0.53
  -3  -3  -2    8.03    0.53
  -3  -3  -2    7.47    0.54
  -3  -3  -2    7.09    0.52
   3   3   2    6.82    0.53
   3   3   2    6.87    0.54
   3   3   2    6.98    0.52
   3   3   2    7.27    0.53
   3   3   2    7.58    0.51
   3   3   2    7.16    0.53
  -4  -3  -2   16.34    1.08
  -4  -3  -2   14.57    1.08
  -4  -3  -2   15.89    1.10
   4   3   2   16.01    1.07
   4   3   2   14.86    1.08
   4   3   2   14.69    1.09
   4   3   2   16.42    1.08
   4   3   2   15.49    1.08
   4   3   2   15.23    1.08
  -5  -3  -2    1.22    0.11
  -5  -3  -2    1.12    0.10
  -5  -3  -2    1.07    0.15
  -5  -3  -2    0.93    0.17
  -5  -3  -2    1.42    0.14
   5   3   2    1.39    0.12
   5   3   2    1.24    0.10
   5   3   2    1.04    0.13
   5   3   2    1.21    0.13
   5   3   2    0.83    0.16
   5   3   2    1.02    0.15
  -6  -3  -2    6.06    0.43
  -6  -3  -2    6.09    0.44
  -6  -3  -2    6.17    0.44
   6   3   2    6.35    0.44
   6   3   2    6.67    0.43
   6   3   2    5.74    0.44
   6   3   2    6.44    0.44
  -7  -3  -2    1.10    0.11
  -7  -3  -2    1.16    0.10
  -7  -3  -2    1.18    0.09
  -7  -3  -2    0.99    0.10
   7   3   2    1.09    0.11
   7   3   2    1.27    0.11
   7   3   2    1.22    0.09
   7   3   2    1.05    0.12
  -8  -3  -2   -0.02    0.03
  -8  -3  -2   -0.01    0.02
  -8  -3  -2    0.02    0.02
  -8  -3  -2   -0.02    0.03
   8   3   2    0.02    0.04
   8   3   2    0.03    0.04
   8   3   2    0.00    0.03
   8   3   2    0.03    0.02
  -9  -3  -2    0.23    0.02
  -9  -3  -2    0.17    0.03
   9   3   2    0.13    0.04
   9   3   2    0.24    0.03
   9   3   2    0.25    0.03
 -10  -3  -2    0.15    0.02
 -10  -3  -2    0.09    0.01
  10   3   2    0.11    0.02
  11   3   2    0.02    0.01
  -9   4   2    0.12    0.02
  -9   4   2    0.16    0.03
  -8   4   2    0.09    0.03
  -8   4   2    0.08    0.02
  -7   4   2    0.25    0.04
  -7   4   2    0.26    0.05
  -7   4   2    0.25    0.05
  -6   4   2    1.78    0.15
  -6   4   2    1.97    0.14
  -6   4   2    1.70    0.15
   5  -4  -2    0.10    0.03
  -5   4   2    0.04    0.04
  -5   4   2    0.16    0.05
  -4   4   2   -0.02    0.04
  -4   4   2    0.08    0.03
   2  -4  -2    8.49    0.61
   1  -4  -2   18.73    1.25
   1  -4  -2   15.29    1.24
   1  -4  -2   19.12    1.25
   1  -4  -2   17.88    1.23
   1  -4  -2   17.07    1.23
  -1   4   2   18.38    1.24
  -1   4   2   18.36    1.24
   0  -4  -2   57.06    4.14
   0  -4  -2   55.43    4.16
   0  -4  -2   56.36    4.13
   0  -4  -2   61.22    4.13
   0  -4  -2   60.63    4.16
   0  -4  -2   61.15    4.14
   0   4   2   59.32    4.13
   0   4   2   63.17    4.13
   0   4   2   61.71    4.15
   0   4   2   63.29    4.15
  -1  -4  -2    3.04    0.26
  -1  -4  -2    3.37    0.27
  -1  -4  -2    3.03    0.24
  -1  -4  -2    3.51    0.25
  -1  -4  -2    3.26    0.25
  -1  -4  -2    3.18    0.27
   1   4   2    3.43    0.25
   1   4   2    3.71    0.27
   1   4   2    3.39    0.26
   1   4   2    3.18    0.26
  -2  -4  -2    2.49    0.19
  -2  -4  -2    2.34    0.19
  -2  -4  -2    2.32    0.21
  -2  -4  -2    2.13    0.21
  -2  -4  -2    2.07    0.21
  -2  -4  -2    2.19    0.17
   2   4   2    2.16    0.17
   2   4   2    2.47    0.20
   2   4   2    2.30    0.19
   2   4   2    2.60    0.20
   2   4   2    2.27    0.20
   2   4   2    2.46    0.19
   2   4   2    2.16    0.20
  -3  -4  -2   56.90    3.90
  -3  -4  -2   55.41    3.91
  -3  -4  -2   54.49    3.91
  -3  -4  -2   59.54    3.93
  -3  -4  -2   55.00    3.93
   3   4   2   57.75    3.90
   3   4   2   58.73    3.91
   3   4   2   58.21    3.89
   3   4   2   55.28    3.91
   3   4   2   55.73    3.95
   3   4   2   58.73    3.91
   3   4   2   54.46    3.93
  -4  -4  -2    3.50    0.28
  -4  -4  -2    3.72    0.30
  -4  -4  -2    3.72    0.26
  -4  -4  -2    3.50    0.28
  -4  -4  -2    3.77    0.28
  -4  -4  -2    3.19    0.26
  -4  -4  -2    3.65    0.30
  -4  -4  -2    3.19    0.27
   4   4   2    3.52    0.27
   4   4   2    3.69    0.27
   4   4   2    4.01    0.27
   4   4   2    3.79    0.28
   4   4   2    3.71    0.28
   4   4   2    3.57    0.29
   4   4   2    3.73    0.26
  -5  -4  -2   -0.02    0.04
  -5  -4  -2   -0.01    0.08
  -5  -4  -2   -0.12    0.09
  -5  -4  -2    0.13    0.05
   5   4   2   -0.02    0.06
   5   4   2   -0.02    0.03
   5   4   2    0.03    0.04
   5   4   2    0.04    0.07
   5   4   2    0.02    0.03
  -6  -4  -2    3.44    0.27
  -6  -4  -2    2.74    0.23
  -6  -4  -2    3.14    0.22
  -6  -4  -2    3.35    0.22
  -6  -4  -2    3.21    0.23
   6   4   2    3.21    0.23
   6   4   2    2.95    0.23
   6   4   2    3.12    0.22
   6   4   2    2.79    0.23
   6   4   2    2.80    0.22
  -7  -4  -2    0.65    0.08
  -7  -4  -2    0.60    0.07
  -7  -4  -2    0.69    0.06
  -7  -4  -2    0.73    0.07
   7   4   2    0.62    0.10
   7   4   2    0.66    0.11
   7   4   2    0.62    0.08
   7   4   2    0.71    0.06
  -8  -4  -2    0.32    0.05
  -8  -4  -2    0.30    0.05
  -8  -4  -2    0.36    0.06
  -8  -4  -2    0.36    0.03
   8   4   2    0.33    0.05
   8   4   2    0.37    0.04
   8   4   2    0.31    0.05
   8   4   2    0.30    0.06
  -9  -4  -2    0.93    0.07
  -9  -4  -2    0.93    0.07
  -9  -4  -2    0.89    0.08
  -9  -4  -2    0.78    0.07
   9   4   2    0.99    0.08
   9   4   2    0.90    0.07
 -10  -4  -2   -0.02    0.02
  10   4   2    0.03    0.02
  10   4   2    0.01    0.01
  -9   5   2    0.23    0.03
  -8   5   2    0.47    0.04
  -8   5   2    0.34    0.04
  -7   5   2    0.25    0.05
  -7   5   2    0.26    0.04
  -6   5   2    1.32    0.12
  -6   5   2    1.52    0.11
  -5   5   2    0.22    0.04
  -5   5   2    0.14    0.03
  -4   5   2    0.34    0.07
  -4   5   2    0.44    0.07
   3  -5  -2    4.51    0.33
  -3   5   2    5.03    0.34
  -3   5   2    4.55    0.34
   2  -5  -2    3.31    0.25
  -2   5   2    3.82    0.27
   1  -5  -2    0.38    0.05
   1  -5  -2    0.25    0.04
   1  -5  -2    0.26    0.03
   1  -5  -2    0.38    0.07
   1  -5  -2    0.34    0.07
   1  -5  -2    0.42    0.06
  -1   5   2    0.38    0.07
  -1   5   2    0.29    0.06
  -1   5   2    0.32    0.06
   0  -5  -2   31.00    2.14
   0  -5  -2   32.39    2.13
   0  -5  -2   28.92    2.14
   0  -5  -2   28.91    2.13
   0  -5  -2   30.76    2.13
   0  -5  -2   27.54    2.13
   0   5   2   31.75    2.14
   0   5   2   32.29    2.14
   0   5   2   34.25    2.14
  -1  -5  -2    5.61    0.39
  -1  -5  -2    5.28    0.41
  -1  -5  -2    5.50    0.39
  -1  -5  -2    5.37    0.41
  -1  -5  -2    5.57    0.41
  -1  -5  -2    5.49    0.39
   1   5   2    5.46    0.41
   1   5   2    5.67    0.41
   1   5   2    5.87    0.39
   1   5   2    5.72    0.41
  -2  -5  -2    7.31    0.49
  -2  -5  -2    6.74    0.51
  -2  -5  -2    7.03    0.49
  -2  -5  -2    6.55    0.50
  -2  -5  -2    6.96    0.51
  -2  -5  -2    6.85    0.49
   2   5   2    6.29    0.50
   2   5   2    6.15    0.50
   2   5   2    7.01    0.50
   2   5   2    7.73    0.49
   2   5   2    6.64    0.50
   2   5   2    7.47    0.49
   2   5   2    7.81    0.49
  -3  -5  -2    8.42    0.57
  -3  -5  -2    7.83    0.58
  -3  -5  -2    8.23    0.57
  -3  -5  -2    7.77    0.58
  -3  -5  -2    7.38    0.58
   3   5   2    7.17    0.57
   3   5   2    8.50    0.56
   3   5   2    7.77    0.58
   3   5   2    8.36    0.57
   3   5   2    7.51    0.58
   3   5   2    8.66    0.56
   3   5   2    8.33    0.57
   3   5   2    8.76    0.56
  -4  -5  -2    2.50    0.22
  -4  -5  -2    2.46    0.20
  -4  -5  -2    2.23    0.18
  -4  -5  -2    2.48    0.20
   4   5   2    2.21    0.20
   4   5   2    2.36    0.19
   4   5   2    2.38    0.20
   4   5   2    2.69    0.18
   4   5   2    2.52    0.18
   4   5   2    2.62    0.18
   4   5   2    2.49    0.22
  -5  -5  -2    0.03    0.08
  -5  -5  -2    0.15    0.04
  -5  -5  -2    0.12    0.03
   5   5   2    0.07    0.03
   5   5   2    0.13    0.05
   5   5   2    0.06    0.03
   5   5   2    0.05    0.05
   5   5   2    0.11    0.04
   5   5   2    0.06    0.03
  -6  -5  -2    3.01    0.25
  -6  -5  -2    2.65    0.20
  -6  -5  -2    2.83    0.20
   6   5   2    2.94    0.20
   6   5   2    2.99    0.21
   6   5   2    2.66    0.21
   6   5   2    2.72    0.22
   6   5   2    2.76    0.20
   6   5   2    2.77    0.20
  -7  -5  -2    0.17    0.02
  -7  -5  -2    0.14    0.04
  -7  -5  -2    0.14    0.03
   7   5   2    0.17    0.04
   7   5   2    0.15    0.05
   7   5   2    0.03    0.04
   7   5   2    0.11    0.02
   7   5   2    0.15    0.03
  -8  -5  -2    0.07    0.03
  -8  -5  -2    0.08    0.02
  -8  -5  -2    0.04    0.04
   8   5   2    0.08    0.03
   8   5   2    0.09    0.02
   8   5   2    0.01    0.04
   8   5   2    0.06    0.05
  -9  -5  -2    0.44    0.03
   9   5   2    0.45    0.05
   9   5   2    0.35    0.04
  10   5   2    0.04    0.01
  -8   6   2    0.07    0.02
   6  -6  -2    0.23    0.04
  -6   6   2    0.15    0.03
   5  -6  -2    0.04    0.02
   5  -6  -2   -0.06    0.06
  -5   6   2    0.02    0.03
  -5   6   2    0.04    0.03
   4  -6  -2   -0.03    0.06
   4  -6  -2   -0.01    0.03
  -4   6   2   -0.01    0.04
   3  -6  -2    1.08    0.12
   3  -6  -2    0.91    0.08
   3  -6  -2    0.86    0.08
  -3   6   2    1.05    0.10
   2  -6  -2    0.66    0.07
   2  -6  -2    0.56    0.05
   2  -6  -2    0.70    0.11
   2  -6  -2    0.59    0.08
  -2   6   2    0.63    0.05
  -2   6   2    0.63    0.06
  -2   6   2    0.68    0.08
   1  -6  -2    1.38    0.14
   1  -6  -2    1.40    0.12
   1  -6  -2    1.38    0.11
   1  -6  -2    1.48    0.12
  -1   6   2    1.60    0.13
  -1   6   2    1.39    0.11
  -1   6   2    1.45    0.11
   0  -6  -2    5.44    0.39
   0  -6  -2    5.34    0.38
   0  -6  -2    5.08    0.38
   0  -6  -2    4.74    0.37
   0   6   2    5.76    0.38
   0   6   2    5.49    0.38
   0   6   2    5.69    0.37
  -1  -6  -2    0.15    0.06
  -1  -6  -2    0.19    0.04
  -1  -6  -2    0.32    0.10
  -1  -6  -2    0.18    0.03
   1   6   2    0.20    0.03
   1   6   2    0.18    0.05
   1   6   2    0.18    0.04
   1   6   2    0.05    0.07
   1   6   2    0.15    0.04
   1   6   2    0.24    0.10
  -2  -6  -2    0.06    0.04
  -2  -6  -2    0.03    0.02
  -2  -6  -2    0.03    0.07
  -2  -6  -2   -0.04    0.03
  -2  -6  -2   -0.05    0.06
   2   6   2    0.03    0.03
   2   6   2    0.00    0.05
   2   6   2    0.02    0.02
   2   6   2   -0.02    0.07
   2   6   2    0.01    0.08
  -3  -6  -2    6.81    0.51
  -3  -6  -2    7.23    0.50
  -3  -6  -2    7.00    0.50
  -3  -6  -2    6.79    0.49
   3   6   2    7.03    0.49
   3   6   2    7.22    0.49
   3   6   2    6.97    0.49
  -4  -6  -2    1.10    0.15
  -4  -6  -2    1.18    0.11
  -4  -6  -2    1.15    0.12
  -4  -6  -2    0.90    0.09
  -4  -6  -2    1.08    0.08
   4   6   2    0.79    0.12
   4   6   2    1.05    0.08
   4   6   2    0.93    0.11
   4   6   2    1.05    0.08
   4   6   2    0.90    0.10
   4   6   2    0.94    0.08
  -5  -6  -2    0.09    0.08
  -5  -6  -2    0.14    0.04
  -5  -6  -2    0.06    0.02
   5   6   2    0.06    0.04
   5   6   2    0.07    0.02
   5   6   2    0.08    0.02
   5   6   2    0.06    0.05
   5   6   2    0.10    0.03
   5   6   2    0.05    0.05
  -6  -6  -2    1.90    0.14
  -6  -6  -2    2.24    0.21
   6   6   2    1.98    0.14
   6   6   2    1.92    0.14
   6   6   2    1.82    0.16
   6   6   2    2.00    0.14
   6   6   2    1.90    0.15
   6   6   2    1.68    0.16
  -7  -6  -2    0.22    0.03
  -7  -6  -2    0.23    0.03
   7   6   2    0.24    0.04
   7   6   2    0.24    0.04
   7   6   2    0.16    0.02
   7   6   2    0.11    0.04
  -8  -6  -2    0.21    0.03
  -8  -6  -2    0.21    0.03
   8   6   2    0.15    0.03
   8   6   2    0.19    0.02
   8   6   2    0.16    0.02
   8   6   2    0.02    0.06
  -9  -6  -2    0.27    0.02
   9   6   2    0.20    0.03
   9   6   2    0.23    0.04
  -7   7   2    0.02    0.01
   6  -7  -2    0.53    0.05
   6  -7  -2    0.47    0.04
  -6   7   2    0.58    0.05
  -5   7   2    0.21    0.10
  -5   7   2    0.00    0.03
   4  -7  -2    0.00    0.02
   4  -7  -2    0.00    0.05
   4  -7  -2    0.01    0.02
  -4   7   2    0.01    0.03
   3  -7  -2    0.80    0.06
   3  -7  -2    0.71    0.08
   3  -7  -2    0.88    0.11
   3  -7  -2    0.84    0.07
  -3   7   2    0.91    0.09
   2  -7  -2    0.19    0.03
   2  -7  -2    0.15    0.02
   2  -7  -2    0.18    0.06
   2  -7  -2    0.19    0.04
  -2   7   2    0.17    0.02
  -2   7   2    0.15    0.04
  -2   7   2    0.12    0.02
   1  -7  -2    0.58    0.11
   1  -7  -2    0.54    0.05
   1  -7  -2    0.55    0.07
  -1   7   2    0.59    0.07
  -1   7   2    0.53    0.05
  -1   7   2    0.52    0.05
   0  -7  -2    1.32    0.10
   0  -7  -2    1.35    0.12
   0  -7  -2    1.49    0.14
   0  -7  -2    1.43    0.11
   0   7   2    1.41    0.10
   0   7   2    1.55    0.11
   0   7   2    1.28    0.14
  -1  -7  -2    1.57    0.12
  -1  -7  -2    1.67    0.16
  -1  -7  -2    1.66    0.13
  -1  -7  -2    1.69    0.13
   1   7   2    1.56    0.12
   1   7   2    1.43    0.13
   1   7   2    1.68    0.12
  -2  -7  -2    0.40    0.05
  -2  -7  -2    0.51    0.05
  -2  -7  -2    0.49    0.08
  -2  -7  -2    0.50    0.08
   2   7   2    0.51    0.05
   2   7   2    0.38    0.06
   2   7   2    0.49    0.06
  -3  -7  -2    3.99    0.28
  -3  -7  -2    4.29    0.31
  -3  -7  -2    4.27    0.29
  -3  -7  -2    4.44    0.29
   3   7   2    3.70    0.28
   3   7   2    3.90    0.29
   3   7   2    3.72    0.28
  -4  -7  -2    0.03    0.02
  -4  -7  -2    0.04    0.02
   4   7   2    0.03    0.02
   4   7   2    0.06    0.03
   4   7   2    0.02    0.04
  -5  -7  -2    0.03    0.03
  -5  -7  -2    0.02    0.02
  -5  -7  -2    0.00    0.08
   5   7   2    0.03    0.02
   5   7   2   -0.02    0.04
   5   7   2    0.04    0.02
  -6  -7  -2    0.33    0.05
  -6  -7  -2    0.38    0.04
   6   7   2    0.31    0.04
   6   7   2    0.33    0.03
   6   7   2    0.26    0.04
   6   7   2    0.28    0.05
  -7  -7  -2    0.26    0.04
   7   7   2    0.22    0.03
   7   7   2    0.25    0.03
   7   7   2    0.21    0.03
   8   7   2    0.12    0.02
   8   7   2    0.13    0.02
  -9  -7  -2    0.24    0.02
   6  -8  -2    0.21    0.02
   5  -8  -2    0.16    0.03
   5  -8  -2    0.13    0.02
  -5   8   2    0.15    0.03
   4  -8  -2    0.06    0.03
   4  -8  -2    0.01    0.01
   4  -8  -2    0.04    0.02
  -4   8   2    0.01    0.03
   3  -8  -2    1.03    0.08
   3  -8  -2    1.29    0.13
   3  -8  -2    1.12    0.09
   3  -8  -2    1.01    0.09
  -3   8   2    1.11    0.09
   2  -8  -2    0.03    0.03
   2  -8  -2    0.02    0.03
   2  -8  -2    0.02    0.02
   2  -8  -2    0.02    0.05
  -2   8   2    0.00    0.01
  -2   8   2    0.04    0.03
   1  -8  -2    0.07    0.02
   1  -8  -2    0.12    0.06
   1  -8  -2    0.05    0.04
   1  -8  -2    0.09    0.03
  -1   8   2    0.06    0.02
  -1   8   2    0.05    0.02
  -1   8   2    0.08    0.03
   0  -8  -2    3.34    0.23
   0  -8  -2    2.89    0.20
   0  -8  -2    2.83    0.21
   0  -8  -2    3.08    0.21
   0   8   2    2.65    0.21
   0   8   2    2.75    0.20
   0   8   2    2.73    0.20
  -1  -8  -2    2.85    0.23
  -1  -8  -2    3.30    0.22
  -1  -8  -2    3.33    0.25
  -1  -8  -2    3.21    0.22
   1   8   2    2.90    0.22
   1   8   2    2.90    0.22
  -2  -8  -2    0.11    0.04
  -2  -8  -2    0.08    0.02
  -2  -8  -2    0.04    0.06
  -2  -8  -2    0.08    0.04
   2   8   2    0.09    0.02
   2   8   2    0.05    0.02
  -3  -8  -2    1.57    0.11
  -3  -8  -2    1.54    0.16
  -3  -8  -2    1.23    0.10
  -3  -8  -2    1.39    0.13
   3   8   2    1.41    0.11
   3   8   2    1.36    0.10
  -4  -8  -2    0.32    0.09
  -4  -8  -2    0.29    0.04
  -4  -8  -2    0.24    0.04
   4   8   2    0.35    0.04
   4   8   2    0.28    0.03
  -5  -8  -2    0.11    0.03
   5   8   2    0.11    0.02
   5   8   2    0.11    0.02
  -6  -8  -2    0.91    0.07
  -6  -8  -2    0.86    0.06
   6   8   2    0.80    0.06
  -7  -8  -2    0.02    0.01
   7   8   2    0.01    0.01
   7   8   2    0.01    0.01
  -8  -8  -2    0.03    0.01
   8   8   2    0.01    0.01
   5  -9  -2    0.01    0.01
  -5   9   2    0.00    0.01
   4  -9  -2    0.10    0.01
   4  -9  -2    0.12    0.02
  -4   9   2    0.08    0.02
   3  -9  -2    0.61    0.05
   3  -9  -2    0.49    0.06
   3  -9  -2    0.63    0.05
  -3   9   2    0.61    0.05
   2  -9  -2    0.02    0.01
   2  -9  -2    0.01    0.02
   2  -9  -2    0.01    0.03
  -2   9   2    0.01    0.02
   1  -9  -2    0.12    0.03
   1  -9  -2    0.12    0.03
   1  -9  -2    0.16    0.03
  -1   9   2    0.11    0.02
  -1   9   2    0.09    0.02
  -1   9   2    0.14    0.02
   0  -9  -2    0.09    0.04
   0  -9  -2    0.14    0.02
   0  -9  -2    0.14    0.03
   0   9   2    0.10    0.02
   0   9   2    0.06    0.02
   0   9   2    0.10    0.02
  -1  -9  -2    0.03    0.04
  -1  -9  -2    0.03    0.03
  -1  -9  -2    0.02    0.02
   1   9   2    0.01    0.01
   1   9   2    0.01    0.02
  -2  -9  -2    0.24    0.04
  -2  -9  -2    0.35    0.05
  -2  -9  -2    0.33    0.03
   2   9   2    0.30    0.03
   2   9   2    0.26    0.03
  -3  -9  -2    0.42    0.04
   3   9   2    0.38    0.04
   3   9   2    0.37    0.06
  -4  -9  -2    0.03    0.02
  -4  -9  -2    0.02    0.02
   4   9   2    0.03    0.01
   4   9   2    0.02    0.02
  -5  -9  -2    0.02    0.02
  -5  -9  -2    0.03    0.01
   5   9   2    0.02    0.01
   5   9   2    0.04    0.01
  -6  -9  -2    0.35    0.03
   6   9   2    0.33    0.03
   6   9   2    0.34    0.03
  -7  -9  -2    0.04    0.01
   7   9   2    0.02    0.01
   7   9   2    0.03    0.01
   3 -10  -2    0.22    0.02
  -3  10   2    0.22    0.02
   2 -10  -2    0.00    0.02
   2 -10  -2    0.00    0.01
  -2  10   2   -0.01    0.01
   1 -10  -2    0.01    0.01
   1 -10  -2    0.00    0.02
   0 -10  -2    0.23    0.02
   0 -10  -2    0.22    0.04
   0  10   2    0.19    0.02
   0  10   2    0.16    0.02
  -1 -10  -2    0.01    0.01
  -1 -10  -2   -0.01    0.03
   1  10   2    0.01    0.01
   1  10   2    0.00    0.01
  -2 -10  -2   -0.02    0.02
   2  10   2    0.01    0.01
   2  10   2    0.01    0.01
  -3 -10  -2    0.38    0.03
   3  10   2    0.28    0.03
   3  10   2    0.29    0.03
  -4 -10  -2    0.00    0.01
  -4 -10  -2    0.02    0.01
   4  10   2    0.01    0.01
   4  10   2    0.00    0.01
  -5 -10  -2    0.08    0.01
   5  10   2    0.09    0.01
   5  10   2    0.07    0.01
   4   8  -3   -0.01    0.01
   4   8  -3    0.00    0.01
  -4  -8   3    0.00    0.01
   3   8  -3    0.27    0.02
   3   8  -3    0.28    0.02
  -3  -8   3    0.29    0.02
   2   8  -3    0.01    0.01
   2   8  -3    0.01    0.01
  -2  -8   3    0.01    0.01
   1   8  -3    0.10    0.02
  -1  -8   3    0.11    0.01
   0   8  -3    0.14    0.02
  -1   8  -3    0.04    0.01
  -2   8  -3    0.03    0.01
   2  -8   3    0.04    0.01
   6   7  -3    0.16    0.02
  -6  -7   3    0.17    0.02
  -6  -7   3    0.19    0.02
   5   7  -3   -0.02    0.01
   5   7  -3    0.01    0.01
  -5  -7   3    0.00    0.01
  -5  -7   3    0.01    0.01
   4   7  -3    0.02    0.01
   4   7  -3    0.03    0.02
  -4  -7   3    0.03    0.01
   3   7  -3    0.60    0.05
   3   7  -3    0.55    0.05
  -3  -7   3    0.66    0.05
   2   7  -3    0.00    0.01
   2   7  -3    0.01    0.02
  -2  -7   3    0.02    0.01
   1   7  -3    0.02    0.02
   1   7  -3    0.02    0.02
  -1  -7   3    0.02    0.01
   0   7  -3    0.26    0.03
   0  -7   3    0.21    0.03
  -1   7  -3   -0.01    0.02
   1  -7   3    0.01    0.01
   1  -7   3    0.01    0.02
  -2   7  -3    0.08    0.03
  -2   7  -3    0.08    0.01
   2  -7   3    0.09    0.01
   2  -7   3    0.09    0.02
  -3   7  -3    0.14    0.03
  -3   7  -3    0.16    0.02
   3  -7   3    0.18    0.02
   3  -7   3    0.20    0.02
  -4   7  -3   -0.01    0.02
  -5   7  -3    0.02    0.02
   5  -7   3    0.01    0.01
   7   6  -3    0.02    0.01
   7   6  -3    0.00    0.01
  -7  -6   3    0.02    0.01
  -7  -6   3    0.02    0.01
   6   6  -3    0.31    0.03
   6   6  -3    0.32    0.03
  -6  -6   3    0.35    0.03
  -6  -6   3    0.32    0.03
   5   6  -3    0.03    0.02
   5   6  -3    0.00    0.02
   5   6  -3    0.00    0.02
  -5  -6   3    0.01    0.01
   4   6  -3    0.00    0.03
  -4  -6   3    0.01    0.01
   3   6  -3    0.20    0.03
   3   6  -3    0.19    0.03
   3   6  -3    0.15    0.06
  -3  -6   3    0.18    0.02
   2   6  -3    0.04    0.06
   2   6  -3    0.13    0.03
   2   6  -3    0.10    0.03
  -2  -6   3    0.08    0.02
   1   6  -3    0.15    0.06
   1   6  -3    0.16    0.03
   1   6  -3    0.12    0.02
  -1  -6   3    0.20    0.03
  -1  -6   3    0.10    0.02
   0   6  -3    0.74    0.11
   0   6  -3    0.67    0.07
   0   6  -3    0.71    0.08
   0   6  -3    0.80    0.07
   0  -6   3    0.81    0.08
   0  -6   3    0.87    0.07
   0  -6   3    0.68    0.06
   0  -6   3    0.92    0.06
   0  -6   3    0.88    0.09
  -1   6  -3    0.18    0.04
  -1   6  -3    0.19    0.04
  -1   6  -3    0.19    0.06
  -1   6  -3    0.18    0.03
   1  -6   3    0.19    0.04
   1  -6   3    0.24    0.04
   1  -6   3    0.27    0.05
  -2   6  -3    0.01    0.02
  -2   6  -3    0.01    0.04
  -2   6  -3    0.00    0.04
   2  -6   3    0.05    0.06
   2  -6   3    0.00    0.03
   2  -6   3    0.03    0.02
   2  -6   3    0.00    0.03
   2  -6   3   -0.03    0.03
  -3   6  -3    0.14    0.04
  -3   6  -3    0.15    0.04
  -3   6  -3    0.15    0.02
   3  -6   3    0.23    0.04
   3  -6   3    0.17    0.03
  -4   6  -3    0.00    0.03
  -4   6  -3    0.02    0.01
  -4   6  -3    0.04    0.03
   4  -6   3    0.02    0.01
   4  -6   3    0.04    0.03
   4  -6   3    0.05    0.02
  -5   6  -3    0.01    0.02
  -5   6  -3    0.01    0.02
   5  -6   3    0.01    0.01
   5  -6   3    0.04    0.02
  -6   6  -3    0.20    0.03
   6  -6   3    0.26    0.02
   6  -6   3    0.22    0.03
   8   5  -3    0.01    0.01
   8   5  -3    0.02    0.01
  -8  -5   3    0.01    0.01
  -8  -5   3    0.02    0.01
   7   5  -3   -0.02    0.02
   7   5  -3   -0.02    0.02
   7   5  -3    0.01    0.02
  -7  -5   3   -0.02    0.01
  -7  -5   3    0.00    0.01
   6   5  -3    0.79    0.07
   6   5  -3    0.81    0.08
   6   5  -3    0.81    0.07
  -6  -5   3    0.83    0.06
   5   5  -3    0.01    0.03
   5   5  -3    0.02    0.06
   5   5  -3    0.04    0.03
   5   5  -3    0.06    0.04
  -5  -5   3    0.05    0.01
   4   5  -3    0.42    0.07
   4   5  -3    0.36    0.05
   4   5  -3    0.31    0.05
   4   5  -3    0.21    0.07
   4   5  -3    0.34    0.04
   4   5  -3    0.31    0.07
   4   5  -3    0.34    0.05
  -4  -5   3    0.39    0.03
   3   5  -3    0.14    0.05
   3   5  -3    0.11    0.03
   3   5  -3    0.12    0.07
   3   5  -3    0.14    0.08
   3   5  -3    0.13    0.03
   3   5  -3    0.02    0.07
  -3  -5   3    0.12    0.02
   2   5  -3    0.21    0.07
   2   5  -3    0.11    0.03
   2   5  -3    0.17    0.04
   2   5  -3    0.09    0.03
  -2  -5   3    0.10    0.02
   1   5  -3    0.02    0.03
   1   5  -3    0.03    0.04
   1   5  -3   -0.08    0.04
   1   5  -3    0.09    0.07
  -1  -5   3   -0.01    0.03
  -1  -5   3    0.02    0.01
  -1  -5   3    0.03    0.03
  -1  -5   3    0.04    0.04
  -1  -5   3    0.02    0.02
   0   5  -3    3.45    0.24
   0   5  -3    2.99    0.26
   0   5  -3    3.05    0.24
   0   5  -3    3.37    0.25
   0  -5   3    3.58    0.25
   0  -5   3    2.86    0.23
   0  -5   3    3.66    0.25
   0  -5   3    3.28    0.24
   0  -5   3    3.59    0.23
   0  -5   3    3.75    0.24
  -1   5  -3    0.46    0.09
  -1   5  -3    0.47    0.08
  -1   5  -3    0.42    0.08
  -1   5  -3    0.48    0.06
   1  -5   3    0.57    0.06
   1  -5   3    0.55    0.08
   1  -5   3    0.45    0.05
   1  -5   3    0.53    0.05
  -2   5  -3    0.15    0.05
  -2   5  -3    0.10    0.03
  -2   5  -3    0.12    0.07
  -2   5  -3    0.10    0.05
   2  -5   3    0.11    0.02
   2  -5   3    0.10    0.03
   2  -5   3    0.13    0.03
   2  -5   3    0.09    0.04
  -3   5  -3    0.75    0.09
  -3   5  -3    0.75    0.09
  -3   5  -3    0.67    0.06
  -3   5  -3    0.66    0.11
   3  -5   3    0.74    0.08
   3  -5   3    0.80    0.06
   3  -5   3    0.82    0.07
   3  -5   3    0.68    0.08
  -4   5  -3    0.20    0.05
  -4   5  -3    0.08    0.05
  -4   5  -3    0.13    0.02
   4  -5   3    0.20    0.03
   4  -5   3    0.16    0.03
   4  -5   3    0.17    0.04
   4  -5   3    0.12    0.04
  -5   5  -3    0.03    0.04
  -5   5  -3    0.01    0.04
   5  -5   3    0.01    0.02
   5  -5   3    0.01    0.03
   5  -5   3    0.02    0.01
  -6   5  -3    0.46    0.05
  -6   5  -3    0.38    0.06
  -6   5  -3    0.36    0.05
   6  -5   3    0.54    0.04
   6  -5   3    0.43    0.06
   6  -5   3    0.57    0.05
  -7   5  -3    0.00    0.02
   7  -5   3    0.00    0.02
   7  -5   3    0.02    0.02
   9   4  -3    0.18    0.02
  -9  -4   3    0.20    0.02
   8   4  -3    0.02    0.02
   8   4  -3    0.03    0.01
   8   4  -3    0.07    0.02
  -8  -4   3    0.04    0.01
  -8  -4   3    0.01    0.01
   7   4  -3    0.10    0.05
   7   4  -3    0.12    0.02
   7   4  -3    0.10    0.04
   7   4  -3    0.11    0.04
  -7  -4   3    0.11    0.03
  -7  -4   3    0.13    0.02
   6   4  -3    0.58    0.10
   6   4  -3    0.63    0.08
   6   4  -3    0.77    0.09
   6   4  -3    0.72    0.07
  -6  -4   3    0.76    0.05
  -6  -4   3    0.76    0.07
   5   4  -3    0.96    0.10
   5   4  -3    0.90    0.09
   5   4  -3    0.80    0.12
  -5  -4   3    1.04    0.07
  -5  -4   3    0.89    0.11
   4   4  -3    0.30    0.07
   4   4  -3    0.28    0.06
   4   4  -3    0.33    0.07
   4   4  -3    0.31    0.04
   4   4  -3    0.38    0.07
  -4  -4   3    0.35    0.03
   3   4  -3    1.01    0.14
   3   4  -3    1.30    0.10
   3   4  -3    1.30    0.15
   3   4  -3    1.26    0.13
   3   4  -3    1.17    0.15
   3   4  -3    1.30    0.13
   3   4  -3    1.27    0.10
  -3  -4   3    1.18    0.09
   2   4  -3    0.06    0.06
   2   4  -3   -0.01    0.07
   2   4  -3    0.05    0.07
   2   4  -3   -0.02    0.03
   2   4  -3   -0.02    0.03
   2   4  -3   -0.03    0.06
  -2  -4   3    0.00    0.02
  -2  -4   3    0.00    0.04
   1   4  -3   -0.06    0.06
   1   4  -3    0.07    0.03
   1   4  -3    0.06    0.03
   1   4  -3    0.02    0.06
   1   4  -3    0.11    0.08
   1   4  -3    0.08    0.08
   1   4  -3    0.11    0.07
  -1  -4   3    0.08    0.04
  -1  -4   3    0.06    0.02
  -1  -4   3    0.05    0.03
  -1  -4   3    0.04    0.02
  -1  -4   3    0.03    0.04
   0   4  -3    2.35    0.22
   0   4  -3    2.76    0.18
   0   4  -3    2.44    0.20
   0   4  -3    2.17    0.22
   0  -4   3    2.18    0.18
   0  -4   3    2.66    0.18
   0  -4   3    2.69    0.18
   0  -4   3    2.61    0.19
  -1   4  -3    0.16    0.08
  -1   4  -3    0.26    0.04
  -1   4  -3    0.24    0.06
  -1   4  -3    0.18    0.08
   1  -4   3    0.19    0.04
   1  -4   3    0.31    0.04
   1  -4   3    0.14    0.04
   1  -4   3    0.22    0.04
   1  -4   3    0.19    0.03
  -2   4  -3    0.41    0.09
  -2   4  -3    0.52    0.09
  -2   4  -3    0.50    0.06
   2  -4   3    0.47    0.06
   2  -4   3    0.49    0.07
   2  -4   3    0.46    0.08
   2  -4   3    0.49    0.05
  -3   4  -3    1.96    0.17
  -3   4  -3    2.12    0.16
  -3   4  -3    2.11    0.19
   3  -4   3    2.16    0.15
   3  -4   3    2.12    0.17
   3  -4   3    2.29    0.16
   3  -4   3    2.12    0.17
  -4   4  -3    0.03    0.05
  -4   4  -3    0.01    0.02
   4  -4   3    0.03    0.03
   4  -4   3    0.01    0.03
   4  -4   3    0.01    0.04
   4  -4   3    0.04    0.02
  -5   4  -3    0.10    0.05
  -5   4  -3    0.03    0.05
  -5   4  -3    0.07    0.02
  -5   4  -3    0.06    0.06
   5  -4   3    0.05    0.03
   5  -4   3    0.05    0.04
   5  -4   3    0.05    0.03
   5  -4   3    0.06    0.03
  -6   4  -3    0.36    0.07
  -6   4  -3    0.38    0.06
  -6   4  -3    0.37    0.04
   6  -4   3    0.35    0.06
   6  -4   3    0.47    0.04
   6  -4   3    0.41    0.05
  -7   4  -3    0.02    0.02
  -7   4  -3    0.03    0.03
  -7   4  -3    0.10    0.05
   7  -4   3    0.05    0.03
   7  -4   3    0.04    0.01
  -8   4  -3   -0.02    0.03
  -8   4  -3    0.01    0.02
   8  -4   3    0.01    0.01
   8  -4   3    0.01    0.02
   9   3  -3    0.19    0.03
   9   3  -3    0.21    0.03
  -9  -3   3    0.21    0.03
  -9  -3   3    0.21    0.03
   8   3  -3    0.07    0.02
   8   3  -3    0.09    0.02
   8   3  -3    0.10    0.03
   8   3  -3    0.00    0.04
  -8  -3   3    0.11    0.02
  -8  -3   3    0.06    0.02
  -8  -3   3    0.07    0.02
   7   3  -3    0.33    0.05
   7   3  -3    0.29    0.06
   7   3  -3    0.34    0.07
   7   3  -3    0.33    0.05
  -7  -3   3    0.34    0.05
  -7  -3   3    0.37    0.03
  -7  -3   3    0.33    0.05
   6   3  -3    3.58    0.26
   6   3  -3    3.88    0.27
   6   3  -3    3.01    0.27
  -6  -3   3    3.60    0.25
  -6  -3   3    3.59    0.26
  -6  -3   3    3.83    0.25
   5   3  -3    0.67    0.12
   5   3  -3    0.74    0.12
   5   3  -3    0.79    0.10
   5   3  -3    0.93    0.09
   5   3  -3    0.89    0.11
  -5  -3   3    0.92    0.07
  -5  -3   3    0.96    0.08
   4   3  -3   -0.04    0.04
   4   3  -3    0.03    0.06
   4   3  -3    0.07    0.07
   4   3  -3    0.10    0.07
   4   3  -3    0.02    0.06
   4   3  -3    0.00    0.07
  -4  -3   3    0.02    0.02
  -4  -3   3    0.05    0.03
   3   3  -3    5.11    0.40
   3   3  -3    4.72    0.36
   3   3  -3    4.81    0.35
   3   3  -3    4.53    0.36
   3   3  -3    4.82    0.34
   3   3  -3    4.49    0.35
  -3  -3   3    4.34    0.33
  -3  -3   3    5.43    0.36
   2   3  -3    0.08    0.08
   2   3  -3    0.09    0.08
   2   3  -3    0.14    0.04
   2   3  -3    0.18    0.07
   2   3  -3    0.39    0.14
   2   3  -3    0.08    0.08
   2   3  -3    0.09    0.07
   2   3  -3   -0.02    0.04
  -2  -3   3    0.07    0.07
  -2  -3   3    0.03    0.02
  -2  -3   3    0.03    0.04
   1   3  -3    0.88    0.14
   1   3  -3    1.12    0.10
   1   3  -3    0.89    0.16
   1   3  -3    1.04    0.16
   1   3  -3    1.26    0.16
   1   3  -3    1.05    0.15
   1   3  -3    0.98    0.15
  -1  -3   3    0.94    0.08
  -1  -3   3    1.27    0.11
  -1  -3   3    1.36    0.15
  -1  -3   3    1.16    0.10
  -1  -3   3    1.01    0.10
  -1  -3   3    0.98    0.08
   0   3  -3    7.85    0.52
   0   3  -3    7.16    0.54
   0   3  -3    7.18    0.54
   0   3  -3    7.18    0.52
   0   3  -3    7.14    0.54
   0   3  -3    6.69    0.53
   0  -3   3    7.12    0.54
   0  -3   3    7.24    0.51
   0  -3   3    8.13    0.52
   0  -3   3    7.68    0.54
   0  -3   3    7.81    0.52
  -1   3  -3    5.35    0.42
  -1   3  -3    5.16    0.42
  -1   3  -3    5.98    0.39
  -1   3  -3    5.29    0.41
  -1   3  -3    5.42    0.42
   1  -3   3    5.69    0.39
   1  -3   3    6.35    0.40
   1  -3   3    6.07    0.40
   1  -3   3    6.03    0.39
   1  -3   3    4.99    0.42
   1  -3   3    5.18    0.41
   1  -3   3    5.04    0.42
  -2   3  -3    0.11    0.07
  -2   3  -3    0.13    0.03
  -2   3  -3    0.04    0.06
  -2   3  -3    0.12    0.08
  -2   3  -3   -0.02    0.10
   2  -3   3    0.11    0.04
   2  -3   3    0.06    0.10
   2  -3   3    0.10    0.02
   2  -3   3    0.06    0.06
   2  -3   3    0.10    0.04
  -3   3  -3    2.11    0.22
  -3   3  -3    2.47    0.20
  -3   3  -3    2.47    0.18
  -3   3  -3    2.68    0.21
  -3   3  -3    2.05    0.22
  -3   3  -3    2.73    0.18
   3  -3   3    2.57    0.18
   3  -3   3    2.50    0.19
   3  -3   3    2.64    0.19
   3  -3   3    2.54    0.19
  -4   3  -3    0.02    0.06
  -4   3  -3    0.03    0.04
  -4   3  -3    0.03    0.03
  -4   3  -3    0.08    0.06
  -4   3  -3    0.07    0.04
   4  -3   3    0.03    0.02
   4  -3   3    0.00    0.04
   4  -3   3    0.02    0.03
   4  -3   3    0.01    0.03
  -5   3  -3    0.35    0.05
  -5   3  -3    0.46    0.06
  -5   3  -3    0.43    0.06
   5  -3   3    0.37    0.04
   5  -3   3    0.36    0.05
   5  -3   3    0.39    0.05
   5  -3   3    0.34    0.05
  -6   3  -3    0.58    0.05
  -6   3  -3    0.47    0.08
   6  -3   3    0.59    0.06
   6  -3   3    0.40    0.05
   6  -3   3    0.47    0.07
  -7   3  -3    0.00    0.03
  -7   3  -3   -0.01    0.04
   7  -3   3   -0.03    0.02
   7  -3   3    0.00    0.03
   7  -3   3    0.00    0.01
   8  -3   3    0.02    0.03
  10   2  -3    0.01    0.01
 -10  -2   3    0.02    0.01
 -10  -2   3    0.00    0.01
   9   2  -3    0.18    0.02
   9   2  -3    0.20    0.04
  -9  -2   3    0.18    0.02
  -9  -2   3    0.21    0.03
   8   2  -3    0.02    0.02
   8   2  -3    0.02    0.03
   8   2  -3    0.06    0.02
   8   2  -3    0.00    0.04
  -8  -2   3    0.01    0.02
  -8  -2   3   -0.01    0.02
   7   2  -3    0.00    0.05
   7   2  -3    0.05    0.05
   7   2  -3    0.00    0.03
   7   2  -3    0.02    0.04
  -7  -2   3    0.02    0.01
  -7  -2   3    0.01    0.02
  -7  -2   3    0.01    0.02
   6   2  -3    1.11    0.12
   6   2  -3    0.86    0.12
   6   2  -3    1.09    0.10
   6   2  -3    0.83    0.12
  -6  -2   3    1.14    0.08
  -6  -2   3    1.20    0.10
  -6  -2   3    1.12    0.09
   5   2  -3    0.01    0.06
   5   2  -3   -0.03    0.06
   5   2  -3   -0.05    0.05
   5   2  -3   -0.02    0.04
   5   2  -3    0.05    0.07
  -5  -2   3    0.02    0.03
  -5  -2   3   -0.01    0.01
   4   2  -3    0.07    0.07
   4   2  -3    0.06    0.04
   4   2  -3    0.08    0.06
   4   2  -3    0.08    0.07
   4   2  -3    0.13    0.07
   4   2  -3    0.05    0.07
  -4  -2   3    0.07    0.02
  -4  -2   3    0.09    0.03
   3   2  -3   11.56    0.84
   3   2  -3   12.61    0.84
   3   2  -3   12.28    0.84
   3   2  -3   11.64    0.84
   3   2  -3   12.07    0.83
  -3  -2   3    9.83    0.82
  -3  -2   3   13.27    0.84
   2   2  -3    0.37    0.08
   2   2  -3    0.33    0.09
   2   2  -3    0.30    0.09
   2   2  -3    0.28    0.10
   2   2  -3    0.23    0.07
   2   2  -3    0.34    0.09
   2   2  -3    0.35    0.05
  -2  -2   3    0.26    0.05
  -2  -2   3    0.41    0.08
  -2  -2   3    0.38    0.08
   1   2  -3    0.11    0.09
   1   2  -3    0.06    0.09
   1   2  -3   -0.01    0.07
   1   2  -3    0.13    0.09
   1   2  -3    0.05    0.05
   1   2  -3    0.13    0.09
   1   2  -3    0.08    0.09
  -1  -2   3    0.08    0.04
  -1  -2   3    0.11    0.08
  -1  -2   3    0.04    0.03
  -1  -2   3    0.14    0.05
  -1  -2   3    0.08    0.04
  -1  -2   3    0.12    0.08
   0   2  -3    5.40    0.43
   0   2  -3    5.78    0.43
   0   2  -3    5.64    0.43
   0   2  -3    6.23    0.44
   0   2  -3    5.90    0.41
   0   2  -3    6.22    0.43
   0   2  -3    4.89    0.43
   0  -2   3    5.16    0.40
   0  -2   3    5.86    0.42
   0  -2   3    5.08    0.40
   0  -2   3    5.93    0.41
   0  -2   3    6.51    0.43
   0  -2   3    6.14    0.41
  -1   2  -3   10.96    0.85
  -1   2  -3   11.61    0.85
  -1   2  -3   12.07    0.85
  -1   2  -3   12.66    0.85
  -1   2  -3   12.29    0.84
  -1   2  -3   10.17    0.85
   1  -2   3   11.08    0.83
   1  -2   3   12.77    0.85
   1  -2   3   13.23    0.83
   1  -2   3   12.92    0.84
   1  -2   3   12.93    0.85
   1  -2   3   11.09    0.83
  -2   2  -3    1.21    0.17
  -2   2  -3    1.24    0.17
  -2   2  -3    1.59    0.18
  -2   2  -3    1.52    0.18
  -2   2  -3    1.63    0.17
  -2   2  -3    1.89    0.13
   2  -2   3    1.43    0.16
   2  -2   3    1.52    0.12
   2  -2   3    1.67    0.13
   2  -2   3    1.59    0.13
   2  -2   3    1.57    0.14
   2  -2   3    1.62    0.17
  -3   2  -3    7.36    0.50
  -3   2  -3    7.43    0.51
  -3   2  -3    6.63    0.51
  -3   2  -3    6.56    0.51
  -3   2  -3    7.67    0.49
  -3   2  -3    5.96    0.50
  -3   2  -3    6.94    0.51
   3  -2   3    6.87    0.52
   3  -2   3    8.14    0.50
   3  -2   3    6.58    0.51
   3  -2   3    7.49    0.49
   3  -2   3    7.06    0.50
   3  -2   3    7.13    0.49
  -4   2  -3    0.14    0.06
  -4   2  -3    0.03    0.04
  -4   2  -3    0.00    0.07
  -4   2  -3    0.09    0.04
  -4   2  -3    0.11    0.03
  -4   2  -3    0.07    0.06
   4  -2   3    0.08    0.03
   4  -2   3    0.09    0.02
   4  -2   3    0.10    0.04
   4  -2   3    0.07    0.04
  -5   2  -3   -0.01    0.03
  -5   2  -3   -0.03    0.06
  -5   2  -3    0.02    0.02
  -5   2  -3    0.06    0.03
   5  -2   3   -0.02    0.04
   5  -2   3    0.03    0.02
   5  -2   3    0.03    0.04
   5  -2   3    0.01    0.03
  -6   2  -3    0.51    0.05
  -6   2  -3    0.54    0.06
  -6   2  -3    0.41    0.08
  -6   2  -3    0.51    0.07
  -6   2  -3    0.55    0.10
   6  -2   3    0.57    0.06
   6  -2   3    0.45    0.07
   6  -2   3    0.50    0.05
   6  -2   3    0.41    0.08
  -7   2  -3    0.02    0.04
  -7   2  -3    0.02    0.02
  -7   2  -3    0.01    0.05
  -7   2  -3    0.07    0.02
  -7   2  -3    0.04    0.03
  -7   2  -3    0.07    0.04
   7  -2   3    0.04    0.03
   7  -2   3    0.03    0.04
   7  -2   3    0.06    0.03
   7  -2   3    0.02    0.02
  -8   2  -3   -0.02    0.03
   8  -2   3    0.01    0.02
   8  -2   3    0.03    0.02
   8  -2   3    0.03    0.03
  -9   2  -3    0.14    0.03
   9  -2   3    0.20    0.02
   9  -2   3    0.24    0.03
  10   1  -3   -0.01    0.01
 -10  -1   3   -0.01    0.01
 -10  -1   3    0.00    0.01
   9   1  -3    0.42    0.04
   9   1  -3    0.50    0.05
  -9  -1   3    0.48    0.04
  -9  -1   3    0.50    0.05
   8   1  -3    0.04    0.05
   8   1  -3   -0.02    0.05
   8   1  -3    0.05    0.03
   8   1  -3    0.05    0.02
  -8  -1   3    0.01    0.02
  -8  -1   3    0.00    0.02
   7   1  -3    0.32    0.06
   7   1  -3    0.40    0.07
   7   1  -3    0.38    0.06
   7   1  -3    0.40    0.06
  -7  -1   3    0.43    0.06
  -7  -1   3    0.33    0.06
   6   1  -3    1.94    0.19
   6   1  -3    2.38    0.18
   6   1  -3    2.33    0.17
   6   1  -3    2.00    0.19
  -6  -1   3    2.40    0.17
  -6  -1   3    2.39    0.17
   5   1  -3    0.92    0.11
   5   1  -3    0.86    0.13
   5   1  -3    0.88    0.09
   5   1  -3    0.87    0.11
  -5  -1   3    0.84    0.07
  -5  -1   3    0.89    0.09
   4   1  -3    0.31    0.09
   4   1  -3    0.20    0.07
   4   1  -3    0.05    0.07
   4   1  -3    0.23    0.07
   4   1  -3    0.25    0.05
   4   1  -3    0.18    0.07
   4   1  -3    0.21    0.06
  -4  -1   3    0.18    0.02
  -4  -1   3    0.26    0.08
  -4  -1   3    0.16    0.04
  -4  -1   3    0.32    0.06
   3   1  -3   25.74    1.73
   3   1  -3   26.54    1.73
   3   1  -3   24.98    1.73
   3   1  -3   25.58    1.72
   3   1  -3   21.77    1.73
   3   1  -3   25.38    1.73
   3   1  -3   24.30    1.74
  -3  -1   3   22.35    1.73
  -3  -1   3   27.69    1.73
   2   1  -3    2.38    0.24
   2   1  -3    2.74    0.24
   2   1  -3    2.93    0.23
   2   1  -3    2.82    0.24
   2   1  -3    3.18    0.22
   2   1  -3    2.42    0.24
   2   1  -3    2.97    0.24
  -2  -1   3    2.66    0.23
  -2  -1   3    3.06    0.23
  -2  -1   3    2.68    0.22
   1   1  -3    3.75    0.33
   1   1  -3    3.90    0.33
   1   1  -3    4.16    0.32
   1   1  -3    4.23    0.32
   1   1  -3    4.15    0.30
  -1  -1   3    3.91    0.30
  -1  -1   3    4.07    0.32
  -1  -1   3    4.56    0.32
  -1  -1   3    3.77    0.30
   0   1  -3   23.97    1.70
   0   1  -3   21.55    1.70
   0   1  -3   26.89    1.71
   0   1  -3   24.57    1.69
   0   1  -3   24.40    1.69
   0   1  -3   23.36    1.69
   0   1  -3   23.90    1.70
   0  -1   3   26.30    1.70
   0  -1   3   23.64    1.69
   0  -1   3   24.72    1.70
   0  -1   3   25.07    1.69
  -1   1  -3    0.23    0.08
  -1   1  -3    0.20    0.08
  -1   1  -3    0.24    0.09
  -1   1  -3    0.13    0.09
  -1   1  -3    0.28    0.10
  -1   1  -3    0.21    0.10
   1  -1   3    0.20    0.05
   1  -1   3    0.24    0.09
   1  -1   3    0.14    0.10
   1  -1   3    0.18    0.06
   1  -1   3    0.29    0.05
   1  -1   3    0.24    0.03
  -2   1  -3    0.43    0.10
  -2   1  -3    0.48    0.10
  -2   1  -3    0.42    0.09
  -2   1  -3    0.28    0.09
  -2   1  -3    0.51    0.12
   2  -1   3    0.45    0.07
   2  -1   3    0.32    0.06
   2  -1   3    0.43    0.06
   2  -1   3    0.30    0.08
   2  -1   3    0.35    0.06
   2  -1   3    0.32    0.09
  -3   1  -3    5.61    0.43
  -3   1  -3    5.52    0.43
  -3   1  -3    6.21    0.43
  -3   1  -3    5.82    0.43
   3  -1   3    6.15    0.42
   3  -1   3    5.98    0.46
   3  -1   3    5.76    0.41
   3  -1   3    6.40    0.42
   3  -1   3    5.86    0.43
   3  -1   3    5.29    0.42
  -4   1  -3    1.75    0.13
  -4   1  -3    1.77    0.14
  -4   1  -3    1.41    0.17
  -4   1  -3    1.97    0.18
  -4   1  -3    1.99    0.18
  -4   1  -3    1.53    0.17
   4  -1   3    2.03    0.14
   4  -1   3    1.65    0.18
   4  -1   3    1.48    0.18
   4  -1   3    1.93    0.14
   4  -1   3    1.56    0.13
   4  -1   3    1.56    0.14
  -5   1  -3    0.20    0.06
  -5   1  -3    0.27    0.03
  -5   1  -3    0.29    0.05
  -5   1  -3    0.32    0.07
  -5   1  -3    0.19    0.04
   5  -1   3    0.31    0.04
   5  -1   3    0.22    0.04
   5  -1   3    0.32    0.05
   5  -1   3    0.24    0.04
  -6   1  -3    0.78    0.11
  -6   1  -3    0.90    0.09
  -6   1  -3    0.94    0.07
  -6   1  -3    0.91    0.12
   6  -1   3    0.89    0.09
   6  -1   3    0.93    0.07
   6  -1   3    0.78    0.09
  -7   1  -3    0.05    0.02
  -7   1  -3    0.09    0.04
  -7   1  -3    0.07    0.02
  -7   1  -3    0.11    0.04
  -7   1  -3    0.16    0.03
   7  -1   3    0.08    0.03
   7  -1   3    0.10    0.03
   7  -1   3    0.12    0.02
   7  -1   3    0.09    0.04
  -8   1  -3    0.02    0.03
  -8   1  -3    0.02    0.02
  -8   1  -3    0.01    0.02
  -8   1  -3    0.01    0.01
  -8   1  -3    0.01    0.03
   8  -1   3    0.01    0.02
   8  -1   3    0.02    0.03
   8  -1   3    0.00    0.02
   8  -1   3    0.03    0.03
  -9   1  -3    0.04    0.03
  -9   1  -3    0.15    0.03
  -9   1  -3    0.05    0.03
   9  -1   3    0.10    0.01
   9  -1   3    0.09    0.02
   9  -1   3    0.05    0.03
  10  -1   3    0.00    0.02
  10   0  -3    0.03    0.01
 -10   0   3    0.00    0.01
 -10   0   3    0.00    0.01
   9   0  -3    0.79    0.07
   9   0  -3    0.69    0.06
  -9   0   3    0.86    0.06
  -9   0   3    0.80    0.07
   8   0  -3   -0.08    0.06
   8   0  -3    0.03    0.03
   8   0  -3    0.02    0.03
  -8   0   3   -0.02    0.02
  -8   0   3    0.00    0.02
   7   0  -3   -0.01    0.04
   7   0  -3    0.07    0.07
   7   0  -3    0.01    0.03
  -7   0   3    0.01    0.02
  -7   0   3    0.00    0.03
   6   0  -3    3.83    0.27
   6   0  -3    3.69    0.26
   6   0  -3    3.26    0.27
  -6   0   3    3.69    0.26
  -6   0   3    3.53    0.26
   5   0  -3    0.04    0.04
  -5   0   3    0.01    0.02
  -5   0   3    0.06    0.03
   4   0  -3   -0.04    0.05
   4   0  -3    0.07    0.06
   4   0  -3    0.05    0.06
  -4   0   3    0.01    0.04
   3   0  -3   55.26    4.01
   3   0  -3   59.44    4.02
   3   0  -3   54.13    4.01
   3   0  -3   60.02    4.01
   3   0  -3   60.36    4.04
  -3   0   3   59.82    4.01
   2   0  -3    3.37    0.28
   2   0  -3    3.49    0.28
   2   0  -3    3.60    0.29
   2   0  -3    3.69    0.28
   2   0  -3    3.03    0.28
   2   0  -3    3.79    0.28
  -2   0   3    3.85    0.28
   1   0  -3    1.27    0.17
   1   0  -3    1.25    0.17
   1   0  -3    1.06    0.17
   1   0  -3    1.04    0.16
   1   0  -3    1.34    0.17
  -1   0   3    1.15    0.13
  -1   0   3    1.26    0.17
  -1   0   3    1.55    0.16
   0   0  -3   36.73    2.49
   0   0  -3   35.51    2.50
   0   0  -3   36.70    2.50
   0   0  -3   32.60    2.49
   0   0  -3   38.87    2.51
   0   0  -3   37.34    2.49
   0   0   3   37.46    2.50
   0   0   3   38.40    2.49
   0   0   3   31.49    2.46
   0   0   3   35.49    2.48
   0   0   3   34.17    2.48
  -1   0  -3   49.78    3.57
  -1   0  -3   48.84    3.56
  -1   0  -3   57.70    3.58
  -1   0  -3   50.04    3.55
  -1   0  -3   52.00    3.57
  -1   0  -3   51.63    3.56
   1   0   3   54.17    3.57
   1   0   3   46.60    3.55
   1   0   3   54.87    3.57
   1   0   3   49.13    3.53
  -2   0  -3    3.31    0.27
  -2   0  -3    3.66    0.27
  -2   0  -3    2.89    0.25
  -2   0  -3    2.91    0.25
  -2   0  -3    2.78    0.26
  -2   0  -3    3.06    0.26
   2   0   3    2.73    0.23
   2   0   3    3.12    0.25
   2   0   3    3.14    0.23
   2   0   3    2.91    0.23
   2   0   3    2.60    0.22
   2   0   3    3.12    0.26
  -3   0  -3   62.45    4.15
  -3   0  -3   62.37    4.16
  -3   0  -3   59.09    4.17
  -3   0  -3   63.66    4.16
   3   0   3   51.09    4.17
   3   0   3   51.45    4.18
   3   0   3   60.07    4.15
   3   0   3   65.05    4.18
   3   0   3   62.11    4.14
   3   0   3   65.43    4.16
   3   0   3   60.53    4.17
  -4   0  -3    0.07    0.05
  -4   0  -3   -0.06    0.06
  -4   0  -3    0.07    0.08
  -4   0  -3    0.02    0.07
  -4   0  -3   -0.02    0.07
  -4   0  -3    0.06    0.07
   4   0   3   -0.02    0.05
   4   0   3    0.01    0.02
   4   0   3    0.08    0.14
   4   0   3    0.09    0.07
   4   0   3    0.03    0.03
   4   0   3   -0.01    0.04
   4   0   3    0.03    0.04
  -5   0  -3    0.14    0.05
  -5   0  -3    0.11    0.04
  -5   0  -3    0.20    0.05
  -5   0  -3   -0.02    0.07
  -5   0  -3    0.22    0.03
   5   0   3    0.18    0.04
   5   0   3    0.20    0.05
   5   0   3    0.17    0.05
   5   0   3    0.27    0.06
   5   0   3    0.17    0.03
  -6   0  -3    0.80    0.10
  -6   0  -3    0.82    0.08
  -6   0  -3    0.89    0.07
  -6   0  -3    0.67    0.10
  -6   0  -3    0.85    0.11
   6   0   3    0.84    0.07
   6   0   3    0.88    0.08
   6   0   3    0.89    0.09
   6   0   3    0.85    0.09
  -7   0  -3    0.05    0.02
  -7   0  -3    0.04    0.04
  -7   0  -3    0.08    0.03
  -7   0  -3    0.03    0.03
   7   0   3    0.03    0.04
   7   0   3    0.05    0.02
   7   0   3    0.06    0.03
   7   0   3    0.04    0.04
  -8   0  -3    0.11    0.03
  -8   0  -3    0.08    0.02
  -8   0  -3    0.07    0.04
  -8   0  -3    0.10    0.04
  -8   0  -3    0.04    0.02
   8   0   3    0.05    0.04
   8   0   3    0.08    0.03
   8   0   3    0.09    0.02
   8   0   3    0.07    0.04
  -9   0  -3    0.45    0.06
  -9   0  -3    0.34    0.04
  -9   0  -3    0.36    0.04
   9   0   3    0.30    0.06
   9   0   3    0.45    0.05
   9   0   3    0.38    0.04
 -10   0  -3    0.01    0.01
 -10   0  -3    0.01    0.02
  10   0   3   -0.01    0.02
  10   0   3    0.01    0.01
 -10   1   3    0.02    0.01
 -10   1   3    0.03    0.01
   9  -1  -3    1.34    0.11
  -9   1   3    1.36    0.11
  -9   1   3    1.47    0.10
   8  -1  -3    0.41    0.06
  -8   1   3    0.38    0.05
  -8   1   3    0.36    0.06
   7  -1  -3    0.02    0.06
   7  -1  -3   -0.03    0.04
  -7   1   3    0.00    0.03
  -7   1   3   -0.01    0.02
   6  -1  -3    1.63    0.16
  -6   1   3    1.91    0.14
  -6   1   3    1.79    0.14
  -5   1   3    3.17    0.23
  -5   1   3    3.14    0.23
   4  -1  -3    4.08    0.29
  -4   1   3    3.82    0.29
   3  -1  -3   13.28    0.93
   2  -1  -3    0.60    0.08
   2  -1  -3    0.72    0.12
   1  -1  -3   14.76    1.06
   1  -1  -3   14.91    1.07
   1  -1  -3   14.09    1.06
   1  -1  -3   14.35    1.07
   1  -1  -3   16.22    1.05
  -1   1   3   16.70    1.07
  -1   1   3   15.08    1.05
  -1   1   3   15.23    1.06
  -1   1   3   14.97    1.05
   0  -1  -3    8.39    0.58
   0  -1  -3    7.89    0.58
   0  -1  -3    7.59    0.59
   0  -1  -3    7.84    0.58
   0   1   3    8.60    0.59
   0   1   3    8.63    0.58
   0   1   3    7.16    0.56
  -1  -1  -3    6.07    0.46
  -1  -1  -3    5.25    0.45
  -1  -1  -3    5.52    0.47
  -1  -1  -3    5.96    0.45
  -1  -1  -3    6.38    0.46
   1   1   3    6.07    0.44
   1   1   3    6.61    0.46
   1   1   3    5.73    0.43
   1   1   3    6.82    0.46
  -2  -1  -3   23.26    1.51
  -2  -1  -3   21.82    1.50
  -2  -1  -3   20.98    1.51
  -2  -1  -3   21.24    1.50
  -2  -1  -3   21.66    1.50
  -2  -1  -3   21.39    1.50
  -2  -1  -3   21.18    1.49
   2   1   3   21.33    1.50
   2   1   3   21.30    1.50
   2   1   3   19.89    1.48
   2   1   3   22.28    1.49
   2   1   3   23.06    1.50
   2   1   3   20.47    1.50
  -3  -1  -3   61.24    4.52
  -3  -1  -3   68.27    4.50
  -3  -1  -3   67.20    4.50
  -3  -1  -3   68.28    4.52
  -3  -1  -3   65.36    4.57
   3   1   3   66.57    4.48
   3   1   3   66.21    4.50
   3   1   3   62.01    4.52
   3   1   3   64.66    4.53
   3   1   3   67.64    4.51
   3   1   3   57.61    4.54
   3   1   3   70.14    4.51
  -4  -1  -3    1.62    0.17
  -4  -1  -3    1.58    0.17
   4   1   3    1.54    0.12
   4   1   3    1.66    0.14
   4   1   3    1.85    0.14
   4   1   3    1.31    0.13
   4   1   3    1.77    0.16
  -5  -1  -3    0.15    0.05
  -5  -1  -3    0.06    0.05
  -5  -1  -3    0.05    0.04
  -5  -1  -3    0.06    0.03
   5   1   3    0.08    0.02
   5   1   3    0.05    0.04
   5   1   3    0.08    0.08
   5   1   3    0.10    0.05
   5   1   3    0.10    0.05
  -6  -1  -3    2.24    0.17
  -6  -1  -3    2.01    0.19
  -6  -1  -3    2.41    0.17
   6   1   3    2.20    0.18
   6   1   3    2.35    0.16
   6   1   3    2.34    0.18
   6   1   3    2.30    0.18
   6   1   3    2.34    0.17
  -7  -1  -3   -0.02    0.04
  -7  -1  -3    0.04    0.03
  -7  -1  -3    0.02    0.03
  -7  -1  -3    0.03    0.02
   7   1   3    0.05    0.02
   7   1   3    0.02    0.03
   7   1   3    0.05    0.05
   7   1   3    0.01    0.04
   7   1   3    0.01    0.04
  -8  -1  -3    0.27    0.03
  -8  -1  -3    0.26    0.05
  -8  -1  -3    0.35    0.05
  -8  -1  -3    0.19    0.04
   8   1   3    0.22    0.05
   8   1   3    0.33    0.05
   8   1   3    0.26    0.03
   8   1   3    0.25    0.04
  -9  -1  -3    0.96    0.08
  -9  -1  -3    1.02    0.08
  -9  -1  -3    1.10    0.07
   9   1   3    0.88    0.09
   9   1   3    0.99    0.08
   9   1   3    1.07    0.08
 -10  -1  -3    0.12    0.02
 -10  -1  -3    0.13    0.02
 -10  -1  -3    0.13    0.02
  10   1   3    0.15    0.02
  10   1   3    0.19    0.03
 -10   2   3    0.00    0.01
 -10   2   3    0.00    0.01
  -9   2   3    0.24    0.03
  -9   2   3    0.16    0.03
  -8   2   3   -0.02    0.02
  -8   2   3   -0.02    0.03
  -7   2   3    0.11    0.02
  -7   2   3    0.11    0.03
   6  -2  -3    1.82    0.16
  -6   2   3    1.96    0.14
  -6   2   3    1.79    0.15
  -5   2   3    0.09    0.04
  -5   2   3    0.10    0.03
   4  -2  -3    0.15    0.07
   4  -2  -3    0.14    0.05
  -4   2   3    0.26    0.08
   3  -2  -3    5.09    0.38
   2  -2  -3   11.35    0.88
  -2   2   3   13.47    0.88
   1  -2  -3    6.03    0.46
   1  -2  -3    6.32    0.46
  -1   2   3    6.62    0.47
  -1   2   3    6.65    0.46
   0  -2  -3   37.11    2.51
   0  -2  -3   31.62    2.49
   0  -2  -3   37.21    2.49
   0  -2  -3   32.76    2.49
   0  -2  -3   36.82    2.50
   0   2   3   39.66    2.51
   0   2   3   39.69    2.50
   0   2   3   33.18    2.50
  -1  -2  -3    5.61    0.45
  -1  -2  -3    5.74    0.42
  -1  -2  -3    5.97    0.43
  -1  -2  -3    5.64    0.43
  -1  -2  -3    5.87    0.43
   1   2   3    6.07    0.43
   1   2   3    5.43    0.42
   1   2   3    5.22    0.42
  -2  -2  -3    3.04    0.25
  -2  -2  -3    2.80    0.25
  -2  -2  -3    2.92    0.25
  -2  -2  -3    2.85    0.29
  -2  -2  -3    2.94    0.25
   2   2   3    3.24    0.25
   2   2   3    3.01    0.25
   2   2   3    3.10    0.23
   2   2   3    3.02    0.24
   2   2   3    2.70    0.23
  -3  -2  -3    8.72    0.61
  -3  -2  -3    8.53    0.61
  -3  -2  -3    8.16    0.63
  -3  -2  -3    8.24    0.62
   3   2   3    9.32    0.62
   3   2   3    8.37    0.62
   3   2   3    8.66    0.60
   3   2   3    8.43    0.61
   3   2   3    8.51    0.60
  -4  -2  -3    0.82    0.16
  -4  -2  -3    0.83    0.16
   4   2   3    0.88    0.13
   4   2   3    0.90    0.13
  -5  -2  -3   -0.02    0.04
  -5  -2  -3    0.10    0.08
  -5  -2  -3    0.02    0.05
  -5  -2  -3    0.02    0.03
   5   2   3    0.06    0.05
   5   2   3    0.04    0.03
   5   2   3    0.07    0.05
   5   2   3    0.00    0.08
   5   2   3   -0.04    0.08
   5   2   3    0.07    0.04
  -6  -2  -3    2.90    0.22
  -6  -2  -3    2.56    0.23
  -6  -2  -3    2.99    0.21
   6   2   3    3.46    0.22
   6   2   3    2.96    0.23
   6   2   3    2.91    0.22
   6   2   3    3.24    0.21
  -7  -2  -3    0.00    0.03
  -7  -2  -3   -0.02    0.04
  -7  -2  -3    0.00    0.04
  -7  -2  -3    0.01    0.02
   7   2   3    0.04    0.03
   7   2   3    0.02    0.05
   7   2   3    0.06    0.04
   7   2   3    0.04    0.02
  -8  -2  -3    0.19    0.02
  -8  -2  -3    0.18    0.04
  -8  -2  -3    0.23    0.03
   8   2   3    0.26    0.04
   8   2   3    0.20    0.04
   8   2   3    0.14    0.06
   8   2   3    0.15    0.03
  -9  -2  -3    0.60    0.06
  -9  -2  -3    0.51    0.05
  -9  -2  -3    0.51    0.08
   9   2   3    0.58    0.07
   9   2   3    0.59    0.05
   9   2   3    0.61    0.06
 -10  -2  -3    0.14    0.02
 -10  -2  -3    0.11    0.02
 -10  -2  -3    0.14    0.02
  10   2   3    0.15    0.02
  10   2   3    0.21    0.03
 -10   3   3    0.03    0.01
 -10   3   3    0.03    0.02
  -9   3   3    0.13    0.02
  -9   3   3    0.18    0.03
  -8   3   3    0.05    0.03
  -8   3   3    0.03    0.02
  -7   3   3    0.16    0.03
  -7   3   3    0.18    0.03
  -6   3   3    2.67    0.21
  -6   3   3    3.06    0.20
  -6   3   3    2.63    0.21
   5  -3  -3    1.61    0.16
  -5   3   3    1.70    0.13
  -5   3   3    1.62    0.14
  -5   3   3    1.68    0.14
   4  -3  -3    0.24    0.10
  -4   3   3    0.36    0.06
   3  -3  -3   22.01    1.53
   2  -3  -3    3.15    0.26
  -2   3   3    3.24    0.27
   1  -3  -3   29.92    1.97
   1  -3  -3   28.23    1.96
   1  -3  -3   27.71    1.95
   1  -3  -3   24.20    1.94
  -1   3   3   31.14    1.96
   0  -3  -3   51.83    3.63
   0  -3  -3   53.34    3.62
   0  -3  -3   52.97    3.65
   0  -3  -3   51.37    3.63
   0  -3  -3   47.51    3.62
   0   3   3   53.04    3.64
   0   3   3   55.24    3.62
   0   3   3   54.88    3.63
  -1  -3  -3    0.47    0.07
  -1  -3  -3    0.31    0.08
  -1  -3  -3    0.29    0.09
  -1  -3  -3    0.28    0.09
  -1  -3  -3    0.17    0.06
   1   3   3    0.28    0.08
   1   3   3    0.26    0.07
   1   3   3    0.35    0.07
   1   3   3    0.35    0.07
  -2  -3  -3    6.03    0.46
  -2  -3  -3    5.96    0.45
  -2  -3  -3    5.75    0.43
  -2  -3  -3    5.92    0.45
  -2  -3  -3    6.12    0.44
  -2  -3  -3    6.42    0.45
   2   3   3    5.75    0.44
   2   3   3    6.38    0.44
   2   3   3    6.53    0.45
   2   3   3    5.94    0.44
   2   3   3    6.33    0.45
  -3  -3  -3    2.87    0.24
  -3  -3  -3    2.82    0.22
  -3  -3  -3    3.07    0.23
  -3  -3  -3    3.04    0.27
  -3  -3  -3    2.77    0.24
  -3  -3  -3    2.91    0.25
   3   3   3    3.07    0.23
   3   3   3    2.92    0.24
   3   3   3    3.08    0.21
   3   3   3    3.10    0.25
   3   3   3    2.93    0.23
   3   3   3    3.00    0.23
  -4  -3  -3    0.21    0.08
  -4  -3  -3    0.11    0.08
  -4  -3  -3    0.06    0.09
  -4  -3  -3   -0.01    0.08
  -4  -3  -3    0.03    0.07
  -4  -3  -3    0.16    0.04
   4   3   3    0.01    0.07
   4   3   3    0.09    0.06
   4   3   3    0.17    0.04
   4   3   3    0.07    0.06
   4   3   3    0.17    0.06
   4   3   3    0.11    0.03
  -5  -3  -3    0.10    0.08
  -5  -3  -3    0.04    0.04
  -5  -3  -3    0.12    0.05
  -5  -3  -3    0.07    0.03
  -5  -3  -3    0.07    0.08
   5   3   3    0.09    0.03
   5   3   3    0.24    0.09
   5   3   3    0.07    0.04
   5   3   3    0.06    0.05
  -6  -3  -3    9.60    0.73
  -6  -3  -3   10.20    0.74
  -6  -3  -3   10.32    0.74
   6   3   3   11.53    0.74
   6   3   3   10.48    0.74
   6   3   3   10.28    0.73
   6   3   3   11.51    0.73
  -7  -3  -3    0.00    0.03
  -7  -3  -3    0.01    0.03
  -7  -3  -3    0.00    0.04
  -7  -3  -3    0.05    0.02
   7   3   3    0.07    0.03
   7   3   3    0.07    0.02
   7   3   3    0.02    0.04
   7   3   3    0.06    0.04
  -8  -3  -3    0.85    0.07
  -8  -3  -3    0.83    0.06
  -8  -3  -3    0.69    0.07
  -8  -3  -3    0.84    0.09
   8   3   3    0.69    0.10
   8   3   3    0.87    0.07
   8   3   3    0.81    0.09
   8   3   3    0.86    0.08
  -9  -3  -3    0.07    0.03
  -9  -3  -3    0.07    0.02
  -9  -3  -3    0.07    0.02
  -9  -3  -3    0.09    0.02
   9   3   3    0.10    0.02
   9   3   3    0.07    0.03
   9   3   3    0.11    0.03
 -10  -3  -3    0.08    0.02
 -10  -3  -3    0.08    0.02
 -10  -3  -3    0.11    0.02
  10   3   3    0.07    0.02
  10   3   3    0.08    0.01
  -9   4   3    0.29    0.04
  -9   4   3    0.34    0.03
  -8   4   3    0.04    0.02
  -8   4   3    0.02    0.02
  -7   4   3    0.03    0.03
  -7   4   3    0.05    0.03
  -7   4   3    0.01    0.02
  -6   4   3    3.59    0.27
  -6   4   3    3.77    0.27
  -6   4   3    3.96    0.27
  -5   4   3    0.36    0.06
  -5   4   3    0.47    0.06
  -5   4   3    0.56    0.08
  -4   4   3    0.68    0.09
  -4   4   3    0.80    0.08
   3  -4  -3   16.28    1.17
  -3   4   3   17.16    1.16
   2  -4  -3    0.22    0.08
   2  -4  -3    0.27    0.07
   1  -4  -3    3.17    0.24
   1  -4  -3    3.50    0.27
   1  -4  -3    3.71    0.28
   1  -4  -3    3.01    0.26
   1  -4  -3    3.32    0.25
  -1   4   3    3.75    0.28
   0  -4  -3   87.00    5.86
   0  -4  -3   75.99    5.89
   0  -4  -3   81.95    5.85
   0  -4  -3   81.58    5.84
   0   4   3   86.60    5.87
   0   4   3   88.91    5.86
   0   4   3   84.79    5.84
   0   4   3   92.30    5.85
  -1  -4  -3   10.05    0.71
  -1  -4  -3    9.22    0.71
  -1  -4  -3    9.91    0.73
  -1  -4  -3    9.95    0.72
  -1  -4  -3    9.34    0.72
  -1  -4  -3   10.00    0.72
   1   4   3   11.14    0.71
   1   4   3   10.93    0.73
   1   4   3   10.51    0.72
   1   4   3   11.10    0.72
  -2  -4  -3    0.94    0.13
  -2  -4  -3    1.03    0.14
  -2  -4  -3    1.00    0.11
  -2  -4  -3    0.79    0.09
  -2  -4  -3    0.82    0.11
   2   4   3    1.08    0.12
   2   4   3    1.03    0.12
   2   4   3    1.07    0.13
  -3  -4  -3   18.56    1.30
  -3  -4  -3   17.80    1.31
  -3  -4  -3   18.84    1.31
  -3  -4  -3   17.83    1.31
  -3  -4  -3   19.17    1.30
  -3  -4  -3   18.82    1.32
   3   4   3   18.46    1.31
   3   4   3   18.89    1.31
   3   4   3   19.41    1.29
   3   4   3   18.77    1.31
   3   4   3   19.40    1.30
   3   4   3   18.72    1.32
   3   4   3   19.26    1.30
  -4  -4  -3    1.54    0.18
  -4  -4  -3    1.82    0.16
  -4  -4  -3    1.81    0.16
  -4  -4  -3    1.35    0.19
  -4  -4  -3    1.74    0.14
  -4  -4  -3    1.65    0.14
  -4  -4  -3    1.90    0.13
   4   4   3    1.76    0.15
   4   4   3    1.74    0.15
   4   4   3    1.65    0.18
   4   4   3    1.94    0.14
  -5  -4  -3    0.02    0.09
  -5  -4  -3    0.21    0.05
  -5  -4  -3    0.17    0.03
  -5  -4  -3    0.19    0.08
  -5  -4  -3    0.22    0.05
   5   4   3    0.24    0.04
   5   4   3    0.14    0.05
   5   4   3    0.14    0.04
   5   4   3    0.13    0.03
   5   4   3    0.20    0.03
  -6  -4  -3    7.33    0.53
  -6  -4  -3    8.15    0.56
  -6  -4  -3    7.61    0.54
  -6  -4  -3    7.53    0.53
   6   4   3    7.46    0.53
   6   4   3    7.84    0.54
   6   4   3    7.25    0.54
   6   4   3    7.96    0.53
  -7  -4  -3   -0.01    0.03
  -7  -4  -3    0.04    0.03
  -7  -4  -3    0.01    0.02
   7   4   3    0.00    0.05
   7   4   3    0.02    0.03
   7   4   3    0.04    0.04
   7   4   3    0.02    0.02
  -8  -4  -3    0.23    0.03
  -8  -4  -3    0.25    0.05
  -8  -4  -3    0.23    0.04
  -8  -4  -3    0.30    0.04
   8   4   3    0.25    0.04
   8   4   3    0.16    0.05
   8   4   3    0.29    0.04
   8   4   3    0.28    0.05
  -9  -4  -3    0.97    0.07
  -9  -4  -3    0.89    0.08
  -9  -4  -3    0.82    0.07
   9   4   3    0.93    0.07
   9   4   3    0.93    0.08
 -10  -4  -3    0.01    0.01
 -10  -4  -3    0.00    0.02
  10   4   3    0.00    0.01
  -9   5   3    0.34    0.04
  -8   5   3    0.06    0.02
  -8   5   3    0.06    0.02
  -7   5   3    0.29    0.04
  -7   5   3    0.22    0.04
  -6   5   3    0.10    0.03
  -6   5   3    0.11    0.02
   5  -5  -3    0.00    0.06
  -5   5   3    0.06    0.03
  -5   5   3    0.05    0.03
   4  -5  -3    0.01    0.06
  -4   5   3    0.04    0.04
   3  -5  -3    9.22    0.68
  -3   5   3   10.02    0.67
   2  -5  -3    1.11    0.10
   2  -5  -3    1.29    0.14
  -2   5   3    1.44    0.12
   1  -5  -3    0.68    0.12
   1  -5  -3    0.81    0.07
   1  -5  -3    0.53    0.07
   1  -5  -3    0.63    0.10
   1  -5  -3    0.65    0.08
  -1   5   3    0.88    0.10
  -1   5   3    0.74    0.14
   0  -5  -3   16.91    1.20
   0  -5  -3   14.57    1.18
   0  -5  -3   17.08    1.19
   0  -5  -3   18.03    1.19
   0  -5  -3   14.92    1.19
   0   5   3   18.24    1.20
   0   5   3   18.02    1.20
   0   5   3   19.61    1.20
  -1  -5  -3    0.05    0.02
  -1  -5  -3   -0.06    0.07
  -1  -5  -3    0.06    0.04
  -1  -5  -3    0.06    0.04
   1   5   3    0.05    0.05
   1   5   3    0.03    0.06
   1   5   3    0.04    0.05
   1   5   3    0.07    0.06
  -2  -5  -3    1.13    0.09
  -2  -5  -3    0.91    0.15
  -2  -5  -3    1.14    0.12
  -2  -5  -3    0.93    0.14
  -2  -5  -3    0.92    0.14
  -2  -5  -3    1.16    0.11
   2   5   3    1.24    0.09
   2   5   3    1.24    0.12
   2   5   3    1.13    0.13
   2   5   3    1.32    0.13
   2   5   3    1.33    0.10
   2   5   3    1.17    0.14
  -3  -5  -3   14.63    1.00
  -3  -5  -3   14.97    0.99
  -3  -5  -3   14.81    0.98
  -3  -5  -3   12.98    0.99
  -3  -5  -3   12.86    1.00
  -3  -5  -3   12.91    1.00
  -3  -5  -3   14.14    0.98
   3   5   3   14.83    0.99
   3   5   3   14.22    0.98
   3   5   3   13.72    1.00
   3   5   3   12.77    0.99
   3   5   3   15.86    0.98
   3   5   3   15.74    0.98
   3   5   3   14.51    0.98
   3   5   3   13.75    0.99
  -4  -5  -3    0.96    0.09
  -4  -5  -3    1.07    0.12
  -4  -5  -3    0.79    0.15
  -4  -5  -3    1.03    0.11
  -4  -5  -3    0.98    0.09
   4   5   3    1.02    0.08
   4   5   3    0.92    0.10
   4   5   3    1.05    0.09
   4   5   3    1.09    0.08
   4   5   3    0.89    0.11
   4   5   3    0.82    0.11
   4   5   3    0.78    0.14
  -5  -5  -3    1.67    0.12
  -5  -5  -3    1.52    0.12
  -5  -5  -3    1.42    0.18
   5   5   3    1.56    0.12
   5   5   3    1.47    0.14
   5   5   3    1.47    0.12
   5   5   3    1.48    0.13
   5   5   3    1.51    0.14
   5   5   3    1.68    0.12
  -6  -5  -3    3.87    0.27
  -6  -5  -3    3.82    0.27
  -6  -5  -3    3.87    0.29
  -6  -5  -3    4.37    0.31
   6   5   3    3.76    0.28
   6   5   3    4.08    0.27
   6   5   3    3.72    0.27
   6   5   3    3.84    0.28
   6   5   3    3.60    0.28
   6   5   3    3.51    0.27
  -7  -5  -3    0.23    0.04
  -7  -5  -3    0.29    0.04
  -7  -5  -3    0.35    0.04
   7   5   3    0.23    0.05
   7   5   3    0.30    0.04
   7   5   3    0.22    0.05
  -8  -5  -3    0.06    0.02
  -8  -5  -3    0.05    0.03
  -8  -5  -3    0.06    0.03
   8   5   3   -0.02    0.04
   8   5   3    0.12    0.03
   8   5   3    0.08    0.04
   8   5   3    0.08    0.02
  -9  -5  -3    0.38    0.05
  -9  -5  -3    0.35    0.03
   9   5   3    0.37    0.05
   9   5   3    0.35    0.03
 -10  -5  -3    0.01    0.01
  10   5   3    0.01    0.01
  -8   6   3    0.00    0.01
  -7   6   3   -0.01    0.02
  -7   6   3    0.01    0.02
  -6   6   3    0.64    0.07
  -6   6   3    0.79    0.07
   5  -6  -3    0.13    0.06
  -5   6   3    0.16    0.03
  -5   6   3    0.10    0.03
   4  -6  -3    0.09    0.06
  -4   6   3    0.05    0.03
   3  -6  -3    2.34    0.20
   3  -6  -3    2.19    0.17
  -3   6   3    2.55    0.18
   2  -6  -3    0.24    0.04
   2  -6  -3    0.35    0.06
   2  -6  -3    0.38    0.07
   2  -6  -3    0.37    0.05
  -2   6   3    0.34    0.07
  -2   6   3    0.42    0.04
  -2   6   3    0.34    0.04
   1  -6  -3    0.05    0.02
   1  -6  -3    0.09    0.04
   1  -6  -3    0.03    0.03
   1  -6  -3    0.01    0.06
  -1   6   3    0.06    0.03
  -1   6   3    0.04    0.02
  -1   6   3    0.05    0.04
   0  -6  -3    7.10    0.55
   0  -6  -3    7.88    0.56
   0  -6  -3    7.33    0.55
   0  -6  -3    6.74    0.54
   0   6   3    8.91    0.55
   0   6   3    8.74    0.55
   0   6   3    7.62    0.58
   0   6   3    8.55    0.54
  -1  -6  -3    1.06    0.10
  -1  -6  -3    0.83    0.13
  -1  -6  -3    0.98    0.08
  -1  -6  -3    0.85    0.14
   1   6   3    0.75    0.16
   1   6   3    1.06    0.10
   1   6   3    1.05    0.10
   1   6   3    1.09    0.08
   1   6   3    0.80    0.14
   1   6   3    1.13    0.09
  -2  -6  -3    0.08    0.04
  -2  -6  -3   -0.03    0.06
  -2  -6  -3   -0.04    0.10
  -2  -6  -3    0.06    0.02
   2   6   3    0.10    0.08
   2   6   3    0.07    0.02
   2   6   3    0.04    0.03
   2   6   3   -0.03    0.07
   2   6   3   -0.01    0.04
  -3  -6  -3    7.42    0.49
  -3  -6  -3    6.81    0.51
  -3  -6  -3    6.48    0.48
   3   6   3    7.22    0.48
   3   6   3    6.34    0.53
   3   6   3    6.93    0.49
   3   6   3    7.26    0.48
  -4  -6  -3    0.19    0.03
  -4  -6  -3    0.21    0.06
  -4  -6  -3    0.16    0.05
  -4  -6  -3    0.14    0.08
   4   6   3    0.10    0.04
   4   6   3    0.23    0.04
   4   6   3    0.19    0.03
   4   6   3    0.18    0.05
   4   6   3    0.17    0.03
   4   6   3    0.20    0.08
  -5  -6  -3   -0.01    0.08
  -5  -6  -3    0.03    0.02
  -5  -6  -3   -0.03    0.03
   5   6   3    0.05    0.04
   5   6   3    0.02    0.02
   5   6   3   -0.05    0.05
   5   6   3    0.04    0.02
   5   6   3    0.03    0.04
   5   6   3    0.03    0.02
  -6  -6  -3    1.64    0.18
  -6  -6  -3    1.45    0.10
  -6  -6  -3    1.36    0.11
   6   6   3    1.46    0.10
   6   6   3    1.42    0.10
   6   6   3    1.36    0.12
   6   6   3    1.42    0.10
   6   6   3    1.30    0.12
   6   6   3    1.23    0.13
  -7  -6  -3    0.01    0.02
  -7  -6  -3    0.01    0.03
  -7  -6  -3    0.13    0.10
   7   6   3    0.06    0.03
   7   6   3    0.04    0.02
   7   6   3    0.05    0.04
   7   6   3    0.02    0.02
   7   6   3    0.06    0.02
  -8  -6  -3    0.25    0.04
  -8  -6  -3    0.24    0.03
   8   6   3    0.23    0.03
   8   6   3    0.22    0.03
  -9  -6  -3    0.17    0.02
  -9  -6  -3    0.19    0.02
   9   6   3    0.18    0.02
   9   6   3    0.15    0.03
 -10  -6  -3    0.01    0.01
  -7   7   3   -0.01    0.01
  -6   7   3    0.93    0.07
   5  -7  -3    0.18    0.03
  -5   7   3    0.16    0.03
   4  -7  -3    0.11    0.06
   4  -7  -3    0.05    0.03
  -4   7   3    0.04    0.03
   3  -7  -3    1.11    0.13
   3  -7  -3    1.06    0.09
   3  -7  -3    1.10    0.09
   3  -7  -3    1.03    0.08
  -3   7   3    1.12    0.10
   2  -7  -3    0.32    0.04
   2  -7  -3    0.36    0.06
   2  -7  -3    0.36    0.06
   2  -7  -3    0.41    0.07
  -2   7   3    0.34    0.04
  -2   7   3    0.40    0.03
  -2   7   3    0.35    0.06
   1  -7  -3   -0.01    0.05
   1  -7  -3    0.02    0.04
   1  -7  -3    0.04    0.03
   1  -7  -3    0.04    0.02
  -1   7   3    0.04    0.03
  -1   7   3   -0.01    0.02
  -1   7   3    0.00    0.02
   0  -7  -3    3.27    0.25
   0  -7  -3    3.49    0.27
   0  -7  -3    3.54    0.26
   0  -7  -3    3.57    0.26
   0   7   3    3.48    0.25
   0   7   3    3.95    0.25
  -1  -7  -3    0.03    0.02
  -1  -7  -3    0.02    0.04
  -1  -7  -3   -0.01    0.06
  -1  -7  -3    0.04    0.04
   1   7   3    0.01    0.03
   1   7   3    0.02    0.03
   1   7   3   -0.03    0.04
   1   7   3    0.04    0.02
  -2  -7  -3    0.40    0.07
  -2  -7  -3    0.47    0.05
  -2  -7  -3    0.51    0.08
  -2  -7  -3    0.35    0.08
   2   7   3    0.46    0.05
   2   7   3    0.42    0.04
   2   7   3    0.45    0.05
  -3  -7  -3    6.33    0.44
  -3  -7  -3    6.08    0.44
  -3  -7  -3    6.36    0.45
  -3  -7  -3    6.07    0.43
   3   7   3    6.17    0.43
   3   7   3    5.91    0.43
   3   7   3    6.13    0.43
  -4  -7  -3    0.14    0.06
  -4  -7  -3   -0.09    0.08
  -4  -7  -3   -0.01    0.08
  -4  -7  -3    0.04    0.02
   4   7   3    0.03    0.02
   4   7   3    0.02    0.04
   4   7   3    0.02    0.02
  -5  -7  -3    0.18    0.02
  -5  -7  -3    0.14    0.08
  -5  -7  -3    0.15    0.03
   5   7   3    0.16    0.03
   5   7   3    0.11    0.04
   5   7   3    0.17    0.02
  -6  -7  -3    1.36    0.19
  -6  -7  -3    1.40    0.10
  -6  -7  -3    1.35    0.10
   6   7   3    1.26    0.10
   6   7   3    1.07    0.11
   6   7   3    1.27    0.10
   6   7   3    1.39    0.09
  -7  -7  -3    0.12    0.02
  -7  -7  -3    0.14    0.03
   7   7   3    0.11    0.02
   7   7   3    0.13    0.02
   7   7   3    0.13    0.02
  -8  -7  -3    0.00    0.01
  -8  -7  -3   -0.02    0.02
   8   7   3    0.01    0.01
  -9  -7  -3    0.52    0.04
  -6   8   3    0.48    0.04
   5  -8  -3    0.07    0.02
   5  -8  -3    0.04    0.01
  -5   8   3    0.05    0.02
   4  -8  -3    0.22    0.03
   4  -8  -3    0.24    0.04
  -4   8   3    0.25    0.04
   3  -8  -3    0.28    0.04
   3  -8  -3    0.28    0.06
   3  -8  -3    0.20    0.03
  -3   8   3    0.23    0.05
   2  -8  -3    0.00    0.05
   2  -8  -3    0.00    0.03
   2  -8  -3    0.02    0.03
  -2   8   3    0.00    0.03
  -2   8   3    0.01    0.01
  -2   8   3    0.03    0.02
   1  -8  -3    0.00    0.06
   1  -8  -3    0.01    0.04
   1  -8  -3    0.02    0.03
   1  -8  -3    0.03    0.02
  -1   8   3    0.01    0.01
  -1   8   3    0.04    0.02
  -1   8   3    0.01    0.03
   0  -8  -3    4.58    0.32
   0  -8  -3    4.41    0.31
   0  -8  -3    4.31    0.31
   0  -8  -3    5.09    0.33
   0   8   3    4.12    0.31
   0   8   3    4.03    0.31
   0   8   3    4.54    0.31
  -1  -8  -3    0.03    0.04
  -1  -8  -3    0.08    0.04
  -1  -8  -3    0.03    0.06
  -1  -8  -3    0.03    0.02
   1   8   3    0.03    0.02
   1   8   3    0.00    0.02
  -2  -8  -3    1.17    0.14
  -2  -8  -3    1.15    0.09
  -2  -8  -3    1.19    0.10
  -2  -8  -3    1.19    0.11
   2   8   3    1.18    0.09
   2   8   3    1.09    0.09
  -3  -8  -3    0.51    0.09
  -3  -8  -3    0.46    0.05
  -3  -8  -3    0.31    0.05
  -3  -8  -3    0.42    0.08
   3   8   3    0.39    0.05
   3   8   3    0.41    0.04
  -4  -8  -3   -0.01    0.02
  -4  -8  -3    0.08    0.07
  -4  -8  -3    0.11    0.06
  -4  -8  -3    0.00    0.02
   4   8   3    0.02    0.02
   4   8   3    0.00    0.04
   4   8   3    0.00    0.02
  -5  -8  -3    0.01    0.03
  -5  -8  -3    0.01    0.02
  -5  -8  -3    0.09    0.09
   5   8   3    0.02    0.02
   5   8   3   -0.01    0.02
   5   8   3    0.00    0.04
  -6  -8  -3    1.45    0.10
  -6  -8  -3    1.41    0.11
   6   8   3    1.42    0.10
   6   8   3    1.35    0.10
  -7  -8  -3    0.02    0.01
  -7  -8  -3    0.01    0.02
   7   8   3    0.00    0.01
   7   8   3    0.01    0.01
  -8  -8  -3    0.05    0.01
   8   8   3    0.06    0.01
   5  -9  -3   -0.02    0.01
  -5   9   3    0.01    0.01
   4  -9  -3    0.08    0.02
   4  -9  -3    0.07    0.01
  -4   9   3    0.08    0.02
   3  -9  -3    0.62    0.07
   3  -9  -3    0.65    0.05
  -3   9   3    0.63    0.06
   2  -9  -3    0.01    0.01
   2  -9  -3   -0.04    0.03
   2  -9  -3    0.04    0.02
  -2   9   3    0.00    0.02
   1  -9  -3    0.28    0.04
   1  -9  -3    0.33    0.03
   1  -9  -3    0.31    0.05
  -1   9   3    0.22    0.04
  -1   9   3    0.24    0.02
  -1   9   3    0.24    0.03
   0  -9  -3    0.87    0.12
   0  -9  -3    0.77    0.06
   0  -9  -3    0.72    0.08
   0  -9  -3    0.79    0.07
   0   9   3    0.70    0.06
   0   9   3    0.73    0.06
  -1  -9  -3    0.11    0.04
  -1  -9  -3    0.07    0.03
  -1  -9  -3    0.16    0.07
  -1  -9  -3    0.07    0.02
   1   9   3    0.08    0.02
   1   9   3    0.06    0.02
  -2  -9  -3    0.94    0.07
  -2  -9  -3    0.86    0.10
  -2  -9  -3    0.99    0.09
  -2  -9  -3    1.18    0.14
   2   9   3    0.82    0.07
   2   9   3    0.82    0.07
  -3  -9  -3    0.44    0.04
  -3  -9  -3    0.30    0.04
  -3  -9  -3    0.46    0.07
   3   9   3    0.37    0.04
   3   9   3    0.35    0.03
  -4  -9  -3    0.08    0.02
  -4  -9  -3    0.04    0.02
   4   9   3    0.01    0.02
   4   9   3    0.03    0.02
  -5  -9  -3   -0.02    0.01
  -5  -9  -3    0.02    0.02
   5   9   3    0.00    0.01
   5   9   3    0.00    0.01
  -6  -9  -3    0.38    0.03
  -6  -9  -3    0.34    0.03
   6   9   3    0.32    0.03
   6   9   3    0.32    0.03
  -7  -9  -3    0.11    0.01
   7   9   3    0.07    0.01
   7   9   3    0.07    0.01
   3 -10  -3    0.32    0.03
  -3  10   3    0.33    0.03
   2 -10  -3    0.01    0.02
   2 -10  -3    0.02    0.01
  -2  10   3    0.01    0.01
   1 -10  -3    0.16    0.02
   1 -10  -3    0.12    0.02
  -1  10   3    0.10    0.02
   0 -10  -3    0.32    0.04
   0 -10  -3    0.32    0.03
   0  10   3    0.29    0.02
   0  10   3    0.27    0.03
  -1 -10  -3    0.11    0.02
  -1 -10  -3    0.09    0.03
   1  10   3    0.09    0.01
   1  10   3    0.11    0.02
  -2 -10  -3    0.02    0.03
  -2 -10  -3    0.02    0.01
   2  10   3    0.01    0.01
   2  10   3    0.01    0.01
   3  10   3    0.60    0.04
   3  10   3    0.59    0.05
  -4 -10  -3    0.09    0.02
  -4 -10  -3    0.06    0.02
   4  10   3    0.08    0.01
   4  10   3    0.08    0.01
  -5 -10  -3    0.02    0.01
  -5 -10  -3    0.02    0.01
   5  10   3    0.02    0.01
   5  10   3    0.02    0.01
  -6 -10  -3    0.24    0.02
   6  10   3    0.25    0.02
   6  10   3    0.25    0.02
   0 -11  -3    0.18    0.02
  -1 -11  -3    0.00    0.01
   1  11   3    0.01    0.01
   1  11   3    0.01    0.00
  -2 -11  -3    0.05    0.01
   2  11   3    0.03    0.01
   2  11   3    0.03    0.01
  -3 -11  -3    0.92    0.07
   4   7  -4    0.02    0.01
   4   7  -4    0.02    0.01
  -4  -7   4    0.02    0.01
   3   7  -4    0.33    0.03
   3   7  -4    0.36    0.03
  -3  -7   4    0.40    0.03
   2   7  -4    0.00    0.01
   2   7  -4    0.00    0.01
  -2  -7   4    0.00    0.01
   1   7  -4    0.03    0.01
  -1  -7   4    0.02    0.01
   0   7  -4    0.31    0.03
   0  -7   4    0.33    0.03
  -1   7  -4    0.00    0.01
  -2   7  -4    0.02    0.01
   2  -7   4    0.01    0.01
  -3   7  -4    0.24    0.02
  -3   7  -4    0.24    0.03
   3  -7   4    0.25    0.02
   6   6  -4    0.06    0.01
  -6  -6   4    0.07    0.01
  -6  -6   4    0.05    0.01
   5   6  -4    0.00    0.02
  -5  -6   4    0.00    0.01
   4   6  -4    0.00    0.02
   4   6  -4   -0.01    0.01
  -4  -6   4    0.00    0.01
   3   6  -4    0.31    0.04
   3   6  -4    0.31    0.03
  -3  -6   4    0.38    0.03
   2   6  -4    0.14    0.03
   2   6  -4    0.12    0.02
   2   6  -4    0.08    0.05
  -2  -6   4    0.09    0.01
   1   6  -4    0.05    0.02
   1   6  -4    0.06    0.02
   1   6  -4    0.07    0.05
   0   6  -4    0.21    0.03
   0   6  -4    0.14    0.06
   0   6  -4    0.18    0.03
   0  -6   4    0.28    0.03
   0  -6   4    0.21    0.02
  -1   6  -4    0.03    0.03
  -1   6  -4    0.06    0.05
  -1   6  -4    0.02    0.03
   1  -6   4    0.00    0.01
   1  -6   4    0.02    0.01
   1  -6   4    0.07    0.06
  -2   6  -4    0.14    0.02
  -2   6  -4    0.13    0.03
  -2   6  -4    0.15    0.03
   2  -6   4    0.10    0.07
   2  -6   4    0.20    0.02
   2  -6   4    0.15    0.03
  -3   6  -4    0.34    0.03
  -3   6  -4    0.30    0.05
  -3   6  -4    0.33    0.05
   3  -6   4    0.43    0.03
   3  -6   4    0.43    0.04
  -4   6  -4   -0.01    0.02
  -4   6  -4    0.03    0.02
  -4   6  -4    0.00    0.01
   4  -6   4    0.01    0.02
   4  -6   4    0.01    0.01
  -5   6  -4   -0.01    0.02
  -5   6  -4    0.01    0.01
   5  -6   4    0.00    0.01
   7   5  -4    0.03    0.01
   7   5  -4    0.04    0.01
  -7  -5   4    0.05    0.01
  -7  -5   4    0.03    0.01
   6   5  -4    0.44    0.04
   6   5  -4    0.41    0.06
   6   5  -4    0.46    0.05
  -6  -5   4    0.54    0.04
  -6  -5   4    0.51    0.04
   5   5  -4    0.19    0.05
   5   5  -4    0.24    0.04
   5   5  -4    0.23    0.03
  -5  -5   4    0.28    0.02
   4   5  -4    0.05    0.06
   4   5  -4    0.03    0.02
   4   5  -4   -0.04    0.03
   4   5  -4    0.00    0.02
   4   5  -4    0.00    0.04
  -4  -5   4    0.03    0.01
   3   5  -4    0.74    0.06
   3   5  -4    0.77    0.12
   3   5  -4    0.66    0.06
   3   5  -4    0.67    0.07
  -3  -5   4    0.74    0.05
   2   5  -4    0.03    0.02
   2   5  -4    0.01    0.03
   2   5  -4    0.00    0.07
  -2  -5   4    0.05    0.01
   1   5  -4    0.03    0.07
   1   5  -4    0.05    0.02
   1   5  -4    0.00    0.04
   1   5  -4    0.03    0.03
  -1  -5   4    0.03    0.02
  -1  -5   4    0.01    0.03
   0   5  -4    0.96    0.09
   0   5  -4    0.85    0.13
   0   5  -4    1.04    0.10
   0   5  -4    0.98    0.08
   0  -5   4    0.97    0.09
   0  -5   4    0.89    0.07
   0  -5   4    0.94    0.09
   0  -5   4    1.16    0.07
  -1   5  -4    0.05    0.04
  -1   5  -4    0.18    0.07
  -1   5  -4    0.03    0.03
  -1   5  -4    0.01    0.05
   1  -5   4    0.01    0.01
   1  -5   4    0.00    0.04
   1  -5   4    0.03    0.03
   1  -5   4    0.08    0.03
  -2   5  -4    0.02    0.04
  -2   5  -4    0.03    0.04
  -2   5  -4    0.05    0.02
  -2   5  -4    0.06    0.06
   2  -5   4    0.07    0.04
   2  -5   4    0.04    0.03
   2  -5   4    0.00    0.03
   2  -5   4    0.04    0.02
  -3   5  -4    0.56    0.07
  -3   5  -4    0.52    0.05
  -3   5  -4    0.53    0.08
   3  -5   4    0.55    0.07
   3  -5   4    0.55    0.07
   3  -5   4    0.65    0.05
   3  -5   4    0.69    0.06
  -4   5  -4    0.01    0.02
  -4   5  -4   -0.01    0.04
  -4   5  -4    0.05    0.05
   4  -5   4    0.00    0.03
   4  -5   4    0.02    0.02
   4  -5   4    0.01    0.01
  -5   5  -4    0.03    0.03
  -5   5  -4    0.01    0.03
  -5   5  -4    0.02    0.01
   5  -5   4   -0.01    0.02
   5  -5   4    0.04    0.03
   5  -5   4    0.03    0.01
  -6   5  -4    0.15    0.04
  -6   5  -4    0.18    0.03
   6  -5   4    0.25    0.03
   6  -5   4    0.22    0.02
   7  -5   4    0.05    0.01
   8   4  -4   -0.01    0.01
   8   4  -4    0.00    0.01
   8   4  -4    0.01    0.02
  -8  -4   4    0.00    0.01
   7   4  -4    0.22    0.04
   7   4  -4    0.31    0.04
   7   4  -4    0.30    0.05
  -7  -4   4    0.36    0.03
  -7  -4   4    0.32    0.04
   6   4  -4    0.95    0.09
   6   4  -4    0.94    0.08
   6   4  -4    0.83    0.08
  -6  -4   4    1.05    0.08
  -6  -4   4    1.02    0.07
   5   4  -4    0.00    0.06
   5   4  -4   -0.04    0.04
   5   4  -4    0.00    0.06
   5   4  -4   -0.01    0.03
  -5  -4   4    0.02    0.01
   4   4  -4    0.92    0.10
   4   4  -4    0.94    0.08
   4   4  -4    0.95    0.13
   4   4  -4    0.97    0.12
   4   4  -4    0.93    0.12
  -4  -4   4    0.94    0.07
   3   4  -4    1.00    0.08
   3   4  -4    0.98    0.13
   3   4  -4    1.01    0.13
   3   4  -4    0.95    0.11
   3   4  -4    1.00    0.09
   3   4  -4    1.02    0.12
  -3  -4   4    0.96    0.07
   2   4  -4    0.60    0.08
   2   4  -4    0.49    0.08
   2   4  -4    0.30    0.12
   2   4  -4    0.64    0.06
   2   4  -4    0.77    0.13
   2   4  -4    0.54    0.09
   2   4  -4    0.62    0.07
  -2  -4   4    0.63    0.05
   1   4  -4    0.13    0.03
   1   4  -4    0.19    0.07
   1   4  -4    0.13    0.06
   1   4  -4    0.14    0.03
   1   4  -4    0.30    0.08
   1   4  -4    0.26    0.07
  -1  -4   4    0.17    0.04
  -1  -4   4    0.23    0.03
  -1  -4   4    0.15    0.02
   0   4  -4    1.48    0.13
   0   4  -4    1.09    0.16
   0   4  -4    1.45    0.11
   0   4  -4    1.29    0.16
   0  -4   4    1.54    0.11
   0  -4   4    1.51    0.12
   0  -4   4    1.40    0.11
   0  -4   4    1.49    0.13
   0  -4   4    1.64    0.12
  -1   4  -4    0.44    0.06
  -1   4  -4    0.48    0.08
  -1   4  -4    0.44    0.09
  -1   4  -4    0.40    0.08
   1  -4   4    0.42    0.08
   1  -4   4    0.49    0.04
   1  -4   4    0.42    0.04
   1  -4   4    0.51    0.07
   1  -4   4    0.43    0.05
  -2   4  -4    0.03    0.08
  -2   4  -4    0.05    0.07
  -2   4  -4   -0.01    0.05
  -2   4  -4    0.00    0.03
   2  -4   4    0.01    0.04
   2  -4   4    0.06    0.03
   2  -4   4    0.04    0.03
   2  -4   4    0.05    0.02
  -3   4  -4    0.93    0.08
  -3   4  -4    1.05    0.11
   3  -4   4    1.06    0.08
   3  -4   4    1.12    0.09
   3  -4   4    0.95    0.10
   3  -4   4    0.92    0.10
  -4   4  -4    0.07    0.02
  -4   4  -4    0.18    0.05
  -4   4  -4    0.05    0.06
   4  -4   4    0.08    0.02
   4  -4   4    0.09    0.03
   4  -4   4    0.09    0.03
   4  -4   4    0.06    0.04
  -5   4  -4    0.03    0.02
  -5   4  -4    0.09    0.04
  -5   4  -4    0.02    0.04
   5  -4   4    0.03    0.02
   5  -4   4    0.05    0.03
   5  -4   4    0.07    0.03
  -6   4  -4    1.26    0.09
  -6   4  -4    1.16    0.11
  -6   4  -4    1.22    0.10
  -6   4  -4    1.46    0.12
   6  -4   4    1.15    0.10
   6  -4   4    1.46    0.09
  -7   4  -4    0.03    0.02
  -7   4  -4    0.03    0.02
   7  -4   4    0.02    0.01
   7  -4   4    0.04    0.02
  -8   4  -4    0.00    0.01
   8  -4   4   -0.01    0.01
   9   3  -4    0.16    0.02
  -9  -3   4    0.17    0.02
   8   3  -4    0.02    0.02
   8   3  -4    0.00    0.02
   8   3  -4    0.00    0.02
  -8  -3   4   -0.01    0.02
  -8  -3   4    0.00    0.01
   7   3  -4    0.08    0.05
   7   3  -4    0.01    0.03
   7   3  -4    0.00    0.02
  -7  -3   4   -0.01    0.02
  -7  -3   4    0.00    0.01
   6   3  -4    1.29    0.14
   6   3  -4    1.63    0.13
   6   3  -4    1.46    0.12
  -6  -3   4    1.63    0.11
  -6  -3   4    1.62    0.12
  -6  -3   4    1.56    0.11
   5   3  -4    2.44    0.21
   5   3  -4    2.32    0.21
   5   3  -4    2.29    0.20
   5   3  -4    2.79    0.19
   5   3  -4    2.55    0.23
  -5  -3   4    2.89    0.19
  -5  -3   4    2.59    0.18
   4   3  -4   -0.03    0.05
   4   3  -4    0.01    0.06
   4   3  -4   -0.04    0.04
   4   3  -4    0.01    0.07
   4   3  -4    0.09    0.07
   4   3  -4    0.04    0.07
  -4  -3   4    0.02    0.01
  -4  -3   4    0.02    0.02
   3   3  -4    1.72    0.17
   3   3  -4    1.50    0.15
   3   3  -4    1.48    0.15
   3   3  -4    1.66    0.17
   3   3  -4    1.59    0.13
   3   3  -4    1.50    0.16
  -3  -3   4    1.57    0.11
  -3  -3   4    1.44    0.12
   2   3  -4   -0.01    0.07
   2   3  -4    0.07    0.08
   2   3  -4    0.05    0.03
   2   3  -4   -0.02    0.04
   2   3  -4    0.07    0.07
   2   3  -4    0.03    0.08
   2   3  -4    0.03    0.06
  -2  -3   4    0.05    0.02
  -2  -3   4   -0.02    0.04
   1   3  -4    0.10    0.08
   1   3  -4    0.24    0.09
   1   3  -4    0.02    0.04
   1   3  -4    0.07    0.04
   1   3  -4   -0.02    0.07
   1   3  -4    0.00    0.07
   1   3  -4   -0.06    0.06
  -1  -3   4    0.07    0.02
  -1  -3   4    0.04    0.04
  -1  -3   4    0.05    0.02
   0   3  -4    6.98    0.53
   0   3  -4    7.64    0.53
   0   3  -4    7.90    0.52
   0   3  -4    7.45    0.55
   0   3  -4    6.78    0.54
   0  -3   4    7.01    0.52
   0  -3   4    7.87    0.52
   0  -3   4    7.92    0.53
   0  -3   4    7.80    0.52
   0  -3   4    7.57    0.53
  -1   3  -4    1.70    0.16
  -1   3  -4    1.91    0.14
  -1   3  -4    1.75    0.20
  -1   3  -4    1.68    0.19
   1  -3   4    1.81    0.13
   1  -3   4    1.88    0.15
   1  -3   4    1.97    0.15
   1  -3   4    2.04    0.15
  -2   3  -4    0.03    0.06
  -2   3  -4    0.02    0.03
  -2   3  -4    0.03    0.07
  -2   3  -4    0.18    0.08
   2  -3   4    0.06    0.03
   2  -3   4    0.08    0.04
   2  -3   4    0.04    0.04
   2  -3   4    0.02    0.02
   2  -3   4    0.05    0.02
  -3   3  -4    1.51    0.14
  -3   3  -4    1.48    0.11
  -3   3  -4    1.24    0.16
  -3   3  -4    1.51    0.14
   3  -3   4    1.44    0.12
   3  -3   4    1.51    0.11
   3  -3   4    1.38    0.13
   3  -3   4    1.57    0.13
  -4   3  -4    0.32    0.05
  -4   3  -4    0.33    0.06
  -4   3  -4    0.22    0.07
   4  -3   4    0.29    0.05
   4  -3   4    0.33    0.06
   4  -3   4    0.33    0.04
  -5   3  -4    0.24    0.05
  -5   3  -4    0.24    0.03
   5  -3   4    0.31    0.05
   5  -3   4    0.21    0.04
   5  -3   4    0.23    0.04
   5  -3   4    0.16    0.04
  -6   3  -4    0.43    0.07
  -6   3  -4    0.45    0.07
  -6   3  -4    0.51    0.05
   6  -3   4    0.63    0.06
   6  -3   4    0.60    0.05
   6  -3   4    0.49    0.07
  -7   3  -4    0.02    0.03
  -7   3  -4    0.02    0.03
  -7   3  -4    0.00    0.01
   7  -3   4    0.01    0.03
   7  -3   4   -0.01    0.01
   7  -3   4    0.01    0.02
  -8   3  -4   -0.03    0.03
  -8   3  -4    0.02    0.02
  -8   3  -4   -0.01    0.02
   8  -3   4    0.02    0.01
   8  -3   4    0.03    0.02
   9   2  -4    0.13    0.02
  -9  -2   4    0.12    0.02
  -9  -2   4    0.14    0.02
   8   2  -4    0.01    0.02
   8   2  -4    0.02    0.02
   8   2  -4    0.02    0.04
   8   2  -4    0.01    0.03
  -8  -2   4   -0.01    0.01
  -8  -2   4    0.00    0.02
   7   2  -4    0.07    0.04
   7   2  -4    0.18    0.05
   7   2  -4    0.11    0.06
   7   2  -4    0.08    0.03
  -7  -2   4    0.15    0.02
  -7  -2   4    0.08    0.02
  -7  -2   4    0.11    0.02
   6   2  -4    0.32    0.07
   6   2  -4    0.24    0.06
   6   2  -4    0.41    0.06
   6   2  -4    0.33    0.05
  -6  -2   4    0.42    0.03
  -6  -2   4    0.30    0.06
  -6  -2   4    0.42    0.05
   5   2  -4    0.08    0.05
   5   2  -4    0.10    0.07
   5   2  -4    0.10    0.04
   5   2  -4    0.16    0.07
   5   2  -4    0.11    0.07
  -5  -2   4    0.10    0.03
  -5  -2   4    0.12    0.02
   4   2  -4   -0.03    0.04
   4   2  -4    0.01    0.07
   4   2  -4    0.00    0.06
   4   2  -4    0.11    0.07
   4   2  -4    0.08    0.07
   4   2  -4    0.03    0.07
  -4  -2   4    0.01    0.03
  -4  -2   4    0.02    0.02
   3   2  -4    3.35    0.28
   3   2  -4    3.35    0.27
   3   2  -4    3.53    0.27
   3   2  -4    3.75    0.25
   3   2  -4    3.82    0.28
  -3  -2   4    3.24    0.24
   2   2  -4    0.00    0.06
   2   2  -4   -0.03    0.04
   2   2  -4   -0.01    0.07
   2   2  -4   -0.10    0.07
   2   2  -4   -0.03    0.13
   2   2  -4    0.08    0.08
  -2  -2   4    0.12    0.07
  -2  -2   4    0.03    0.04
  -2  -2   4    0.01    0.02
   1   2  -4    0.48    0.09
   1   2  -4    0.32    0.07
   1   2  -4    0.24    0.09
   1   2  -4    0.36    0.05
   1   2  -4    0.18    0.09
   1   2  -4    0.36    0.08
   1   2  -4    0.38    0.12
  -1  -2   4    0.40    0.08
  -1  -2   4    0.29    0.06
  -1  -2   4    0.26    0.05
  -1  -2   4    0.26    0.04
  -1  -2   4    0.33    0.04
   0   2  -4   15.76    1.08
   0   2  -4   15.10    1.06
   0   2  -4   15.17    1.07
   0   2  -4   14.48    1.07
   0   2  -4   14.10    1.09
   0   2  -4   14.30    1.06
   0   2  -4   14.56    1.07
   0   2  -4   14.64    1.07
   0   2  -4   15.31    1.05
   0  -2   4   17.37    1.08
   0  -2   4   16.65    1.06
   0  -2   4   15.70    1.06
   0  -2   4   15.39    1.05
   0  -2   4   14.65    1.05
  -1   2  -4    0.88    0.13
  -1   2  -4    0.89    0.10
  -1   2  -4    0.73    0.13
  -1   2  -4    0.90    0.14
  -1   2  -4    0.92    0.16
  -1   2  -4    1.02    0.09
  -1   2  -4    0.88    0.15
  -1   2  -4    0.64    0.11
   1  -2   4    0.99    0.09
   1  -2   4    0.95    0.09
   1  -2   4    0.86    0.07
   1  -2   4    1.02    0.13
   1  -2   4    1.07    0.10
   1  -2   4    0.79    0.08
   1  -2   4    1.14    0.15
  -2   2  -4   -0.01    0.04
  -2   2  -4    0.11    0.03
  -2   2  -4    0.11    0.08
  -2   2  -4    0.08    0.08
  -2   2  -4    0.26    0.09
  -2   2  -4   -0.01    0.07
  -2   2  -4    0.03    0.05
   2  -2   4    0.05    0.03
   2  -2   4    0.05    0.03
   2  -2   4    0.03    0.02
   2  -2   4    0.01    0.04
   2  -2   4    0.03    0.04
   2  -2   4    0.16    0.20
  -3   2  -4    0.60    0.10
  -3   2  -4    0.73    0.11
  -3   2  -4    0.69    0.07
  -3   2  -4    0.63    0.07
  -3   2  -4    0.54    0.10
   3  -2   4    0.73    0.09
   3  -2   4    0.86    0.08
   3  -2   4    0.70    0.06
   3  -2   4    0.68    0.08
  -4   2  -4    0.38    0.08
  -4   2  -4    0.50    0.06
  -4   2  -4    0.54    0.05
  -4   2  -4    0.38    0.08
  -4   2  -4    0.55    0.10
   4  -2   4    0.42    0.08
   4  -2   4    0.51    0.05
   4  -2   4    0.49    0.06
   4  -2   4    0.51    0.07
  -5   2  -4    0.08    0.02
  -5   2  -4    0.13    0.04
  -5   2  -4    0.01    0.04
  -5   2  -4    0.15    0.06
   5  -2   4    0.08    0.02
   5  -2   4    0.06    0.04
   5  -2   4    0.06    0.03
   5  -2   4    0.05    0.04
  -6   2  -4    0.47    0.08
  -6   2  -4    0.46    0.09
  -6   2  -4    0.44    0.05
  -6   2  -4    0.55    0.06
   6  -2   4    0.48    0.05
   6  -2   4    0.33    0.05
   6  -2   4    0.48    0.06
   6  -2   4    0.44    0.07
  -7   2  -4    0.02    0.04
  -7   2  -4    0.07    0.02
  -7   2  -4    0.14    0.03
  -7   2  -4    0.08    0.04
   7  -2   4    0.09    0.02
   7  -2   4    0.06    0.03
   7  -2   4    0.07    0.02
  -8   2  -4    0.00    0.04
  -8   2  -4    0.01    0.02
  -8   2  -4    0.00    0.03
   8  -2   4    0.02    0.01
   8  -2   4    0.08    0.03
   8  -2   4    0.04    0.02
   9  -2   4    0.13    0.02
   9  -2   4    0.11    0.02
  10   1  -4    0.02    0.01
 -10  -1   4    0.01    0.01
   9   1  -4    0.54    0.05
   9   1  -4    0.47    0.04
  -9  -1   4    0.55    0.05
  -9  -1   4    0.56    0.04
   8   1  -4   -0.01    0.04
   8   1  -4   -0.02    0.02
   8   1  -4    0.00    0.03
   7   1  -4    0.02    0.03
   7   1  -4    0.09    0.06
   7   1  -4    0.05    0.05
   7   1  -4    0.04    0.04
  -7  -1   4    0.05    0.03
  -7  -1   4    0.05    0.02
   6   1  -4    1.21    0.15
   6   1  -4    1.62    0.14
   6   1  -4    1.60    0.12
  -6  -1   4    1.58    0.11
  -6  -1   4    1.60    0.12
  -6  -1   4    1.52    0.12
   5   1  -4    0.03    0.07
   5   1  -4    0.03    0.04
   5   1  -4    0.00    0.06
   5   1  -4    0.03    0.05
  -5  -1   4   -0.01    0.03
   4   1  -4    0.14    0.07
   4   1  -4    0.19    0.04
   4   1  -4    0.15    0.07
   4   1  -4    0.16    0.07
   4   1  -4    0.16    0.06
  -4  -1   4    0.18    0.02
  -4  -1   4    0.18    0.04
   3   1  -4   12.43    0.83
   3   1  -4   11.95    0.84
   3   1  -4   12.35    0.84
   3   1  -4   12.64    0.83
   3   1  -4   11.73    0.84
   3   1  -4   11.22    0.84
  -3  -1   4   10.49    0.82
  -3  -1   4   12.54    0.84
   2   1  -4    0.01    0.06
   2   1  -4    0.08    0.07
   2   1  -4    0.07    0.08
   2   1  -4    0.17    0.09
   2   1  -4   -0.02    0.07
   2   1  -4    0.03    0.07
   2   1  -4    0.01    0.04
  -2  -1   4    0.04    0.02
  -2  -1   4    0.02    0.07
  -2  -1   4    0.05    0.07
  -2  -1   4    0.06    0.04
   1   1  -4    1.28    0.15
   1   1  -4    1.36    0.16
   1   1  -4    1.11    0.17
   1   1  -4    1.12    0.14
   1   1  -4    1.37    0.12
   1   1  -4    1.52    0.16
   1   1  -4    1.21    0.16
  -1  -1   4    1.33    0.12
  -1  -1   4    1.20    0.15
  -1  -1   4    1.40    0.16
   0   1  -4   20.48    1.32
   0   1  -4   18.76    1.31
   0   1  -4   18.59    1.31
   0   1  -4   16.41    1.31
   0   1  -4   19.42    1.31
   0   1  -4   18.74    1.31
   0   1  -4   18.64    1.31
   0  -1   4   16.05    1.29
   0  -1   4   19.95    1.30
   0  -1   4   18.96    1.32
   0  -1   4   20.02    1.30
   0  -1   4   16.78    1.29
   0  -1   4   21.51    1.32
  -1   1  -4    0.40    0.09
  -1   1  -4    0.36    0.09
  -1   1  -4    0.35    0.08
  -1   1  -4    0.36    0.06
  -1   1  -4    0.49    0.09
  -1   1  -4    0.42    0.08
  -1   1  -4    0.34    0.09
   1  -1   4    0.50    0.09
   1  -1   4    0.45    0.08
   1  -1   4    0.34    0.05
   1  -1   4    0.28    0.05
   1  -1   4    0.29    0.05
   1  -1   4    0.48    0.06
  -2   1  -4    4.61    0.35
  -2   1  -4    3.94    0.35
  -2   1  -4    4.67    0.32
  -2   1  -4    4.22    0.34
  -2   1  -4    3.92    0.35
  -2   1  -4    4.69    0.34
  -2   1  -4    4.64    0.35
  -2   1  -4    4.50    0.32
  -2   1  -4    4.62    0.35
   2  -1   4    4.04    0.32
   2  -1   4    4.84    0.32
   2  -1   4    4.92    0.35
   2  -1   4    4.70    0.32
   2  -1   4    4.19    0.31
   2  -1   4    4.82    0.35
  -3   1  -4    0.43    0.09
  -3   1  -4    0.44    0.09
  -3   1  -4    0.52    0.06
  -3   1  -4    0.41    0.10
  -3   1  -4    0.39    0.08
  -3   1  -4    0.40    0.06
   3  -1   4    0.54    0.05
   3  -1   4    0.37    0.10
   3  -1   4    0.64    0.08
   3  -1   4    0.51    0.07
   3  -1   4    0.51    0.08
  -4   1  -4    1.04    0.12
  -4   1  -4    0.79    0.14
  -4   1  -4    1.14    0.09
  -4   1  -4    1.06    0.10
   4  -1   4    1.13    0.09
   4  -1   4    1.03    0.10
   4  -1   4    1.11    0.10
   4  -1   4    1.16    0.11
  -5   1  -4    0.06    0.03
  -5   1  -4    0.17    0.04
  -5   1  -4    0.14    0.06
  -5   1  -4    0.09    0.03
  -5   1  -4    0.07    0.05
   5  -1   4    0.09    0.04
   5  -1   4    0.12    0.02
   5  -1   4    0.06    0.04
   5  -1   4    0.11    0.03
  -6   1  -4    1.23    0.10
  -6   1  -4    1.13    0.13
  -6   1  -4    1.16    0.09
  -6   1  -4    1.12    0.12
   6  -1   4    1.12    0.11
   6  -1   4    1.24    0.09
   6  -1   4    1.07    0.10
   6  -1   4    1.23    0.10
  -7   1  -4    0.03    0.03
  -7   1  -4    0.01    0.04
  -7   1  -4    0.02    0.02
  -7   1  -4    0.05    0.03
   7  -1   4    0.07    0.03
   7  -1   4    0.05    0.04
   7  -1   4    0.03    0.03
   7  -1   4    0.02    0.02
  -8   1  -4    0.10    0.03
  -8   1  -4    0.17    0.04
  -8   1  -4    0.18    0.03
  -8   1  -4    0.16    0.02
  -8   1  -4    0.13    0.04
   8  -1   4    0.20    0.03
   8  -1   4    0.16    0.03
   8  -1   4    0.18    0.03
  -9   1  -4    0.02    0.02
  -9   1  -4    0.09    0.02
   9  -1   4    0.07    0.02
   9  -1   4    0.05    0.01
 -10   0   4    0.02    0.01
 -10   0   4    0.02    0.01
   9   0  -4    0.61    0.06
  -9   0   4    0.66    0.05
  -9   0   4    0.66    0.06
   8   0  -4    0.14    0.03
   8   0  -4    0.13    0.03
  -8   0   4    0.13    0.02
  -8   0   4    0.12    0.02
   7   0  -4   -0.05    0.04
   7   0  -4    0.06    0.05
   7   0  -4    0.04    0.03
  -7   0   4   -0.03    0.03
  -7   0   4    0.00    0.02
   6   0  -4    0.98    0.10
   6   0  -4    0.97    0.09
   6   0  -4    0.88    0.12
  -6   0   4    0.88    0.09
  -6   0   4    1.02    0.09
   5   0  -4    0.02    0.07
   5   0  -4    0.03    0.06
   5   0  -4    0.13    0.04
   5   0  -4    0.02    0.05
  -5   0   4    0.04    0.01
  -5   0   4    0.06    0.03
  -5   0   4    0.02    0.02
   4   0  -4   -0.01    0.04
   4   0  -4   -0.06    0.06
   4   0  -4    0.02    0.06
   4   0  -4   -0.01    0.06
  -4   0   4    0.02    0.02
  -4   0   4    0.09    0.03
   3   0  -4   22.62    1.49
   3   0  -4   21.47    1.49
   3   0  -4   21.28    1.49
   3   0  -4   19.48    1.48
   3   0  -4   22.10    1.49
   3   0  -4   22.58    1.50
  -3   0   4   19.81    1.50
  -3   0   4   22.56    1.49
   2   0  -4    9.84    0.68
   2   0  -4    9.09    0.66
   2   0  -4    9.74    0.68
   2   0  -4    8.73    0.70
   2   0  -4    9.78    0.68
   2   0  -4    8.36    0.68
   2   0  -4    9.92    0.68
  -2   0   4   10.76    0.68
  -2   0   4    9.57    0.68
  -2   0   4    9.96    0.67
   1   0  -4    0.22    0.08
   1   0  -4    0.20    0.08
   1   0  -4    0.39    0.05
   1   0  -4    0.49    0.09
   1   0  -4    0.37    0.08
   1   0  -4    0.26    0.09
   1   0  -4    0.55    0.08
  -1   0   4    0.40    0.08
  -1   0   4    0.36    0.08
  -1   0   4    0.29    0.05
   0   0  -4    4.33    0.33
   0   0  -4    4.05    0.30
   0   0  -4    4.26    0.33
   0   0  -4    4.07    0.33
   0   0  -4    4.24    0.33
   0   0  -4    4.27    0.33
   0   0   4    4.34    0.32
   0   0   4    4.18    0.31
   0   0   4    4.67    0.33
   0   0   4    3.45    0.31
   0   0   4    4.34    0.31
  -1   0  -4    2.80    0.24
  -1   0  -4    3.17    0.27
  -1   0  -4    3.36    0.27
  -1   0  -4    3.23    0.27
  -1   0  -4    3.40    0.27
  -1   0  -4    3.22    0.27
  -1   0  -4    3.21    0.28
   1   0   4    3.66    0.27
   1   0   4    3.23    0.25
   1   0   4    3.48    0.24
  -2   0  -4    0.14    0.07
  -2   0  -4    0.13    0.08
  -2   0  -4    0.18    0.09
  -2   0  -4    0.18    0.08
  -2   0  -4    0.17    0.08
  -2   0  -4    0.22    0.09
   2   0   4    0.09    0.04
   2   0   4    0.18    0.08
   2   0   4    0.16    0.05
   2   0   4    0.24    0.08
   2   0   4    0.07    0.03
   2   0   4    0.12    0.07
  -3   0  -4   45.65    3.29
  -3   0  -4   45.59    3.30
  -3   0  -4   45.81    3.31
  -3   0  -4   47.61    3.30
  -3   0  -4   51.07    3.30
  -3   0  -4   46.22    3.29
   3   0   4   45.46    3.30
   3   0   4   49.63    3.28
   3   0   4   50.01    3.31
   3   0   4   47.29    3.31
   3   0   4   48.55    3.30
   3   0   4   50.05    3.30
  -4   0  -4    2.32    0.21
  -4   0  -4    2.63    0.22
  -4   0  -4    2.46    0.20
  -4   0  -4    2.46    0.22
  -4   0  -4    2.64    0.19
   4   0   4    2.10    0.23
   4   0   4    2.71    0.20
   4   0   4    2.61    0.19
   4   0   4    2.64    0.19
   4   0   4    2.71    0.18
  -5   0  -4    0.82    0.08
  -5   0  -4    0.95    0.09
  -5   0  -4    0.86    0.12
  -5   0  -4    0.67    0.11
   5   0   4    0.93    0.09
   5   0   4    0.97    0.09
   5   0   4    0.81    0.09
   5   0   4    0.92    0.07
  -6   0  -4    1.32    0.11
  -6   0  -4    1.35    0.13
  -6   0  -4    1.36    0.13
  -6   0  -4    1.31    0.10
   6   0   4    1.36    0.10
   6   0   4    1.49    0.11
   6   0   4    1.28    0.12
   6   0   4    1.21    0.12
  -7   0  -4    0.07    0.03
  -7   0  -4    0.02    0.02
  -7   0  -4    0.04    0.04
  -7   0  -4    0.02    0.05
  -7   0  -4    0.01    0.02
   7   0   4    0.04    0.03
   7   0   4    0.04    0.02
   7   0   4    0.04    0.04
   7   0   4    0.00    0.03
  -8   0  -4    0.04    0.02
  -8   0  -4    0.00    0.04
  -8   0  -4    0.10    0.03
  -8   0  -4    0.06    0.04
  -8   0  -4    0.06    0.02
   8   0   4    0.10    0.03
   8   0   4    0.02    0.04
   8   0   4    0.06    0.03
   8   0   4    0.08    0.02
  -9   0  -4    0.64    0.06
  -9   0  -4    0.59    0.05
   9   0   4    0.59    0.05
   9   0   4    0.46    0.06
   9   0   4    0.63    0.05
 -10   0  -4    0.04    0.01
  10   0   4    0.02    0.01
  10   0   4    0.04    0.02
 -10   1   4    0.01    0.01
 -10   1   4    0.03    0.01
   9  -1  -4    0.73    0.07
  -9   1   4    0.81    0.06
  -9   1   4    0.79    0.07
   8  -1  -4    0.04    0.03
  -8   1   4    0.05    0.02
  -8   1   4    0.03    0.02
   7  -1  -4    0.05    0.05
   7  -1  -4    0.07    0.04
   6  -1  -4    0.65    0.09
   6  -1  -4    0.91    0.09
  -6   1   4    0.77    0.08
  -6   1   4    0.89    0.08
   5  -1  -4    0.23    0.07
   5  -1  -4    0.31    0.05
  -5   1   4    0.22    0.04
  -5   1   4    0.20    0.03
   4  -1  -4    2.08    0.16
   4  -1  -4    1.97    0.18
   4  -1  -4    2.06    0.17
  -4   1   4    1.79    0.16
   3  -1  -4    2.49    0.21
   3  -1  -4    2.49    0.19
   2  -1  -4    0.06    0.07
   2  -1  -4    0.02    0.06
   2  -1  -4    0.08    0.06
   2  -1  -4    0.08    0.07
   2  -1  -4    0.11    0.06
   2  -1  -4    0.09    0.07
  -2   1   4    0.13    0.06
  -2   1   4    0.06    0.06
   1  -1  -4    3.80    0.28
   1  -1  -4    3.34    0.29
   1  -1  -4    3.79    0.29
   1  -1  -4    3.91    0.29
  -1   1   4    3.97    0.29
  -1   1   4    3.66    0.27
  -1   1   4    3.91    0.29
  -1   1   4    3.37    0.27
   0  -1  -4    2.34    0.20
   0  -1  -4    2.17    0.23
   0  -1  -4    2.22    0.21
   0  -1  -4    2.16    0.20
   0  -1  -4    1.95    0.21
   0  -1  -4    2.19    0.21
   0  -1  -4    2.19    0.18
   0   1   4    2.27    0.20
   0   1   4    2.19    0.18
   0   1   4    2.34    0.21
  -1  -1  -4    0.33    0.17
  -1  -1  -4    0.63    0.10
  -1  -1  -4    0.46    0.09
  -1  -1  -4    0.55    0.09
  -1  -1  -4    0.63    0.09
  -1  -1  -4    0.66    0.10
  -1  -1  -4    0.66    0.10
   1   1   4    0.68    0.10
   1   1   4    0.58    0.09
   1   1   4    0.71    0.09
   1   1   4    0.59    0.10
  -2  -1  -4    8.00    0.57
  -2  -1  -4    7.74    0.56
  -2  -1  -4    7.42    0.57
  -2  -1  -4    7.84    0.56
  -2  -1  -4    7.60    0.57
  -2  -1  -4    7.68    0.55
   2   1   4    8.30    0.57
   2   1   4    8.19    0.55
   2   1   4    7.79    0.55
   2   1   4    7.59    0.55
   2   1   4    7.61    0.54
   2   1   4    8.07    0.56
  -3  -1  -4    4.65    0.34
  -3  -1  -4    4.45    0.33
  -3  -1  -4    4.50    0.34
  -3  -1  -4    4.37    0.33
  -3  -1  -4    4.30    0.34
  -3  -1  -4    3.73    0.32
  -3  -1  -4    4.36    0.35
   3   1   4    4.34    0.32
   3   1   4    4.86    0.34
   3   1   4    4.80    0.34
   3   1   4    4.14    0.32
   3   1   4    4.30    0.31
   3   1   4    4.63    0.32
   3   1   4    4.65    0.32
  -4  -1  -4    0.77    0.13
  -4  -1  -4    1.01    0.13
  -4  -1  -4    0.66    0.14
  -4  -1  -4    0.87    0.14
  -4  -1  -4    0.87    0.11
   4   1   4    0.99    0.09
   4   1   4    0.82    0.14
   4   1   4    1.00    0.08
   4   1   4    1.06    0.10
   4   1   4    0.94    0.10
   4   1   4    0.96    0.09
  -5  -1  -4    0.31    0.03
  -5  -1  -4    0.24    0.07
  -5  -1  -4    0.15    0.04
  -5  -1  -4    0.17    0.06
  -5  -1  -4    0.26    0.05
   5   1   4    0.27    0.04
   5   1   4    0.24    0.05
   5   1   4    0.23    0.03
   5   1   4    0.21    0.04
   5   1   4    0.18    0.05
  -6  -1  -4    0.64    0.11
  -6  -1  -4    0.93    0.09
  -6  -1  -4    0.86    0.07
  -6  -1  -4    0.82    0.11
   6   1   4    0.88    0.09
   6   1   4    0.80    0.09
   6   1   4    0.76    0.10
   6   1   4    0.92    0.07
   6   1   4    0.97    0.08
  -7  -1  -4   -0.01    0.02
  -7  -1  -4   -0.01    0.04
  -7  -1  -4    0.01    0.02
  -7  -1  -4    0.04    0.03
   7   1   4    0.01    0.02
   7   1   4    0.02    0.03
   7   1   4    0.05    0.04
   7   1   4    0.02    0.03
  -8  -1  -4    0.08    0.03
  -8  -1  -4    0.05    0.02
  -8  -1  -4    0.06    0.02
  -8  -1  -4    0.04    0.04
   8   1   4    0.08    0.02
   8   1   4    0.06    0.04
   8   1   4    0.08    0.03
  -9  -1  -4    0.99    0.09
  -9  -1  -4    0.98    0.08
  -9  -1  -4    1.03    0.07
  -9  -1  -4    0.84    0.08
   9   1   4    1.13    0.08
   9   1   4    1.02    0.07
 -10  -1  -4    0.16    0.02
 -10  -1  -4    0.11    0.02
  10   1   4    0.13    0.02
  10   1   4    0.18    0.03
 -10   2   4    0.04    0.01
 -10   2   4    0.04    0.01
  -9   2   4    0.25    0.04
  -9   2   4    0.36    0.03
  -8   2   4    0.19    0.03
  -8   2   4    0.23    0.04
   7  -2  -4   -0.02    0.06
  -7   2   4   -0.04    0.03
  -7   2   4    0.01    0.02
   6  -2  -4    0.73    0.12
  -6   2   4    1.02    0.08
  -6   2   4    0.76    0.09
   5  -2  -4    0.43    0.07
  -5   2   4    0.59    0.07
  -5   2   4    0.44    0.07
   4  -2  -4    3.25    0.24
   4  -2  -4    3.10    0.25
  -4   2   4    3.14    0.24
  -4   2   4    3.30    0.24
   2  -2  -4    1.76    0.16
   2  -2  -4    1.51    0.14
  -2   2   4    1.73    0.16
   1  -2  -4    0.10    0.05
   1  -2  -4    0.04    0.06
   1  -2  -4    0.10    0.07
   1  -2  -4    0.00    0.08
  -1   2   4   -0.05    0.05
  -1   2   4    0.00    0.07
  -1   2   4    0.17    0.08
   0  -2  -4    1.14    0.16
   0  -2  -4    1.16    0.14
   0  -2  -4    1.26    0.14
   0  -2  -4    1.19    0.15
   0   2   4    1.11    0.13
   0   2   4    1.45    0.14
   0   2   4    1.28    0.15
  -1  -2  -4   12.59    0.90
  -1  -2  -4   12.27    0.90
  -1  -2  -4   11.68    0.89
  -1  -2  -4   13.31    0.91
  -1  -2  -4   12.79    0.90
  -1  -2  -4   12.33    0.91
  -1  -2  -4   12.79    0.90
   1   2   4   13.80    0.90
   1   2   4   14.07    0.90
   1   2   4   12.08    0.89
  -2  -2  -4    1.15    0.14
  -2  -2  -4    1.33    0.14
  -2  -2  -4    1.30    0.16
  -2  -2  -4    0.87    0.16
  -2  -2  -4    0.88    0.17
  -2  -2  -4    1.33    0.16
  -2  -2  -4    1.03    0.11
   2   2   4    1.17    0.13
   2   2   4    1.50    0.15
   2   2   4    1.28    0.15
   2   2   4    1.36    0.12
   2   2   4    1.21    0.11
  -3  -2  -4   10.51    0.75
  -3  -2  -4    9.64    0.76
  -3  -2  -4   10.17    0.75
  -3  -2  -4   10.53    0.74
  -3  -2  -4   10.35    0.73
  -3  -2  -4   10.57    0.74
  -3  -2  -4   10.61    0.75
  -3  -2  -4   11.23    0.75
   3   2   4   10.82    0.75
   3   2   4   10.73    0.73
   3   2   4   10.53    0.73
   3   2   4   10.33    0.74
   3   2   4   11.16    0.73
  -4  -2  -4   -0.08    0.11
  -4  -2  -4   -0.07    0.06
  -4  -2  -4    0.06    0.08
  -4  -2  -4   -0.02    0.03
  -4  -2  -4   -0.03    0.06
  -4  -2  -4   -0.04    0.06
   4   2   4   -0.03    0.07
   4   2   4    0.00    0.04
   4   2   4    0.06    0.07
   4   2   4    0.02    0.04
   4   2   4    0.00    0.03
   4   2   4    0.02    0.05
   4   2   4    0.01    0.05
  -5  -2  -4    1.07    0.10
  -5  -2  -4    0.92    0.14
  -5  -2  -4    1.05    0.08
  -5  -2  -4    0.79    0.11
  -5  -2  -4    0.81    0.12
  -5  -2  -4    0.73    0.13
   5   2   4    1.23    0.19
   5   2   4    0.90    0.11
   5   2   4    1.02    0.08
   5   2   4    0.98    0.09
   5   2   4    1.14    0.10
   5   2   4    1.12    0.11
  -6  -2  -4    0.53    0.08
  -6  -2  -4    0.58    0.09
  -6  -2  -4    0.56    0.07
  -6  -2  -4    0.68    0.08
  -6  -2  -4    0.69    0.06
   6   2   4    0.69    0.08
   6   2   4    0.76    0.09
   6   2   4    0.81    0.06
   6   2   4    0.71    0.08
   6   2   4    0.70    0.09
  -7  -2  -4    0.04    0.04
  -7  -2  -4    0.02    0.02
  -7  -2  -4    0.04    0.02
  -7  -2  -4    0.00    0.04
   7   2   4    0.05    0.02
   7   2   4    0.08    0.04
   7   2   4    0.03    0.04
   7   2   4    0.05    0.03
   7   2   4    0.09    0.05
  -8  -2  -4    0.01    0.02
  -8  -2  -4    0.00    0.02
  -8  -2  -4   -0.05    0.03
  -8  -2  -4    0.05    0.03
   8   2   4    0.02    0.02
   8   2   4    0.06    0.04
   8   2   4    0.01    0.03
   8   2   4    0.03    0.03
  -9  -2  -4    1.19    0.09
  -9  -2  -4    0.98    0.09
  -9  -2  -4    1.20    0.10
  -9  -2  -4    1.14    0.08
   9   2   4    0.90    0.09
   9   2   4    1.18    0.08
   9   2   4    1.23    0.09
 -10  -2  -4    0.01    0.01
  10   2   4    0.03    0.01
  10   2   4    0.02    0.02
  -9   3   4    0.32    0.04
  -9   3   4    0.38    0.03
  -8   3   4    0.03    0.02
  -8   3   4    0.03    0.03
  -7   3   4   -0.01    0.02
  -7   3   4    0.00    0.03
   6  -3  -4    2.18    0.20
  -6   3   4    2.33    0.18
  -6   3   4    2.77    0.18
  -6   3   4    2.32    0.18
  -5   3   4    0.04    0.03
  -5   3   4    0.06    0.03
  -5   3   4    0.03    0.03
   4  -3  -4    0.78    0.10
  -4   3   4    0.82    0.09
  -4   3   4    0.73    0.08
  -4   3   4    0.64    0.08
  -2   3   4    0.43    0.09
   1  -3  -4    1.17    0.12
   1  -3  -4    1.18    0.11
   1  -3  -4    1.15    0.14
   0  -3  -4   28.03    1.96
   0  -3  -4   26.69    1.96
   0  -3  -4   26.13    1.95
   0  -3  -4   27.53    1.95
   0   3   4   30.44    1.96
   0   3   4   27.57    1.96
   0   3   4   31.20    1.96
  -1  -3  -4    1.96    0.16
  -1  -3  -4    1.94    0.21
  -1  -3  -4    2.02    0.18
  -1  -3  -4    1.83    0.19
  -1  -3  -4    2.04    0.19
  -1  -3  -4    2.15    0.18
   1   3   4    2.18    0.18
   1   3   4    2.03    0.19
   1   3   4    2.11    0.17
   1   3   4    2.05    0.19
  -2  -3  -4    1.95    0.16
  -2  -3  -4    2.18    0.19
  -2  -3  -4    1.91    0.18
  -2  -3  -4    1.83    0.22
  -2  -3  -4    1.92    0.20
  -2  -3  -4    2.17    0.18
   2   3   4    2.33    0.19
   2   3   4    2.16    0.17
   2   3   4    2.26    0.17
   2   3   4    1.86    0.16
   2   3   4    2.28    0.18
   2   3   4    1.97    0.16
  -3  -3  -4   11.15    0.80
  -3  -3  -4   11.10    0.79
  -3  -3  -4   10.45    0.79
  -3  -3  -4   10.84    0.79
  -3  -3  -4   11.20    0.78
  -3  -3  -4   10.73    0.78
   3   3   4   11.41    0.79
   3   3   4   11.66    0.79
   3   3   4   10.60    0.78
   3   3   4   11.32    0.78
   3   3   4   12.03    0.78
   3   3   4   11.49    0.77
  -4  -3  -4    0.49    0.09
  -4  -3  -4    0.75    0.07
  -4  -3  -4    0.65    0.12
  -4  -3  -4    0.57    0.09
  -4  -3  -4    0.66    0.07
  -4  -3  -4    0.49    0.10
   4   3   4    0.72    0.09
   4   3   4    0.66    0.08
   4   3   4    0.65    0.09
   4   3   4    0.64    0.10
   4   3   4    0.57    0.10
  -5  -3  -4    1.60    0.16
  -5  -3  -4    1.80    0.13
  -5  -3  -4    1.80    0.19
  -5  -3  -4    1.71    0.14
  -5  -3  -4    1.49    0.19
   5   3   4    1.53    0.13
   5   3   4    1.82    0.14
   5   3   4    1.98    0.15
   5   3   4    1.89    0.13
  -6  -3  -4    6.88    0.50
  -6  -3  -4    6.87    0.51
  -6  -3  -4    6.82    0.50
   6   3   4    7.72    0.51
   6   3   4    6.97    0.50
   6   3   4    7.54    0.50
   6   3   4    7.27    0.50
  -7  -3  -4    0.55    0.07
  -7  -3  -4    0.47    0.07
  -7  -3  -4    0.54    0.05
  -7  -3  -4    0.43    0.06
   7   3   4    0.55    0.06
   7   3   4    0.62    0.08
   7   3   4    0.67    0.05
   7   3   4    0.61    0.08
  -8  -3  -4    0.11    0.02
  -8  -3  -4    0.15    0.03
  -8  -3  -4    0.12    0.02
  -8  -3  -4    0.06    0.04
   8   3   4    0.10    0.04
   8   3   4    0.14    0.02
   8   3   4    0.14    0.03
   8   3   4    0.12    0.04
   8   3   4    0.02    0.05
  -9  -3  -4    0.54    0.04
  -9  -3  -4    0.50    0.05
  -9  -3  -4    0.51    0.06
  -9  -3  -4    0.54    0.05
   9   3   4    0.63    0.06
   9   3   4    0.56    0.05
 -10  -3  -4    0.04    0.01
  10   3   4    0.05    0.01
  10   3   4    0.03    0.02
  -9   4   4    0.20    0.03
  -9   4   4    0.22    0.03
  -8   4   4    0.00    0.01
  -8   4   4    0.01    0.02
  -7   4   4    0.04    0.02
  -7   4   4    0.03    0.03
  -7   4   4    0.04    0.02
  -6   4   4    2.34    0.18
  -6   4   4    2.51    0.19
  -6   4   4    2.69    0.18
   5  -4  -4    0.03    0.06
  -5   4   4    0.05    0.04
  -5   4   4    0.01    0.03
  -4   4   4    1.46    0.12
  -4   4   4    1.19    0.11
  -4   4   4    1.47    0.12
  -3   4   4    2.67    0.20
  -2   4   4    0.10    0.05
  -2   4   4    0.23    0.08
   1  -4  -4    0.00    0.07
   1  -4  -4    0.03    0.03
  -1   4   4   -0.01    0.06
   0  -4  -4   87.35    6.13
   0  -4  -4   82.24    6.09
   0  -4  -4   92.66    6.10
   0  -4  -4   81.02    6.09
   0  -4  -4   89.86    6.11
   0  -4  -4   83.43    6.09
   0   4   4   93.68    6.12
   0   4   4   97.69    6.11
  -1  -4  -4    2.67    0.23
  -1  -4  -4    2.78    0.21
  -1  -4  -4    3.08    0.23
  -1  -4  -4    2.67    0.24
  -1  -4  -4    3.04    0.22
  -1  -4  -4    2.65    0.25
   1   4   4    2.68    0.26
   1   4   4    3.14    0.23
   1   4   4    3.40    0.23
   1   4   4    3.06    0.24
  -2  -4  -4    0.05    0.03
  -2  -4  -4    0.06    0.08
  -2  -4  -4    0.05    0.05
  -2  -4  -4    0.04    0.06
  -2  -4  -4    0.13    0.06
  -2  -4  -4    0.04    0.07
   2   4   4    0.01    0.06
   2   4   4    0.14    0.06
   2   4   4    0.10    0.06
   2   4   4   -0.01    0.06
   2   4   4    0.02    0.05
   2   4   4    0.02    0.06
  -3  -4  -4   16.85    1.12
  -3  -4  -4   14.48    1.13
  -3  -4  -4   14.36    1.13
  -3  -4  -4   16.87    1.13
  -3  -4  -4   17.04    1.12
  -3  -4  -4   16.91    1.14
  -3  -4  -4   15.38    1.13
   3   4   4   17.11    1.12
   3   4   4   17.25    1.13
   3   4   4   16.11    1.13
   3   4   4   15.95    1.13
   3   4   4   16.27    1.14
   3   4   4   16.74    1.12
   3   4   4   15.71    1.13
  -4  -4  -4    0.77    0.08
  -4  -4  -4    0.93    0.11
  -4  -4  -4    0.76    0.12
  -4  -4  -4    0.63    0.11
  -4  -4  -4    0.71    0.09
  -4  -4  -4    0.80    0.08
   4   4   4    0.79    0.10
   4   4   4    0.62    0.10
   4   4   4    0.86    0.08
   4   4   4    0.78    0.07
   4   4   4    0.75    0.10
   4   4   4    0.75    0.07
  -5  -4  -4    2.53    0.23
  -5  -4  -4    2.55    0.19
  -5  -4  -4    2.88    0.19
  -5  -4  -4    2.21    0.21
   5   4   4    2.53    0.18
   5   4   4    2.57    0.20
   5   4   4    2.75    0.19
   5   4   4    2.59    0.20
   5   4   4    2.56    0.18
  -6  -4  -4    1.04    0.09
  -6  -4  -4    1.26    0.16
  -6  -4  -4    1.01    0.12
  -6  -4  -4    0.99    0.10
   6   4   4    1.15    0.11
   6   4   4    1.22    0.10
   6   4   4    1.03    0.09
   6   4   4    1.18    0.11
   6   4   4    1.20    0.09
  -7  -4  -4    1.31    0.11
  -7  -4  -4    1.16    0.09
  -7  -4  -4    1.15    0.10
   7   4   4    1.23    0.10
   7   4   4    1.02    0.11
   7   4   4    1.22    0.09
   7   4   4    1.09    0.11
  -8  -4  -4    0.01    0.02
  -8  -4  -4    0.00    0.03
  -8  -4  -4   -0.01    0.03
   8   4   4    0.02    0.02
   8   4   4    0.08    0.04
   8   4   4   -0.05    0.05
   8   4   4    0.03    0.04
   8   4   4   -0.01    0.03
  -9  -4  -4    0.11    0.02
  -9  -4  -4    0.11    0.02
  -9  -4  -4    0.08    0.03
   9   4   4    0.10    0.04
   9   4   4    0.11    0.02
   9   4   4    0.14    0.03
 -10  -4  -4    0.03    0.01
 -10  -4  -4   -0.01    0.01
  10   4   4    0.07    0.02
  10   4   4    0.03    0.02
  -8   5   4    0.05    0.01
  -7   5   4    0.33    0.04
  -7   5   4    0.50    0.05
  -6   5   4    0.10    0.03
  -6   5   4    0.16    0.03
  -6   5   4    0.12    0.02
  -5   5   4    0.41    0.06
  -5   5   4    0.28    0.06
  -4   5   4    0.59    0.07
   3  -5  -4    7.09    0.52
  -3   5   4    7.78    0.51
  -3   5   4    6.80    0.50
   2  -5  -4    0.09    0.06
   2  -5  -4    0.04    0.03
  -2   5   4    0.10    0.03
  -2   5   4    0.14    0.03
   1  -5  -4    2.69    0.22
   1  -5  -4    2.46    0.19
  -1   5   4    2.79    0.19
  -1   5   4    2.76    0.23
   0  -5  -4   11.83    0.83
   0  -5  -4   10.37    0.83
   0  -5  -4   11.49    0.83
   0  -5  -4   10.92    0.82
   0  -5  -4   12.09    0.84
   0   5   4   12.59    0.82
   0   5   4   12.14    0.84
   0   5   4   12.37    0.83
   0   5   4   12.76    0.83
   0   5   4   12.43    0.83
  -1  -5  -4    1.41    0.11
  -1  -5  -4    1.24    0.16
  -1  -5  -4    1.09    0.15
  -1  -5  -4    1.31    0.13
  -1  -5  -4    1.58    0.13
   1   5   4    1.53    0.11
   1   5   4    1.41    0.15
   1   5   4    1.56    0.12
   1   5   4    1.50    0.13
   1   5   4    1.61    0.15
   1   5   4    1.37    0.14
  -2  -5  -4    1.29    0.12
  -2  -5  -4    1.21    0.16
  -2  -5  -4    1.21    0.12
  -2  -5  -4    1.05    0.15
   2   5   4    1.59    0.10
   2   5   4    1.35    0.11
   2   5   4    1.41    0.15
   2   5   4    1.23    0.13
   2   5   4    1.24    0.14
  -3  -5  -4   11.38    0.79
  -3  -5  -4   11.14    0.81
  -3  -5  -4   11.91    0.81
  -3  -5  -4   11.54    0.80
  -3  -5  -4   11.80    0.86
  -3  -5  -4   11.79    0.83
   3   5   4   11.87    0.81
   3   5   4   10.84    0.79
   3   5   4   11.27    0.80
   3   5   4   11.05    0.81
   3   5   4   11.45    0.82
   3   5   4   11.89    0.79
   3   5   4   10.67    0.80
   3   5   4   12.01    0.80
  -4  -5  -4    1.24    0.17
  -4  -5  -4    1.56    0.13
  -4  -5  -4    1.47    0.11
  -4  -5  -4    1.29    0.11
  -4  -5  -4    1.37    0.14
  -4  -5  -4    1.29    0.11
   4   5   4    1.35    0.11
   4   5   4    1.30    0.11
   4   5   4    1.56    0.10
   4   5   4    1.33    0.12
   4   5   4    1.22    0.13
   4   5   4    1.41    0.10
  -5  -5  -4    0.08    0.08
  -5  -5  -4    0.03    0.03
  -5  -5  -4    0.05    0.04
   5   5   4    0.03    0.03
   5   5   4    0.03    0.02
   5   5   4    0.05    0.05
   5   5   4    0.04    0.02
   5   5   4   -0.01    0.04
   5   5   4    0.02    0.02
  -6  -5  -4    1.16    0.16
  -6  -5  -4    0.99    0.08
  -6  -5  -4    0.99    0.11
  -6  -5  -4    0.94    0.09
   6   5   4    0.93    0.07
   6   5   4    0.78    0.10
   6   5   4    0.81    0.08
   6   5   4    0.96    0.09
   6   5   4    0.97    0.07
   6   5   4    0.99    0.10
  -7  -5  -4    0.37    0.07
  -7  -5  -4    0.37    0.06
  -7  -5  -4    0.37    0.04
   7   5   4    0.24    0.05
   7   5   4    0.31    0.04
   7   5   4    0.39    0.04
   7   5   4    0.41    0.05
   7   5   4    0.31    0.05
  -8  -5  -4    0.00    0.02
  -8  -5  -4    0.01    0.03
   8   5   4    0.02    0.03
   8   5   4   -0.07    0.04
   8   5   4    0.02    0.02
  -9  -5  -4    0.17    0.02
  -9  -5  -4    0.20    0.03
   9   5   4    0.20    0.03
   9   5   4    0.17    0.03
 -10  -5  -4    0.01    0.01
 -10  -5  -4   -0.02    0.01
  10   5   4    0.01    0.01
  -8   6   4   -0.01    0.01
  -7   6   4    0.01    0.02
  -6   6   4    1.45    0.11
  -5   6   4    0.42    0.06
   4  -6  -4    0.51    0.08
  -4   6   4    0.47    0.06
   3  -6  -4    2.15    0.18
   3  -6  -4    2.58    0.20
  -3   6   4    2.47    0.17
  -3   6   4    2.71    0.18
   2  -6  -4    0.97    0.12
   2  -6  -4    0.91    0.08
  -2   6   4    1.03    0.08
  -2   6   4    0.97    0.07
  -2   6   4    1.12    0.09
   1  -6  -4    0.01    0.06
   1  -6  -4    0.06    0.03
   1  -6  -4    0.00    0.02
   1  -6  -4    0.03    0.04
  -1   6   4    0.04    0.02
  -1   6   4    0.03    0.02
  -1   6   4    0.02    0.03
   0  -6  -4    2.33    0.21
   0  -6  -4    2.29    0.19
   0  -6  -4    2.10    0.17
   0  -6  -4    2.53    0.19
   0   6   4    2.68    0.18
   0   6   4    2.58    0.17
   0   6   4    2.67    0.18
  -1  -6  -4    1.26    0.10
  -1  -6  -4    0.93    0.10
  -1  -6  -4    0.81    0.14
  -1  -6  -4    1.06    0.09
   1   6   4    1.13    0.09
   1   6   4    0.94    0.10
   1   6   4    0.95    0.10
   1   6   4    1.20    0.08
  -2  -6  -4    0.35    0.05
  -2  -6  -4    0.23    0.05
  -2  -6  -4    0.31    0.05
  -2  -6  -4    0.20    0.07
   2   6   4    0.29    0.04
   2   6   4    0.32    0.05
   2   6   4    0.25    0.08
   2   6   4    0.32    0.04
  -3  -6  -4    2.88    0.23
  -3  -6  -4    2.85    0.25
  -3  -6  -4    3.01    0.23
  -3  -6  -4    2.89    0.21
   3   6   4    3.12    0.21
   3   6   4    3.10    0.21
   3   6   4    2.97    0.22
  -4  -6  -4    0.27    0.06
  -4  -6  -4    0.09    0.08
  -4  -6  -4    0.13    0.03
  -4  -6  -4    0.18    0.05
  -4  -6  -4    0.15    0.03
  -4  -6  -4    0.20    0.04
   4   6   4    0.12    0.02
   4   6   4    0.13    0.03
   4   6   4    0.17    0.05
   4   6   4    0.20    0.03
  -5  -6  -4    0.09    0.08
  -5  -6  -4    0.20    0.03
  -5  -6  -4    0.18    0.04
   5   6   4    0.28    0.03
   5   6   4    0.16    0.05
   5   6   4    0.19    0.03
   5   6   4    0.21    0.03
   5   6   4    0.21    0.04
  -6  -6  -4    1.08    0.08
  -6  -6  -4    1.04    0.09
  -6  -6  -4    1.12    0.16
   6   6   4    0.94    0.09
   6   6   4    0.86    0.10
   6   6   4    1.05    0.12
   6   6   4    1.05    0.08
   6   6   4    1.00    0.08
   6   6   4    0.96    0.08
  -7  -6  -4    0.09    0.03
  -7  -6  -4    0.09    0.02
   7   6   4    0.07    0.03
   7   6   4    0.10    0.02
   7   6   4    0.07    0.02
   7   6   4    0.06    0.04
   7   6   4    0.08    0.02
  -8  -6  -4    0.05    0.03
  -8  -6  -4    0.08    0.02
   8   6   4    0.08    0.02
  -9  -6  -4    0.19    0.03
  -9  -6  -4    0.21    0.02
   9   6   4    0.19    0.02
 -10  -6  -4    0.04    0.01
  -7   7   4    0.03    0.01
  -6   7   4    0.60    0.05
  -5   7   4    0.01    0.02
   4  -7  -4    0.11    0.06
   4  -7  -4    0.01    0.02
  -4   7   4    0.00    0.03
   3  -7  -4    0.86    0.08
   3  -7  -4    1.11    0.12
   3  -7  -4    0.95    0.08
  -3   7   4    1.07    0.08
  -3   7   4    1.08    0.09
   2  -7  -4    0.32    0.07
   2  -7  -4    0.26    0.04
   2  -7  -4    0.37    0.06
   2  -7  -4    0.33    0.05
  -2   7   4    0.27    0.06
  -2   7   4    0.28    0.04
   1  -7  -4    0.05    0.04
   1  -7  -4    0.07    0.03
   1  -7  -4    0.04    0.06
   1  -7  -4    0.03    0.02
  -1   7   4    0.03    0.03
  -1   7   4    0.04    0.02
  -1   7   4    0.03    0.02
   0  -7  -4    1.29    0.11
   0  -7  -4    1.16    0.10
   0  -7  -4    1.13    0.15
   0  -7  -4    1.15    0.11
   0   7   4    1.44    0.10
   0   7   4    1.27    0.09
   0   7   4    1.29    0.10
  -1  -7  -4    0.07    0.04
  -1  -7  -4    0.09    0.02
  -1  -7  -4    0.06    0.04
  -1  -7  -4   -0.01    0.06
   1   7   4    0.08    0.02
   1   7   4    0.07    0.02
  -2  -7  -4    2.23    0.17
  -2  -7  -4    2.09    0.20
  -2  -7  -4    2.27    0.17
  -2  -7  -4    2.09    0.16
   2   7   4    2.26    0.16
   2   7   4    2.25    0.17
   2   7   4    2.40    0.16
  -3  -7  -4    5.44    0.38
  -3  -7  -4    5.34    0.38
  -3  -7  -4    5.42    0.40
  -3  -7  -4    5.19    0.37
   3   7   4    5.40    0.37
   3   7   4    5.29    0.37
   3   7   4    5.19    0.38
  -4  -7  -4    0.10    0.03
  -4  -7  -4   -0.02    0.05
  -4  -7  -4    0.08    0.05
  -4  -7  -4   -0.01    0.09
  -4  -7  -4    0.04    0.02
  -4  -7  -4    0.07    0.03
   4   7   4    0.05    0.04
   4   7   4    0.05    0.02
   4   7   4    0.02    0.02
  -5  -7  -4    0.21    0.04
  -5  -7  -4    0.31    0.08
  -5  -7  -4    0.19    0.03
   5   7   4    0.17    0.02
   5   7   4    0.20    0.03
   5   7   4    0.11    0.04
  -6  -7  -4    1.08    0.09
  -6  -7  -4    1.38    0.17
  -6  -7  -4    1.03    0.08
   6   7   4    0.89    0.10
   6   7   4    1.02    0.08
   6   7   4    1.06    0.08
  -7  -7  -4    0.04    0.02
  -7  -7  -4   -0.01    0.03
   7   7   4    0.02    0.01
   7   7   4    0.01    0.01
  -8  -7  -4    0.03    0.02
  -8  -7  -4    0.05    0.01
   8   7   4    0.07    0.02
  -9  -7  -4    0.41    0.04
  -9  -7  -4    0.52    0.04
  -6   8   4    0.66    0.05
   5  -8  -4    0.00    0.02
  -5   8   4    0.00    0.02
   4  -8  -4    0.28    0.03
   4  -8  -4    0.32    0.04
  -4   8   4    0.39    0.05
   3  -8  -4    0.25    0.03
   3  -8  -4    0.31    0.07
   3  -8  -4    0.24    0.03
  -3   8   4    0.24    0.04
   2  -8  -4   -0.01    0.03
   2  -8  -4    0.02    0.02
   2  -8  -4    0.05    0.06
   2  -8  -4    0.00    0.03
  -2   8   4    0.00    0.02
  -2   8   4    0.00    0.03
   1  -8  -4    0.04    0.04
   1  -8  -4    0.03    0.06
   1  -8  -4    0.03    0.02
   1  -8  -4    0.05    0.03
  -1   8   4    0.02    0.02
  -1   8   4    0.00    0.02
  -1   8   4    0.03    0.01
   0  -8  -4    2.68    0.20
   0  -8  -4    2.73    0.20
   0  -8  -4    2.93    0.23
   0  -8  -4    2.68    0.21
   0   8   4    2.74    0.19
   0   8   4    3.01    0.20
   0   8   4    2.68    0.20
  -1  -8  -4    0.56    0.08
  -1  -8  -4    0.55    0.08
  -1  -8  -4    0.57    0.05
  -1  -8  -4    0.51    0.07
   1   8   4    0.56    0.05
   1   8   4    0.50    0.05
  -2  -8  -4    3.31    0.24
  -2  -8  -4    3.55    0.25
  -2  -8  -4    3.31    0.25
  -2  -8  -4    3.53    0.27
   2   8   4    3.04    0.24
   2   8   4    3.54    0.24
  -3  -8  -4    0.21    0.07
  -3  -8  -4    0.16    0.04
  -3  -8  -4    0.22    0.03
  -3  -8  -4    0.25    0.05
   3   8   4    0.21    0.03
   3   8   4    0.19    0.02
   3   8   4    0.13    0.04
  -4  -8  -4   -0.02    0.04
  -4  -8  -4    0.04    0.03
  -4  -8  -4    0.01    0.02
  -4  -8  -4    0.02    0.07
   4   8   4    0.00    0.02
   4   8   4    0.01    0.03
   4   8   4    0.02    0.02
  -5  -8  -4    0.06    0.08
  -5  -8  -4    0.06    0.03
  -5  -8  -4    0.04    0.02
   5   8   4    0.04    0.04
   5   8   4    0.04    0.02
   5   8   4    0.04    0.02
  -6  -8  -4    0.93    0.07
  -6  -8  -4    0.92    0.08
   6   8   4    0.85    0.07
   6   8   4    0.94    0.07
  -7  -8  -4    0.05    0.02
  -7  -8  -4    0.06    0.01
   7   8   4    0.04    0.01
   7   8   4    0.03    0.01
  -8  -8  -4    0.02    0.01
  -8  -8  -4    0.02    0.02
   8   8   4    0.02    0.01
  -5   9   4    0.02    0.01
   4  -9  -4    0.00    0.01
   4  -9  -4   -0.01    0.02
  -4   9   4    0.01    0.01
   3  -9  -4    0.45    0.06
   3  -9  -4    0.60    0.05
   3  -9  -4    0.60    0.06
  -3   9   4    0.58    0.05
   2  -9  -4    0.04    0.03
   2  -9  -4    0.03    0.03
   2  -9  -4    0.02    0.02
  -2   9   4    0.03    0.01
  -2   9   4    0.03    0.03
   1  -9  -4    0.12    0.02
   1  -9  -4    0.14    0.03
   1  -9  -4    0.07    0.03
   1  -9  -4    0.21    0.08
  -1   9   4    0.11    0.02
  -1   9   4    0.11    0.02
  -1   9   4    0.11    0.02
   0  -9  -4    1.42    0.10
   0  -9  -4    1.29    0.14
   0  -9  -4    1.43    0.15
   0  -9  -4    1.25    0.11
   0   9   4    1.39    0.10
   0   9   4    1.18    0.10
   0   9   4    1.27    0.09
  -1  -9  -4    0.58    0.07
  -1  -9  -4    0.71    0.12
  -1  -9  -4    0.58    0.05
   1   9   4    0.55    0.05
   1   9   4    0.55    0.05
  -2  -9  -4    0.06    0.02
  -2  -9  -4    0.07    0.04
  -2  -9  -4    0.19    0.07
  -2  -9  -4    0.01    0.04
   2   9   4    0.06    0.02
   2   9   4    0.06    0.02
  -3  -9  -4    1.27    0.12
  -3  -9  -4    1.24    0.25
  -3  -9  -4    1.21    0.09
  -3  -9  -4    1.17    0.10
   3   9   4    1.15    0.09
   3   9   4    1.03    0.08
  -4  -9  -4    0.33    0.05
  -4  -9  -4    0.25    0.03
  -4  -9  -4    0.23    0.04
   4   9   4    0.24    0.03
   4   9   4    0.23    0.03
  -5  -9  -4    0.07    0.02
  -5  -9  -4    0.08    0.02
   5   9   4    0.08    0.01
   5   9   4    0.07    0.01
  -6  -9  -4    0.72    0.06
  -6  -9  -4    0.73    0.05
   6   9   4    0.68    0.05
   6   9   4    0.65    0.05
  -7  -9  -4    0.05    0.02
  -7  -9  -4    0.04    0.01
   7   9   4    0.04    0.01
   7   9   4    0.05    0.01
  -4  10   4    0.09    0.02
   3 -10  -4    0.16    0.03
   3 -10  -4    0.16    0.02
  -3  10   4    0.23    0.02
   2 -10  -4    0.04    0.02
   2 -10  -4    0.08    0.01
   1 -10  -4    0.00    0.02
   1 -10  -4    0.01    0.01
  -1  10   4    0.02    0.02
  -1  10   4    0.01    0.01
   0 -10  -4    0.28    0.04
   0 -10  -4    0.27    0.05
   0 -10  -4    0.29    0.03
   0  10   4    0.28    0.03
   0  10   4    0.24    0.02
  -1 -10  -4    0.06    0.02
  -1 -10  -4    0.02    0.03
  -1 -10  -4    0.02    0.04
   1  10   4    0.02    0.01
   1  10   4    0.03    0.01
  -2 -10  -4    0.16    0.03
  -2 -10  -4    0.18    0.03
   2  10   4    0.14    0.02
   2  10   4    0.15    0.02
  -3 -10  -4    0.88    0.06
  -3 -10  -4    0.85    0.06
   3  10   4    0.74    0.06
   3  10   4    0.79    0.06
  -4 -10  -4    0.08    0.02
  -4 -10  -4    0.04    0.02
   4  10   4    0.05    0.01
   4  10   4    0.06    0.01
  -5 -10  -4    0.13    0.02
  -5 -10  -4    0.12    0.02
   5  10   4    0.10    0.01
   5  10   4    0.09    0.01
  -6 -10  -4    0.54    0.04
  -6 -10  -4    0.46    0.04
   6  10   4    0.44    0.03
   6  10   4    0.45    0.03
   1 -11  -4    0.02    0.01
   0 -11  -4    0.24    0.02
   0  11   4    0.21    0.02
  -1 -11  -4    0.00    0.01
   1  11   4    0.00    0.01
   1  11   4    0.00    0.01
  -2 -11  -4    0.01    0.01
  -2 -11  -4    0.01    0.01
   2  11   4    0.00    0.01
   2  11   4    0.01    0.01
  -3 -11  -4    0.76    0.05
   3  11   4    0.67    0.05
   3  11   4    0.67    0.05
   1   7  -5    0.01    0.01
  -1  -7   5    0.03    0.01
   0   7  -5    0.10    0.01
   0  -7   5    0.07    0.01
   5   6  -5    0.02    0.01
  -5  -6   5    0.01    0.01
  -5  -6   5    0.01    0.01
   4   6  -5   -0.01    0.01
   4   6  -5   -0.01    0.01
  -4  -6   5    0.01    0.01
   3   6  -5    0.19    0.02
   3   6  -5    0.22    0.03
  -3  -6   5    0.27    0.02
   2   6  -5    0.04    0.02
   2   6  -5    0.01    0.01
  -2  -6   5    0.03    0.01
   1   6  -5    0.00    0.02
   1   6  -5    0.03    0.01
  -1  -6   5    0.00    0.01
   0   6  -5    0.15    0.02
   0  -6   5    0.16    0.02
  -1   6  -5    0.00    0.02
  -1   6  -5    0.00    0.01
   1  -6   5   -0.01    0.01
  -2   6  -5    0.01    0.01
  -2   6  -5    0.00    0.02
  -3   6  -5    0.16    0.02
  -3   6  -5    0.17    0.04
  -3   6  -5    0.18    0.02
   3  -6   5    0.11    0.02
  -4   6  -5   -0.01    0.01
  -4   6  -5    0.00    0.01
   6   5  -5    0.04    0.01
   6   5  -5    0.06    0.01
  -6  -5   5    0.08    0.01
  -6  -5   5    0.06    0.01
   5   5  -5    0.00    0.02
   5   5  -5   -0.01    0.02
  -5  -5   5    0.00    0.01
   4   5  -5    0.07    0.02
   4   5  -5    0.07    0.02
  -4  -5   5    0.12    0.02
   3   5  -5    0.39    0.05
   3   5  -5    0.24    0.06
   3   5  -5    0.39    0.04
  -3  -5   5    0.42    0.03
   2   5  -5    0.04    0.02
   2   5  -5    0.08    0.06
  -2  -5   5    0.06    0.01
   1   5  -5    0.02    0.02
   1   5  -5   -0.01    0.03
   1   5  -5    0.06    0.06
  -1  -5   5    0.03    0.01
   0   5  -5    0.22    0.05
   0   5  -5    0.30    0.07
   0   5  -5    0.25    0.03
   0  -5   5    0.26    0.03
  -1   5  -5   -0.12    0.05
  -1   5  -5    0.00    0.02
  -1   5  -5    0.04    0.06
  -1   5  -5    0.06    0.04
   1  -5   5    0.01    0.01
   1  -5   5   -0.02    0.01
  -2   5  -5    0.01    0.05
  -2   5  -5    0.02    0.03
  -2   5  -5    0.04    0.04
  -2   5  -5    0.02    0.02
   2  -5   5    0.03    0.01
   2  -5   5    0.06    0.03
  -3   5  -5    0.42    0.06
  -3   5  -5    0.39    0.04
  -3   5  -5    0.39    0.06
   3  -5   5    0.49    0.05
   3  -5   5    0.49    0.04
  -4   5  -5    0.04    0.01
  -4   5  -5    0.06    0.03
  -4   5  -5    0.04    0.03
   4  -5   5    0.04    0.02
   4  -5   5    0.06    0.01
  -5   5  -5    0.01    0.02
  -5   5  -5    0.00    0.01
  -5   5  -5    0.01    0.02
   5  -5   5    0.01    0.01
   7   4  -5    0.05    0.03
   7   4  -5    0.01    0.01
   7   4  -5    0.01    0.01
  -7  -4   5    0.02    0.01
   6   4  -5    0.51    0.05
   6   4  -5    0.55    0.05
   6   4  -5    0.58    0.06
  -6  -4   5    0.70    0.04
  -6  -4   5    0.67    0.05
   5   4  -5   -0.01    0.02
   5   4  -5    0.01    0.05
   5   4  -5    0.04    0.03
  -5  -4   5    0.00    0.01
   4   4  -5    0.21    0.03
   4   4  -5    0.20    0.07
   4   4  -5    0.10    0.06
   4   4  -5    0.23    0.05
  -4  -4   5    0.28    0.02
   3   4  -5    1.18    0.09
   3   4  -5    1.22    0.11
   3   4  -5    0.85    0.14
   3   4  -5    1.19    0.09
   3   4  -5    0.89    0.14
   3   4  -5    1.24    0.13
  -3  -4   5    1.28    0.08
   2   4  -5    0.60    0.08
   2   4  -5    0.45    0.08
   2   4  -5    0.38    0.07
   2   4  -5    0.52    0.05
  -2  -4   5    0.60    0.04
   1   4  -5    0.19    0.03
   1   4  -5    0.17    0.07
   1   4  -5    0.28    0.04
   1   4  -5    0.22    0.05
   1   4  -5    0.27    0.07
  -1  -4   5    0.28    0.04
  -1  -4   5    0.27    0.03
   0   4  -5    1.27    0.11
   0   4  -5    1.13    0.14
   0   4  -5    1.31    0.10
   0   4  -5    1.05    0.14
   0   4  -5    1.15    0.10
   0  -4   5    1.32    0.09
   0  -4   5    1.21    0.10
  -1   4  -5    0.08    0.07
  -1   4  -5   -0.01    0.02
  -1   4  -5    0.05    0.06
  -1   4  -5    0.06    0.05
   1  -4   5    0.00    0.03
   1  -4   5    0.00    0.03
   1  -4   5    0.01    0.01
   1  -4   5   -0.02    0.01
  -2   4  -5    0.15    0.03
  -2   4  -5    0.14    0.07
  -2   4  -5    0.23    0.05
   2  -4   5    0.16    0.02
   2  -4   5    0.16    0.03
   2  -4   5    0.22    0.03
   2  -4   5    0.17    0.04
  -3   4  -5    0.65    0.06
  -3   4  -5    0.73    0.09
   3  -4   5    0.79    0.06
   3  -4   5    0.67    0.08
   3  -4   5    0.86    0.07
  -4   4  -5    0.08    0.04
  -4   4  -5    0.16    0.05
  -4   4  -5    0.07    0.02
   4  -4   5    0.11    0.02
   4  -4   5    0.09    0.03
   4  -4   5    0.08    0.03
  -5   4  -5    0.02    0.03
  -5   4  -5    0.05    0.03
  -5   4  -5    0.00    0.01
   5  -4   5    0.06    0.03
   5  -4   5   -0.01    0.02
   5  -4   5    0.00    0.01
  -6   4  -5    0.18    0.03
  -6   4  -5    0.16    0.03
  -6   4  -5    0.22    0.02
   6  -4   5    0.29    0.03
  -7   4  -5    0.00    0.02
  -7   4  -5    0.00    0.01
   7  -4   5    0.00    0.01
   8   3  -5    0.01    0.01
   8   3  -5    0.01    0.02
   8   3  -5    0.04    0.01
  -8  -3   5    0.01    0.01
   7   3  -5   -0.02    0.02
   7   3  -5    0.00    0.02
   7   3  -5    0.02    0.03
  -7  -3   5    0.00    0.01
  -7  -3   5    0.00    0.01
  -7  -3   5    0.00    0.01
   6   3  -5    2.44    0.18
   6   3  -5    2.25    0.17
  -6  -3   5    2.53    0.17
  -6  -3   5    2.50    0.17
   5   3  -5    0.07    0.03
   5   3  -5    0.07    0.09
   5   3  -5    0.00    0.06
   5   3  -5    0.07    0.05
  -5  -3   5    0.09    0.01
  -5  -3   5    0.07    0.03
   4   3  -5    0.15    0.06
   4   3  -5    0.22    0.06
   4   3  -5    0.19    0.07
   4   3  -5    0.17    0.07
   4   3  -5    0.15    0.05
   4   3  -5    0.19    0.04
  -4  -3   5    0.15    0.03
  -4  -3   5    0.21    0.02
   3   3  -5    0.15    0.07
   3   3  -5    0.12    0.06
   3   3  -5    0.13    0.07
   3   3  -5    0.15    0.07
   3   3  -5    0.11    0.04
  -3  -3   5    0.15    0.03
  -3  -3   5    0.15    0.02
   2   3  -5    0.23    0.03
   2   3  -5    0.19    0.08
   2   3  -5    0.12    0.04
   2   3  -5    0.24    0.08
   2   3  -5    0.24    0.06
   2   3  -5    0.15    0.07
   2   3  -5    0.22    0.07
  -2  -3   5    0.26    0.03
   1   3  -5    0.27    0.06
   1   3  -5    0.27    0.04
   1   3  -5    0.11    0.06
   1   3  -5    0.29    0.08
   1   3  -5    0.28    0.09
   1   3  -5    0.44    0.07
   1   3  -5    0.23    0.04
   1   3  -5    0.23    0.07
  -1  -3   5    0.27    0.04
  -1  -3   5    0.26    0.03
   0   3  -5    3.50    0.31
   0   3  -5    4.10    0.28
   0   3  -5    3.30    0.28
   0   3  -5    4.09    0.29
   0   3  -5    3.97    0.31
   0  -3   5    4.27    0.28
   0  -3   5    3.81    0.27
   0  -3   5    4.17    0.27
  -1   3  -5    0.08    0.05
  -1   3  -5    0.09    0.08
  -1   3  -5    0.06    0.03
  -1   3  -5    0.04    0.07
   1  -3   5    0.05    0.02
   1  -3   5    0.08    0.04
   1  -3   5    0.05    0.02
   1  -3   5    0.10    0.04
   1  -3   5    0.04    0.03
  -2   3  -5    0.02    0.05
  -2   3  -5    0.04    0.03
  -2   3  -5    0.03    0.07
  -2   3  -5    0.03    0.07
   2  -3   5    0.04    0.03
   2  -3   5    0.02    0.04
   2  -3   5    0.03    0.02
   2  -3   5    0.04    0.02
  -3   3  -5    0.19    0.03
  -3   3  -5    0.14    0.07
  -3   3  -5    0.02    0.07
  -3   3  -5    0.20    0.06
   3  -3   5    0.25    0.03
   3  -3   5    0.25    0.04
   3  -3   5    0.20    0.04
   3  -3   5    0.20    0.05
  -4   3  -5    0.11    0.03
  -4   3  -5    0.03    0.07
  -4   3  -5    0.18    0.05
   4  -3   5    0.13    0.04
   4  -3   5    0.14    0.02
   4  -3   5    0.10    0.04
   4  -3   5    0.17    0.03
  -5   3  -5    0.00    0.02
  -5   3  -5    0.10    0.05
   5  -3   5    0.01    0.02
   5  -3   5   -0.07    0.03
   5  -3   5    0.04    0.04
   5  -3   5    0.00    0.02
  -6   3  -5    0.10    0.04
  -6   3  -5    0.13    0.04
  -6   3  -5    0.15    0.02
   6  -3   5    0.15    0.03
   6  -3   5    0.16    0.02
   6  -3   5    0.09    0.04
  -7   3  -5    0.01    0.02
  -7   3  -5    0.01    0.02
  -7   3  -5    0.00    0.01
   7  -3   5    0.00    0.02
   7  -3   5    0.01    0.01
  -8   3  -5    0.01    0.01
   8  -3   5    0.01    0.01
   9   2  -5    0.20    0.02
  -9  -2   5    0.27    0.02
  -9  -2   5    0.30    0.03
   8   2  -5    0.03    0.02
   8   2  -5    0.06    0.02
   8   2  -5    0.04    0.02
  -8  -2   5    0.03    0.01
  -8  -2   5    0.03    0.01
   7   2  -5    0.03    0.02
   7   2  -5    0.11    0.04
   7   2  -5    0.01    0.03
  -7  -2   5    0.02    0.02
  -7  -2   5    0.01    0.02
   6   2  -5    1.42    0.13
   6   2  -5    1.42    0.12
  -6  -2   5    1.48    0.11
  -6  -2   5    1.50    0.11
  -6  -2   5    1.56    0.10
   5   2  -5   -0.03    0.06
   5   2  -5    0.04    0.05
   5   2  -5    0.01    0.03
   5   2  -5   -0.05    0.08
   5   2  -5    0.09    0.06
  -5  -2   5    0.00    0.02
  -5  -2   5    0.06    0.01
   4   2  -5    0.10    0.06
   4   2  -5   -0.05    0.07
   4   2  -5   -0.03    0.07
   4   2  -5    0.00    0.06
   4   2  -5    0.00    0.05
   4   2  -5   -0.02    0.04
  -4  -2   5    0.02    0.02
  -4  -2   5    0.04    0.01
   3   2  -5    1.75    0.16
   3   2  -5    1.47    0.17
   3   2  -5    1.74    0.13
   3   2  -5    1.49    0.17
   3   2  -5    1.47    0.16
  -3  -2   5    1.41    0.12
  -3  -2   5    1.62    0.11
   2   2  -5   -0.03    0.04
   2   2  -5    0.02    0.08
   2   2  -5   -0.02    0.06
   2   2  -5    0.09    0.07
   2   2  -5    0.07    0.07
  -2  -2   5    0.02    0.02
  -2  -2   5    0.05    0.04
   1   2  -5   -0.06    0.08
   1   2  -5    0.01    0.06
   1   2  -5    0.01    0.03
   1   2  -5    0.15    0.08
   1   2  -5    0.03    0.07
   1   2  -5   -0.06    0.07
   1   2  -5   -0.04    0.04
  -1  -2   5    0.02    0.02
  -1  -2   5   -0.01    0.03
   0   2  -5    3.39    0.29
   0   2  -5    3.71    0.29
   0   2  -5    3.28    0.29
   0   2  -5    3.83    0.26
   0   2  -5    3.55    0.28
   0   2  -5    3.66    0.27
   0   2  -5    3.54    0.26
   0  -2   5    3.10    0.25
   0  -2   5    3.90    0.26
   0  -2   5    3.91    0.25
  -1   2  -5    0.24    0.08
  -1   2  -5    0.34    0.08
  -1   2  -5    0.28    0.04
  -1   2  -5    0.43    0.06
  -1   2  -5    0.22    0.08
  -1   2  -5    0.42    0.07
   1  -2   5    0.30    0.04
   1  -2   5    0.38    0.06
   1  -2   5    0.29    0.04
   1  -2   5    0.34    0.05
   1  -2   5    0.26    0.05
  -2   2  -5    0.42    0.06
  -2   2  -5    0.60    0.09
  -2   2  -5    0.30    0.09
  -2   2  -5    0.41    0.09
   2  -2   5    0.47    0.08
   2  -2   5    0.44    0.05
   2  -2   5    0.52    0.08
   2  -2   5    0.51    0.05
   2  -2   5    0.47    0.07
  -3   2  -5    0.52    0.09
  -3   2  -5    0.42    0.05
  -3   2  -5    0.35    0.09
  -3   2  -5    0.43    0.06
  -3   2  -5    0.24    0.08
  -3   2  -5    0.51    0.09
   3  -2   5    0.47    0.08
   3  -2   5    0.47    0.07
   3  -2   5    0.54    0.07
   3  -2   5    0.48    0.05
   3  -2   5    0.44    0.05
  -4   2  -5    0.37    0.06
  -4   2  -5    0.47    0.06
  -4   2  -5    0.50    0.05
  -4   2  -5    0.29    0.08
  -4   2  -5    0.53    0.09
  -4   2  -5    0.34    0.08
   4  -2   5    0.56    0.06
   4  -2   5    0.40    0.06
   4  -2   5    0.56    0.05
   4  -2   5    0.55    0.07
  -5   2  -5   -0.03    0.02
  -5   2  -5    0.08    0.05
  -5   2  -5    0.04    0.03
   5  -2   5    0.05    0.04
   5  -2   5    0.02    0.03
   5  -2   5   -0.01    0.03
   5  -2   5   -0.01    0.03
  -6   2  -5    0.36    0.05
  -6   2  -5    0.21    0.05
  -6   2  -5    0.14    0.05
  -6   2  -5    0.23    0.03
   6  -2   5    0.27    0.03
   6  -2   5    0.14    0.04
   6  -2   5    0.14    0.04
   6  -2   5    0.26    0.05
  -7   2  -5    0.00    0.03
  -7   2  -5    0.00    0.01
  -7   2  -5    0.02    0.03
   7  -2   5    0.01    0.02
   7  -2   5   -0.02    0.01
   7  -2   5    0.02    0.03
  -8   2  -5    0.01    0.02
  -8   2  -5    0.01    0.02
  -8   2  -5    0.03    0.02
   8  -2   5   -0.01    0.02
   8  -2   5    0.02    0.01
   9   1  -5    0.17    0.02
  -9  -1   5    0.18    0.02
  -9  -1   5    0.21    0.03
   8   1  -5    0.10    0.02
   8   1  -5    0.04    0.04
   8   1  -5    0.11    0.03
  -8  -1   5    0.09    0.02
  -8  -1   5    0.09    0.02
   7   1  -5    0.03    0.05
   7   1  -5    0.02    0.03
   7   1  -5    0.03    0.04
  -7  -1   5    0.00    0.02
  -7  -1   5    0.01    0.02
   6   1  -5    0.86    0.10
   6   1  -5    0.61    0.10
   6   1  -5    0.62    0.11
   6   1  -5    0.81    0.11
  -6  -1   5    0.88    0.06
  -6  -1   5    0.89    0.08
  -6  -1   5    0.90    0.07
   5   1  -5   -0.08    0.03
   5   1  -5   -0.02    0.05
   5   1  -5    0.01    0.07
   5   1  -5   -0.06    0.06
  -5  -1   5    0.02    0.01
  -5  -1   5    0.00    0.03
   4   1  -5    0.15    0.07
   4   1  -5    0.18    0.07
   4   1  -5    0.21    0.05
   4   1  -5    0.20    0.04
   4   1  -5    0.27    0.07
  -4  -1   5    0.21    0.03
  -4  -1   5    0.16    0.03
   3   1  -5    3.33    0.23
   3   1  -5    2.86    0.25
   3   1  -5    3.26    0.25
   3   1  -5    3.11    0.25
   3   1  -5    3.26    0.24
  -3  -1   5    2.94    0.22
   2   1  -5   -0.04    0.06
   2   1  -5   -0.03    0.07
   2   1  -5    0.10    0.07
   2   1  -5    0.03    0.04
   2   1  -5    0.07    0.07
  -2  -1   5    0.03    0.04
  -2  -1   5    0.02    0.02
  -2  -1   5    0.03    0.09
   1   1  -5    0.37    0.08
   1   1  -5    0.36    0.12
   1   1  -5    0.42    0.08
   1   1  -5    0.41    0.10
   1   1  -5    0.35    0.07
   1   1  -5    0.38    0.05
   1   1  -5    0.41    0.12
  -1  -1   5    0.37    0.04
  -1  -1   5    0.37    0.05
   0   1  -5    7.01    0.48
   0   1  -5    7.12    0.49
   0   1  -5    6.96    0.47
   0   1  -5    6.32    0.49
   0   1  -5    6.96    0.50
   0   1  -5    6.41    0.49
   0  -1   5    6.23    0.47
   0  -1   5    6.00    0.47
   0  -1   5    7.15    0.48
   0  -1   5    7.48    0.50
   0  -1   5    7.02    0.48
  -1   1  -5    0.34    0.08
  -1   1  -5    0.14    0.07
  -1   1  -5    0.28    0.04
  -1   1  -5    0.19    0.04
  -1   1  -5    0.22    0.08
  -1   1  -5    0.20    0.07
   1  -1   5    0.28    0.05
   1  -1   5    0.24    0.04
   1  -1   5    0.20    0.04
   1  -1   5    0.15    0.03
   1  -1   5    0.32    0.11
   1  -1   5    0.19    0.02
  -2   1  -5    1.00    0.09
  -2   1  -5    0.93    0.12
  -2   1  -5    0.93    0.08
  -2   1  -5    0.85    0.15
  -2   1  -5    0.97    0.14
  -2   1  -5    0.92    0.15
   2  -1   5    1.03    0.11
   2  -1   5    0.91    0.09
   2  -1   5    0.92    0.08
   2  -1   5    0.95    0.09
   2  -1   5    0.77    0.07
  -3   1  -5    3.65    0.25
  -3   1  -5    3.35    0.26
  -3   1  -5    3.26    0.26
  -3   1  -5    3.09    0.28
  -3   1  -5    2.99    0.28
  -3   1  -5    3.38    0.25
   3  -1   5    3.68    0.25
   3  -1   5    3.18    0.24
   3  -1   5    3.80    0.25
   3  -1   5    3.60    0.24
   3  -1   5    3.80    0.25
  -4   1  -5    0.00    0.06
  -4   1  -5    0.00    0.04
  -4   1  -5    0.00    0.03
  -4   1  -5    0.02    0.07
  -4   1  -5    0.00    0.07
   4  -1   5    0.01    0.03
   4  -1   5    0.03    0.03
   4  -1   5    0.02    0.04
   4  -1   5    0.01    0.02
  -5   1  -5    0.03    0.02
  -5   1  -5    0.11    0.06
  -5   1  -5    0.08    0.03
   5  -1   5    0.07    0.04
   5  -1   5    0.05    0.04
   5  -1   5    0.01    0.03
   5  -1   5    0.05    0.02
  -6   1  -5    1.64    0.14
  -6   1  -5    1.68    0.12
  -6   1  -5    1.59    0.12
   6  -1   5    1.35    0.13
   6  -1   5    1.47    0.13
   6  -1   5    1.74    0.12
  -7   1  -5    0.00    0.02
  -7   1  -5    0.06    0.03
  -7   1  -5    0.03    0.04
   7  -1   5   -0.03    0.02
   7  -1   5   -0.01    0.03
   7  -1   5    0.00    0.02
  -8   1  -5    0.04    0.03
  -8   1  -5    0.02    0.03
  -8   1  -5    0.07    0.01
  -8   1  -5    0.12    0.02
  -8   1  -5    0.07    0.03
   8  -1   5    0.08    0.01
   8  -1   5    0.07    0.02
  -9   1  -5    0.00    0.01
  -9   1  -5    0.06    0.02
   9  -1   5    0.05    0.02
   9  -1   5    0.04    0.01
   9   0  -5    0.21    0.03
   9   0  -5    0.24    0.04
  -9   0   5    0.28    0.03
  -9   0   5    0.33    0.03
   8   0  -5    0.09    0.02
   8   0  -5    0.11    0.04
  -8   0   5    0.05    0.02
  -8   0   5    0.07    0.02
   7   0  -5    0.02    0.03
   7   0  -5   -0.03    0.04
   7   0  -5    0.03    0.06
   7   0  -5    0.00    0.05
  -7   0   5    0.00    0.02
  -7   0   5    0.02    0.02
   6   0  -5    1.28    0.15
   6   0  -5    1.73    0.14
   6   0  -5    1.63    0.13
  -6   0   5    1.80    0.12
  -6   0   5    1.56    0.13
   5   0  -5   -0.02    0.06
   5   0  -5   -0.07    0.08
   5   0  -5    0.06    0.07
   5   0  -5    0.00    0.05
   5   0  -5   -0.01    0.03
  -5   0   5    0.01    0.03
  -5   0   5    0.01    0.01
   4   0  -5    0.04    0.03
   4   0  -5    0.07    0.05
   4   0  -5   -0.02    0.06
   4   0  -5   -0.01    0.06
   4   0  -5    0.09    0.06
  -4   0   5    0.04    0.01
  -4   0   5    0.01    0.03
   3   0  -5    6.02    0.43
   3   0  -5    5.97    0.42
   3   0  -5    6.34    0.43
   3   0  -5    5.69    0.43
  -3   0   5    5.43    0.40
   2   0  -5    1.51    0.17
   2   0  -5    1.71    0.17
   2   0  -5    1.42    0.16
   2   0  -5    1.83    0.17
   2   0  -5    1.70    0.13
   2   0  -5    1.75    0.15
  -2   0   5    1.56    0.12
  -2   0   5    2.01    0.17
   1   0  -5    1.22    0.14
   1   0  -5    1.32    0.14
   1   0  -5    1.13    0.17
   1   0  -5    1.24    0.15
   1   0  -5    1.15    0.14
   1   0  -5    1.40    0.15
   1   0  -5    1.25    0.12
  -1   0   5    1.41    0.16
  -1   0   5    1.41    0.11
  -1   0   5    1.29    0.18
  -1   0   5    1.19    0.09
   0   0  -5    2.91    0.22
   0   0  -5    2.57    0.23
   0   0  -5    2.79    0.23
   0   0  -5    2.17    0.25
   0   0  -5    2.57    0.23
   0   0  -5    2.70    0.20
   0   0  -5    2.62    0.22
   0   0   5    3.25    0.23
   0   0   5    2.91    0.20
   0   0   5    2.50    0.23
   0   0   5    2.51    0.19
  -1   0  -5    0.41    0.09
  -1   0  -5    0.40    0.09
  -1   0  -5    0.25    0.07
  -1   0  -5    0.26    0.08
  -1   0  -5    0.28    0.07
  -1   0  -5    0.22    0.10
  -1   0  -5    0.36    0.10
   1   0   5    0.29    0.04
   1   0   5    0.41    0.06
   1   0   5    0.40    0.05
   1   0   5    0.36    0.07
   1   0   5    0.33    0.09
   1   0   5    0.32    0.04
   1   0   5    0.42    0.08
  -2   0  -5   -0.06    0.06
  -2   0  -5    0.01    0.06
  -2   0  -5    0.07    0.04
  -2   0  -5    0.05    0.07
  -2   0  -5    0.08    0.09
  -2   0  -5    0.07    0.07
  -2   0  -5    0.13    0.08
  -2   0  -5    0.06    0.03
   2   0   5   -0.01    0.03
   2   0   5    0.05    0.05
   2   0   5   -0.08    0.09
   2   0   5    0.09    0.08
   2   0   5   -0.02    0.04
   2   0   5    0.05    0.02
  -3   0  -5    9.33    0.73
  -3   0  -5   10.05    0.72
  -3   0  -5   10.07    0.71
  -3   0  -5    9.84    0.72
  -3   0  -5   10.13    0.71
  -3   0  -5   11.00    0.71
   3   0   5   10.40    0.70
   3   0   5   11.09    0.71
   3   0   5   10.61    0.71
   3   0   5    9.16    0.71
  -4   0  -5    0.32    0.07
  -4   0  -5    0.09    0.07
  -4   0  -5    0.23    0.07
  -4   0  -5    0.26    0.05
  -4   0  -5    0.17    0.03
   4   0   5    0.26    0.05
   4   0   5    0.22    0.03
   4   0   5    0.23    0.04
   4   0   5    0.18    0.04
   4   0   5    0.26    0.04
  -5   0  -5    1.21    0.11
  -5   0  -5    1.17    0.13
  -5   0  -5    1.14    0.09
   5   0   5    1.27    0.12
   5   0   5    1.23    0.11
   5   0   5    1.29    0.09
  -6   0  -5    0.85    0.08
  -6   0  -5    0.77    0.10
  -6   0  -5    0.83    0.07
   6   0   5    0.94    0.08
   6   0   5    0.83    0.09
   6   0   5    0.90    0.07
   6   0   5    0.81    0.09
  -7   0  -5    0.09    0.03
  -7   0  -5    0.04    0.04
  -7   0  -5    0.01    0.02
   7   0   5    0.07    0.03
   7   0   5    0.04    0.03
   7   0   5    0.05    0.02
   7   0   5    0.06    0.04
  -8   0  -5    0.00    0.02
  -8   0  -5   -0.03    0.03
  -8   0  -5   -0.01    0.01
   8   0   5    0.01    0.03
   8   0   5    0.01    0.02
   8   0   5    0.02    0.01
  -9   0  -5    0.21    0.03
  -9   0  -5    0.25    0.04
   9   0   5    0.26    0.03
   9   0   5    0.23    0.02
  -9   1   5    0.41    0.04
  -9   1   5    0.50    0.04
   8  -1  -5   -0.01    0.04
   8  -1  -5    0.08    0.02
  -8   1   5    0.00    0.02
  -8   1   5    0.05    0.02
   7  -1  -5    0.71    0.08
   7  -1  -5    0.71    0.11
   7  -1  -5    0.82    0.07
  -7   1   5    0.88    0.07
  -7   1   5    0.69    0.07
   6  -1  -5    0.75    0.09
   6  -1  -5    0.81    0.08
   6  -1  -5    0.66    0.11
  -6   1   5    0.83    0.07
   5  -1  -5    0.03    0.04
   5  -1  -5    0.05    0.07
   5  -1  -5    0.07    0.03
   5  -1  -5    0.11    0.07
  -5   1   5   -0.01    0.03
   4  -1  -5    1.76    0.15
   4  -1  -5    1.91    0.15
   4  -1  -5    1.92    0.17
   4  -1  -5    1.91    0.18
   4  -1  -5    1.71    0.13
  -4   1   5    1.80    0.14
  -4   1   5    1.47    0.12
   3  -1  -5    5.42    0.38
   3  -1  -5    5.50    0.38
   3  -1  -5    5.00    0.37
   3  -1  -5    5.36    0.38
   3  -1  -5    5.30    0.39
  -3   1   5    4.94    0.36
   2  -1  -5    1.02    0.14
   2  -1  -5    1.36    0.10
   2  -1  -5    1.24    0.14
   2  -1  -5    1.26    0.14
  -2   1   5    1.26    0.14
  -2   1   5    1.24    0.09
  -2   1   5    0.92    0.14
   1  -1  -5    0.54    0.09
   1  -1  -5    0.75    0.12
   1  -1  -5    0.58    0.08
   1  -1  -5    0.57    0.11
   1  -1  -5    0.61    0.10
   1  -1  -5    0.61    0.09
   1  -1  -5    0.68    0.07
  -1   1   5    0.72    0.12
  -1   1   5    0.97    0.13
  -1   1   5    0.78    0.08
   0  -1  -5    6.52    0.48
   0  -1  -5    6.85    0.49
   0  -1  -5    6.34    0.49
   0  -1  -5    6.06    0.49
   0  -1  -5    6.72    0.48
   0  -1  -5    6.41    0.48
   0  -1  -5    6.72    0.46
   0   1   5    6.56    0.48
   0   1   5    6.71    0.47
   0   1   5    7.58    0.49
   0   1   5    6.86    0.47
  -1  -1  -5    0.18    0.07
  -1  -1  -5   -0.02    0.07
  -1  -1  -5    0.11    0.04
  -1  -1  -5    0.09    0.08
  -1  -1  -5    0.04    0.07
  -1  -1  -5    0.15    0.08
   1   1   5    0.21    0.06
   1   1   5    0.13    0.04
   1   1   5    0.14    0.08
   1   1   5    0.13    0.08
   1   1   5    0.07    0.04
  -2  -1  -5    0.32    0.07
  -2  -1  -5    0.32    0.08
  -2  -1  -5    0.36    0.08
  -2  -1  -5    0.29    0.07
  -2  -1  -5    0.33    0.10
  -2  -1  -5    0.41    0.05
  -2  -1  -5    0.51    0.10
  -2  -1  -5    0.55    0.09
   2   1   5    0.33    0.05
   2   1   5    0.43    0.08
   2   1   5    0.36    0.06
   2   1   5    0.46    0.09
   2   1   5    0.36    0.05
   2   1   5    0.27    0.04
  -3  -1  -5    7.38    0.53
  -3  -1  -5    8.08    0.51
  -3  -1  -5    7.17    0.53
  -3  -1  -5    7.20    0.53
  -3  -1  -5    7.48    0.53
  -3  -1  -5    7.18    0.53
  -3  -1  -5    6.86    0.53
  -3  -1  -5    7.27    0.52
   3   1   5    7.48    0.52
   3   1   5    7.21    0.52
   3   1   5    7.97    0.54
   3   1   5    7.60    0.51
   3   1   5    7.11    0.51
   3   1   5    6.96    0.54
  -4  -1  -5    0.15    0.07
  -4  -1  -5    0.14    0.06
  -4  -1  -5    0.07    0.07
  -4  -1  -5    0.09    0.03
  -4  -1  -5    0.14    0.05
   4   1   5    0.15    0.04
   4   1   5    0.07    0.04
   4   1   5    0.11    0.03
  -5  -1  -5    0.17    0.03
  -5  -1  -5    0.14    0.04
   5   1   5    0.14    0.03
   5   1   5    0.10    0.03
   5   1   5    0.09    0.04
   5   1   5    0.07    0.05
  -6  -1  -5    1.05    0.09
  -6  -1  -5    1.04    0.12
  -6  -1  -5    1.05    0.10
  -6  -1  -5    1.11    0.11
   6   1   5    1.22    0.10
   6   1   5    1.06    0.11
   6   1   5    0.96    0.10
   6   1   5    1.20    0.09
  -7  -1  -5   -0.01    0.02
  -7  -1  -5    0.04    0.03
  -7  -1  -5    0.04    0.04
   7   1   5    0.03    0.03
   7   1   5    0.02    0.03
   7   1   5    0.03    0.03
   7   1   5    0.04    0.04
  -8  -1  -5    0.04    0.03
  -8  -1  -5   -0.02    0.01
   8   1   5    0.03    0.03
   8   1   5    0.02    0.02
   8   1   5    0.01    0.03
  -9  -1  -5    0.61    0.05
  -9  -1  -5    0.54    0.06
  -9  -1  -5    0.59    0.05
   9   1   5    0.61    0.05
   9   1   5    0.71    0.05
 -10  -1  -5    0.04    0.01
  10   1   5    0.01    0.01
  -9   2   5    0.12    0.02
  -9   2   5    0.16    0.02
  -8   2   5    0.03    0.02
  -8   2   5    0.02    0.02
   7  -2  -5    0.23    0.07
   6  -2  -5    0.71    0.12
  -6   2   5    0.92    0.09
  -6   2   5    1.15    0.09
   5  -2  -5    0.11    0.07
   5  -2  -5    0.11    0.07
   5  -2  -5    0.06    0.04
  -5   2   5    0.05    0.03
  -5   2   5    0.07    0.03
   4  -2  -5    1.79    0.16
   4  -2  -5    1.79    0.16
   4  -2  -5    1.67    0.14
  -4   2   5    1.55    0.13
  -4   2   5    1.90    0.14
   3  -2  -5    4.79    0.34
   3  -2  -5    4.52    0.33
   3  -2  -5    4.68    0.35
   2  -2  -5    1.15    0.10
   2  -2  -5    1.31    0.12
   2  -2  -5    1.10    0.13
   2  -2  -5    1.20    0.14
  -2   2   5    1.11    0.13
   1  -2  -5   -0.04    0.07
   1  -2  -5    0.01    0.06
   1  -2  -5    0.04    0.04
   1  -2  -5    0.01    0.07
   1  -2  -5    0.02    0.05
  -1   2   5    0.01    0.05
  -1   2   5    0.02    0.06
  -1   2   5   -0.06    0.07
   0  -2  -5    6.97    0.50
   0  -2  -5    6.89    0.52
   0  -2  -5    6.82    0.52
   0  -2  -5    6.90    0.51
   0  -2  -5    7.31    0.52
   0   2   5    7.56    0.52
   0   2   5    7.97    0.52
   0   2   5    7.12    0.51
  -1  -2  -5    0.77    0.15
  -1  -2  -5    0.69    0.11
  -1  -2  -5    0.90    0.13
  -1  -2  -5    0.86    0.09
  -1  -2  -5    0.86    0.13
  -1  -2  -5    0.87    0.11
   1   2   5    0.87    0.08
   1   2   5    0.75    0.13
   1   2   5    0.58    0.15
  -2  -2  -5    1.94    0.22
  -2  -2  -5    2.09    0.20
  -2  -2  -5    2.24    0.20
  -2  -2  -5    2.51    0.20
  -2  -2  -5    2.29    0.21
  -2  -2  -5    2.45    0.18
  -2  -2  -5    2.42    0.20
   2   2   5    2.56    0.21
   2   2   5    2.35    0.17
   2   2   5    2.42    0.18
   2   2   5    2.26    0.19
   2   2   5    2.37    0.21
   2   2   5    2.42    0.18
  -3  -2  -5   10.51    0.78
  -3  -2  -5   11.45    0.78
  -3  -2  -5   11.32    0.78
  -3  -2  -5   10.47    0.78
  -3  -2  -5   10.75    0.76
  -3  -2  -5   10.83    0.78
  -3  -2  -5   11.08    0.77
  -3  -2  -5   10.36    0.79
   3   2   5   11.28    0.77
   3   2   5   11.86    0.79
   3   2   5   11.59    0.77
   3   2   5   11.73    0.77
   3   2   5   11.45    0.77
   3   2   5   10.11    0.77
  -4  -2  -5    0.70    0.12
  -4  -2  -5    0.63    0.11
  -4  -2  -5    0.77    0.09
  -4  -2  -5    0.58    0.11
  -4  -2  -5    0.82    0.07
   4   2   5    0.85    0.08
   4   2   5    0.67    0.09
   4   2   5    0.68    0.07
   4   2   5    0.79    0.07
   4   2   5    0.71    0.09
   4   2   5    0.73    0.08
  -5  -2  -5    0.37    0.05
  -5  -2  -5    0.39    0.07
  -5  -2  -5    0.33    0.09
   5   2   5    0.40    0.05
   5   2   5    0.33    0.05
   5   2   5    0.32    0.05
   5   2   5    0.48    0.08
   5   2   5    0.40    0.06
   5   2   5    0.32    0.05
  -6  -2  -5    1.28    0.14
  -6  -2  -5    1.49    0.13
  -6  -2  -5    1.50    0.11
  -6  -2  -5    1.50    0.14
   6   2   5    1.57    0.11
   6   2   5    1.57    0.13
   6   2   5    1.71    0.12
   6   2   5    1.40    0.13
   6   2   5    1.58    0.12
  -7  -2  -5   -0.01    0.05
  -7  -2  -5    0.06    0.04
  -7  -2  -5    0.06    0.02
  -7  -2  -5    0.10    0.04
   7   2   5    0.09    0.02
   7   2   5    0.08    0.04
   7   2   5    0.12    0.03
   7   2   5    0.16    0.03
  -8  -2  -5    0.04    0.02
  -8  -2  -5    0.09    0.03
   8   2   5    0.05    0.04
   8   2   5    0.05    0.03
   8   2   5    0.06    0.02
  -9  -2  -5    0.63    0.06
  -9  -2  -5    0.65    0.05
   9   2   5    0.83    0.06
   9   2   5    0.66    0.05
 -10  -2  -5    0.00    0.01
  10   2   5    0.01    0.01
  -9   3   5    0.20    0.03
  -9   3   5    0.26    0.03
  -8   3   5    0.04    0.01
  -8   3   5    0.02    0.02
  -7   3   5    0.07    0.03
  -7   3   5    0.09    0.02
   6  -3  -5    0.61    0.09
  -6   3   5    0.74    0.08
  -6   3   5    1.00    0.08
   5  -3  -5    0.14    0.07
   5  -3  -5    0.14    0.06
   4  -3  -5    0.34    0.06
  -4   3   5    0.34    0.06
  -4   3   5    0.23    0.04
   3  -3  -5   20.57    1.33
  -3   3   5   19.87    1.31
  -3   3   5   16.68    1.32
   2  -3  -5    0.56    0.08
   2  -3  -5    0.58    0.10
  -2   3   5    0.63    0.12
   1  -3  -5    0.68    0.11
   1  -3  -5    0.85    0.10
   1  -3  -5    0.99    0.10
   1  -3  -5    0.75    0.09
   1  -3  -5    0.79    0.13
  -1   3   5    0.99    0.12
  -1   3   5    0.86    0.12
   0  -3  -5   14.25    1.03
   0  -3  -5   13.94    1.02
   0  -3  -5   14.01    1.03
   0  -3  -5   15.12    1.03
   0  -3  -5   14.36    1.02
   0   3   5   14.64    1.03
   0   3   5   16.73    1.03
  -1  -3  -5   17.75    1.29
  -1  -3  -5   19.01    1.28
  -1  -3  -5   17.38    1.29
  -1  -3  -5   18.48    1.28
  -1  -3  -5   18.48    1.28
  -1  -3  -5   18.23    1.29
  -1  -3  -5   16.99    1.29
   1   3   5   19.48    1.29
   1   3   5   20.59    1.29
  -2  -3  -5    1.54    0.18
  -2  -3  -5    1.95    0.14
  -2  -3  -5    1.97    0.16
  -2  -3  -5    1.68    0.16
  -2  -3  -5    1.67    0.19
  -2  -3  -5    1.73    0.16
  -2  -3  -5    1.53    0.17
   2   3   5    1.51    0.16
   2   3   5    1.68    0.15
   2   3   5    1.69    0.16
   2   3   5    1.64    0.14
   2   3   5    1.75    0.14
  -3  -3  -5   15.09    1.10
  -3  -3  -5   14.91    1.10
  -3  -3  -5   16.27    1.10
  -3  -3  -5   14.88    1.11
  -3  -3  -5   15.95    1.10
  -3  -3  -5   14.56    1.11
  -3  -3  -5   15.67    1.09
  -3  -3  -5   15.02    1.11
   3   3   5   16.51    1.09
   3   3   5   15.05    1.10
   3   3   5   16.90    1.09
   3   3   5   16.90    1.11
   3   3   5   16.42    1.11
   3   3   5   15.84    1.09
   3   3   5   16.48    1.10
   3   3   5   16.45    1.10
  -4  -3  -5    0.57    0.07
  -4  -3  -5    0.71    0.10
  -4  -3  -5    0.70    0.14
  -4  -3  -5    0.66    0.10
  -4  -3  -5    0.61    0.12
  -4  -3  -5    0.61    0.11
  -4  -3  -5    0.61    0.07
  -4  -3  -5    0.73    0.08
   4   3   5    0.70    0.06
   4   3   5    0.66    0.09
   4   3   5    0.69    0.07
   4   3   5    0.65    0.06
   4   3   5    0.67    0.09
   4   3   5    0.70    0.07
  -5  -3  -5    1.54    0.12
  -5  -3  -5    1.67    0.15
  -5  -3  -5    1.33    0.15
   5   3   5    1.70    0.12
   5   3   5    1.52    0.13
   5   3   5    1.53    0.12
   5   3   5    1.62    0.13
   5   3   5    1.54    0.13
   5   3   5    1.65    0.13
  -6  -3  -5    1.13    0.09
  -6  -3  -5    1.15    0.11
  -6  -3  -5    1.12    0.12
  -6  -3  -5    1.15    0.12
   6   3   5    1.07    0.10
   6   3   5    1.30    0.10
   6   3   5    1.08    0.09
   6   3   5    1.31    0.09
   6   3   5    1.21    0.11
   6   3   5    1.11    0.11
  -7  -3  -5   -0.02    0.04
  -7  -3  -5    0.03    0.02
  -7  -3  -5    0.02    0.04
   7   3   5   -0.01    0.03
   7   3   5    0.02    0.02
   7   3   5    0.00    0.04
   7   3   5    0.03    0.03
   7   3   5   -0.10    0.04
  -8  -3  -5    0.02    0.03
  -8  -3  -5    0.02    0.02
   8   3   5    0.01    0.04
   8   3   5    0.07    0.03
   8   3   5    0.03    0.02
  -9  -3  -5    0.45    0.04
  -9  -3  -5    0.42    0.04
   9   3   5    0.41    0.04
   9   3   5    0.52    0.05
 -10  -3  -5    0.00    0.01
  10   3   5    0.00    0.01
  -9   4   5    0.24    0.02
  -9   4   5    0.20    0.03
  -8   4   5    0.02    0.02
  -8   4   5    0.02    0.01
  -7   4   5    0.01    0.02
  -7   4   5    0.00    0.02
  -6   4   5    0.92    0.08
  -6   4   5    1.11    0.09
   5  -4  -5    0.24    0.07
  -5   4   5    0.07    0.03
  -5   4   5    0.09    0.03
   4  -4  -5    2.76    0.22
  -4   4   5    2.77    0.21
  -4   4   5    3.14    0.21
  -3   4   5    8.90    0.64
  -3   4   5    9.31    0.63
   2  -4  -5    0.20    0.04
  -2   4   5    0.28    0.04
  -2   4   5    0.39    0.08
  -2   4   5    0.25    0.04
   1  -4  -5    0.10    0.04
   1  -4  -5    0.05    0.07
   1  -4  -5    0.07    0.03
   1  -4  -5    0.08    0.05
   1  -4  -5    0.04    0.05
  -1   4   5    0.10    0.06
  -1   4   5    0.12    0.02
   0  -4  -5   17.29    1.25
   0  -4  -5   18.10    1.25
   0  -4  -5   16.09    1.25
   0  -4  -5   18.61    1.25
   0  -4  -5   18.52    1.26
   0  -4  -5   16.34    1.26
   0   4   5   17.77    1.24
   0   4   5   17.89    1.25
   0   4   5   19.52    1.25
   0   4   5   19.32    1.26
   0   4   5   18.91    1.26
  -1  -4  -5    0.12    0.09
  -1  -4  -5    0.17    0.03
  -1  -4  -5    0.14    0.08
  -1  -4  -5    0.21    0.07
  -1  -4  -5    0.18    0.06
  -1  -4  -5    0.20    0.05
   1   4   5    0.17    0.03
   1   4   5    0.22    0.06
   1   4   5    0.26    0.07
   1   4   5    0.14    0.03
   1   4   5    0.22    0.06
  -2  -4  -5    3.23    0.30
  -2  -4  -5    3.81    0.29
  -2  -4  -5    3.67    0.31
  -2  -4  -5    3.57    0.28
  -2  -4  -5    4.02    0.31
  -2  -4  -5    3.49    0.28
  -2  -4  -5    4.24    0.29
   2   4   5    4.17    0.30
   2   4   5    4.13    0.27
   2   4   5    4.27    0.30
   2   4   5    4.23    0.30
   2   4   5    3.52    0.28
   2   4   5    3.69    0.27
   2   4   5    4.05    0.28
  -3  -4  -5    8.09    0.65
  -3  -4  -5    8.86    0.64
  -3  -4  -5    9.57    0.63
  -3  -4  -5    7.75    0.63
  -3  -4  -5    9.60    0.64
  -3  -4  -5    9.53    0.64
  -3  -4  -5    9.44    0.66
  -3  -4  -5    8.41    0.70
   3   4   5    9.12    0.65
   3   4   5    9.22    0.63
   3   4   5    9.70    0.65
   3   4   5    9.26    0.64
   3   4   5    9.72    0.64
   3   4   5    9.43    0.63
   3   4   5    8.66    0.63
   3   4   5    9.30    0.63
   3   4   5    8.68    0.63
  -4  -4  -5    0.21    0.04
  -4  -4  -5    0.19    0.04
  -4  -4  -5    0.25    0.09
  -4  -4  -5    0.34    0.05
  -4  -4  -5    0.35    0.06
   4   4   5    0.16    0.05
   4   4   5    0.22    0.04
   4   4   5    0.26    0.04
   4   4   5    0.20    0.04
   4   4   5    0.24    0.04
   4   4   5    0.18    0.03
   4   4   5    0.20    0.05
  -5  -4  -5    0.09    0.08
  -5  -4  -5    0.20    0.03
  -5  -4  -5    0.15    0.04
   5   4   5    0.16    0.05
   5   4   5    0.15    0.05
   5   4   5    0.16    0.04
   5   4   5    0.19    0.04
   5   4   5    0.18    0.03
   5   4   5    0.16    0.02
  -6  -4  -5    2.78    0.20
  -6  -4  -5    2.81    0.21
  -6  -4  -5    2.70    0.21
  -6  -4  -5    2.72    0.22
   6   4   5    3.02    0.20
   6   4   5    2.69    0.21
   6   4   5    2.56    0.20
   6   4   5    2.98    0.21
   6   4   5    2.71    0.21
   6   4   5    2.96    0.21
  -7  -4  -5    0.04    0.04
  -7  -4  -5    0.03    0.02
  -7  -4  -5    0.03    0.04
   7   4   5    0.05    0.04
   7   4   5   -0.01    0.03
   7   4   5    0.02    0.04
   7   4   5    0.05    0.02
   7   4   5    0.01    0.03
  -8  -4  -5    0.00    0.02
  -8  -4  -5    0.00    0.03
   8   4   5    0.01    0.02
   8   4   5    0.04    0.03
   8   4   5    0.04    0.04
  -9  -4  -5    0.15    0.02
  -9  -4  -5    0.19    0.03
   9   4   5    0.17    0.03
   9   4   5    0.22    0.04
 -10  -4  -5    0.02    0.01
 -10  -4  -5    0.01    0.01
  10   4   5    0.01    0.01
  -7   5   5    0.56    0.06
  -7   5   5    0.54    0.05
  -6   5   5    0.76    0.07
  -6   5   5    0.61    0.06
  -5   5   5    2.33    0.17
  -4   5   5    0.93    0.09
  -4   5   5    1.14    0.11
  -3   5   5    4.94    0.35
   2  -5  -5    0.30    0.06
  -2   5   5    0.38    0.05
  -2   5   5    0.37    0.06
   1  -5  -5    1.28    0.12
   1  -5  -5    1.28    0.16
   1  -5  -5    1.25    0.11
   1  -5  -5    1.34    0.12
  -1   5   5    1.39    0.10
  -1   5   5    1.41    0.17
  -1   5   5    1.56    0.12
  -1   5   5    1.43    0.10
   0  -5  -5    8.63    0.66
   0  -5  -5    9.21    0.67
   0  -5  -5    9.14    0.66
   0  -5  -5    8.87    0.66
   0   5   5    9.84    0.65
   0   5   5   10.54    0.67
   0   5   5    9.87    0.66
   0   5   5    9.61    0.68
   0   5   5    9.73    0.66
  -1  -5  -5    0.70    0.13
  -1  -5  -5    1.02    0.11
  -1  -5  -5    0.75    0.15
  -1  -5  -5    0.74    0.11
  -1  -5  -5    0.96    0.08
  -1  -5  -5    0.96    0.11
   1   5   5    0.96    0.07
   1   5   5    0.94    0.13
   1   5   5    1.10    0.08
  -2  -5  -5    0.04    0.08
  -2  -5  -5    0.06    0.05
  -2  -5  -5    0.06    0.05
  -2  -5  -5   -0.05    0.08
  -2  -5  -5    0.06    0.03
   2   5   5    0.02    0.02
   2   5   5    0.06    0.06
   2   5   5    0.07    0.02
   2   5   5    0.00    0.04
   2   5   5    0.11    0.06
  -3  -5  -5    7.19    0.49
  -3  -5  -5    7.30    0.51
  -3  -5  -5    7.05    0.48
  -3  -5  -5    5.79    0.48
  -3  -5  -5    7.06    0.49
  -3  -5  -5    7.08    0.48
   3   5   5    7.24    0.48
   3   5   5    7.16    0.48
   3   5   5    6.68    0.50
   3   5   5    7.19    0.48
   3   5   5    5.98    0.48
  -4  -5  -5    0.05    0.06
  -4  -5  -5    0.04    0.08
  -4  -5  -5    0.09    0.04
  -4  -5  -5    0.09    0.03
  -4  -5  -5    0.23    0.05
  -4  -5  -5    0.11    0.03
   4   5   5    0.08    0.02
   4   5   5    0.15    0.04
   4   5   5    0.01    0.05
   4   5   5    0.14    0.02
   4   5   5    0.05    0.05
   4   5   5    0.08    0.02
  -5  -5  -5    2.68    0.19
  -5  -5  -5    2.75    0.24
  -5  -5  -5    2.50    0.19
   5   5   5    2.55    0.20
   5   5   5    2.56    0.20
   5   5   5    2.51    0.19
   5   5   5    2.73    0.19
   5   5   5    2.50    0.19
   5   5   5    2.78    0.19
  -6  -5  -5    4.52    0.34
  -6  -5  -5    4.10    0.31
  -6  -5  -5    4.34    0.31
  -6  -5  -5    4.48    0.33
   6   5   5    4.20    0.30
   6   5   5    4.16    0.31
   6   5   5    4.30    0.31
   6   5   5    4.53    0.30
   6   5   5    4.51    0.31
   6   5   5    4.55    0.31
  -7  -5  -5    0.00    0.02
  -7  -5  -5   -0.02    0.04
   7   5   5    0.03    0.02
   7   5   5    0.04    0.05
   7   5   5    0.06    0.04
   7   5   5    0.02    0.03
   7   5   5    0.02    0.02
  -8  -5  -5    0.18    0.03
   8   5   5    0.27    0.05
   8   5   5    0.23    0.03
   8   5   5    0.09    0.06
  -9  -5  -5    0.16    0.02
  -9  -5  -5    0.14    0.02
   9   5   5    0.17    0.03
   9   5   5    0.17    0.02
 -10  -5  -5    0.02    0.01
 -10  -5  -5    0.02    0.01
  -7   6   5    0.03    0.01
  -6   6   5    0.25    0.05
  -5   6   5    0.37    0.05
  -4   6   5    0.03    0.03
   3  -6  -5    1.22    0.12
  -3   6   5    1.70    0.12
  -3   6   5    1.51    0.11
   2  -6  -5    0.14    0.04
   2  -6  -5    0.17    0.07
  -2   6   5    0.13    0.03
  -2   6   5    0.20    0.03
   1  -6  -5    0.16    0.04
   1  -6  -5    0.09    0.07
   1  -6  -5    0.10    0.04
   1  -6  -5    0.10    0.02
  -1   6   5    0.09    0.02
  -1   6   5    0.13    0.02
  -1   6   5    0.13    0.03
   0  -6  -5    2.68    0.21
   0  -6  -5    2.76    0.22
   0  -6  -5    2.60    0.21
   0  -6  -5    2.89    0.24
   0   6   5    3.12    0.21
   0   6   5    3.08    0.20
   0   6   5    3.18    0.21
  -1  -6  -5    0.09    0.04
  -1  -6  -5    0.01    0.07
  -1  -6  -5    0.08    0.03
  -1  -6  -5    0.06    0.05
   1   6   5    0.10    0.02
   1   6   5    0.09    0.02
  -2  -6  -5    0.76    0.11
  -2  -6  -5    0.76    0.10
  -2  -6  -5    0.77    0.10
  -2  -6  -5    0.79    0.08
   2   6   5    0.90    0.07
   2   6   5    0.89    0.07
   2   6   5    0.74    0.09
  -3  -6  -5    5.46    0.38
  -3  -6  -5    5.54    0.37
  -3  -6  -5    5.49    0.40
  -3  -6  -5    5.59    0.38
   3   6   5    5.75    0.37
   3   6   5    4.85    0.37
   3   6   5    5.32    0.38
   3   6   5    4.66    0.37
  -4  -6  -5    0.67    0.06
  -4  -6  -5    0.73    0.10
  -4  -6  -5    0.53    0.06
  -4  -6  -5    0.55    0.10
  -4  -6  -5    0.64    0.10
  -4  -6  -5    0.58    0.07
   4   6   5    0.60    0.08
   4   6   5    0.64    0.06
   4   6   5    0.69    0.05
  -5  -6  -5    1.43    0.11
  -5  -6  -5    1.46    0.10
  -5  -6  -5    1.42    0.11
   5   6   5    1.29    0.10
   5   6   5    1.22    0.10
  -6  -6  -5    1.06    0.16
  -6  -6  -5    1.12    0.08
  -6  -6  -5    1.04    0.09
   6   6   5    0.99    0.08
   6   6   5    1.03    0.08
   6   6   5    1.12    0.08
   6   6   5    1.08    0.10
  -7  -6  -5    0.05    0.03
  -7  -6  -5    0.10    0.02
   7   6   5    0.05    0.04
   7   6   5    0.07    0.02
   7   6   5    0.10    0.02
   7   6   5    0.09    0.04
  -8  -6  -5    0.01    0.01
  -8  -6  -5    0.00    0.02
   8   6   5   -0.01    0.01
  -9  -6  -5    0.45    0.04
  -9  -6  -5    0.43    0.04
  -7   7   5    0.03    0.01
  -6   7   5    0.51    0.05
  -5   7   5    0.03    0.02
   4  -7  -5    0.08    0.03
  -4   7   5    0.08    0.02
   3  -7  -5    0.98    0.09
   3  -7  -5    1.09    0.15
  -3   7   5    1.10    0.09
  -3   7   5    1.07    0.08
   2  -7  -5    0.04    0.03
   2  -7  -5    0.01    0.07
   2  -7  -5    0.01    0.04
   2  -7  -5    0.03    0.02
  -2   7   5    0.00    0.03
  -2   7   5    0.06    0.02
   1  -7  -5    0.89    0.08
   1  -7  -5    0.83    0.09
   1  -7  -5    1.04    0.14
  -1   7   5    1.05    0.09
  -1   7   5    1.05    0.07
  -1   7   5    1.03    0.08
   0  -7  -5    2.34    0.18
   0  -7  -5    2.51    0.22
   0  -7  -5    2.36    0.19
   0  -7  -5    2.35    0.19
   0   7   5    2.65    0.18
   0   7   5    2.62    0.18
   0   7   5    2.76    0.18
  -1  -7  -5    0.03    0.04
  -1  -7  -5    0.06    0.04
  -1  -7  -5    0.05    0.03
  -1  -7  -5    0.01    0.07
   1   7   5    0.04    0.02
   1   7   5    0.07    0.02
  -2  -7  -5    0.11    0.03
  -2  -7  -5    0.09    0.08
  -2  -7  -5    0.04    0.04
  -2  -7  -5    0.07    0.07
   2   7   5    0.08    0.04
   2   7   5    0.09    0.02
   2   7   5    0.05    0.02
  -3  -7  -5    0.44    0.06
  -3  -7  -5    0.50    0.08
  -3  -7  -5    0.54    0.09
  -3  -7  -5    0.34    0.05
  -3  -7  -5    0.51    0.05
   3   7   5    0.45    0.06
   3   7   5    0.46    0.05
   3   7   5    0.43    0.05
   3   7   5    0.54    0.04
  -4  -7  -5    0.67    0.07
  -4  -7  -5    0.53    0.06
  -4  -7  -5    0.68    0.06
  -4  -7  -5    0.57    0.07
  -4  -7  -5    0.56    0.10
  -4  -7  -5    0.61    0.09
   4   7   5    0.70    0.06
   4   7   5    0.59    0.08
   4   7   5    0.65    0.05
  -5  -7  -5    0.60    0.07
  -5  -7  -5    0.73    0.14
  -5  -7  -5    0.59    0.06
  -5  -7  -5    0.58    0.06
   5   7   5    0.50    0.07
   5   7   5    0.68    0.05
   5   7   5    0.63    0.05
  -6  -7  -5    0.95    0.07
  -6  -7  -5    0.81    0.16
  -6  -7  -5    0.97    0.08
   6   7   5    0.76    0.09
   6   7   5    0.92    0.07
   6   7   5    0.88    0.07
  -7  -7  -5    0.10    0.03
  -7  -7  -5    0.09    0.02
   7   7   5    0.09    0.01
   7   7   5    0.09    0.02
  -8  -7  -5    0.05    0.02
  -8  -7  -5    0.04    0.01
   8   7   5    0.05    0.01
  -9  -7  -5    0.33    0.03
  -6   8   5    0.43    0.04
  -5   8   5    0.03    0.02
   4  -8  -5    0.22    0.03
   4  -8  -5    0.22    0.03
   3  -8  -5    0.72    0.07
   3  -8  -5    1.12    0.16
   3  -8  -5    0.65    0.06
  -3   8   5    0.80    0.07
   2  -8  -5    0.49    0.05
   2  -8  -5    0.43    0.07
   2  -8  -5    0.49    0.06
   2  -8  -5    0.70    0.14
  -2   8   5    0.54    0.04
  -2   8   5    0.54    0.05
   1  -8  -5    0.33    0.04
   1  -8  -5    0.32    0.06
   1  -8  -5    0.37    0.08
   1  -8  -5    0.24    0.04
  -1   8   5    0.27    0.03
  -1   8   5    0.32    0.05
  -1   8   5    0.29    0.03
   0  -8  -5    1.85    0.18
   0  -8  -5    1.74    0.13
   0  -8  -5    1.73    0.15
   0  -8  -5    1.69    0.14
   0   8   5    1.83    0.13
   0   8   5    1.93    0.13
   0   8   5    1.95    0.14
  -1  -8  -5    0.11    0.04
  -1  -8  -5    0.16    0.04
  -1  -8  -5    0.05    0.07
  -1  -8  -5    0.10    0.02
   1   8   5    0.11    0.02
   1   8   5    0.11    0.02
  -2  -8  -5    0.79    0.09
  -2  -8  -5    0.83    0.09
  -2  -8  -5    0.82    0.07
  -2  -8  -5    0.92    0.15
   2   8   5    0.77    0.07
   2   8   5    0.80    0.06
  -3  -8  -5    1.96    0.14
  -3  -8  -5    1.99    0.16
  -3  -8  -5    1.98    0.16
  -3  -8  -5    2.00    0.19
   3   8   5    1.91    0.14
   3   8   5    2.00    0.14
   3   8   5    1.87    0.15
  -4  -8  -5    0.90    0.12
  -4  -8  -5    0.89    0.07
  -4  -8  -5    0.98    0.14
  -4  -8  -5    0.88    0.08
  -4  -8  -5    0.86    0.10
   4   8   5    0.83    0.08
   4   8   5    0.85    0.07
   4   8   5    0.84    0.07
  -5  -8  -5    0.01    0.02
  -5  -8  -5   -0.02    0.08
  -5  -8  -5   -0.01    0.03
   5   8   5    0.05    0.04
   5   8   5    0.01    0.02
   5   8   5    0.00    0.01
  -6  -8  -5    0.93    0.07
  -6  -8  -5    0.89    0.07
   6   8   5    0.92    0.07
   6   8   5    0.89    0.07
  -7  -8  -5    0.01    0.01
  -7  -8  -5   -0.01    0.02
   7   8   5    0.03    0.01
   7   8   5    0.00    0.01
  -8  -8  -5    0.00    0.01
  -8  -8  -5    0.01    0.01
   8   8   5    0.01    0.01
   4  -9  -5    0.01    0.02
   3  -9  -5    0.19    0.03
  -3   9   5    0.25    0.03
   2  -9  -5    0.06    0.02
   2  -9  -5    0.08    0.03
   2  -9  -5    0.06    0.03
  -2   9   5    0.06    0.03
  -2   9   5    0.03    0.01
   1  -9  -5    0.21    0.03
   1  -9  -5    0.20    0.03
   1  -9  -5    0.21    0.04
  -1   9   5    0.27    0.04
  -1   9   5    0.16    0.02
   0  -9  -5    1.98    0.16
   0  -9  -5    2.24    0.19
   0  -9  -5    2.06    0.16
   0  -9  -5    2.09    0.15
   0   9   5    2.09    0.15
   0   9   5    2.27    0.15
   0   9   5    1.91    0.15
  -1  -9  -5    0.19    0.04
  -1  -9  -5    0.19    0.03
  -1  -9  -5    0.27    0.08
   1   9   5    0.19    0.03
   1   9   5    0.18    0.02
  -2  -9  -5    0.31    0.05
  -2  -9  -5    0.29    0.05
  -2  -9  -5    0.28    0.04
  -2  -9  -5    0.31    0.08
   2   9   5    0.28    0.03
   2   9   5    0.27    0.03
  -3  -9  -5    0.84    0.09
  -3  -9  -5    0.74    0.08
  -3  -9  -5    0.70    0.06
   3   9   5    0.73    0.06
   3   9   5    0.65    0.05
  -4  -9  -5    1.21    0.08
  -4  -9  -5    1.21    0.09
  -4  -9  -5    0.94    0.08
   4   9   5    1.03    0.08
   4   9   5    1.15    0.08
  -5  -9  -5   -0.01    0.01
  -5  -9  -5   -0.01    0.02
   5   9   5    0.00    0.01
   5   9   5    0.02    0.01
  -6  -9  -5    0.91    0.07
  -6  -9  -5    0.86    0.06
   6   9   5    0.88    0.06
   6   9   5    0.82    0.06
  -7  -9  -5    0.13    0.02
  -7  -9  -5    0.12    0.01
   7   9   5    0.08    0.01
   7   9   5    0.09    0.01
   3 -10  -5    0.12    0.02
   3 -10  -5    0.08    0.02
   2 -10  -5    0.02    0.02
   1 -10  -5    0.04    0.01
   1 -10  -5    0.05    0.03
   1 -10  -5    0.07    0.04
  -1  10   5    0.02    0.01
  -1  10   5    0.06    0.02
   0 -10  -5    0.81    0.08
   0 -10  -5    0.91    0.07
   0 -10  -5    0.83    0.08
   0  10   5    0.92    0.06
   0  10   5    0.83    0.06
   0  10   5    0.83    0.07
  -1 -10  -5    0.13    0.05
  -1 -10  -5    0.18    0.04
  -1 -10  -5    0.18    0.02
   1  10   5    0.17    0.02
   1  10   5    0.12    0.02
   1  10   5    0.15    0.02
  -2 -10  -5    0.08    0.08
  -2 -10  -5    0.01    0.02
  -2 -10  -5    0.03    0.03
   2  10   5    0.00    0.01
   2  10   5    0.01    0.01
  -3 -10  -5    0.35    0.03
  -3 -10  -5    0.40    0.04
  -3 -10  -5    0.34    0.06
   3  10   5    0.28    0.03
   3  10   5    0.27    0.03
  -4 -10  -5    0.17    0.03
   4  10   5    0.13    0.02
   4  10   5    0.15    0.02
  -5 -10  -5    0.02    0.01
  -5 -10  -5    0.01    0.02
   5  10   5    0.00    0.01
   5  10   5    0.00    0.01
  -6 -10  -5    0.28    0.02
  -6 -10  -5    0.29    0.03
   6  10   5    0.27    0.02
   6  10   5    0.28    0.02
   1 -11  -5    0.01    0.01
  -1  11   5    0.03    0.01
   0 -11  -5    0.14    0.02
   0  11   5    0.12    0.01
  -1 -11  -5    0.03    0.01
   1  11   5    0.00    0.01
  -2 -11  -5    0.02    0.01
  -2 -11  -5    0.04    0.02
   2  11   5    0.02    0.01
   2  11   5    0.01    0.01
  -3 -11  -5    0.56    0.04
   3  11   5    0.49    0.04
   3  11   5    0.49    0.04
  -4 -11  -5    0.05    0.01
   4  11   5    0.03    0.01
   4  11   5    0.04    0.01
   2   6  -6   -0.01    0.01
  -2  -6   6    0.00    0.01
   1   6  -6    0.00    0.01
  -1  -6   6    0.00    0.01
   0   6  -6    0.15    0.02
   0  -6   6    0.14    0.01
  -1   6  -6    0.01    0.01
   1  -6   6   -0.03    0.01
   5   5  -6    0.01    0.01
  -5  -5   6    0.03    0.01
  -5  -5   6    0.02    0.01
   4   5  -6    0.00    0.01
  -4  -5   6    0.01    0.01
   3   5  -6    0.32    0.04
   3   5  -6    0.38    0.03
  -3  -5   6    0.45    0.03
   2   5  -6    0.00    0.01
   2   5  -6    0.03    0.02
  -2  -5   6    0.01    0.01
   1   5  -6    0.02    0.02
   1   5  -6    0.02    0.01
  -1  -5   6    0.03    0.01
   0   5  -6    0.06    0.02
   0   5  -6   -0.08    0.10
   0   5  -6    0.07    0.02
  -1   5  -6    0.03    0.02
  -1   5  -6    0.02    0.01
   1  -5   6    0.02    0.01
  -2   5  -6   -0.01    0.01
  -2   5  -6    0.02    0.03
  -2   5  -6    0.00    0.02
   2  -5   6    0.01    0.01
  -3   5  -6    0.18    0.03
  -3   5  -6    0.20    0.03
  -3   5  -6    0.22    0.02
  -4   5  -6    0.00    0.01
  -4   5  -6    0.00    0.02
  -4   5  -6   -0.01    0.02
   6   4  -6    0.21    0.03
  -6  -4   6    0.28    0.03
   5   4  -6    0.07    0.02
   5   4  -6    0.02    0.03
   5   4  -6    0.08    0.02
   4   4  -6   -0.02    0.04
   4   4  -6    0.00    0.02
  -4  -4   6    0.01    0.01
   3   4  -6    1.02    0.13
   3   4  -6    1.15    0.09
   3   4  -6    1.19    0.09
  -3  -4   6    1.40    0.09
   2   4  -6   -0.01    0.02
   2   4  -6    0.03    0.06
   2   4  -6   -0.01    0.03
  -2  -4   6    0.01    0.01
   1   4  -6    0.03    0.02
   1   4  -6    0.06    0.06
   1   4  -6    0.04    0.03
  -1  -4   6    0.03    0.01
   0   4  -6    0.14    0.07
   0   4  -6    0.08    0.03
   0   4  -6    0.04    0.02
   0  -4   6    0.08    0.01
  -1   4  -6    0.43    0.07
  -1   4  -6    0.42    0.07
  -1   4  -6    0.40    0.04
  -2   4  -6    0.02    0.02
  -2   4  -6    0.02    0.06
  -2   4  -6    0.03    0.04
  -2   4  -6    0.05    0.04
   2  -4   6    0.02    0.01
  -3   4  -6    0.65    0.07
  -3   4  -6    0.60    0.05
  -3   4  -6    0.61    0.07
   3  -4   6    0.73    0.05
  -4   4  -6    0.02    0.03
  -4   4  -6    0.08    0.03
  -4   4  -6    0.01    0.01
   4  -4   6    0.00    0.01
  -5   4  -6    0.03    0.02
  -5   4  -6    0.01    0.02
  -5   4  -6    0.02    0.01
   5  -4   6    0.00    0.01
  -6   4  -6    0.03    0.01
  -6   4  -6    0.02    0.01
   7   3  -6    0.01    0.01
   7   3  -6    0.02    0.01
  -7  -3   6    0.00    0.01
   6   3  -6    0.53    0.05
   6   3  -6    0.57    0.06
  -6  -3   6    0.72    0.05
  -6  -3   6    0.67    0.05
  -6  -3   6    0.67    0.05
   5   3  -6    0.01    0.02
   5   3  -6   -0.01    0.03
   5   3  -6    0.01    0.05
  -5  -3   6    0.03    0.02
  -5  -3   6    0.02    0.01
   4   3  -6    0.38    0.07
   4   3  -6    0.35    0.06
   4   3  -6    0.35    0.08
   4   3  -6    0.44    0.05
  -4  -3   6    0.54    0.04
   3   3  -6    0.05    0.03
   3   3  -6    0.11    0.05
   3   3  -6   -0.02    0.07
  -3  -3   6    0.13    0.02
  -3  -3   6    0.10    0.02
   2   3  -6    0.02    0.05
   2   3  -6    0.01    0.03
   2   3  -6    0.04    0.08
   2   3  -6    0.04    0.03
   2   3  -6    0.06    0.07
   2   3  -6   -0.08    0.07
  -2  -3   6    0.06    0.01
  -2  -3   6    0.05    0.02
   1   3  -6    0.10    0.07
   1   3  -6    0.04    0.03
   1   3  -6    0.17    0.08
   1   3  -6    0.05    0.06
   1   3  -6   -0.03    0.05
   1   3  -6    0.06    0.03
  -1  -3   6    0.03    0.02
  -1  -3   6    0.00    0.03
   0   3  -6    0.96    0.15
   0   3  -6    1.16    0.15
   0   3  -6    1.21    0.11
   0  -3   6    1.24    0.10
   0  -3   6    1.28    0.09
  -1   3  -6    0.06    0.07
  -1   3  -6    0.05    0.06
  -1   3  -6    0.06    0.05
  -1   3  -6   -0.03    0.02
   1  -3   6    0.00    0.02
   1  -3   6    0.04    0.03
  -2   3  -6    0.28    0.05
  -2   3  -6    0.20    0.07
  -2   3  -6    0.15    0.07
  -2   3  -6    0.20    0.03
   2  -3   6    0.28    0.03
   2  -3   6    0.21    0.03
   2  -3   6    0.23    0.04
   2  -3   6    0.24    0.04
  -3   3  -6    0.11    0.02
  -3   3  -6    0.17    0.05
  -3   3  -6    0.11    0.06
   3  -3   6    0.14    0.02
   3  -3   6    0.17    0.03
   3  -3   6    0.12    0.03
   3  -3   6    0.10    0.06
   3  -3   6    0.17    0.03
  -4   3  -6    0.02    0.02
  -4   3  -6    0.10    0.04
   4  -3   6    0.04    0.01
   4  -3   6    0.16    0.04
   4  -3   6    0.04    0.03
  -5   3  -6    0.19    0.03
  -5   3  -6    0.24    0.04
   5  -3   6    0.26    0.04
   5  -3   6    0.25    0.03
  -6   3  -6    0.18    0.02
  -6   3  -6    0.20    0.04
  -6   3  -6    0.18    0.04
   6  -3   6    0.23    0.02
   6  -3   6    0.22    0.04
  -7   3  -6    0.01    0.02
  -7   3  -6    0.01    0.02
   7  -3   6    0.00    0.01
   8   2  -6    0.10    0.01
   8   2  -6    0.09    0.01
  -8  -2   6    0.13    0.02
  -8  -2   6    0.10    0.02
   7   2  -6    0.01    0.02
   7   2  -6    0.03    0.02
  -7  -2   6    0.02    0.01
  -7  -2   6    0.02    0.01
   6   2  -6    0.17    0.03
   6   2  -6    0.20    0.04
   6   2  -6    0.09    0.05
  -6  -2   6    0.29    0.03
  -6  -2   6    0.25    0.02
  -6  -2   6    0.18    0.03
   5   2  -6    0.11    0.06
   5   2  -6    0.09    0.04
   5   2  -6    0.22    0.06
   5   2  -6    0.09    0.03
  -5  -2   6    0.14    0.02
  -5  -2   6    0.11    0.02
   4   2  -6    0.12    0.06
   4   2  -6    0.14    0.03
   4   2  -6    0.17    0.07
   4   2  -6    0.10    0.08
   4   2  -6    0.12    0.06
   4   2  -6    0.14    0.05
  -4  -2   6    0.18    0.02
  -4  -2   6    0.14    0.03
   3   2  -6    0.70    0.10
   3   2  -6    0.69    0.11
   3   2  -6    0.56    0.09
   3   2  -6    0.69    0.12
   3   2  -6    0.68    0.08
  -3  -2   6    0.77    0.05
  -3  -2   6    0.68    0.06
   2   2  -6    0.16    0.08
   2   2  -6    0.05    0.09
   2   2  -6    0.02    0.07
   2   2  -6    0.02    0.04
   2   2  -6    0.03    0.06
  -2  -2   6    0.07    0.02
   1   2  -6    0.03    0.04
   1   2  -6    0.06    0.08
   1   2  -6    0.00    0.06
   1   2  -6    0.05    0.07
   1   2  -6   -0.02    0.07
   1   2  -6    0.03    0.03
  -1  -2   6    0.00    0.04
  -1  -2   6    0.01    0.02
   0   2  -6    2.80    0.23
   0   2  -6    2.84    0.21
   0   2  -6    2.70    0.24
   0   2  -6    2.97    0.22
   0   2  -6    2.52    0.24
   0   2  -6    3.05    0.24
   0   2  -6    2.94    0.21
   0  -2   6    3.20    0.21
   0  -2   6    3.09    0.20
  -1   2  -6   -0.03    0.03
  -1   2  -6    0.08    0.08
  -1   2  -6    0.10    0.05
  -1   2  -6    0.04    0.03
  -1   2  -6    0.02    0.07
   1  -2   6    0.00    0.02
   1  -2   6    0.02    0.03
   1  -2   6    0.02    0.02
  -2   2  -6    0.41    0.09
  -2   2  -6    0.48    0.06
  -2   2  -6    0.58    0.09
  -2   2  -6    0.54    0.09
   2  -2   6    0.49    0.07
   2  -2   6    0.59    0.05
   2  -2   6    0.64    0.09
   2  -2   6    0.55    0.07
   2  -2   6    0.44    0.04
  -3   2  -6    0.00    0.07
  -3   2  -6    0.14    0.05
  -3   2  -6    0.09    0.03
  -3   2  -6    0.13    0.07
   3  -2   6    0.08    0.02
   3  -2   6    0.05    0.02
   3  -2   6    0.09    0.03
   3  -2   6    0.05    0.03
   3  -2   6    0.14    0.05
  -4   2  -6    0.32    0.06
  -4   2  -6    0.11    0.07
  -4   2  -6    0.23    0.03
   4  -2   6    0.24    0.04
   4  -2   6    0.36    0.05
   4  -2   6    0.33    0.05
   4  -2   6    0.30    0.03
  -5   2  -6    0.20    0.03
  -5   2  -6    0.25    0.05
   5  -2   6    0.29    0.04
   5  -2   6    0.25    0.03
   5  -2   6    0.14    0.04
  -6   2  -6    0.31    0.03
  -6   2  -6    0.38    0.06
   6  -2   6    0.29    0.05
   6  -2   6    0.41    0.03
  -7   2  -6    0.03    0.02
  -7   2  -6    0.03    0.02
   7  -2   6    0.04    0.02
  -8   2  -6    0.01    0.02
  -8   2  -6   -0.02    0.01
   8  -2   6    0.00    0.01
   8   1  -6    0.05    0.02
   8   1  -6    0.02    0.01
   8   1  -6    0.03    0.01
  -8  -1   6    0.02    0.01
  -8  -1   6    0.03    0.01
   7   1  -6    0.02    0.03
   7   1  -6    0.05    0.04
   7   1  -6    0.04    0.02
  -7  -1   6    0.03    0.02
  -7  -1   6    0.04    0.01
   6   1  -6    0.33    0.06
   6   1  -6    0.43    0.07
   6   1  -6    0.40    0.05
  -6  -1   6    0.53    0.05
  -6  -1   6    0.43    0.05
   5   1  -6   -0.01    0.06
   5   1  -6    0.00    0.06
   5   1  -6   -0.03    0.03
   5   1  -6   -0.04    0.04
   5   1  -6   -0.14    0.12
  -5  -1   6   -0.02    0.02
  -5  -1   6    0.01    0.01
   4   1  -6    0.01    0.05
   4   1  -6   -0.03    0.03
   4   1  -6    0.00    0.06
   4   1  -6    0.03    0.07
   4   1  -6    0.06    0.08
  -4  -1   6    0.00    0.03
  -4  -1   6    0.03    0.01
   3   1  -6    1.13    0.10
   3   1  -6    1.14    0.14
   3   1  -6    1.19    0.15
   3   1  -6    1.11    0.12
   3   1  -6    1.00    0.13
  -3  -1   6    1.05    0.09
  -3  -1   6    1.22    0.08
   2   1  -6    0.03    0.06
   2   1  -6    0.01    0.04
   2   1  -6    0.03    0.07
   2   1  -6    0.08    0.07
   2   1  -6    0.13    0.08
  -2  -1   6    0.07    0.02
   1   1  -6    0.02    0.04
   1   1  -6    0.01    0.05
   1   1  -6    0.08    0.04
   1   1  -6    0.04    0.07
   1   1  -6   -0.06    0.07
   1   1  -6   -0.07    0.07
   1   1  -6    0.00    0.07
  -1  -1   6    0.06    0.02
  -1  -1   6    0.00    0.04
   0   1  -6    3.33    0.26
   0   1  -6    3.14    0.26
   0   1  -6    3.31    0.25
   0   1  -6    3.27    0.24
   0   1  -6    3.23    0.25
   0   1  -6    3.31    0.23
   0   1  -6    3.22    0.26
   0  -1   6    3.23    0.23
   0  -1   6    3.44    0.24
  -1   1  -6    0.16    0.06
  -1   1  -6    0.12    0.07
  -1   1  -6    0.04    0.05
  -1   1  -6    0.13    0.09
  -1   1  -6    0.09    0.06
  -1   1  -6    0.07    0.04
  -1   1  -6    0.16    0.08
   1  -1   6    0.07    0.04
   1  -1   6    0.07    0.02
   1  -1   6    0.05    0.02
  -2   1  -6    0.19    0.04
  -2   1  -6    0.17    0.03
  -2   1  -6    0.11    0.07
  -2   1  -6    0.08    0.04
  -2   1  -6    0.15    0.08
  -2   1  -6    0.17    0.06
   2  -1   6    0.13    0.02
   2  -1   6    0.15    0.02
   2  -1   6    0.10    0.05
   2  -1   6    0.15    0.04
   2  -1   6    0.12    0.04
  -3   1  -6    0.48    0.09
  -3   1  -6    0.30    0.05
  -3   1  -6    0.22    0.08
  -3   1  -6    0.32    0.04
  -3   1  -6    0.23    0.08
   3  -1   6    0.33    0.04
   3  -1   6    0.25    0.04
   3  -1   6    0.35    0.05
   3  -1   6    0.42    0.06
  -4   1  -6    0.95    0.08
  -4   1  -6    1.02    0.11
  -4   1  -6    1.01    0.09
   4  -1   6    0.91    0.08
   4  -1   6    1.17    0.09
   4  -1   6    1.08    0.10
   4  -1   6    1.10    0.08
   4  -1   6    1.07    0.11
  -5   1  -6    0.18    0.04
  -5   1  -6    0.22    0.04
  -5   1  -6    0.26    0.06
  -5   1  -6    0.18    0.03
   5  -1   6    0.20    0.03
   5  -1   6    0.18    0.05
   5  -1   6    0.18    0.04
   5  -1   6    0.26    0.03
  -6   1  -6    1.01    0.09
  -6   1  -6    0.89    0.09
  -6   1  -6    0.86    0.08
  -6   1  -6    0.79    0.07
   6  -1   6    1.01    0.08
   6  -1   6    0.91    0.09
   6  -1   6    1.01    0.07
  -7   1  -6    0.01    0.02
  -7   1  -6   -0.02    0.01
  -7   1  -6    0.00    0.03
   7  -1   6    0.00    0.01
   7  -1   6   -0.02    0.02
   7  -1   6    0.08    0.05
  -8   1  -6    0.02    0.02
  -8   1  -6    0.00    0.02
   8  -1   6    0.03    0.01
   8  -1   6    0.05    0.02
  -9   0   6    0.44    0.04
   8   0  -6   -0.02    0.02
  -8   0   6   -0.01    0.01
  -8   0   6   -0.02    0.01
   7   0  -6    0.06    0.02
   7   0  -6    0.10    0.03
   7   0  -6    0.12    0.05
  -7   0   6    0.10    0.02
  -7   0   6    0.07    0.02
   6   0  -6    0.78    0.09
   6   0  -6    0.69    0.07
   6   0  -6    0.58    0.10
  -6   0   6    0.76    0.07
  -6   0   6    0.84    0.07
   5   0  -6    0.00    0.03
   5   0  -6   -0.03    0.08
   5   0  -6    0.01    0.04
   5   0  -6    0.05    0.06
  -5   0   6    0.03    0.02
  -5   0   6    0.02    0.03
  -5   0   6    0.02    0.01
   4   0  -6    0.18    0.04
   4   0  -6    0.20    0.06
   4   0  -6    0.17    0.07
   4   0  -6    0.19    0.05
   4   0  -6    0.15    0.07
  -4   0   6    0.16    0.03
  -4   0   6    0.16    0.02
   3   0  -6    0.96    0.11
   3   0  -6    0.88    0.12
   3   0  -6    1.02    0.09
   3   0  -6    1.15    0.13
   3   0  -6    1.00    0.13
  -3   0   6    0.98    0.07
   2   0  -6   -0.01    0.06
   2   0  -6   -0.11    0.06
   2   0  -6   -0.01    0.03
   2   0  -6    0.05    0.06
   2   0  -6    0.01    0.05
  -2   0   6    0.02    0.01
   1   0  -6    2.94    0.26
   1   0  -6    3.25    0.26
   1   0  -6    3.32    0.26
   1   0  -6    3.37    0.26
   1   0  -6    3.36    0.24
   1   0  -6    3.20    0.25
  -1   0   6    3.06    0.23
  -1   0   6    3.60    0.24
   0   0  -6    1.67    0.13
   0   0  -6    1.58    0.15
   0   0  -6    1.57    0.16
   0   0  -6    1.67    0.16
   0   0  -6    1.58    0.13
   0   0  -6    1.48    0.16
   0   0  -6    1.57    0.15
   0   0   6    1.51    0.11
   0   0   6    1.69    0.13
  -1   0  -6    0.17    0.04
  -1   0  -6    0.26    0.08
  -1   0  -6    0.17    0.06
  -1   0  -6    0.14    0.07
  -1   0  -6    0.25    0.08
  -1   0  -6    0.28    0.04
  -1   0  -6    0.16    0.06
   1   0   6    0.20    0.04
   1   0   6    0.18    0.02
  -2   0  -6    0.45    0.08
  -2   0  -6    0.33    0.06
  -2   0  -6    0.56    0.09
  -2   0  -6    0.38    0.05
  -2   0  -6    0.35    0.06
  -2   0  -6    0.46    0.08
  -2   0  -6    0.38    0.07
  -2   0  -6    0.41    0.06
   2   0   6    0.56    0.09
   2   0   6    0.38    0.04
   2   0   6    0.42    0.04
   2   0   6    0.46    0.05
   2   0   6    0.44    0.07
  -3   0  -6    0.72    0.10
  -3   0  -6    0.79    0.13
  -3   0  -6    0.96    0.08
  -3   0  -6    0.77    0.09
   3   0   6    1.04    0.10
   3   0   6    0.98    0.07
   3   0   6    1.02    0.09
   3   0   6    1.15    0.09
   3   0   6    0.89    0.07
  -4   0  -6    0.58    0.09
  -4   0  -6    0.45    0.09
  -4   0  -6    0.49    0.08
  -4   0  -6    0.55    0.07
  -4   0  -6    0.52    0.06
  -4   0  -6    0.61    0.08
   4   0   6    0.58    0.09
   4   0   6    0.56    0.05
   4   0   6    0.56    0.07
   4   0   6    0.52    0.05
  -5   0  -6    0.70    0.09
  -5   0  -6    0.56    0.06
  -5   0  -6    0.61    0.07
  -5   0  -6    0.46    0.08
   5   0   6    0.66    0.07
   5   0   6    0.64    0.05
   5   0   6    0.63    0.07
   5   0   6    0.59    0.08
  -6   0  -6    0.72    0.07
  -6   0  -6    0.74    0.09
  -6   0  -6    0.62    0.06
  -6   0  -6    0.75    0.08
   6   0   6    0.77    0.06
   6   0   6    0.71    0.08
   6   0   6    0.62    0.08
   6   0   6    0.78    0.07
  -7   0  -6    0.03    0.04
  -7   0  -6    0.01    0.03
  -7   0  -6    0.00    0.02
   7   0   6    0.02    0.01
   7   0   6    0.03    0.02
   7   0   6   -0.01    0.03
  -8   0  -6    0.01    0.03
  -8   0  -6    0.06    0.02
  -8   0  -6    0.07    0.02
  -8   0  -6    0.04    0.01
   8   0   6    0.07    0.02
   8   0   6    0.07    0.01
  -9   0  -6    0.14    0.03
  -9   1   6    0.20    0.03
  -9   1   6    0.26    0.02
   8  -1  -6   -0.01    0.02
   8  -1  -6    0.02    0.02
  -8   1   6    0.00    0.01
  -8   1   6   -0.02    0.01
   7  -1  -6    0.23    0.04
   7  -1  -6    0.32    0.05
  -7   1   6    0.26    0.04
  -7   1   6    0.24    0.04
   6  -1  -6    0.50    0.06
   6  -1  -6    0.52    0.07
   6  -1  -6    0.40    0.07
   6  -1  -6    0.39    0.07
  -6   1   6    0.43    0.06
   5  -1  -6    0.21    0.05
   5  -1  -6    0.18    0.07
   5  -1  -6    0.20    0.03
  -5   1   6    0.21    0.05
  -5   1   6    0.17    0.03
   4  -1  -6    0.20    0.07
   4  -1  -6    0.28    0.07
   4  -1  -6    0.22    0.06
  -4   1   6    0.17    0.02
  -4   1   6    0.20    0.03
   3  -1  -6    1.11    0.09
   3  -1  -6    1.01    0.13
   3  -1  -6    0.92    0.13
   3  -1  -6    0.92    0.12
   3  -1  -6    1.08    0.11
  -3   1   6    1.07    0.08
   2  -1  -6    2.86    0.22
   2  -1  -6    2.69    0.20
   2  -1  -6    2.82    0.22
   2  -1  -6    2.68    0.22
   2  -1  -6    2.88    0.23
  -2   1   6    2.68    0.19
   1  -1  -6    0.00    0.05
   1  -1  -6    0.10    0.06
   1  -1  -6    0.16    0.08
   1  -1  -6    0.01    0.06
   1  -1  -6    0.03    0.03
   1  -1  -6   -0.02    0.06
  -1   1   6    0.01    0.02
  -1   1   6    0.01    0.04
   0  -1  -6    3.19    0.26
   0  -1  -6    3.31    0.26
   0  -1  -6    3.37    0.26
   0  -1  -6    3.29    0.24
   0  -1  -6    3.23    0.26
   0   1   6    3.61    0.25
   0   1   6    3.71    0.24
   0   1   6    2.97    0.23
  -1  -1  -6    0.21    0.07
  -1  -1  -6    0.26    0.07
  -1  -1  -6    0.29    0.13
  -1  -1  -6    0.52    0.07
  -1  -1  -6    0.34    0.08
  -1  -1  -6    0.20    0.07
  -1  -1  -6    0.33    0.04
   1   1   6    0.30    0.09
   1   1   6    0.25    0.03
   1   1   6    0.28    0.04
  -2  -1  -6    0.06    0.07
  -2  -1  -6   -0.03    0.06
  -2  -1  -6    0.03    0.06
  -2  -1  -6    0.00    0.06
  -2  -1  -6    0.10    0.06
  -2  -1  -6    0.09    0.03
  -2  -1  -6    0.01    0.03
   2   1   6    0.05    0.02
   2   1   6    0.07    0.05
   2   1   6    0.01    0.03
   2   1   6    0.03    0.04
  -3  -1  -6    5.30    0.40
  -3  -1  -6    5.28    0.39
  -3  -1  -6    5.12    0.39
  -3  -1  -6    5.35    0.38
  -3  -1  -6    5.84    0.38
  -3  -1  -6    5.04    0.39
  -3  -1  -6    5.52    0.41
  -3  -1  -6    5.42    0.38
   3   1   6    4.77    0.38
   3   1   6    5.78    0.38
   3   1   6    5.86    0.38
   3   1   6    5.45    0.37
   3   1   6    5.41    0.38
  -4  -1  -6    0.88    0.11
  -4  -1  -6    0.94    0.09
  -4  -1  -6    1.00    0.08
  -4  -1  -6    0.75    0.10
  -4  -1  -6    0.82    0.13
  -4  -1  -6    0.79    0.11
   4   1   6    0.97    0.09
   4   1   6    0.96    0.07
   4   1   6    0.95    0.08
   4   1   6    1.02    0.10
   4   1   6    0.84    0.07
  -5  -1  -6    0.02    0.05
  -5  -1  -6    0.02    0.04
  -5  -1  -6   -0.04    0.04
  -5  -1  -6   -0.01    0.02
   5   1   6    0.01    0.04
   5   1   6    0.02    0.02
   5   1   6    0.00    0.02
   5   1   6   -0.02    0.03
   5   1   6    0.03    0.03
  -6  -1  -6    0.86    0.09
  -6  -1  -6    0.71    0.07
   6   1   6    0.80    0.07
   6   1   6    0.80    0.08
   6   1   6    0.82    0.09
   6   1   6    0.91    0.08
  -7  -1  -6    0.07    0.02
  -7  -1  -6    0.12    0.04
  -7  -1  -6    0.14    0.03
   7   1   6    0.08    0.05
   7   1   6    0.13    0.03
   7   1   6    0.11    0.02
   7   1   6    0.12    0.04
  -8  -1  -6    0.03    0.02
  -8  -1  -6   -0.03    0.03
  -8  -1  -6    0.00    0.01
  -8  -1  -6    0.01    0.02
   8   1   6    0.00    0.02
   8   1   6    0.00    0.01
   8   1   6   -0.02    0.04
  -9  -1  -6    0.32    0.03
  -9  -1  -6    0.35    0.03
   9   1   6    0.35    0.04
   9   1   6    0.44    0.03
  -9   2   6    0.18    0.02
  -9   2   6    0.13    0.02
  -8   2   6    0.04    0.01
  -8   2   6    0.01    0.01
   7  -2  -6    0.02    0.03
  -7   2   6    0.00    0.02
  -7   2   6   -0.01    0.02
   6  -2  -6    0.87    0.08
   6  -2  -6    0.60    0.11
   6  -2  -6    0.85    0.08
  -6   2   6    0.68    0.08
  -6   2   6    0.88    0.07
   5  -2  -6    0.04    0.09
   5  -2  -6    0.05    0.04
   5  -2  -6    0.03    0.07
  -5   2   6    0.05    0.02
  -5   2   6    0.02    0.03
   4  -2  -6    0.03    0.06
   4  -2  -6   -0.04    0.04
   4  -2  -6    0.00    0.03
   4  -2  -6    0.03    0.06
  -4   2   6    0.00    0.03
   3  -2  -6    2.15    0.18
   3  -2  -6    2.21    0.18
   3  -2  -6    2.16    0.15
   3  -2  -6    1.86    0.17
  -3   2   6    2.09    0.16
  -3   2   6    1.99    0.14
   2  -2  -6    0.63    0.08
   2  -2  -6    0.70    0.12
   2  -2  -6    0.74    0.12
   2  -2  -6    0.80    0.07
   2  -2  -6    0.96    0.10
  -2   2   6    0.80    0.06
  -2   2   6    0.80    0.08
   1  -2  -6    0.60    0.08
   1  -2  -6    0.64    0.10
   1  -2  -6    0.59    0.09
   1  -2  -6    0.50    0.08
   1  -2  -6    0.68    0.07
   1  -2  -6    0.63    0.11
  -1   2   6    0.49    0.10
  -1   2   6    0.55    0.05
   0  -2  -6    3.23    0.23
   0  -2  -6    3.33    0.25
   0  -2  -6    3.16    0.26
   0  -2  -6    2.95    0.26
   0  -2  -6    3.09    0.25
   0  -2  -6    3.17    0.26
   0   2   6    3.05    0.23
   0   2   6    3.35    0.23
   0   2   6    3.54    0.23
   0   2   6    3.42    0.25
  -1  -2  -6    1.14    0.13
  -1  -2  -6    1.31    0.17
  -1  -2  -6    1.16    0.13
  -1  -2  -6    1.19    0.14
  -1  -2  -6    1.22    0.10
  -1  -2  -6    1.09    0.14
   1   2   6    1.26    0.13
   1   2   6    1.14    0.09
  -2  -2  -6    0.40    0.07
  -2  -2  -6    0.40    0.07
  -2  -2  -6    0.42    0.08
  -2  -2  -6    0.55    0.08
  -2  -2  -6    0.46    0.06
  -2  -2  -6    0.42    0.08
   2   2   6    0.49    0.07
   2   2   6    0.51    0.10
   2   2   6    0.43    0.04
   2   2   6    0.40    0.07
   2   2   6    0.32    0.05
  -3  -2  -6    1.59    0.16
  -3  -2  -6    1.64    0.15
  -3  -2  -6    1.71    0.17
  -3  -2  -6    1.80    0.16
  -3  -2  -6    1.62    0.16
  -3  -2  -6    1.64    0.13
  -3  -2  -6    1.67    0.13
  -3  -2  -6    1.80    0.14
   3   2   6    1.76    0.14
   3   2   6    1.63    0.12
   3   2   6    1.84    0.13
   3   2   6    1.54    0.13
   3   2   6    1.63    0.12
  -4  -2  -6    1.17    0.12
  -4  -2  -6    1.37    0.10
  -4  -2  -6    1.08    0.14
  -4  -2  -6    1.24    0.14
   4   2   6    1.34    0.11
   4   2   6    1.31    0.10
   4   2   6    1.41    0.11
   4   2   6    1.23    0.10
   4   2   6    1.36    0.12
  -5  -2  -6    0.07    0.04
  -5  -2  -6    0.12    0.05
  -5  -2  -6    0.05    0.02
   5   2   6    0.05    0.03
   5   2   6    0.09    0.02
   5   2   6    0.05    0.03
   5   2   6    0.07    0.02
   5   2   6    0.05    0.04
  -6  -2  -6    0.48    0.05
  -6  -2  -6    0.57    0.07
  -6  -2  -6    0.52    0.09
   6   2   6    0.51    0.08
   6   2   6    0.58    0.05
   6   2   6    0.54    0.07
   6   2   6    0.56    0.06
   6   2   6    0.53    0.06
  -7  -2  -6    0.15    0.04
  -7  -2  -6    0.10    0.02
  -7  -2  -6    0.16    0.03
   7   2   6    0.15    0.02
   7   2   6    0.09    0.03
   7   2   6    0.13    0.03
  -8  -2  -6    0.08    0.02
  -8  -2  -6    0.04    0.01
   8   2   6    0.11    0.04
   8   2   6    0.06    0.02
   8   2   6    0.03    0.02
  -9  -2  -6    0.18    0.02
  -9  -2  -6    0.19    0.03
   9   2   6    0.21    0.03
   9   2   6    0.16    0.02
  -9   3   6    0.24    0.03
  -9   3   6    0.34    0.03
  -8   3   6    0.01    0.01
  -8   3   6    0.00    0.01
  -7   3   6    0.02    0.02
   6  -3  -6    0.78    0.09
  -6   3   6    0.85    0.08
   5  -3  -6    0.10    0.09
   5  -3  -6    0.20    0.05
   5  -3  -6    0.33    0.07
  -5   3   6    0.23    0.05
  -5   3   6    0.12    0.03
   4  -3  -6    0.23    0.06
   4  -3  -6    0.24    0.06
   4  -3  -6    0.26    0.05
  -4   3   6    0.20    0.03
  -4   3   6    0.17    0.04
   3  -3  -6    5.85    0.41
   3  -3  -6    5.89    0.42
   3  -3  -6    5.71    0.40
   3  -3  -6    5.77    0.42
  -3   3   6    5.81    0.40
  -3   3   6    5.42    0.40
   2  -3  -6    0.72    0.08
   2  -3  -6    0.66    0.11
  -2   3   6    0.49    0.07
  -2   3   6    0.68    0.05
  -2   3   6    0.73    0.13
   1  -3  -6    0.64    0.09
   1  -3  -6    0.74    0.13
   1  -3  -6    0.68    0.10
   1  -3  -6    0.66    0.11
  -1   3   6    0.60    0.05
  -1   3   6    0.52    0.07
  -1   3   6    0.68    0.12
   0  -3  -6   10.74    0.74
   0  -3  -6    9.45    0.75
   0  -3  -6   10.78    0.73
   0  -3  -6   10.39    0.73
   0  -3  -6    9.12    0.75
   0  -3  -6   10.67    0.74
   0   3   6   10.95    0.74
   0   3   6   12.07    0.75
   0   3   6   10.25    0.72
   0   3   6   10.54    0.73
  -1  -3  -6    0.37    0.07
  -1  -3  -6    0.18    0.10
  -1  -3  -6    0.31    0.09
  -1  -3  -6    0.36    0.04
  -1  -3  -6    0.35    0.06
  -1  -3  -6    0.51    0.09
   1   3   6    0.49    0.09
   1   3   6    0.36    0.07
   1   3   6    0.36    0.04
   1   3   6    0.34    0.04
  -2  -3  -6    0.15    0.06
  -2  -3  -6    0.14    0.06
  -2  -3  -6    0.10    0.08
  -2  -3  -6    0.13    0.03
  -2  -3  -6    0.11    0.06
  -2  -3  -6    0.22    0.07
  -2  -3  -6    0.16    0.07
  -2  -3  -6    0.17    0.05
  -2  -3  -6    0.05    0.10
   2   3   6    0.12    0.02
   2   3   6    0.20    0.08
   2   3   6    0.14    0.02
  -3  -3  -6    4.89    0.37
  -3  -3  -6    5.03    0.35
  -3  -3  -6    4.72    0.36
  -3  -3  -6    5.20    0.37
  -3  -3  -6    4.85    0.37
  -3  -3  -6    4.85    0.35
  -3  -3  -6    5.04    0.37
   3   3   6    5.04    0.35
   3   3   6    5.33    0.35
   3   3   6    5.06    0.36
  -4  -3  -6    0.32    0.07
  -4  -3  -6    0.37    0.07
  -4  -3  -6    0.40    0.07
  -4  -3  -6    0.34    0.06
  -4  -3  -6    0.19    0.07
  -4  -3  -6    0.30    0.09
  -4  -3  -6    0.35    0.06
  -4  -3  -6    0.36    0.04
   4   3   6    0.36    0.04
   4   3   6    0.35    0.06
   4   3   6    0.41    0.06
   4   3   6    0.38    0.04
   4   3   6    0.32    0.04
  -5  -3  -6    0.13    0.03
  -5  -3  -6    0.13    0.06
  -5  -3  -6    0.09    0.04
   5   3   6    0.17    0.02
   5   3   6    0.10    0.04
   5   3   6    0.11    0.02
   5   3   6    0.16    0.05
   5   3   6    0.08    0.03
  -6  -3  -6    0.23    0.05
  -6  -3  -6    0.21    0.04
  -6  -3  -6    0.17    0.03
   6   3   6    0.18    0.04
   6   3   6    0.19    0.05
   6   3   6    0.21    0.02
   6   3   6    0.27    0.04
   6   3   6    0.28    0.04
  -7  -3  -6    0.07    0.04
  -7  -3  -6    0.14    0.04
  -7  -3  -6    0.09    0.02
   7   3   6    0.03    0.03
   7   3   6    0.06    0.07
   7   3   6    0.14    0.03
   7   3   6    0.14    0.02
  -8  -3  -6    0.05    0.02
  -8  -3  -6    0.10    0.03
   8   3   6    0.09    0.04
   8   3   6    0.12    0.03
   8   3   6    0.07    0.02
  -9  -3  -6    0.19    0.02
  -9  -3  -6    0.24    0.03
   9   3   6    0.23    0.02
   9   3   6    0.25    0.04
  -8   4   6    0.01    0.02
  -8   4   6    0.03    0.01
  -7   4   6    0.00    0.02
  -7   4   6    0.02    0.02
  -6   4   6    0.36    0.05
  -6   4   6    0.30    0.06
   5  -4  -6    0.14    0.07
  -5   4   6    0.01    0.03
  -5   4   6    0.03    0.03
   4  -4  -6    0.41    0.07
  -4   4   6    0.38    0.05
  -4   4   6    0.41    0.06
   3  -4  -6    4.62    0.35
   3  -4  -6    5.04    0.34
  -3   4   6    4.79    0.34
  -3   4   6    4.68    0.34
   2  -4  -6    0.05    0.05
   2  -4  -6    0.11    0.04
   2  -4  -6    0.02    0.04
  -2   4   6    0.11    0.09
   1  -4  -6    0.73    0.09
   1  -4  -6    0.82    0.14
   1  -4  -6    1.00    0.11
   1  -4  -6    0.58    0.09
   1  -4  -6    0.80    0.10
  -1   4   6    0.76    0.13
  -1   4   6    0.73    0.06
  -1   4   6    0.61    0.08
  -1   4   6    0.78    0.06
   0  -4  -6    7.94    0.55
   0  -4  -6    8.02    0.56
   0  -4  -6    7.22    0.57
   0   4   6    8.18    0.55
   0   4   6    8.18    0.55
   0   4   6    8.17    0.55
   0   4   6    7.12    0.61
   0   4   6    8.25    0.57
  -1  -4  -6    0.80    0.15
  -1  -4  -6    0.97    0.11
  -1  -4  -6    0.94    0.10
  -1  -4  -6    0.64    0.07
  -1  -4  -6    0.60    0.10
  -1  -4  -6    0.90    0.11
  -1  -4  -6    0.77    0.11
   1   4   6    0.79    0.06
   1   4   6    0.62    0.06
   1   4   6    0.74    0.12
   1   4   6    0.73    0.08
   1   4   6    1.09    0.15
  -2  -4  -6    4.94    0.33
  -2  -4  -6    4.20    0.34
  -2  -4  -6    4.78    0.32
  -2  -4  -6    4.46    0.33
  -2  -4  -6    4.19    0.33
  -2  -4  -6    4.32    0.33
  -2  -4  -6    4.46    0.35
   2   4   6    4.75    0.31
   2   4   6    4.27    0.32
   2   4   6    4.63    0.35
   2   4   6    4.45    0.31
  -3  -4  -6    9.77    0.65
  -3  -4  -6    9.14    0.66
  -3  -4  -6    9.47    0.64
  -3  -4  -6    9.55    0.65
  -3  -4  -6    9.15    0.64
  -3  -4  -6    8.91    0.64
   3   4   6    9.47    0.64
   3   4   6    8.37    0.64
   3   4   6    8.79    0.63
  -4  -4  -6    0.05    0.03
  -4  -4  -6    0.11    0.06
  -4  -4  -6    0.09    0.06
  -4  -4  -6    0.05    0.03
  -4  -4  -6    0.14    0.08
  -4  -4  -6   -0.02    0.06
  -4  -4  -6    0.06    0.05
  -4  -4  -6    0.01    0.08
   4   4   6    0.06    0.04
   4   4   6    0.04    0.02
   4   4   6   -0.01    0.05
   4   4   6    0.07    0.04
   4   4   6    0.05    0.02
   4   4   6    0.06    0.02
  -5  -4  -6    0.03    0.03
  -5  -4  -6    0.04    0.04
  -5  -4  -6    0.07    0.05
   5   4   6    0.00    0.03
   5   4   6    0.05    0.03
   5   4   6    0.08    0.02
   5   4   6   -0.02    0.04
   5   4   6    0.11    0.05
   5   4   6    0.07    0.02
  -6  -4  -6    0.80    0.07
  -6  -4  -6    0.79    0.10
  -6  -4  -6    0.92    0.09
   6   4   6    0.92    0.10
   6   4   6    1.03    0.08
   6   4   6    0.87    0.10
   6   4   6    0.76    0.09
   6   4   6    0.92    0.07
   6   4   6    0.87    0.07
  -7  -4  -6    0.40    0.07
  -7  -4  -6    0.49    0.06
  -7  -4  -6    0.43    0.05
   7   4   6    0.57    0.08
   7   4   6    0.50    0.04
   7   4   6    0.41    0.08
   7   4   6    0.51    0.06
   7   4   6    0.40    0.04
  -8  -4  -6    0.14    0.03
   8   4   6    0.16    0.02
   8   4   6    0.15    0.03
  -9  -4  -6    0.20    0.02
  -9  -4  -6    0.25    0.03
   9   4   6    0.27    0.03
   9   4   6    0.17    0.03
  -7   5   6    0.05    0.02
  -6   5   6    0.77    0.08
  -6   5   6    0.87    0.08
   5  -5  -6    1.18    0.14
  -5   5   6    1.46    0.11
  -5   5   6    1.36    0.11
   4  -5  -6    1.12    0.13
  -4   5   6    1.21    0.10
  -4   5   6    1.37    0.10
   3  -5  -6    2.87    0.24
  -3   5   6    3.63    0.24
  -3   5   6    3.64    0.24
   2  -5  -6    0.06    0.03
   2  -5  -6    0.06    0.04
  -2   5   6    0.07    0.02
  -2   5   6    0.02    0.03
   1  -5  -6    0.21    0.03
   1  -5  -6    0.26    0.05
   1  -5  -6    0.17    0.05
  -1   5   6    0.20    0.04
  -1   5   6    0.23    0.03
  -1   5   6    0.24    0.03
   0  -5  -6    7.90    0.57
   0  -5  -6    8.08    0.58
   0  -5  -6    8.12    0.58
   0  -5  -6    7.84    0.59
   0   5   6    8.57    0.57
   0   5   6    8.48    0.57
   0   5   6    8.21    0.56
  -1  -5  -6    1.46    0.11
  -1  -5  -6    1.22    0.13
  -1  -5  -6    1.32    0.13
  -1  -5  -6    1.50    0.13
  -1  -5  -6    1.41    0.17
   1   5   6    1.35    0.12
   1   5   6    1.49    0.11
   1   5   6    1.59    0.10
  -2  -5  -6    0.32    0.09
  -2  -5  -6    0.35    0.06
  -2  -5  -6    0.37    0.06
  -2  -5  -6    0.38    0.06
  -2  -5  -6    0.34    0.06
   2   5   6    0.34    0.04
   2   5   6    0.27    0.05
   2   5   6    0.33    0.04
  -3  -5  -6    4.85    0.34
  -3  -5  -6    4.75    0.37
  -3  -5  -6    4.76    0.34
  -3  -5  -6    4.69    0.33
  -3  -5  -6    4.69    0.34
  -3  -5  -6    4.73    0.34
  -3  -5  -6    3.97    0.33
   3   5   6    4.86    0.34
   3   5   6    4.91    0.33
   3   5   6    4.70    0.33
   3   5   6    4.91    0.33
  -4  -5  -6    0.18    0.06
  -4  -5  -6    0.21    0.09
  -4  -5  -6    0.18    0.03
  -4  -5  -6    0.22    0.04
  -4  -5  -6    0.12    0.04
  -4  -5  -6    0.25    0.06
   4   5   6    0.14    0.04
   4   5   6    0.22    0.03
  -5  -5  -6    0.24    0.04
  -5  -5  -6    0.18    0.09
  -5  -5  -6    0.30    0.04
   5   5   6    0.19    0.05
   5   5   6    0.30    0.03
   5   5   6    0.28    0.04
   5   5   6    0.22    0.03
  -6  -5  -6    0.19    0.05
  -6  -5  -6    0.17    0.03
  -6  -5  -6    0.19    0.04
   6   5   6    0.21    0.04
   6   5   6    0.15    0.02
   6   5   6    0.20    0.03
   6   5   6    0.13    0.04
  -7  -5  -6    0.14    0.02
  -7  -5  -6    0.14    0.04
   7   5   6    0.19    0.04
   7   5   6    0.15    0.02
   7   5   6    0.15    0.02
   7   5   6    0.07    0.04
  -8  -5  -6    0.08    0.02
  -8  -5  -6    0.10    0.03
   8   5   6    0.11    0.02
  -9  -5  -6    0.25    0.03
  -9  -5  -6    0.21    0.02
   9   5   6    0.21    0.02
  -7   6   6    0.05    0.02
  -6   6   6    0.67    0.06
  -5   6   6    0.07    0.02
   4  -6  -6    0.04    0.06
   3  -6  -6    0.44    0.07
  -3   6   6    0.63    0.06
   2  -6  -6    0.03    0.04
   2  -6  -6    0.01    0.02
  -2   6   6    0.03    0.02
  -2   6   6    0.05    0.03
   1  -6  -6    0.87    0.15
   1  -6  -6    0.81    0.08
   1  -6  -6    0.93    0.10
   1  -6  -6    0.84    0.09
  -1   6   6    1.03    0.08
  -1   6   6    0.87    0.07
  -1   6   6    0.91    0.07
   0  -6  -6    1.32    0.12
   0  -6  -6    1.25    0.12
   0  -6  -6    1.14    0.17
   0  -6  -6    1.26    0.10
   0   6   6    1.34    0.09
   0   6   6    1.32    0.11
   0   6   6    1.43    0.10
  -1  -6  -6    0.79    0.09
  -1  -6  -6    0.80    0.07
  -1  -6  -6    0.79    0.10
  -1  -6  -6    0.79    0.14
   1   6   6    0.62    0.09
   1   6   6    0.84    0.06
   1   6   6    0.77    0.07
  -2  -6  -6    0.18    0.03
  -2  -6  -6    0.14    0.05
  -2  -6  -6    0.22    0.05
  -2  -6  -6    0.15    0.05
  -2  -6  -6    0.12    0.08
   2   6   6    0.17    0.02
   2   6   6    0.15    0.02
  -3  -6  -6    1.23    0.12
  -3  -6  -6    1.20    0.11
  -3  -6  -6    1.21    0.13
  -3  -6  -6    1.12    0.17
  -3  -6  -6    1.32    0.10
   3   6   6    1.22    0.11
   3   6   6    1.34    0.10
   3   6   6    1.26    0.09
   3   6   6    1.29    0.09
  -4  -6  -6    0.35    0.05
  -4  -6  -6    0.29    0.09
  -4  -6  -6    0.38    0.06
  -4  -6  -6    0.33    0.05
  -4  -6  -6    0.28    0.06
  -4  -6  -6    0.33    0.09
  -4  -6  -6    0.33    0.05
   4   6   6    0.33    0.04
   4   6   6    0.32    0.05
   4   6   6    0.30    0.04
  -5  -6  -6    0.16    0.08
  -5  -6  -6    0.20    0.03
  -5  -6  -6    0.11    0.03
  -5  -6  -6    0.09    0.03
   5   6   6    0.10    0.02
   5   6   6    0.12    0.02
   5   6   6    0.06    0.04
  -6  -6  -6    0.54    0.09
  -6  -6  -6    0.49    0.05
  -6  -6  -6    0.54    0.07
  -6  -6  -6    0.43    0.06
   6   6   6    0.37    0.05
   6   6   6    0.43    0.04
   6   6   6    0.46    0.04
  -7  -6  -6    0.02    0.02
  -7  -6  -6    0.05    0.03
   7   6   6    0.03    0.01
  -8  -6  -6    0.04    0.01
  -8  -6  -6    0.08    0.02
   8   6   6    0.07    0.01
  -9  -6  -6    0.54    0.04
  -9  -6  -6    0.55    0.04
  -7   7   6    0.04    0.01
  -6   7   6    0.71    0.06
  -5   7   6    0.16    0.03
   4  -7  -6   -0.02    0.03
  -4   7   6    0.07    0.02
   3  -7  -6    0.80    0.08
   3  -7  -6    0.79    0.07
   2  -7  -6    0.01    0.02
   2  -7  -6    0.01    0.03
  -2   7   6    0.02    0.02
  -2   7   6    0.07    0.03
   1  -7  -6    0.45    0.05
   1  -7  -6    0.48    0.09
   1  -7  -6    0.51    0.07
   1  -7  -6    0.51    0.07
  -1   7   6    0.51    0.04
  -1   7   6    0.53    0.05
  -1   7   6    0.64    0.06
   0  -7  -6    0.59    0.06
   0  -7  -6    0.60    0.08
   0  -7  -6    0.77    0.10
   0  -7  -6    0.65    0.08
   0   7   6    0.63    0.07
   0   7   6    0.65    0.05
   0   7   6    0.68    0.06
  -1  -7  -6    0.24    0.05
  -1  -7  -6    0.30    0.05
  -1  -7  -6    0.27    0.03
  -1  -7  -6    0.29    0.09
   1   7   6    0.28    0.03
   1   7   6    0.28    0.04
  -2  -7  -6   -0.03    0.08
  -2  -7  -6    0.08    0.05
  -2  -7  -6    0.04    0.03
  -2  -7  -6    0.09    0.04
   2   7   6    0.04    0.02
   2   7   6    0.04    0.02
   2   7   6    0.02    0.02
  -3  -7  -6    0.63    0.07
  -3  -7  -6    0.58    0.08
  -3  -7  -6    0.59    0.06
  -3  -7  -6    0.54    0.09
   3   7   6    0.59    0.05
   3   7   6    0.65    0.06
   3   7   6    0.54    0.05
  -4  -7  -6    2.57    0.20
  -4  -7  -6    2.52    0.19
  -4  -7  -6    2.43    0.23
  -4  -7  -6    2.52    0.18
  -4  -7  -6    2.54    0.20
   4   7   6    2.63    0.18
   4   7   6    2.65    0.18
   4   7   6    2.54    0.19
  -5  -7  -6    0.08    0.02
  -5  -7  -6    0.13    0.03
  -5  -7  -6    0.10    0.03
  -5  -7  -6    0.18    0.08
   5   7   6    0.07    0.02
   5   7   6    0.10    0.02
   5   7   6    0.11    0.04
  -6  -7  -6    1.49    0.22
  -6  -7  -6    1.65    0.12
  -6  -7  -6    1.61    0.11
   6   7   6    1.37    0.11
   6   7   6    1.62    0.11
  -7  -7  -6    0.08    0.03
  -7  -7  -6    0.06    0.02
   7   7   6    0.05    0.01
  -8  -7  -6    0.03    0.01
  -8  -7  -6    0.04    0.02
   8   7   6    0.03    0.01
  -9  -7  -6    0.20    0.03
  -9  -7  -6    0.15    0.02
  -6   8   6    0.47    0.04
  -5   8   6    0.21    0.03
   3  -8  -6    0.88    0.07
   3  -8  -6    0.85    0.08
   2  -8  -6    0.23    0.04
   2  -8  -6    0.47    0.10
   2  -8  -6    0.23    0.04
   2  -8  -6    0.29    0.04
  -2   8   6    0.31    0.03
   1  -8  -6    0.04    0.04
   1  -8  -6    0.07    0.08
   1  -8  -6    0.04    0.04
  -1   8   6    0.06    0.03
  -1   8   6    0.02    0.01
  -1   8   6    0.00    0.02
   0  -8  -6    1.53    0.13
   0  -8  -6    1.65    0.18
   0  -8  -6    1.56    0.13
   0  -8  -6    1.56    0.12
   0   8   6    1.71    0.12
   0   8   6    1.80    0.13
  -1  -8  -6   -0.01    0.04
  -1  -8  -6    0.02    0.04
  -1  -8  -6    0.02    0.07
  -1  -8  -6    0.02    0.02
   1   8   6    0.00    0.02
   1   8   6    0.01    0.01
  -2  -8  -6    0.06    0.08
  -2  -8  -6    0.03    0.04
  -2  -8  -6    0.05    0.05
  -2  -8  -6    0.05    0.02
   2   8   6    0.05    0.01
   2   8   6    0.03    0.02
   2   8   6    0.02    0.02
  -3  -8  -6    5.87    0.40
  -3  -8  -6    5.74    0.43
  -3  -8  -6    5.97    0.41
  -3  -8  -6    5.76    0.41
  -3  -8  -6    5.57    0.41
   3   8   6    6.03    0.40
   3   8   6    5.75    0.40
   3   8   6    5.45    0.40
  -4  -8  -6    1.58    0.12
  -4  -8  -6    1.55    0.12
  -4  -8  -6    1.68    0.14
  -4  -8  -6    1.69    0.18
   4   8   6    1.67    0.12
   4   8   6    1.59    0.12
  -5  -8  -6    0.03    0.03
  -5  -8  -6    0.04    0.02
   5   8   6    0.02    0.01
   5   8   6    0.03    0.01
  -6  -8  -6    1.09    0.08
  -6  -8  -6    0.99    0.08
   6   8   6    1.11    0.08
   6   8   6    0.99    0.07
  -7  -8  -6    0.11    0.02
  -7  -8  -6    0.11    0.02
   7   8   6    0.11    0.02
  -8  -8  -6    0.06    0.01
  -8  -8  -6    0.07    0.02
   8   8   6    0.07    0.01
   3  -9  -6    0.23    0.03
   3  -9  -6    0.20    0.03
   2  -9  -6    0.02    0.03
   2  -9  -6    0.01    0.02
   2  -9  -6    0.00    0.03
  -2   9   6    0.01    0.01
   1  -9  -6    0.20    0.02
   1  -9  -6    0.20    0.04
   1  -9  -6    0.25    0.04
  -1   9   6    0.19    0.03
   0  -9  -6    1.46    0.11
   0  -9  -6    1.45    0.12
   0  -9  -6    1.52    0.13
   0   9   6    1.58    0.11
   0   9   6    1.52    0.11
   0   9   6    1.65    0.12
  -1  -9  -6    0.07    0.04
  -1  -9  -6    0.10    0.02
  -1  -9  -6    0.17    0.08
  -1  -9  -6    0.08    0.04
   1   9   6    0.10    0.02
   1   9   6    0.09    0.01
  -2  -9  -6    0.56    0.05
  -2  -9  -6    0.52    0.07
  -2  -9  -6    0.52    0.08
  -2  -9  -6    0.56    0.10
   2   9   6    0.54    0.04
   2   9   6    0.52    0.04
   2   9   6    0.55    0.05
  -3  -9  -6    0.64    0.05
  -3  -9  -6    0.72    0.06
  -3  -9  -6    0.59    0.08
  -3  -9  -6    0.69    0.09
   3   9   6    0.55    0.05
   3   9   6    0.62    0.05
  -4  -9  -6    0.23    0.06
  -4  -9  -6    0.29    0.04
  -4  -9  -6    0.26    0.04
  -4  -9  -6    0.22    0.03
   4   9   6    0.26    0.03
   4   9   6    0.26    0.03
  -5  -9  -6    0.01    0.02
  -5  -9  -6    0.07    0.02
   5   9   6    0.03    0.01
   5   9   6    0.04    0.01
  -6  -9  -6    0.41    0.04
  -6  -9  -6    0.40    0.03
   6   9   6    0.39    0.03
   6   9   6    0.39    0.03
  -7  -9  -6    0.06    0.01
  -7  -9  -6    0.05    0.02
   7   9   6    0.04    0.01
   7   9   6    0.05    0.01
   3 -10  -6    0.16    0.02
   2 -10  -6    0.11    0.02
   2 -10  -6    0.08    0.02
   1 -10  -6    0.01    0.02
   1 -10  -6    0.03    0.01
   0 -10  -6    0.94    0.09
   0 -10  -6    0.97    0.09
   0 -10  -6    1.03    0.08
   0  10   6    1.03    0.07
   0  10   6    1.10    0.08
  -1 -10  -6    0.07    0.04
  -1 -10  -6    0.07    0.03
  -1 -10  -6    0.07    0.02
   1  10   6    0.05    0.02
   1  10   6    0.06    0.01
   1  10   6    0.05    0.01
  -2 -10  -6    0.02    0.02
  -2 -10  -6    0.00    0.02
  -2 -10  -6   -0.01    0.03
   2  10   6    0.00    0.01
   2  10   6    0.01    0.01
  -3 -10  -6    0.78    0.06
  -3 -10  -6    0.87    0.07
  -3 -10  -6    0.77    0.06
   3  10   6    0.76    0.06
   3  10   6    0.67    0.05
  -4 -10  -6    0.25    0.03
   4  10   6    0.23    0.02
   4  10   6    0.23    0.02
  -5 -10  -6   -0.02    0.01
  -5 -10  -6    0.02    0.01
   5  10   6    0.00    0.01
   5  10   6    0.01    0.01
  -6 -10  -6    0.34    0.03
  -6 -10  -6    0.32    0.03
   6  10   6    0.26    0.02
   6  10   6    0.28    0.02
   1 -11  -6    0.00    0.01
  -1  11   6    0.03    0.01
   0 -11  -6    0.39    0.03
   0 -11  -6    0.36    0.03
   0  11   6    0.44    0.03
   0  11   6    0.35    0.03
  -1 -11  -6    0.02    0.01
  -1 -11  -6    0.02    0.01
   1  11   6    0.01    0.01
  -2 -11  -6    0.01    0.01
  -2 -11  -6   -0.01    0.01
   2  11   6    0.01    0.01
   2  11   6    0.00    0.00
  -3 -11  -6    0.42    0.03
   3  11   6    0.36    0.03
   3  11   6    0.35    0.03
  -4 -11  -6    0.01    0.01
   4  11   6    0.00    0.01
   4  11   6    0.02    0.00
  -2  -5   7    0.06    0.01
   1   5  -7    0.00    0.01
  -1  -5   7    0.00    0.01
   0   5  -7    0.08    0.01
   0  -5   7    0.11    0.02
  -1   5  -7    0.00    0.01
   1  -5   7   -0.01    0.01
   5   4  -7    0.02    0.01
   4   4  -7    0.02    0.01
  -4  -4   7    0.05    0.01
   3   4  -7    0.38    0.04
  -3  -4   7    0.45    0.03
   2   4  -7    0.07    0.02
   2   4  -7    0.10    0.02
  -2  -4   7    0.12    0.01
   1   4  -7    0.25    0.03
   1   4  -7    0.30    0.03
  -1  -4   7    0.31    0.02
   0   4  -7    0.07    0.02
   0  -4   7    0.11    0.01
  -1   4  -7    0.02    0.03
  -1   4  -7    0.02    0.01
   1  -4   7    0.05    0.01
  -2   4  -7    0.01    0.02
  -2   4  -7    0.00    0.03
  -2   4  -7    0.00    0.01
   2  -4   7    0.01    0.01
  -3   4  -7    0.17    0.04
  -3   4  -7    0.19    0.03
  -3   4  -7    0.20    0.02
  -4   4  -7    0.04    0.02
  -4   4  -7    0.03    0.01
  -4   4  -7    0.04    0.02
   6   3  -7    0.12    0.02
   6   3  -7    0.14    0.02
  -6  -3   7    0.17    0.02
   5   3  -7   -0.02    0.03
   5   3  -7    0.01    0.02
  -5  -3   7    0.01    0.01
  -5  -3   7    0.02    0.01
   4   3  -7    0.10    0.03
   4   3  -7    0.10    0.02
   3   3  -7    0.86    0.07
   3   3  -7    0.89    0.09
  -3  -3   7    1.05    0.07
   2   3  -7    0.22    0.03
   2   3  -7    0.13    0.02
   2   3  -7    0.16    0.06
   1   3  -7    0.13    0.06
   1   3  -7   -0.02    0.02
  -1  -3   7    0.00    0.02
  -1  -3   7    0.00    0.01
   0   3  -7    0.18    0.07
   0   3  -7    0.20    0.04
   0   3  -7    0.18    0.03
   0  -3   7    0.20    0.02
  -1   3  -7    0.11    0.04
  -1   3  -7    0.06    0.03
  -1   3  -7   -0.02    0.06
   1  -3   7    0.08    0.02
  -2   3  -7    0.15    0.04
  -2   3  -7    0.07    0.06
  -2   3  -7    0.08    0.02
   2  -3   7    0.10    0.01
  -3   3  -7    0.41    0.06
  -3   3  -7    0.42    0.04
   3  -3   7    0.44    0.04
  -4   3  -7    0.01    0.03
  -4   3  -7   -0.01    0.01
  -5   3  -7    0.03    0.02
  -5   3  -7    0.02    0.01
  -5   3  -7    0.00    0.02
  -6   3  -7    0.02    0.01
   7   2  -7    0.01    0.01
   7   2  -7    0.02    0.01
  -7  -2   7    0.03    0.01
   6   2  -7    0.33    0.05
   6   2  -7    0.31    0.04
  -6  -2   7    0.36    0.04
  -6  -2   7    0.43    0.03
   5   2  -7    0.01    0.05
   5   2  -7   -0.01    0.02
   5   2  -7    0.01    0.03
  -5  -2   7    0.00    0.01
  -5  -2   7   -0.01    0.02
   4   2  -7    0.08    0.05
   4   2  -7    0.03    0.04
   4   2  -7   -0.03    0.03
   4   2  -7    0.02    0.07
  -4  -2   7    0.00    0.02
  -4  -2   7    0.03    0.01
   3   2  -7    0.01    0.05
   3   2  -7    0.04    0.05
   3   2  -7    0.16    0.07
   3   2  -7    0.07    0.03
  -3  -2   7    0.11    0.02
  -3  -2   7    0.13    0.02
   2   2  -7    0.06    0.07
   2   2  -7   -0.03    0.03
   2   2  -7   -0.01    0.05
   2   2  -7   -0.02    0.07
   2   2  -7   -0.06    0.07
  -2  -2   7    0.02    0.01
  -2  -2   7    0.02    0.02
   1   2  -7    0.12    0.03
   1   2  -7    0.12    0.07
   1   2  -7    0.18    0.08
   1   2  -7    0.15    0.06
   1   2  -7    0.16    0.07
   1   2  -7    0.10    0.03
  -1  -2   7    0.13    0.02
  -1  -2   7    0.09    0.04
   0   2  -7    0.82    0.07
   0   2  -7    0.74    0.13
   0   2  -7    0.84    0.09
   0   2  -7    0.74    0.08
   0  -2   7    0.77    0.08
   0  -2   7    0.90    0.06
  -1   2  -7    0.00    0.07
  -1   2  -7    0.05    0.05
  -1   2  -7    0.13    0.07
  -1   2  -7    0.00    0.02
   1  -2   7    0.02    0.01
   1  -2   7    0.05    0.03
  -2   2  -7    0.10    0.05
  -2   2  -7   -0.07    0.07
  -2   2  -7   -0.01    0.02
   2  -2   7    0.02    0.01
   2  -2   7    0.00    0.03
  -3   2  -7    0.16    0.03
  -3   2  -7    0.07    0.06
  -3   2  -7    0.26    0.05
   3  -2   7    0.19    0.03
   3  -2   7    0.23    0.03
  -4   2  -7    0.00    0.02
  -4   2  -7    0.07    0.04
   4  -2   7    0.00    0.01
   4  -2   7    0.02    0.01
  -5   2  -7   -0.02    0.02
  -5   2  -7    0.07    0.03
   5  -2   7    0.01    0.01
  -6   2  -7    0.20    0.02
  -6   2  -7    0.18    0.03
   6  -2   7    0.21    0.02
  -7   2  -7    0.04    0.02
  -7   2  -7    0.03    0.01
  -7   2  -7    0.03    0.02
   7   1  -7    0.07    0.02
  -7  -1   7    0.09    0.01
  -7  -1   7    0.12    0.02
   6   1  -7    0.46    0.06
   6   1  -7    0.42    0.05
  -6  -1   7    0.63    0.05
  -6  -1   7    0.59    0.05
   5   1  -7    0.00    0.02
   5   1  -7   -0.03    0.05
   5   1  -7    0.03    0.04
  -5  -1   7    0.04    0.02
  -5  -1   7    0.02    0.01
   4   1  -7   -0.15    0.08
   4   1  -7    0.06    0.07
   4   1  -7    0.00    0.03
   4   1  -7    0.02    0.04
  -4  -1   7    0.02    0.02
   3   1  -7    0.17    0.05
   3   1  -7    0.17    0.07
   3   1  -7    0.18    0.07
   3   1  -7    0.10    0.03
   3   1  -7    0.18    0.07
  -3  -1   7    0.17    0.03
  -3  -1   7    0.20    0.02
   2   1  -7    0.01    0.07
   2   1  -7   -0.03    0.06
   2   1  -7    0.00    0.05
   2   1  -7    0.03    0.03
   2   1  -7    0.05    0.07
   1   1  -7    0.20    0.07
   1   1  -7    0.13    0.04
   1   1  -7    0.20    0.03
   1   1  -7    0.10    0.06
   1   1  -7    0.22    0.08
   1   1  -7    0.17    0.07
   1   1  -7    0.16    0.06
  -1  -1   7    0.24    0.03
  -1  -1   7    0.19    0.04
   0   1  -7    1.29    0.11
   0   1  -7    1.24    0.13
   0   1  -7    1.23    0.15
   0   1  -7    1.39    0.13
   0   1  -7    1.37    0.15
   0   1  -7    1.10    0.16
   0   1  -7    1.26    0.10
   0  -1   7    1.29    0.09
   0  -1   7    1.53    0.11
  -1   1  -7    0.20    0.07
  -1   1  -7    0.13    0.04
  -1   1  -7    0.12    0.07
  -1   1  -7    0.17    0.03
  -1   1  -7    0.20    0.06
  -1   1  -7    0.21    0.07
   1  -1   7    0.17    0.02
   1  -1   7    0.19    0.04
  -2   1  -7    0.06    0.03
  -2   1  -7    0.17    0.08
  -2   1  -7    0.18    0.07
  -2   1  -7    0.15    0.06
   2  -1   7    0.13    0.04
  -3   1  -7    1.25    0.11
  -3   1  -7    1.15    0.09
  -3   1  -7    0.82    0.14
   3  -1   7    1.07    0.10
   3  -1   7    1.16    0.08
  -4   1  -7   -0.08    0.10
  -4   1  -7    0.10    0.05
  -4   1  -7    0.03    0.02
   4  -1   7    0.04    0.01
   4  -1   7    0.05    0.03
   4  -1   7    0.05    0.02
   4  -1   7    0.07    0.03
  -5   1  -7    0.07    0.02
  -5   1  -7    0.08    0.05
   5  -1   7    0.09    0.02
   5  -1   7    0.09    0.03
  -6   1  -7    0.18    0.04
  -6   1  -7    0.14    0.02
   6  -1   7    0.15    0.03
  -7   1  -7    0.00    0.01
  -7   1  -7    0.00    0.02
   7  -1   7    0.00    0.01
   8   0  -7    0.01    0.01
  -8   0   7    0.01    0.01
  -8   0   7    0.02    0.01
   7   0  -7    0.14    0.02
   7   0  -7    0.12    0.03
  -7   0   7    0.17    0.02
  -7   0   7    0.12    0.02
   6   0  -7    0.32    0.06
   6   0  -7    0.36    0.05
   6   0  -7    0.28    0.05
  -6   0   7    0.39    0.05
   5   0  -7   -0.01    0.03
   5   0  -7    0.03    0.06
   5   0  -7   -0.01    0.04
  -5   0   7   -0.01    0.02
  -5   0   7    0.01    0.01
  -5   0   7    0.01    0.02
   4   0  -7    0.05    0.07
   4   0  -7    0.14    0.04
   4   0  -7    0.05    0.08
   4   0  -7    0.15    0.05
   4   0  -7    0.05    0.06
  -4   0   7    0.18    0.03
  -4   0   7    0.19    0.02
   3   0  -7    0.28    0.04
   3   0  -7    0.27    0.06
   3   0  -7    0.28    0.07
   3   0  -7    0.28    0.07
   3   0  -7    0.35    0.07
  -3   0   7    0.36    0.03
  -3   0   7    0.38    0.05
   2   0  -7   -0.05    0.06
   2   0  -7    0.10    0.07
   2   0  -7    0.02    0.03
   2   0  -7    0.02    0.05
   2   0  -7    0.18    0.07
  -2   0   7    0.06    0.02
   1   0  -7    0.07    0.05
   1   0  -7    0.19    0.07
   1   0  -7    0.07    0.07
   1   0  -7    0.05    0.03
   1   0  -7    0.15    0.07
   1   0  -7    0.06    0.06
  -1   0   7    0.06    0.04
  -1   0   7    0.09    0.02
   0   0  -7    3.83    0.27
   0   0  -7    3.65    0.29
   0   0  -7    3.47    0.29
   0   0  -7    3.61    0.27
   0   0  -7    3.86    0.28
   0   0  -7    3.72    0.29
   0   0   7    4.01    0.27
   0   0   7    3.86    0.26
  -1   0  -7    1.12    0.11
  -1   0  -7    1.06    0.09
  -1   0  -7    0.91    0.09
  -1   0  -7    0.78    0.14
  -1   0  -7    1.02    0.14
  -1   0  -7    1.05    0.13
  -1   0  -7    0.96    0.12
   1   0   7    1.01    0.09
   1   0   7    1.01    0.07
  -2   0  -7    0.36    0.07
  -2   0  -7    0.18    0.04
  -2   0  -7    0.29    0.07
  -2   0  -7    0.23    0.03
  -2   0  -7    0.20    0.07
  -2   0  -7    0.22    0.08
   2   0   7    0.27    0.04
   2   0   7    0.25    0.03
  -3   0  -7    1.04    0.11
  -3   0  -7    0.97    0.08
  -3   0  -7    0.83    0.13
  -3   0  -7    0.77    0.08
   3   0   7    1.10    0.09
   3   0   7    0.94    0.07
  -4   0  -7    0.25    0.06
  -4   0  -7    0.14    0.03
  -4   0  -7    0.00    0.08
  -4   0  -7    0.11    0.03
   4   0   7    0.16    0.03
   4   0   7    0.22    0.04
   4   0   7    0.12    0.02
   4   0   7    0.13    0.02
   4   0   7    0.24    0.08
  -5   0  -7    0.08    0.05
  -5   0  -7    0.08    0.03
  -5   0  -7    0.06    0.02
   5   0   7    0.06    0.05
   5   0   7    0.07    0.02
   5   0   7    0.07    0.03
   5   0   7    0.06    0.02
   5   0   7    0.10    0.04
  -6   0  -7    1.25    0.11
  -6   0  -7    1.22    0.09
  -6   0  -7    1.13    0.10
   6   0   7    1.40    0.12
  -7   0  -7    0.17    0.03
  -7   0  -7    0.18    0.03
  -7   0  -7    0.15    0.02
   7   0   7    0.19    0.02
   7   0   7    0.22    0.04
  -8   0  -7   -0.03    0.02
  -8   0  -7    0.00    0.01
  -8   0  -7    0.00    0.02
   8   0   7    0.00    0.01
   8  -1  -7    0.02    0.01
  -8   1   7    0.00    0.01
  -8   1   7   -0.01    0.01
   7  -1  -7    0.07    0.03
   7  -1  -7    0.10    0.02
  -7   1   7    0.09    0.02
  -7   1   7    0.12    0.03
   6  -1  -7    1.16    0.10
   6  -1  -7    1.07    0.09
  -6   1   7    1.10    0.09
   5  -1  -7    0.27    0.03
   5  -1  -7    0.11    0.06
   5  -1  -7    0.24    0.05
  -5   1   7    0.27    0.04
  -5   1   7    0.19    0.03
   4  -1  -7    0.03    0.07
   4  -1  -7    0.13    0.03
   4  -1  -7    0.10    0.04
   4  -1  -7    0.17    0.07
   4  -1  -7    0.10    0.06
  -4   1   7    0.10    0.03
  -4   1   7    0.13    0.01
   3  -1  -7    1.06    0.12
   3  -1  -7    1.09    0.09
   3  -1  -7    1.01    0.13
   3  -1  -7    1.03    0.14
   3  -1  -7    1.15    0.11
  -3   1   7    1.16    0.08
   2  -1  -7    0.22    0.05
   2  -1  -7    0.31    0.07
   2  -1  -7    0.25    0.07
   2  -1  -7    0.28    0.07
  -2   1   7    0.26    0.03
   1  -1  -7    0.11    0.07
   1  -1  -7    0.18    0.07
   1  -1  -7    0.20    0.06
   1  -1  -7    0.16    0.07
   1  -1  -7    0.15    0.07
  -1   1   7    0.22    0.04
  -1   1   7    0.19    0.03
   0  -1  -7    2.00    0.17
   0  -1  -7    1.84    0.18
   0  -1  -7    1.85    0.17
   0  -1  -7    1.97    0.18
   0  -1  -7    1.84    0.18
   0  -1  -7    1.96    0.14
   0   1   7    1.83    0.14
   0   1   7    2.11    0.15
  -1  -1  -7    1.27    0.16
  -1  -1  -7    1.35    0.14
  -1  -1  -7    1.33    0.15
  -1  -1  -7    1.36    0.11
  -1  -1  -7    1.38    0.14
  -1  -1  -7    1.38    0.15
   1   1   7    1.35    0.10
   1   1   7    1.50    0.12
  -2  -1  -7    0.17    0.06
  -2  -1  -7    0.20    0.07
  -2  -1  -7    0.17    0.07
  -2  -1  -7    0.13    0.04
  -2  -1  -7    0.12    0.08
  -2  -1  -7    0.18    0.03
  -2  -1  -7    0.09    0.06
   2   1   7    0.19    0.02
   2   1   7    0.19    0.04
  -3  -1  -7    0.61    0.06
  -3  -1  -7    0.59    0.07
  -3  -1  -7    0.70    0.07
  -3  -1  -7    0.73    0.09
  -3  -1  -7    0.45    0.09
  -3  -1  -7    0.72    0.09
   3   1   7    0.64    0.05
   3   1   7    0.87    0.08
  -4  -1  -7    0.28    0.04
  -4  -1  -7    0.18    0.03
  -4  -1  -7    0.30    0.08
  -4  -1  -7    0.05    0.08
  -4  -1  -7    0.26    0.06
   4   1   7    0.22    0.04
   4   1   7    0.23    0.03
   4   1   7    0.26    0.05
   4   1   7    0.24    0.03
   4   1   7    0.21    0.04
  -5  -1  -7   -0.03    0.02
  -5  -1  -7    0.03    0.03
  -5  -1  -7    0.09    0.05
   5   1   7    0.06    0.05
   5   1   7    0.02    0.03
   5   1   7    0.03    0.02
   5   1   7    0.05    0.03
  -6  -1  -7    0.73    0.07
  -6  -1  -7    0.89    0.09
  -6  -1  -7    0.87    0.08
   6   1   7    0.67    0.10
   6   1   7    1.00    0.08
   6   1   7    0.92    0.07
  -7  -1  -7    0.09    0.03
  -7  -1  -7    0.09    0.02
  -7  -1  -7    0.05    0.02
   7   1   7    0.06    0.01
   7   1   7    0.11    0.03
  -8  -1  -7   -0.03    0.02
  -8  -1  -7    0.02    0.01
  -8  -1  -7    0.05    0.02
   8   1   7    0.01    0.02
   8   1   7    0.05    0.03
  -8   2   7    0.05    0.01
   7  -2  -7    0.06    0.03
   7  -2  -7    0.05    0.02
  -7   2   7   -0.01    0.02
  -7   2   7    0.02    0.01
   6  -2  -7    0.39    0.06
   6  -2  -7    0.40    0.05
  -6   2   7    0.34    0.05
   5  -2  -7    0.02    0.03
   5  -2  -7   -0.02    0.05
   5  -2  -7    0.00    0.04
   5  -2  -7   -0.03    0.08
  -5   2   7    0.00    0.02
  -5   2   7    0.03    0.02
   4  -2  -7    0.42    0.08
   4  -2  -7    0.38    0.05
   4  -2  -7    0.33    0.08
   4  -2  -7    0.45    0.05
   4  -2  -7    0.34    0.07
  -4   2   7    0.38    0.06
  -4   2   7    0.34    0.06
   3  -2  -7    2.22    0.16
   3  -2  -7    2.23    0.18
   3  -2  -7    2.14    0.19
   3  -2  -7    2.14    0.18
   3  -2  -7    2.22    0.19
  -3   2   7    2.31    0.16
  -3   2   7    2.20    0.16
  -3   2   7    2.29    0.16
   2  -2  -7    1.11    0.09
   2  -2  -7    1.12    0.13
   2  -2  -7    0.91    0.12
   2  -2  -7    1.07    0.12
   2  -2  -7    0.99    0.11
  -2   2   7    1.10    0.09
  -2   2   7    1.16    0.08
   1  -2  -7   -0.05    0.06
   1  -2  -7    0.09    0.07
   1  -2  -7   -0.04    0.06
   1  -2  -7   -0.01    0.03
   1  -2  -7    0.00    0.06
   1  -2  -7    0.05    0.05
   0  -2  -7    2.64    0.22
   0  -2  -7    2.71    0.22
   0  -2  -7    2.77    0.20
   0  -2  -7    2.79    0.21
   0  -2  -7    2.84    0.21
   0  -2  -7    2.42    0.22
   0   2   7    2.74    0.19
  -1  -2  -7    0.71    0.07
  -1  -2  -7    0.68    0.10
  -1  -2  -7    0.56    0.09
  -1  -2  -7    0.67    0.10
  -1  -2  -7    0.65    0.11
  -1  -2  -7    0.77    0.12
   1   2   7    0.92    0.08
   1   2   7    0.70    0.06
  -2  -2  -7   -0.04    0.07
  -2  -2  -7    0.04    0.06
  -2  -2  -7   -0.02    0.06
  -2  -2  -7    0.02    0.03
  -2  -2  -7    0.02    0.05
  -2  -2  -7    0.04    0.03
  -2  -2  -7   -0.04    0.05
  -2  -2  -7   -0.01    0.06
   2   2   7   -0.01    0.02
   2   2   7    0.01    0.04
  -3  -2  -7    1.00    0.14
  -3  -2  -7    1.17    0.14
  -3  -2  -7    1.13    0.13
  -3  -2  -7    1.43    0.16
  -3  -2  -7    1.18    0.13
  -3  -2  -7    1.15    0.11
  -3  -2  -7    1.25    0.10
   3   2   7    1.44    0.11
  -4  -2  -7    0.60    0.06
  -4  -2  -7    0.67    0.08
  -4  -2  -7    0.54    0.09
  -4  -2  -7    0.79    0.10
  -4  -2  -7    0.73    0.09
   4   2   7    0.65    0.07
   4   2   7    0.66    0.05
   4   2   7    0.77    0.08
  -5  -2  -7   -0.02    0.02
  -5  -2  -7    0.07    0.05
  -5  -2  -7    0.03    0.04
   5   2   7    0.09    0.05
   5   2   7    0.05    0.02
   5   2   7    0.05    0.02
   5   2   7   -0.01    0.03
   5   2   7    0.05    0.03
  -6  -2  -7    0.57    0.06
  -6  -2  -7    0.73    0.07
  -6  -2  -7    0.73    0.08
   6   2   7    0.66    0.12
   6   2   7    0.69    0.07
   6   2   7    0.69    0.05
   6   2   7    0.67    0.05
   6   2   7    0.58    0.08
  -7  -2  -7    0.00    0.04
  -7  -2  -7    0.04    0.03
   7   2   7   -0.02    0.03
   7   2   7    0.01    0.01
  -8  -2  -7    0.03    0.02
  -8  -2  -7   -0.01    0.01
  -8  -2  -7   -0.05    0.03
   8   2   7    0.03    0.01
   8   2   7    0.05    0.03
  -9  -2  -7    0.03    0.01
  -9  -2  -7    0.04    0.01
  -8   3   7    0.04    0.01
  -7   3   7    0.00    0.01
  -7   3   7   -0.03    0.02
   6  -3  -7    0.43    0.06
  -6   3   7    0.36    0.05
   5  -3  -7    0.07    0.04
   5  -3  -7    0.04    0.08
   5  -3  -7   -0.03    0.03
  -5   3   7    0.01    0.02
  -5   3   7    0.08    0.02
   4  -3  -7    0.07    0.07
   4  -3  -7    0.08    0.06
   4  -3  -7    0.08    0.03
   4  -3  -7    0.03    0.04
  -4   3   7    0.07    0.03
  -4   3   7    0.10    0.03
   3  -3  -7    2.26    0.17
   3  -3  -7    1.85    0.17
   3  -3  -7    2.20    0.19
   3  -3  -7    2.01    0.18
   3  -3  -7    2.18    0.16
  -3   3   7    2.17    0.16
  -3   3   7    2.25    0.16
  -3   3   7    2.07    0.15
   2  -3  -7    0.24    0.06
   2  -3  -7    0.40    0.06
   2  -3  -7    0.33    0.08
   2  -3  -7    0.36    0.05
   2  -3  -7    0.33    0.07
   1  -3  -7    0.05    0.03
   1  -3  -7    0.07    0.06
   1  -3  -7   -0.01    0.06
   1  -3  -7    0.01    0.06
   1  -3  -7    0.09    0.05
  -1   3   7    0.06    0.03
  -1   3   7    0.08    0.01
   0  -3  -7    5.40    0.39
   0  -3  -7    5.33    0.37
   0  -3  -7    5.13    0.38
   0  -3  -7    4.83    0.38
   0  -3  -7    5.37    0.38
   0   3   7    5.44    0.41
   0   3   7    5.31    0.36
   0   3   7    5.14    0.37
  -1  -3  -7    0.04    0.03
  -1  -3  -7    0.12    0.06
  -1  -3  -7   -0.06    0.06
  -1  -3  -7    0.04    0.05
  -1  -3  -7    0.06    0.06
   1   3   7    0.06    0.02
  -2  -3  -7    1.42    0.14
  -2  -3  -7    1.43    0.11
  -2  -3  -7    1.40    0.13
  -2  -3  -7    1.38    0.11
  -2  -3  -7    1.39    0.14
  -2  -3  -7    1.36    0.13
  -2  -3  -7    1.00    0.14
   2   3   7    1.23    0.10
  -3  -3  -7    1.01    0.12
  -3  -3  -7    1.18    0.13
  -3  -3  -7    1.13    0.12
  -3  -3  -7    1.16    0.14
  -3  -3  -7    1.09    0.12
  -3  -3  -7    1.09    0.09
   3   3   7    1.16    0.08
  -4  -3  -7    0.33    0.08
  -4  -3  -7    0.49    0.09
  -4  -3  -7    0.56    0.07
  -4  -3  -7    0.56    0.08
  -4  -3  -7    0.44    0.06
   4   3   7    0.55    0.05
   4   3   7    0.54    0.07
  -5  -3  -7    0.05    0.04
  -5  -3  -7    0.04    0.02
  -5  -3  -7    0.07    0.05
   5   3   7    0.05    0.02
   5   3   7    0.07    0.04
   5   3   7    0.03    0.02
   5   3   7    0.05    0.03
  -6  -3  -7    0.54    0.07
  -6  -3  -7    0.53    0.08
  -6  -3  -7    0.50    0.05
   6   3   7    0.53    0.05
   6   3   7    0.58    0.06
   6   3   7    0.53    0.04
  -7  -3  -7    0.10    0.03
  -7  -3  -7    0.05    0.02
  -7  -3  -7    0.08    0.04
   7   3   7    0.06    0.02
   7   3   7    0.04    0.03
   7   3   7    0.08    0.02
  -8  -3  -7    0.07    0.02
   8   3   7    0.12    0.03
  -9  -3  -7    0.14    0.02
  -9  -3  -7    0.13    0.02
  -8   4   7    0.12    0.02
  -7   4   7    0.01    0.02
  -6   4   7    0.25    0.04
   5  -4  -7    0.05    0.04
   5  -4  -7    0.00    0.08
  -5   4   7    0.03    0.03
  -5   4   7    0.05    0.02
   4  -4  -7   -0.02    0.06
   4  -4  -7    0.05    0.04
   4  -4  -7    0.01    0.03
   4  -4  -7    0.11    0.06
  -4   4   7    0.00    0.03
  -4   4   7    0.01    0.03
   3  -4  -7    7.52    0.55
   3  -4  -7    7.99    0.53
   3  -4  -7    7.70    0.55
   3  -4  -7    7.88    0.54
   3  -4  -7    7.12    0.54
  -3   4   7    7.58    0.53
  -3   4   7    8.04    0.54
   2  -4  -7    2.78    0.19
   2  -4  -7    2.75    0.20
   2  -4  -7    2.56    0.21
  -2   4   7    2.38    0.19
  -2   4   7    2.76    0.19
   1  -4  -7    0.01    0.04
   1  -4  -7    0.01    0.03
   1  -4  -7    0.04    0.06
  -1   4   7   -0.06    0.04
  -1   4   7    0.03    0.01
   0  -4  -7    1.35    0.12
   0  -4  -7    1.24    0.14
   0  -4  -7    1.27    0.11
   0   4   7    1.36    0.11
   0   4   7    1.33    0.10
  -1  -4  -7   -0.01    0.03
  -1  -4  -7    0.03    0.05
  -1  -4  -7    0.06    0.06
   1   4   7   -0.01    0.01
   1   4   7    0.04    0.02
  -2  -4  -7    0.63    0.11
  -2  -4  -7    0.71    0.09
  -2  -4  -7    0.87    0.11
  -2  -4  -7    0.63    0.12
  -2  -4  -7    0.82    0.10
  -2  -4  -7    0.90    0.10
  -2  -4  -7    0.74    0.08
  -2  -4  -7    0.76    0.15
   2   4   7    0.80    0.06
   2   4   7    0.87    0.07
   2   4   7    0.62    0.06
  -3  -4  -7    6.64    0.49
  -3  -4  -7    6.61    0.48
  -3  -4  -7    6.65    0.48
  -3  -4  -7    6.71    0.48
  -3  -4  -7    6.94    0.48
  -3  -4  -7    6.74    0.47
  -3  -4  -7    7.08    0.49
   3   4   7    6.96    0.47
  -4  -4  -7    1.07    0.10
  -4  -4  -7    0.82    0.12
  -4  -4  -7    1.10    0.09
  -4  -4  -7    1.07    0.09
  -4  -4  -7    0.75    0.13
  -4  -4  -7    0.88    0.12
  -4  -4  -7    1.20    0.13
   4   4   7    1.11    0.08
  -5  -4  -7    0.06    0.04
  -5  -4  -7    0.05    0.03
  -5  -4  -7    0.08    0.05
   5   4   7    0.06    0.02
   5   4   7    0.04    0.02
  -6  -4  -7    0.52    0.06
  -6  -4  -7    0.49    0.07
  -6  -4  -7    0.40    0.05
   6   4   7    0.41    0.04
   6   4   7    0.42    0.04
  -7  -4  -7    0.01    0.02
  -7  -4  -7    0.02    0.03
  -7  -4  -7    0.01    0.04
   7   4   7   -0.01    0.01
   7   4   7    0.01    0.01
  -8  -4  -7    0.33    0.04
  -8  -4  -7    0.24    0.03
  -9  -4  -7    0.11    0.02
  -9  -4  -7    0.15    0.02
  -7   5   7    0.05    0.02
  -6   5   7    0.50    0.05
  -6   5   7    0.48    0.05
  -5   5   7    1.23    0.10
  -5   5   7    1.22    0.10
   4  -5  -7    0.74    0.12
   4  -5  -7    0.78    0.11
   4  -5  -7    0.68    0.08
  -4   5   7    0.79    0.07
  -4   5   7    0.89    0.07
   3  -5  -7    0.23    0.03
   3  -5  -7    0.28    0.05
   3  -5  -7    0.21    0.08
  -3   5   7    0.33    0.05
   2  -5  -7    0.09    0.03
   2  -5  -7    0.08    0.05
   2  -5  -7    0.10    0.05
   2  -5  -7    0.13    0.06
  -2   5   7    0.16    0.03
  -2   5   7    0.12    0.02
  -2   5   7    0.08    0.03
   1  -5  -7    0.06    0.05
   1  -5  -7    0.02    0.05
   1  -5  -7    0.00    0.03
   1  -5  -7    0.03    0.04
  -1   5   7    0.00    0.03
  -1   5   7    0.03    0.01
   0  -5  -7    0.65    0.09
   0  -5  -7    0.73    0.11
   0  -5  -7    0.59    0.09
   0  -5  -7    0.65    0.07
   0   5   7    0.79    0.06
   0   5   7    0.65    0.07
   0   5   7    0.67    0.05
  -1  -5  -7    0.30    0.06
  -1  -5  -7    0.34    0.04
  -1  -5  -7    0.46    0.06
  -1  -5  -7    0.36    0.06
  -1  -5  -7    0.39    0.06
  -1  -5  -7    0.43    0.09
   1   5   7    0.41    0.04
   1   5   7    0.35    0.06
   1   5   7    0.39    0.04
  -2  -5  -7    0.80    0.08
  -2  -5  -7    0.77    0.11
  -2  -5  -7    0.78    0.11
  -2  -5  -7    0.91    0.10
  -2  -5  -7    0.76    0.15
   2   5   7    0.83    0.08
   2   5   7    0.86    0.06
   2   5   7    0.80    0.07
  -3  -5  -7    3.04    0.21
  -3  -5  -7    3.06    0.22
  -3  -5  -7    3.13    0.23
  -3  -5  -7    2.63    0.21
  -3  -5  -7    3.07    0.23
  -3  -5  -7    2.92    0.26
   3   5   7    2.91    0.21
   3   5   7    3.06    0.21
   3   5   7    2.95    0.21
  -4  -5  -7    0.07    0.04
  -4  -5  -7    0.01    0.03
  -4  -5  -7    0.16    0.08
  -4  -5  -7    0.04    0.06
  -4  -5  -7    0.06    0.03
  -4  -5  -7   -0.01    0.06
  -4  -5  -7    0.10    0.10
  -4  -5  -7    0.17    0.06
   4   5   7    0.06    0.02
   4   5   7    0.02    0.01
  -5  -5  -7    0.02    0.05
  -5  -5  -7    0.06    0.03
  -5  -5  -7    0.07    0.04
   5   5   7    0.07    0.02
  -6  -5  -7    0.48    0.05
  -6  -5  -7    0.58    0.08
  -6  -5  -7    0.54    0.07
   6   5   7    0.53    0.04
  -7  -5  -7    0.00    0.04
   7   5   7    0.03    0.01
  -8  -5  -7    0.18    0.03
  -8  -5  -7    0.15    0.02
  -9  -5  -7    0.27    0.02
  -9  -5  -7    0.29    0.03
  -6   6   7    0.20    0.03
  -5   6   7    0.60    0.06
   4  -6  -7    0.09    0.07
   4  -6  -7    0.02    0.04
  -4   6   7    0.08    0.03
   3  -6  -7    0.53    0.10
   3  -6  -7    0.53    0.07
   3  -6  -7    0.62    0.06
   2  -6  -7    0.06    0.04
   2  -6  -7    0.00    0.04
   2  -6  -7    0.02    0.02
   2  -6  -7    0.00    0.05
   1  -6  -7    0.08    0.04
   1  -6  -7    0.05    0.04
   1  -6  -7    0.08    0.03
  -1   6   7    0.09    0.01
  -1   6   7    0.08    0.03
  -1   6   7    0.06    0.02
   0  -6  -7    0.50    0.06
   0  -6  -7    0.53    0.08
   0  -6  -7    0.53    0.06
   0  -6  -7    0.55    0.10
   0  -6  -7    0.57    0.08
   0   6   7    0.57    0.05
   0   6   7    0.39    0.06
   0   6   7    0.55    0.04
  -1  -6  -7    0.25    0.05
  -1  -6  -7    0.28    0.05
  -1  -6  -7    0.26    0.05
  -1  -6  -7    0.31    0.09
  -1  -6  -7    0.29    0.04
   1   6   7    0.24    0.03
   1   6   7    0.21    0.04
   1   6   7    0.26    0.03
  -2  -6  -7    0.01    0.05
  -2  -6  -7    0.05    0.06
  -2  -6  -7    0.08    0.05
  -2  -6  -7   -0.01    0.04
  -2  -6  -7    0.11    0.08
  -2  -6  -7    0.01    0.03
   2   6   7    0.01    0.01
   2   6   7    0.02    0.02
   2   6   7    0.02    0.02
  -3  -6  -7    1.32    0.17
  -3  -6  -7    1.17    0.12
  -3  -6  -7    1.09    0.10
  -3  -6  -7    1.13    0.10
  -3  -6  -7    1.26    0.13
  -3  -6  -7    1.19    0.12
   3   6   7    1.27    0.09
   3   6   7    1.23    0.09
   3   6   7    1.20    0.09
  -4  -6  -7    0.06    0.03
  -4  -6  -7   -0.02    0.05
  -4  -6  -7    0.05    0.03
  -4  -6  -7    0.03    0.03
  -4  -6  -7    0.04    0.08
   4   6   7    0.04    0.02
   4   6   7    0.04    0.02
  -5  -6  -7    0.96    0.09
  -5  -6  -7    0.83    0.16
  -5  -6  -7    0.98    0.08
   5   6   7    0.80    0.07
   5   6   7    1.10    0.07
  -6  -6  -7    0.43    0.04
  -6  -6  -7    0.39    0.07
  -6  -6  -7    0.43    0.06
   6   6   7    0.42    0.04
  -7  -6  -7    0.05    0.02
  -7  -6  -7    0.06    0.03
   7   6   7    0.05    0.01
  -8  -6  -7    0.00    0.01
  -8  -6  -7    0.02    0.02
   8   6   7    0.01    0.01
  -9  -6  -7    0.23    0.02
  -9  -6  -7    0.26    0.02
  -6   7   7    0.25    0.03
   3  -7  -7    0.82    0.07
   3  -7  -7    0.74    0.09
   3  -7  -7    0.79    0.08
   2  -7  -7    0.00    0.03
   2  -7  -7    0.02    0.03
   2  -7  -7    0.03    0.04
  -2   7   7    0.09    0.03
   1  -7  -7    0.27    0.05
   1  -7  -7    0.28    0.05
   1  -7  -7    0.27    0.03
  -1   7   7    0.30    0.03
  -1   7   7    0.30    0.03
   0  -7  -7    1.72    0.14
   0  -7  -7    1.79    0.15
   0  -7  -7    1.74    0.15
   0   7   7    1.86    0.13
   0   7   7    2.00    0.14
   0   7   7    1.86    0.13
  -1  -7  -7    0.61    0.09
  -1  -7  -7    0.67    0.09
  -1  -7  -7    0.67    0.08
  -1  -7  -7    0.71    0.07
   1   7   7    0.57    0.07
   1   7   7    0.73    0.06
   1   7   7    0.75    0.05
  -2  -7  -7    0.01    0.04
  -2  -7  -7   -0.01    0.05
  -2  -7  -7    0.02    0.03
  -2  -7  -7    0.07    0.09
  -2  -7  -7    0.02    0.03
   2   7   7    0.01    0.01
   2   7   7    0.01    0.02
   2   7   7    0.03    0.02
  -3  -7  -7    0.40    0.08
  -3  -7  -7    0.45    0.09
  -3  -7  -7    0.53    0.07
  -3  -7  -7    0.47    0.06
  -3  -7  -7    0.51    0.07
  -3  -7  -7    0.47    0.05
   3   7   7    0.45    0.04
   3   7   7    0.43    0.04
  -4  -7  -7    0.61    0.08
  -4  -7  -7    0.59    0.06
  -4  -7  -7    0.73    0.14
  -4  -7  -7    0.65    0.07
  -4  -7  -7    0.58    0.07
  -4  -7  -7    0.72    0.09
   4   7   7    0.68    0.05
   4   7   7    0.62    0.05
  -5  -7  -7    0.02    0.08
  -5  -7  -7    0.08    0.03
  -5  -7  -7    0.06    0.02
   5   7   7    0.09    0.01
   5   7   7    0.08    0.01
  -6  -7  -7    1.44    0.11
  -6  -7  -7    1.42    0.10
   6   7   7    1.37    0.10
   6   7   7    1.18    0.09
  -7  -7  -7    0.21    0.03
  -7  -7  -7    0.22    0.04
   7   7   7    0.22    0.02
  -8  -7  -7    0.02    0.01
  -8  -7  -7    0.03    0.02
   8   7   7    0.01    0.02
  -6   8   7    0.33    0.03
  -5   8   7    0.23    0.03
   3  -8  -7    0.85    0.08
   3  -8  -7    0.88    0.07
   2  -8  -7    0.05    0.03
   2  -8  -7    0.07    0.04
   2  -8  -7    0.04    0.02
   1  -8  -7    0.88    0.08
   1  -8  -7    1.01    0.09
   1  -8  -7    0.78    0.09
  -1   8   7    1.07    0.07
   0  -8  -7    0.63    0.06
   0  -8  -7    0.59    0.08
   0  -8  -7    0.61    0.08
   0  -8  -7    1.02    0.17
   0   8   7    0.68    0.05
   0   8   7    0.77    0.07
   0   8   7    0.70    0.05
  -1  -8  -7    0.34    0.07
  -1  -8  -7    0.35    0.06
  -1  -8  -7    0.32    0.05
  -1  -8  -7    0.43    0.09
  -1  -8  -7    0.32    0.05
   1   8   7    0.33    0.04
   1   8   7    0.34    0.03
  -2  -8  -7    0.22    0.05
  -2  -8  -7    0.21    0.04
  -2  -8  -7    0.16    0.04
  -2  -8  -7    0.27    0.09
  -2  -8  -7    0.18    0.03
   2   8   7    0.22    0.04
   2   8   7    0.19    0.02
   2   8   7    0.19    0.02
  -3  -8  -7    1.53    0.12
  -3  -8  -7    1.54    0.12
  -3  -8  -7    1.51    0.13
  -3  -8  -7    1.68    0.19
   3   8   7    1.59    0.11
   3   8   7    1.68    0.12
   3   8   7    1.62    0.11
  -4  -8  -7    0.37    0.05
  -4  -8  -7    0.37    0.04
  -4  -8  -7    0.37    0.05
  -4  -8  -7    0.40    0.11
  -4  -8  -7    0.31    0.04
   4   8   7    0.38    0.03
   4   8   7    0.35    0.03
  -5  -8  -7    0.12    0.03
  -5  -8  -7    0.19    0.03
   5   8   7    0.17    0.02
   5   8   7    0.15    0.02
  -6  -8  -7    0.21    0.03
   6   8   7    0.20    0.02
   6   8   7    0.17    0.02
  -7  -8  -7    0.16    0.02
  -7  -8  -7    0.14    0.02
   7   8   7    0.10    0.01
  -8  -8  -7    0.06    0.01
  -8  -8  -7    0.07    0.01
   8   8   7    0.05    0.01
  -5   9   7    0.17    0.02
  -4   9   7    0.28    0.03
   3  -9  -7    0.20    0.03
   3  -9  -7    0.20    0.04
   2  -9  -7    0.18    0.03
   2  -9  -7    0.22    0.04
   1  -9  -7    0.01    0.03
   1  -9  -7    0.02    0.02
   1  -9  -7    0.08    0.03
   0  -9  -7    0.96    0.09
   0  -9  -7    1.03    0.08
   0  -9  -7    1.03    0.10
   0   9   7    1.04    0.07
   0   9   7    1.12    0.08
   0   9   7    1.12    0.09
  -1  -9  -7    0.11    0.03
  -1  -9  -7    0.10    0.04
  -1  -9  -7    0.11    0.02
  -1  -9  -7    0.11    0.03
   1   9   7    0.07    0.02
   1   9   7    0.04    0.03
   1   9   7    0.11    0.02
  -2  -9  -7    0.03    0.03
  -2  -9  -7   -0.02    0.03
  -2  -9  -7    0.01    0.02
  -2  -9  -7    0.01    0.04
   2   9   7    0.03    0.02
   2   9   7    0.01    0.01
   2   9   7    0.00    0.01
  -3  -9  -7    1.15    0.09
  -3  -9  -7    1.21    0.12
  -3  -9  -7    1.10    0.09
  -3  -9  -7    1.17    0.10
   3   9   7    1.35    0.09
   3   9   7    1.13    0.09
   3   9   7    1.18    0.09
  -4  -9  -7    0.36    0.05
  -4  -9  -7    0.40    0.04
   4   9   7    0.36    0.03
   4   9   7    0.38    0.03
  -5  -9  -7    0.05    0.02
  -5  -9  -7    0.10    0.02
   5   9   7    0.08    0.01
   5   9   7    0.06    0.01
  -6  -9  -7    0.21    0.03
  -6  -9  -7    0.17    0.02
   6   9   7    0.17    0.02
   6   9   7    0.17    0.02
  -7  -9  -7    0.08    0.02
  -7  -9  -7    0.06    0.01
   7   9   7    0.06    0.01
   2 -10  -7   -0.01    0.02
   2 -10  -7    0.02    0.02
   2 -10  -7    0.03    0.01
   1 -10  -7   -0.01    0.02
   1 -10  -7    0.00    0.01
   1 -10  -7    0.04    0.02
  -1  10   7    0.06    0.02
   0 -10  -7    0.84    0.07
   0 -10  -7    0.83    0.07
   0 -10  -7    0.84    0.07
   0  10   7    0.97    0.07
   0  10   7    0.89    0.06
  -1 -10  -7    0.05    0.02
  -1 -10  -7    0.03    0.02
  -1 -10  -7    0.06    0.03
   1  10   7    0.03    0.01
   1  10   7    0.04    0.02
   1  10   7    0.04    0.01
  -2 -10  -7    0.00    0.03
  -2 -10  -7    0.01    0.01
  -2 -10  -7   -0.01    0.02
   2  10   7    0.00    0.01
   2  10   7    0.00    0.01
  -3 -10  -7    0.36    0.04
  -3 -10  -7    0.29    0.03
  -3 -10  -7    0.25    0.04
   3  10   7    0.32    0.03
   3  10   7    0.39    0.03
  -4 -10  -7    0.15    0.02
   4  10   7    0.13    0.01
   4  10   7    0.11    0.02
  -5 -10  -7    0.01    0.02
   5  10   7    0.02    0.01
   5  10   7    0.02    0.01
   1 -11  -7    0.00    0.01
   1 -11  -7    0.01    0.01
  -1  11   7    0.01    0.01
   0 -11  -7    0.44    0.04
   0 -11  -7    0.46    0.04
   0  11   7    0.57    0.04
  -1 -11  -7    0.08    0.02
  -1 -11  -7    0.08    0.01
   1  11   7    0.08    0.01
  -2 -11  -7    0.09    0.01
  -2 -11  -7    0.12    0.02
   2  11   7    0.12    0.01
   2  11   7    0.11    0.01
  -3 -11  -7    0.20    0.02
   3  11   7    0.16    0.01
   3  11   7    0.21    0.02
   1   4  -8    0.04    0.01
  -1  -4   8    0.06    0.01
   0   4  -8    0.10    0.02
   0  -4   8    0.16    0.01
  -1   4  -8    0.03    0.01
   1  -4   8    0.02    0.01
   4   3  -8    0.02    0.01
  -4  -3   8    0.07    0.01
  -4  -3   8    0.04    0.01
   3   3  -8    0.47    0.05
  -3  -3   8    0.64    0.04
   2   3  -8    0.13    0.02
  -2  -3   8    0.18    0.02
   1   3  -8    0.07    0.02
   1   3  -8    0.02    0.01
  -1  -3   8    0.02    0.01
   0   3  -8    0.00    0.01
   0  -3   8    0.04    0.01
  -1   3  -8    0.00    0.01
  -1   3  -8   -0.02    0.02
   1  -3   8    0.01    0.01
  -2   3  -8    0.06    0.02
  -2   3  -8    0.03    0.01
  -2   3  -8    0.03    0.03
   2  -3   8    0.05    0.01
  -3   3  -8    0.17    0.03
  -3   3  -8    0.15    0.02
  -3   3  -8    0.16    0.03
   3  -3   8    0.18    0.02
  -4   3  -8    0.03    0.01
  -4   3  -8    0.06    0.02
  -4   3  -8    0.04    0.02
   5   2  -8    0.01    0.01
  -5  -2   8    0.01    0.01
   4   2  -8    0.04    0.03
   4   2  -8    0.00    0.02
  -4  -2   8    0.02    0.02
  -4  -2   8    0.03    0.01
   3   2  -8    0.35    0.06
   3   2  -8    0.27    0.04
  -3  -2   8    0.34    0.04
  -3  -2   8    0.40    0.03
   2   2  -8    0.03    0.02
   2   2  -8    0.07    0.05
   2   2  -8    0.03    0.07
  -2  -2   8    0.07    0.02
  -2  -2   8    0.07    0.01
   1   2  -8    0.03    0.06
   1   2  -8    0.01    0.02
   1   2  -8   -0.02    0.02
  -1  -2   8    0.01    0.02
  -1  -2   8    0.01    0.01
   0   2  -8    0.03    0.04
   0   2  -8    0.02    0.06
   0   2  -8    0.06    0.02
   0  -2   8    0.06    0.01
  -1   2  -8    0.03    0.03
  -1   2  -8   -0.03    0.06
  -1   2  -8    0.01    0.02
   1  -2   8    0.02    0.01
  -2   2  -8    0.17    0.04
  -2   2  -8    0.15    0.02
   2  -2   8    0.21    0.02
  -3   2  -8    0.46    0.04
  -3   2  -8    0.46    0.06
   3  -2   8    0.53    0.04
  -4   2  -8    0.10    0.03
  -4   2  -8    0.04    0.01
   4  -2   8    0.07    0.01
  -5   2  -8    0.00    0.01
  -5   2  -8    0.04    0.02
   6   1  -8    0.07    0.02
  -6  -1   8    0.07    0.01
  -6  -1   8    0.11    0.02
   5   1  -8   -0.03    0.02
   5   1  -8   -0.01    0.03
  -5  -1   8    0.00    0.02
  -5  -1   8    0.00    0.01
   4   1  -8   -0.02    0.02
   4   1  -8   -0.01    0.04
   4   1  -8    0.02    0.05
  -4  -1   8   -0.01    0.02
  -4  -1   8    0.02    0.01
   3   1  -8    0.34    0.05
   3   1  -8    0.29    0.06
   3   1  -8    0.36    0.07
   3   1  -8    0.27    0.08
  -3  -1   8    0.49    0.05
  -3  -1   8    0.53    0.04
   2   1  -8    0.03    0.07
   2   1  -8   -0.01    0.06
   2   1  -8   -0.01    0.04
   2   1  -8   -0.01    0.03
  -2  -1   8    0.01    0.01
  -2  -1   8    0.03    0.02
   1   1  -8    0.08    0.05
   1   1  -8    0.18    0.07
   1   1  -8    0.08    0.03
   1   1  -8    0.11    0.07
   1   1  -8    0.17    0.07
  -1  -1   8    0.14    0.02
   0   1  -8    0.14    0.03
   0   1  -8    0.13    0.03
   0   1  -8    0.21    0.08
   0   1  -8    0.19    0.05
   0   1  -8    0.04    0.07
   0   1  -8    0.13    0.06
   0  -1   8    0.26    0.04
  -1   1  -8    0.07    0.06
  -1   1  -8    0.01    0.02
  -1   1  -8    0.05    0.05
  -1   1  -8    0.04    0.07
   1  -1   8    0.04    0.04
   1  -1   8    0.00    0.01
  -2   1  -8    0.03    0.07
  -2   1  -8    0.08    0.05
  -2   1  -8    0.01    0.02
   2  -1   8    0.01    0.01
  -3   1  -8    0.34    0.07
  -3   1  -8    0.36    0.05
  -3   1  -8    0.55    0.10
   3  -1   8    0.42    0.03
  -4   1  -8    0.12    0.04
  -4   1  -8    0.07    0.02
   4  -1   8    0.14    0.02
  -5   1  -8    0.14    0.03
  -5   1  -8    0.11    0.02
  -6   1  -8    0.01    0.01
  -6   1  -8    0.03    0.02
   7   0  -8    0.08    0.01
  -7   0   8    0.07    0.01
   6   0  -8    0.22    0.04
   6   0  -8    0.25    0.04
  -6   0   8    0.34    0.03
  -6   0   8    0.25    0.03
   5   0  -8    0.07    0.02
   5   0  -8    0.08    0.04
   5   0  -8    0.05    0.04
  -5   0   8    0.05    0.02
   4   0  -8   -0.06    0.05
   4   0  -8    0.00    0.03
   4   0  -8   -0.05    0.07
   4   0  -8    0.02    0.04
  -4   0   8    0.03    0.02
  -4   0   8    0.03    0.01
   3   0  -8    0.44    0.08
   3   0  -8    0.31    0.07
   3   0  -8    0.47    0.08
   3   0  -8    0.38    0.06
  -3   0   8    0.50    0.04
  -3   0   8    0.47    0.05
   2   0  -8    0.00    0.05
   2   0  -8    0.01    0.07
   2   0  -8   -0.01    0.03
   2   0  -8   -0.01    0.06
   2   0  -8   -0.09    0.07
  -2   0   8    0.02    0.01
   1   0  -8    0.10    0.07
   1   0  -8    0.23    0.07
   1   0  -8    0.09    0.06
   1   0  -8    0.10    0.04
   1   0  -8    0.14    0.05
   1   0  -8    0.12    0.07
  -1   0   8    0.14    0.02
   0   0  -8    0.89    0.08
   0   0  -8    1.07    0.13
   0   0  -8    0.92    0.10
   0   0  -8    0.90    0.11
   0   0  -8    1.08    0.13
   0   0  -8    0.96    0.14
   0   0  -8    1.07    0.10
   0   0   8    1.20    0.10
   0   0   8    0.97    0.07
  -1   0  -8    0.44    0.07
  -1   0  -8    0.47    0.05
  -1   0  -8    0.58    0.08
  -1   0  -8    0.47    0.08
  -1   0  -8    0.29    0.08
   1   0   8    0.46    0.04
   1   0   8    0.57    0.06
  -2   0  -8    0.48    0.05
  -2   0  -8    0.59    0.08
  -2   0  -8    0.47    0.08
   2   0   8    0.55    0.05
   2   0   8    0.66    0.07
  -3   0  -8    0.17    0.07
  -3   0  -8    0.13    0.03
  -3   0  -8    0.15    0.05
  -3   0  -8    0.15    0.09
   3   0   8    0.15    0.02
   3   0   8    0.12    0.04
  -4   0  -8    0.10    0.05
  -4   0  -8    0.02    0.02
  -4   0  -8   -0.03    0.03
   4   0   8    0.01    0.02
  -5   0  -8   -0.02    0.02
  -5   0  -8   -0.01    0.02
  -5   0  -8    0.05    0.04
   5   0   8    0.00    0.01
  -6   0  -8    0.71    0.06
  -6   0  -8    0.64    0.05
  -7   0  -8    0.03    0.01
  -7   0  -8    0.06    0.02
   7  -1  -8    0.05    0.01
  -7   1   8    0.03    0.01
  -7   1   8    0.05    0.01
   6  -1  -8    0.48    0.05
   6  -1  -8    0.48    0.06
  -6   1   8    0.61    0.05
   5  -1  -8    0.32    0.05
   5  -1  -8    0.38    0.06
   5  -1  -8    0.26    0.06
  -5   1   8    0.36    0.04
   4  -1  -8    0.10    0.07
   4  -1  -8    0.06    0.03
   4  -1  -8    0.13    0.05
   4  -1  -8    0.03    0.04
  -4   1   8    0.06    0.02
  -4   1   8    0.07    0.01
  -4   1   8    0.07    0.02
   3  -1  -8    0.16    0.07
   3  -1  -8    0.15    0.03
   3  -1  -8    0.18    0.07
   3  -1  -8    0.21    0.05
   3  -1  -8    0.18    0.06
  -3   1   8    0.33    0.05
  -3   1   8    0.24    0.02
   2  -1  -8    0.03    0.04
   2  -1  -8    0.03    0.06
   2  -1  -8    0.09    0.06
   2  -1  -8   -0.02    0.03
   2  -1  -8    0.05    0.06
  -2   1   8    0.05    0.01
   1  -1  -8    0.36    0.08
   1  -1  -8    0.27    0.07
   1  -1  -8    0.18    0.04
   1  -1  -8    0.23    0.07
   1  -1  -8    0.26    0.05
   1  -1  -8    0.31    0.06
  -1   1   8    0.30    0.03
   0  -1  -8    0.86    0.14
   0  -1  -8    0.99    0.11
   0  -1  -8    0.90    0.13
   0  -1  -8    0.94    0.09
   0  -1  -8    1.12    0.13
   0  -1  -8    1.19    0.11
   0   1   8    1.22    0.14
   0   1   8    1.09    0.08
  -1  -1  -8    0.11    0.06
  -1  -1  -8    0.13    0.07
  -1  -1  -8    0.11    0.07
  -1  -1  -8    0.09    0.03
  -1  -1  -8    0.09    0.07
  -1  -1  -8    0.08    0.05
  -1  -1  -8    0.04    0.03
   1   1   8    0.01    0.05
   1   1   8    0.09    0.02
  -2  -1  -8    0.26    0.08
  -2  -1  -8    0.42    0.06
  -2  -1  -8    0.39    0.05
  -2  -1  -8    0.62    0.10
  -2  -1  -8    0.42    0.08
  -2  -1  -8    0.40    0.07
   2   1   8    0.41    0.04
   2   1   8    0.51    0.07
  -3  -1  -8    0.18    0.04
  -3  -1  -8    0.27    0.07
  -3  -1  -8    0.30    0.06
  -3  -1  -8    0.26    0.03
  -3  -1  -8    0.11    0.08
   3   1   8    0.25    0.04
   3   1   8    0.29    0.03
  -4  -1  -8   -0.01    0.02
  -4  -1  -8    0.07    0.05
  -4  -1  -8    0.00    0.03
   4   1   8    0.03    0.01
   4   1   8    0.11    0.04
  -5  -1  -8    0.39    0.07
   5   1   8    0.22    0.03
  -6  -1  -8    0.28    0.05
  -6  -1  -8    0.26    0.04
   6   1   8    0.28    0.03
  -7  -1  -8    0.03    0.01
  -7  -1  -8    0.06    0.02
  -7  -1  -8    0.09    0.03
  -8  -1  -8    0.02    0.01
  -8  -1  -8    0.00    0.01
   7  -2  -8    0.01    0.02
   6  -2  -8    0.20    0.03
   6  -2  -8    0.23    0.04
   6  -2  -8    0.15    0.05
  -6   2   8    0.19    0.03
   5  -2  -8    0.01    0.02
   5  -2  -8    0.01    0.03
   5  -2  -8   -0.03    0.05
  -5   2   8    0.01    0.02
   4  -2  -8   -0.02    0.05
   4  -2  -8   -0.09    0.08
   4  -2  -8   -0.02    0.03
   4  -2  -8    0.00    0.04
   4  -2  -8    0.07    0.09
  -4   2   8    0.01    0.03
  -4   2   8    0.03    0.02
   3  -2  -8    0.25    0.06
   3  -2  -8    0.31    0.07
   3  -2  -8    0.21    0.05
   3  -2  -8    0.33    0.07
  -3   2   8    0.18    0.03
   2  -2  -8    0.07    0.03
   2  -2  -8   -0.04    0.06
   2  -2  -8    0.01    0.06
   2  -2  -8   -0.04    0.04
   2  -2  -8    0.07    0.06
  -2   2   8    0.02    0.01
   1  -2  -8    0.11    0.07
   1  -2  -8    0.07    0.05
   1  -2  -8    0.15    0.03
   1  -2  -8    0.08    0.06
   1  -2  -8    0.08    0.07
  -1   2   8    0.10    0.02
   0  -2  -8    4.17    0.32
   0  -2  -8    4.53    0.32
   0  -2  -8    4.30    0.32
   0  -2  -8    4.23    0.33
   0  -2  -8    4.27    0.33
   0  -2  -8    4.52    0.30
   0   2   8    4.35    0.30
  -1  -2  -8    0.64    0.10
  -1  -2  -8    0.65    0.08
  -1  -2  -8    0.68    0.11
  -1  -2  -8    0.51    0.09
  -1  -2  -8    0.72    0.07
  -1  -2  -8    0.63    0.09
   1   2   8    0.67    0.05
  -2  -2  -8   -0.02    0.07
  -2  -2  -8    0.03    0.06
  -2  -2  -8    0.04    0.05
  -2  -2  -8   -0.15    0.08
  -2  -2  -8    0.03    0.08
  -2  -2  -8    0.02    0.03
   2   2   8   -0.02    0.01
  -3  -2  -8    0.35    0.07
  -3  -2  -8    0.34    0.07
  -3  -2  -8    0.21    0.04
  -3  -2  -8    0.27    0.07
  -3  -2  -8    0.23    0.03
  -3  -2  -8    0.22    0.04
   3   2   8    0.34    0.06
   3   2   8    0.19    0.03
  -4  -2  -8    0.06    0.08
  -4  -2  -8   -0.03    0.02
  -4  -2  -8    0.02    0.03
  -4  -2  -8    0.11    0.05
   4   2   8   -0.01    0.01
  -5  -2  -8    0.12    0.05
  -5  -2  -8    0.02    0.03
  -5  -2  -8    0.02    0.02
   5   2   8    0.05    0.01
  -6  -2  -8    0.21    0.04
  -6  -2  -8    0.17    0.02
  -6  -2  -8    0.19    0.03
   6   2   8    0.21    0.03
  -7  -2  -8    0.10    0.03
  -7  -2  -8    0.13    0.02
  -7  -2  -8    0.09    0.02
  -8  -2  -8    0.00    0.01
  -8  -2  -8    0.00    0.01
  -7   3   8    0.00    0.01
   6  -3  -8    0.57    0.05
   6  -3  -8    0.51    0.06
  -6   3   8    0.49    0.05
   5  -3  -8    0.06    0.02
   5  -3  -8    0.03    0.03
  -5   3   8    0.00    0.02
   4  -3  -8    0.02    0.04
   4  -3  -8    0.16    0.08
   4  -3  -8   -0.02    0.07
   4  -3  -8    0.09    0.03
   4  -3  -8    0.01    0.05
  -4   3   8    0.01    0.02
   3  -3  -8    1.08    0.11
   3  -3  -8    1.11    0.09
   3  -3  -8    1.16    0.13
   3  -3  -8    1.22    0.13
   3  -3  -8    1.02    0.12
  -3   3   8    1.12    0.09
  -3   3   8    1.28    0.10
  -3   3   8    1.19    0.08
   2  -3  -8    0.17    0.03
   2  -3  -8    0.25    0.06
   2  -3  -8    0.12    0.05
   2  -3  -8    0.16    0.07
   2  -3  -8    0.21    0.07
   2  -3  -8    0.16    0.06
  -2   3   8    0.20    0.02
   1  -3  -8    0.04    0.05
   1  -3  -8   -0.02    0.06
   1  -3  -8   -0.02    0.06
   1  -3  -8    0.02    0.03
   1  -3  -8    0.09    0.06
   1  -3  -8    0.07    0.06
  -1   3   8    0.02    0.01
  -1   3   8    0.05    0.02
   0  -3  -8    3.27    0.25
   0  -3  -8    3.37    0.24
   0  -3  -8    3.50    0.26
   0  -3  -8    3.25    0.26
   0  -3  -8    3.07    0.26
   0  -3  -8    3.37    0.25
   0   3   8    3.52    0.23
  -1  -3  -8    0.00    0.05
  -1  -3  -8   -0.03    0.06
  -1  -3  -8    0.02    0.06
  -1  -3  -8   -0.01    0.06
  -1  -3  -8    0.01    0.03
  -1  -3  -8    0.08    0.06
   1   3   8    0.01    0.01
  -2  -3  -8    0.54    0.06
  -2  -3  -8    0.39    0.07
  -2  -3  -8    0.42    0.07
  -2  -3  -8    0.46    0.08
  -2  -3  -8    0.31    0.06
  -2  -3  -8    0.43    0.08
  -2  -3  -8    0.42    0.06
   2   3   8    0.41    0.04
  -3  -3  -8    0.22    0.06
  -3  -3  -8    0.24    0.06
  -3  -3  -8    0.32    0.08
  -3  -3  -8    0.23    0.09
  -3  -3  -8    0.21    0.03
  -3  -3  -8    0.26    0.07
  -3  -3  -8    0.23    0.05
   3   3   8    0.23    0.03
  -4  -3  -8    0.09    0.05
  -4  -3  -8    0.04    0.03
  -4  -3  -8    0.02    0.07
  -4  -3  -8    0.09    0.04
   4   3   8    0.02    0.02
  -5  -3  -8    0.00    0.04
  -5  -3  -8    0.04    0.03
  -5  -3  -8   -0.02    0.02
   5   3   8   -0.01    0.01
  -6  -3  -8    0.17    0.02
   6   3   8    0.23    0.02
  -7  -3  -8    0.04    0.02
  -7  -3  -8    0.08    0.02
  -7  -3  -8    0.05    0.03
   7   3   8    0.09    0.01
  -8  -3  -8    0.03    0.01
  -8  -3  -8    0.00    0.01
  -7   4   8    0.00    0.01
   6  -4  -8    0.69    0.07
  -6   4   8    0.62    0.06
   5  -4  -8    0.01    0.03
   4  -4  -8   -0.06    0.08
   4  -4  -8    0.01    0.02
   4  -4  -8   -0.01    0.04
  -4   4   8    0.02    0.02
  -4   4   8    0.01    0.02
   3  -4  -8    1.54    0.15
   3  -4  -8    1.37    0.11
   3  -4  -8    1.33    0.13
   3  -4  -8    1.34    0.14
  -3   4   8    1.54    0.11
  -3   4   8    1.50    0.11
   2  -4  -8    0.76    0.10
   2  -4  -8    0.72    0.08
   2  -4  -8    0.56    0.08
   2  -4  -8    0.68    0.11
   2  -4  -8    0.66    0.07
  -2   4   8    0.60    0.06
  -2   4   8    0.69    0.05
   1  -4  -8    0.00    0.03
   1  -4  -8    0.03    0.05
   1  -4  -8   -0.01    0.06
   1  -4  -8    0.06    0.06
   1  -4  -8    0.04    0.08
  -1   4   8    0.03    0.01
   0  -4  -8    1.78    0.18
   0  -4  -8    2.15    0.18
   0  -4  -8    2.16    0.16
   0  -4  -8    2.20    0.17
   0  -4  -8    2.32    0.19
   0   4   8    2.21    0.16
   0   4   8    2.21    0.15
  -1  -4  -8    0.27    0.07
  -1  -4  -8    0.36    0.07
  -1  -4  -8    0.32    0.06
  -1  -4  -8    0.23    0.04
  -1  -4  -8    0.33    0.07
   1   4   8    0.24    0.03
  -2  -4  -8    0.04    0.03
  -2  -4  -8    0.00    0.06
  -2  -4  -8    0.09    0.07
  -2  -4  -8    0.13    0.05
  -2  -4  -8    0.00    0.06
  -2  -4  -8    0.00    0.05
   2   4   8    0.04    0.02
  -3  -4  -8    1.57    0.13
  -3  -4  -8    1.82    0.14
  -3  -4  -8    1.68    0.16
  -3  -4  -8    1.78    0.13
  -3  -4  -8    1.66    0.15
  -3  -4  -8    1.67    0.17
  -3  -4  -8    1.73    0.15
   3   4   8    1.76    0.12
  -4  -4  -8    0.10    0.07
  -4  -4  -8    0.15    0.03
  -4  -4  -8    0.13    0.04
  -4  -4  -8    0.08    0.05
  -4  -4  -8    0.07    0.03
   4   4   8    0.13    0.02
  -5  -4  -8    0.01    0.02
  -5  -4  -8    0.04    0.05
  -5  -4  -8    0.01    0.03
   5   4   8    0.04    0.01
  -6  -4  -8    0.51    0.05
  -6  -4  -8    0.57    0.06
   6   4   8    0.63    0.05
  -7  -4  -8   -0.01    0.03
  -7  -4  -8   -0.01    0.01
  -7  -4  -8    0.02    0.02
   7   4   8    0.01    0.01
  -8  -4  -8    0.06    0.01
  -8  -4  -8    0.08    0.02
  -6   5   8    0.43    0.04
   5  -5  -8    0.07    0.04
  -5   5   8    0.02    0.02
  -5   5   8    0.06    0.02
   4  -5  -8    0.64    0.11
   4  -5  -8    0.69    0.07
   4  -5  -8    0.43    0.11
  -4   5   8    0.75    0.07
  -4   5   8    0.78    0.07
   3  -5  -8   -0.02    0.05
   3  -5  -8    0.04    0.06
   3  -5  -8    0.10    0.03
   3  -5  -8    0.05    0.06
   3  -5  -8    0.05    0.04
  -3   5   8    0.08    0.03
  -3   5   8    0.10    0.03
   2  -5  -8    0.08    0.06
   2  -5  -8    0.03    0.03
   2  -5  -8    0.03    0.04
   2  -5  -8   -0.05    0.05
   2  -5  -8    0.01    0.06
  -2   5   8    0.00    0.03
  -2   5   8    0.02    0.03
  -2   5   8    0.05    0.01
   1  -5  -8    0.04    0.03
   1  -5  -8   -0.01    0.04
   1  -5  -8    0.01    0.06
   0  -5  -8    1.41    0.13
   0  -5  -8    1.38    0.11
   0   5   8    1.35    0.11
   0   5   8    1.46    0.10
  -1  -5  -8    0.08    0.05
  -1  -5  -8    0.10    0.03
  -1  -5  -8    0.13    0.06
   1   5   8    0.11    0.02
   1   5   8    0.11    0.03
  -2  -5  -8    1.49    0.13
  -2  -5  -8    1.18    0.12
  -2  -5  -8    1.32    0.14
  -2  -5  -8    1.32    0.14
  -2  -5  -8    1.35    0.11
   2   5   8    1.37    0.10
   2   5   8    1.45    0.10
  -3  -5  -8    0.79    0.08
  -3  -5  -8    0.93    0.09
  -3  -5  -8    0.81    0.13
  -3  -5  -8    0.93    0.11
  -3  -5  -8    0.82    0.08
  -3  -5  -8    1.02    0.11
  -3  -5  -8    1.04    0.12
   3   5   8    0.87    0.07
  -4  -5  -8   -0.02    0.05
  -4  -5  -8    0.05    0.03
  -4  -5  -8    0.11    0.07
  -4  -5  -8    0.06    0.06
  -4  -5  -8    0.05    0.03
  -4  -5  -8    0.06    0.04
   4   5   8    0.01    0.01
  -5  -5  -8    0.00    0.02
  -5  -5  -8   -0.01    0.04
  -5  -5  -8    0.01    0.03
   5   5   8    0.01    0.01
  -6  -5  -8    0.46    0.08
  -6  -5  -8    0.47    0.07
   6   5   8    0.46    0.04
  -7  -5  -8    0.02    0.02
  -7  -5  -8    0.04    0.03
  -7  -5  -8    0.01    0.02
   7   5   8    0.02    0.01
  -8  -5  -8    0.03    0.02
  -8  -5  -8    0.02    0.01
   8   5   8    0.06    0.01
  -5   6   8    0.08    0.02
   4  -6  -8    0.16    0.04
   4  -6  -8    0.14    0.06
   4  -6  -8    0.12    0.03
   3  -6  -8    0.73    0.06
   3  -6  -8    0.66    0.08
   3  -6  -8    0.76    0.12
   2  -6  -8    0.44    0.07
   2  -6  -8    0.39    0.06
   2  -6  -8    0.48    0.07
  -2   6   8    0.63    0.06
  -2   6   8    0.59    0.06
   1  -6  -8    0.03    0.04
   1  -6  -8   -0.04    0.05
   1  -6  -8    0.02    0.03
   1  -6  -8    0.02    0.04
  -1   6   8    0.03    0.01
  -1   6   8   -0.01    0.03
   0  -6  -8    0.62    0.06
   0  -6  -8    0.51    0.09
   0  -6  -8    0.62    0.11
   0  -6  -8    0.56    0.08
   0   6   8    0.51    0.06
   0   6   8    0.70    0.05
  -1  -6  -8    0.24    0.06
  -1  -6  -8    0.30    0.05
  -1  -6  -8    0.24    0.05
  -1  -6  -8    0.26    0.04
  -1  -6  -8    0.31    0.06
   1   6   8    0.27    0.03
   1   6   8    0.25    0.05
   1   6   8    0.29    0.03
  -2  -6  -8    0.37    0.06
  -2  -6  -8    0.38    0.11
  -2  -6  -8    0.33    0.05
  -2  -6  -8    0.34    0.05
  -2  -6  -8    0.22    0.06
   2   6   8    0.42    0.05
   2   6   8    0.40    0.03
   2   6   8    0.34    0.04
  -3  -6  -8    0.52    0.07
  -3  -6  -8    0.49    0.08
  -3  -6  -8    0.68    0.10
  -3  -6  -8    0.50    0.08
  -3  -6  -8    0.52    0.07
  -3  -6  -8    0.49    0.10
  -3  -6  -8    0.48    0.06
  -3  -6  -8    0.64    0.11
   3   6   8    0.52    0.04
   3   6   8    0.48    0.04
  -4  -6  -8    0.07    0.03
  -4  -6  -8    0.04    0.05
  -4  -6  -8    0.03    0.04
  -4  -6  -8    0.06    0.03
   4   6   8    0.01    0.01
   4   6   8    0.05    0.01
  -5  -6  -8    0.15    0.05
  -5  -6  -8    0.16    0.04
  -5  -6  -8    0.20    0.03
   5   6   8    0.19    0.02
  -6  -6  -8    0.30    0.05
  -6  -6  -8    0.29    0.05
  -6  -6  -8    0.29    0.03
   6   6   8    0.31    0.03
  -7  -6  -8    0.02    0.01
  -7  -6  -8    0.04    0.02
  -7  -6  -8   -0.01    0.03
   7   6   8    0.03    0.01
  -8  -6  -8    0.03    0.01
  -8  -6  -8    0.03    0.02
   8   6   8    0.05    0.01
  -6   7   8    0.38    0.03
  -5   7   8    0.04    0.02
   4  -7  -8    0.23    0.07
  -4   7   8    0.33    0.04
   3  -7  -8    0.45    0.05
   3  -7  -8    0.50    0.06
   2  -7  -8    0.09    0.06
   2  -7  -8    0.06    0.02
   2  -7  -8    0.02    0.07
   2  -7  -8    0.09    0.04
  -2   7   8    0.12    0.03
   1  -7  -8    0.09    0.04
   1  -7  -8    0.05    0.05
   1  -7  -8    0.08    0.02
   1  -7  -8    0.09    0.04
  -1   7   8    0.06    0.03
  -1   7   8    0.08    0.01
   0  -7  -8    0.63    0.11
   0  -7  -8    0.58    0.08
   0  -7  -8    0.62    0.09
   0  -7  -8    0.76    0.07
   0  -7  -8    0.66    0.08
   0   7   8    0.75    0.05
   0   7   8    0.69    0.07
   0   7   8    0.87    0.06
  -1  -7  -8    0.47    0.12
  -1  -7  -8    0.31    0.05
  -1  -7  -8    0.30    0.06
  -1  -7  -8    0.27    0.04
  -1  -7  -8    0.27    0.05
   1   7   8    0.20    0.04
   1   7   8    0.28    0.03
   1   7   8    0.27    0.03
  -2  -7  -8    0.11    0.05
  -2  -7  -8   -0.10    0.05
  -2  -7  -8    0.05    0.10
  -2  -7  -8    0.01    0.03
  -2  -7  -8    0.02    0.03
  -2  -7  -8    0.02    0.04
   2   7   8    0.01    0.01
   2   7   8    0.04    0.02
   2   7   8    0.00    0.01
  -3  -7  -8    1.17    0.13
  -3  -7  -8    1.13    0.09
  -3  -7  -8    1.01    0.19
  -3  -7  -8    1.12    0.10
  -3  -7  -8    1.12    0.11
   3   7   8    1.14    0.08
   3   7   8    1.19    0.08
  -4  -7  -8    0.12    0.05
  -4  -7  -8    0.15    0.03
  -4  -7  -8    0.16    0.03
  -4  -7  -8    0.18    0.10
  -4  -7  -8    0.17    0.03
   4   7   8    0.15    0.02
   4   7   8    0.15    0.02
  -5  -7  -8    1.26    0.10
  -5  -7  -8    1.16    0.09
   5   7   8    1.01    0.08
  -6  -7  -8    1.14    0.08
  -6  -7  -8    1.20    0.09
  -6  -7  -8    1.14    0.09
   6   7   8    1.14    0.08
  -7  -7  -8    0.03    0.01
  -7  -7  -8    0.03    0.02
   7   7   8    0.03    0.01
  -8  -7  -8    0.04    0.01
  -8  -7  -8    0.06    0.01
   8   7   8    0.05    0.01
  -5   8   8    0.05    0.02
   4  -8  -8    0.05    0.03
  -4   8   8    0.19    0.03
   3  -8  -8    0.62    0.06
   3  -8  -8    0.71    0.06
   2  -8  -8    0.05    0.02
   2  -8  -8    0.08    0.04
   2  -8  -8    0.03    0.03
  -2   8   8    0.11    0.03
   1  -8  -8    0.42    0.05
   1  -8  -8    0.39    0.06
   1  -8  -8    0.36    0.05
  -1   8   8    0.50    0.05
   0  -8  -8    0.41    0.05
   0  -8  -8    0.33    0.04
   0  -8  -8    0.30    0.05
   0  -8  -8    0.39    0.05
   0  -8  -8    0.21    0.07
   0   8   8    0.35    0.03
   0   8   8    0.39    0.03
   0   8   8    0.29    0.05
  -1  -8  -8    0.06    0.04
  -1  -8  -8    0.05    0.02
  -1  -8  -8   -0.09    0.06
  -1  -8  -8    0.07    0.03
  -1  -8  -8    0.07    0.04
   1   8   8    0.06    0.02
   1   8   8    0.06    0.01
  -2  -8  -8    0.04    0.04
  -2  -8  -8   -0.02    0.04
  -2  -8  -8    0.03    0.02
  -2  -8  -8    0.01    0.03
   2   8   8    0.02    0.02
   2   8   8    0.01    0.01
   2   8   8    0.01    0.01
  -3  -8  -8    3.23    0.23
  -3  -8  -8    3.03    0.22
  -3  -8  -8    2.86    0.23
  -3  -8  -8    3.16    0.22
   3   8   8    3.13    0.21
   3   8   8    2.96    0.21
  -4  -8  -8    0.01    0.02
  -4  -8  -8    0.10    0.08
  -4  -8  -8    0.01    0.03
   4   8   8    0.01    0.01
   4   8   8    0.00    0.01
  -5  -8  -8    0.46    0.05
  -5  -8  -8    0.56    0.06
  -5  -8  -8    0.53    0.05
   5   8   8    0.56    0.04
   5   8   8    0.48    0.04
  -6  -8  -8    0.12    0.03
  -6  -8  -8    0.08    0.02
  -6  -8  -8    0.11    0.02
   6   8   8    0.10    0.01
  -7  -8  -8    0.03    0.01
  -7  -8  -8    0.06    0.02
   7   8   8    0.03    0.01
  -4   9   8    0.17    0.03
   3  -9  -8    0.43    0.04
   2  -9  -8    0.08    0.02
   2  -9  -8    0.06    0.02
   1  -9  -8    0.03    0.03
   1  -9  -8    0.00    0.03
   1  -9  -8    0.02    0.04
   1  -9  -8    0.00    0.02
  -1   9   8    0.02    0.02
   0  -9  -8    0.83    0.08
   0  -9  -8    0.82    0.07
   0  -9  -8    0.93    0.07
   0  -9  -8    0.88    0.09
   0   9   8    1.07    0.07
  -1  -9  -8    0.38    0.04
  -1  -9  -8    0.44    0.06
  -1  -9  -8    0.42    0.05
  -1  -9  -8    0.34    0.05
   1   9   8    0.41    0.03
   1   9   8    0.36    0.04
   1   9   8    0.40    0.03
  -2  -9  -8    0.15    0.03
  -2  -9  -8    0.09    0.02
  -2  -9  -8    0.11    0.05
  -2  -9  -8    0.10    0.03
   2   9   8    0.08    0.01
   2   9   8    0.09    0.01
   2   9   8    0.06    0.02
  -3  -9  -8    2.19    0.15
  -3  -9  -8    2.05    0.16
  -3  -9  -8    2.10    0.15
   3   9   8    2.12    0.15
   3   9   8    2.17    0.15
  -4  -9  -8    0.62    0.05
  -4  -9  -8    0.60    0.05
   4   9   8    0.62    0.05
   4   9   8    0.63    0.04
  -5  -9  -8    0.08    0.02
  -5  -9  -8    0.10    0.03
   5   9   8    0.06    0.01
   5   9   8    0.09    0.01
  -6  -9  -8    0.17    0.02
  -6  -9  -8    0.19    0.03
   6   9   8    0.16    0.02
  -3  10   8    0.35    0.03
   2 -10  -8    0.04    0.01
  -2  10   8    0.05    0.02
   1 -10  -8    0.05    0.02
  -1  10   8    0.05    0.02
   0 -10  -8    0.17    0.02
   0 -10  -8    0.12    0.03
   0 -10  -8    0.16    0.03
   0  10   8    0.19    0.03
  -1 -10  -8    0.14    0.02
  -1 -10  -8    0.14    0.03
  -1 -10  -8    0.12    0.02
   1  10   8    0.12    0.02
   1  10   8    0.11    0.02
  -2 -10  -8    0.00    0.02
  -2 -10  -8    0.02    0.03
  -2 -10  -8    0.00    0.01
   2  10   8    0.01    0.01
   2  10   8    0.00    0.01
  -3 -10  -8    0.55    0.05
  -3 -10  -8    0.57    0.05
   3  10   8    0.55    0.04
   3  10   8    0.57    0.04
  -4 -10  -8    0.06    0.02
   4  10   8    0.05    0.01
   4  10   8    0.04    0.01
  -5 -10  -8    0.11    0.02
   5  10   8    0.07    0.01
   5  10   8    0.10    0.01
  -1 -11  -8    0.11    0.02
  -1 -11  -8    0.12    0.02
  -2 -11  -8    0.00    0.01
  -2 -11  -8    0.01    0.01
   2  11   8    0.01    0.01
  -3  -2   9    0.13    0.01
  -2  -2   9    0.04    0.01
   1   2  -9    0.05    0.02
  -1  -2   9    0.00    0.01
   0   2  -9    0.02    0.01
   0  -2   9    0.06    0.01
  -1   2  -9    0.01    0.01
   1  -2   9    0.00    0.01
  -2   2  -9    0.12    0.02
  -2   2  -9    0.12    0.02
   2  -2   9    0.15    0.01
  -3   2  -9    0.18    0.02
  -3   2  -9    0.16    0.03
  -3   2  -9    0.17    0.03
   3  -2   9    0.19    0.02
   5   1  -9    0.00    0.01
  -5  -1   9    0.01    0.01
   4   1  -9    0.03    0.01
  -4  -1   9    0.06    0.01
  -4  -1   9    0.05    0.01
  -4  -1   9    0.05    0.01
   3   1  -9    0.08    0.04
  -3  -1   9    0.16    0.01
  -3  -1   9    0.16    0.03
   2   1  -9    0.05    0.04
   2   1  -9    0.00    0.02
  -2  -1   9    0.01    0.01
  -2  -1   9    0.01    0.01
   1   1  -9   -0.06    0.06
   1   1  -9    0.02    0.02
  -1  -1   9    0.04    0.01
  -1  -1   9    0.04    0.02
   0   1  -9    0.06    0.02
   0   1  -9    0.03    0.03
   0   1  -9    0.05    0.06
   0  -1   9    0.09    0.01
  -1   1  -9   -0.06    0.08
  -1   1  -9    0.01    0.02
  -1   1  -9    0.03    0.03
   1  -1   9    0.01    0.01
  -2   1  -9    0.03    0.03
  -2   1  -9   -0.01    0.02
   2  -1   9    0.01    0.01
  -3   1  -9    0.41    0.04
  -3   1  -9    0.50    0.05
   3  -1   9    0.56    0.04
  -4   1  -9    0.02    0.02
  -4   1  -9    0.02    0.01
   4  -1   9    0.02    0.01
  -5   1  -9   -0.01    0.01
  -5   1  -9    0.01    0.02
   5   0  -9    0.02    0.02
   5   0  -9   -0.01    0.02
  -5   0   9    0.01    0.01
   4   0  -9   -0.02    0.02
   4   0  -9    0.00    0.03
  -4   0   9   -0.03    0.01
  -4   0   9    0.00    0.01
   3   0  -9    0.42    0.05
   3   0  -9    0.35    0.06
   3   0  -9    0.38    0.12
   3   0  -9    0.38    0.06
  -3   0   9    0.50    0.05
  -3   0   9    0.53    0.03
   2   0  -9    0.13    0.05
   2   0  -9    0.10    0.06
   2   0  -9    0.08    0.06
   2   0  -9    0.08    0.03
   1   0  -9    0.00    0.02
   1   0  -9   -0.02    0.06
   1   0  -9    0.11    0.06
   1   0  -9    0.03    0.04
  -1   0   9    0.01    0.01
   0   0  -9    0.38    0.07
   0   0  -9    0.42    0.07
   0   0  -9    0.26    0.07
   0   0  -9    0.33    0.05
   0   0   9    0.44    0.04
  -1   0  -9    0.05    0.04
  -1   0  -9    0.03    0.02
  -1   0  -9    0.00    0.06
  -1   0  -9    0.03    0.03
   1   0   9    0.02    0.01
  -2   0  -9    0.16    0.02
  -2   0  -9    0.21    0.04
  -2   0  -9    0.09    0.07
   2   0   9    0.23    0.02
  -3   0  -9    0.23    0.03
  -3   0  -9    0.32    0.06
   3   0   9    0.33    0.03
  -4   0  -9    0.02    0.02
  -4   0  -9    0.11    0.04
   4   0   9    0.04    0.01
  -5   0  -9    0.01    0.01
  -5   0  -9    0.05    0.03
   5   0   9    0.02    0.01
  -6   0  -9    0.07    0.02
  -6   0  -9    0.06    0.01
   6  -1  -9    0.18    0.03
  -6   1   9    0.23    0.02
   5  -1  -9    0.00    0.02
   5  -1  -9    0.02    0.03
  -5   1   9    0.02    0.01
  -5   1   9   -0.01    0.01
   4  -1  -9    0.02    0.03
   4  -1  -9    0.06    0.02
   4  -1  -9   -0.04    0.05
  -4   1   9    0.12    0.03
  -4   1   9    0.07    0.02
   3  -1  -9    0.22    0.03
   3  -1  -9    0.22    0.04
   3  -1  -9    0.18    0.05
   3  -1  -9    0.19    0.07
  -3   1   9    0.27    0.03
  -3   1   9    0.31    0.04
  -3   1   9    0.33    0.02
   2  -1  -9    0.18    0.06
   2  -1  -9    0.11    0.05
   2  -1  -9    0.09    0.03
   2  -1  -9    0.14    0.04
  -2   1   9    0.19    0.02
   1  -1  -9    0.18    0.03
   1  -1  -9    0.24    0.07
   1  -1  -9    0.25    0.07
   1  -1  -9    0.21    0.06
   1  -1  -9    0.22    0.05
   1  -1  -9    0.12    0.07
  -1   1   9    0.26    0.02
   0  -1  -9    0.21    0.03
   0  -1  -9    0.37    0.05
   0  -1  -9    0.17    0.07
   0  -1  -9    0.35    0.07
   0  -1  -9    0.21    0.07
   0  -1  -9    0.27    0.05
   0   1   9    0.29    0.03
  -1  -1  -9    0.58    0.06
  -1  -1  -9    0.54    0.09
  -1  -1  -9    0.57    0.06
  -1  -1  -9    0.39    0.09
  -1  -1  -9    0.50    0.08
  -1  -1  -9    0.72    0.08
   1   1   9    0.64    0.05
  -2  -1  -9    0.10    0.07
  -2  -1  -9    0.09    0.03
  -2  -1  -9    0.10    0.05
  -2  -1  -9    0.03    0.02
   2   1   9    0.07    0.01
  -3  -1  -9    0.34    0.08
  -3  -1  -9    0.60    0.11
  -3  -1  -9    0.34    0.04
   3   1   9    0.42    0.04
  -4  -1  -9    0.04    0.02
  -4  -1  -9    0.13    0.04
   4   1   9    0.07    0.01
  -5  -1  -9    0.05    0.03
  -5  -1  -9   -0.02    0.01
   5   1   9    0.01    0.01
  -6  -1  -9    0.07    0.03
  -6  -1  -9    0.04    0.01
   6   1   9    0.04    0.01
   6  -2  -9    0.10    0.02
  -6   2   9    0.12    0.02
   5  -2  -9    0.07    0.02
   5  -2  -9    0.09    0.03
  -5   2   9    0.07    0.02
   4  -2  -9    0.00    0.08
   4  -2  -9    0.06    0.03
   4  -2  -9    0.02    0.04
   4  -2  -9    0.03    0.02
  -4   2   9    0.03    0.02
   3  -2  -9    0.65    0.09
   3  -2  -9    0.63    0.06
   3  -2  -9    0.56    0.09
   3  -2  -9    0.68    0.08
  -3   2   9    0.75    0.06
  -3   2   9    0.73    0.05
   2  -2  -9    0.07    0.07
   2  -2  -9    0.07    0.04
   2  -2  -9    0.05    0.03
   2  -2  -9    0.20    0.06
   2  -2  -9    0.12    0.06
  -2   2   9    0.12    0.01
   1  -2  -9    0.07    0.05
   1  -2  -9    0.07    0.03
   1  -2  -9    0.07    0.05
   1  -2  -9    0.08    0.07
   1  -2  -9    0.12    0.06
   1  -2  -9    0.06    0.06
   0  -2  -9    0.16    0.06
   0  -2  -9    0.00    0.03
   0  -2  -9   -0.02    0.06
   0  -2  -9    0.10    0.05
   0  -2  -9    0.06    0.07
   0  -2  -9    0.07    0.05
   0   2   9    0.08    0.01
  -1  -2  -9    0.66    0.08
  -1  -2  -9    0.54    0.08
  -1  -2  -9    0.39    0.06
  -1  -2  -9    0.56    0.08
  -1  -2  -9    0.52    0.08
  -1  -2  -9    0.53    0.09
   1   2   9    0.52    0.04
  -2  -2  -9    0.00    0.03
  -2  -2  -9    0.02    0.07
  -2  -2  -9    0.03    0.05
  -2  -2  -9   -0.02    0.03
  -2  -2  -9    0.05    0.05
   2   2   9    0.00    0.01
  -3  -2  -9    0.13    0.07
  -3  -2  -9    0.19    0.05
  -3  -2  -9    0.11    0.02
   3   2   9    0.18    0.02
  -4  -2  -9    0.08    0.07
  -4  -2  -9   -0.01    0.02
  -4  -2  -9    0.00    0.03
   4   2   9    0.02    0.01
  -5  -2  -9    0.04    0.02
  -5  -2  -9    0.13    0.04
  -5  -2  -9    0.05    0.02
   5   2   9    0.07    0.01
  -6  -2  -9    0.03    0.02
  -6  -2  -9    0.02    0.01
  -6  -2  -9    0.07    0.03
   6   2   9    0.05    0.01
  -7  -2  -9   -0.01    0.02
  -7  -2  -9   -0.01    0.01
  -7  -2  -9    0.00    0.01
   6  -3  -9    0.17    0.03
  -6   3   9    0.20    0.03
   5  -3  -9    0.08    0.02
   5  -3  -9    0.11    0.03
  -5   3   9    0.08    0.02
   4  -3  -9    0.01    0.07
   4  -3  -9    0.06    0.02
   4  -3  -9    0.06    0.03
   4  -3  -9    0.03    0.04
  -4   3   9    0.06    0.02
   3  -3  -9    0.69    0.08
   3  -3  -9    0.72    0.11
   3  -3  -9    0.59    0.10
  -3   3   9    0.78    0.06
   2  -3  -9   -0.04    0.08
   2  -3  -9   -0.06    0.06
   2  -3  -9   -0.03    0.06
   2  -3  -9    0.02    0.04
  -2   3   9    0.00    0.01
   1  -3  -9   -0.05    0.04
   1  -3  -9   -0.05    0.06
   1  -3  -9    0.03    0.03
   1  -3  -9    0.03    0.06
   1  -3  -9    0.07    0.05
   1  -3  -9    0.02    0.06
  -1   3   9    0.02    0.01
   0  -3  -9    0.79    0.07
   0  -3  -9    0.55    0.09
   0  -3  -9    0.77    0.11
   0  -3  -9    0.62    0.09
   0  -3  -9    0.70    0.09
   0   3   9    0.74    0.05
  -1  -3  -9    0.11    0.07
  -1  -3  -9    0.21    0.06
  -1  -3  -9    0.08    0.05
  -1  -3  -9    0.06    0.06
  -1  -3  -9    0.11    0.05
   1   3   9    0.07    0.01
  -2  -3  -9    0.02    0.07
  -2  -3  -9    0.16    0.08
  -2  -3  -9   -0.01    0.06
  -2  -3  -9    0.01    0.05
  -2  -3  -9    0.04    0.03
  -2  -3  -9    0.02    0.05
   2   3   9   -0.02    0.01
  -3  -3  -9    0.67    0.08
  -3  -3  -9    0.69    0.06
  -3  -3  -9    0.59    0.06
  -3  -3  -9    0.66    0.09
   3   3   9    0.63    0.05
  -4  -3  -9    0.08    0.02
  -4  -3  -9    0.11    0.05
   4   3   9    0.08    0.01
  -5  -3  -9    0.04    0.02
  -5  -3  -9    0.07    0.02
  -5  -3  -9    0.10    0.04
   5   3   9    0.08    0.01
  -6  -3  -9    0.18    0.03
  -6  -3  -9    0.27    0.05
  -6  -3  -9    0.18    0.03
   6   3   9    0.24    0.02
  -7  -3  -9    0.03    0.02
  -7  -3  -9    0.03    0.01
   7   3   9    0.04    0.01
  -6   4   9    0.09    0.01
   5  -4  -9    0.12    0.03
   5  -4  -9    0.08    0.02
  -5   4   9    0.08    0.02
   4  -4  -9    0.05    0.07
   4  -4  -9   -0.04    0.03
   4  -4  -9    0.05    0.05
  -4   4   9   -0.01    0.02
   3  -4  -9    0.23    0.04
   3  -4  -9    0.25    0.03
   3  -4  -9    0.21    0.06
   3  -4  -9    0.27    0.07
  -3   4   9    0.31    0.05
   2  -4  -9    0.33    0.07
   2  -4  -9    0.23    0.06
   2  -4  -9    0.48    0.08
   2  -4  -9    0.33    0.05
   2  -4  -9    0.43    0.07
   2  -4  -9    0.29    0.05
  -2   4   9    0.40    0.03
   1  -4  -9    1.10    0.14
   1  -4  -9    1.22    0.12
   1  -4  -9    1.33    0.13
   1  -4  -9    1.21    0.12
   1  -4  -9    1.26    0.10
  -1   4   9    1.46    0.09
   0  -4  -9    0.30    0.07
   0  -4  -9    0.31    0.07
   0  -4  -9    0.24    0.07
   0  -4  -9    0.27    0.05
   0  -4  -9    0.27    0.06
   0   4   9    0.31    0.03
  -1  -4  -9    0.05    0.05
  -1  -4  -9    0.09    0.05
  -1  -4  -9    0.06    0.06
  -1  -4  -9    0.05    0.06
  -1  -4  -9    0.16    0.06
   1   4   9    0.08    0.01
  -2  -4  -9    0.01    0.07
  -2  -4  -9    0.02    0.03
  -2  -4  -9   -0.01    0.06
  -2  -4  -9   -0.01    0.05
  -2  -4  -9    0.02    0.05
  -2  -4  -9    0.06    0.07
   2   4   9    0.00    0.01
  -3  -4  -9    0.36    0.12
  -3  -4  -9    0.55    0.08
  -3  -4  -9    0.38    0.05
  -3  -4  -9    0.49    0.05
  -3  -4  -9    0.58    0.05
  -3  -4  -9    0.42    0.09
  -3  -4  -9    0.46    0.09
   3   4   9    0.51    0.04
  -4  -4  -9    0.02    0.03
  -4  -4  -9   -0.01    0.02
  -4  -4  -9    0.03    0.04
   4   4   9    0.00    0.01
  -5  -4  -9    0.68    0.06
  -5  -4  -9    0.68    0.07
  -5  -4  -9    0.80    0.08
   5   4   9    0.77    0.05
  -6  -4  -9    0.25    0.05
  -6  -4  -9    0.22    0.03
  -6  -4  -9    0.26    0.04
   6   4   9    0.24    0.02
  -7  -4  -9    0.01    0.02
  -7  -4  -9    0.02    0.01
  -7  -4  -9    0.04    0.02
   7   4   9    0.05    0.01
  -6   5   9    0.53    0.06
   5  -5  -9    0.03    0.03
  -5   5   9    0.03    0.02
   4  -5  -9    0.38    0.08
   4  -5  -9    0.22    0.05
   4  -5  -9    0.24    0.04
  -4   5   9    0.39    0.04
  -4   5   9    0.32    0.03
   3  -5  -9    0.03    0.03
   3  -5  -9    0.06    0.02
   3  -5  -9    0.15    0.06
   3  -5  -9    0.01    0.05
  -3   5   9    0.01    0.03
   2  -5  -9    0.59    0.08
   2  -5  -9    0.41    0.08
   2  -5  -9    0.63    0.07
   2  -5  -9    0.52    0.06
  -2   5   9    0.58    0.06
   1  -5  -9    0.08    0.04
   1  -5  -9    0.12    0.06
   1  -5  -9   -0.02    0.05
   1  -5  -9    0.14    0.06
   1  -5  -9    0.08    0.03
  -1   5   9    0.10    0.01
   0  -5  -9    0.74    0.11
   0  -5  -9    1.05    0.10
   0  -5  -9    1.02    0.09
   0  -5  -9    1.03    0.12
   0  -5  -9    1.10    0.13
   0   5   9    1.11    0.07
   0   5   9    0.99    0.08
  -1  -5  -9    0.06    0.03
  -1  -5  -9    0.12    0.05
  -1  -5  -9   -0.05    0.06
  -1  -5  -9    0.06    0.06
  -1  -5  -9    0.11    0.07
   1   5   9    0.07    0.01
  -2  -5  -9    0.04    0.06
  -2  -5  -9    0.03    0.03
  -2  -5  -9    0.01    0.06
  -2  -5  -9    0.05    0.06
   2   5   9    0.03    0.01
  -3  -5  -9    0.11    0.10
  -3  -5  -9   -0.01    0.08
  -3  -5  -9    0.10    0.05
  -3  -5  -9    0.05    0.05
  -3  -5  -9    0.17    0.03
  -3  -5  -9    0.09    0.04
  -3  -5  -9    0.14    0.03
  -3  -5  -9    0.17    0.11
   3   5   9    0.15    0.02
  -4  -5  -9    0.07    0.02
  -4  -5  -9    0.12    0.03
  -4  -5  -9    0.14    0.05
   4   5   9    0.13    0.02
  -5  -5  -9    0.17    0.03
  -5  -5  -9    0.15    0.04
  -5  -5  -9    0.09    0.02
   5   5   9    0.13    0.02
  -6  -5  -9    0.27    0.04
  -6  -5  -9    0.27    0.03
  -6  -5  -9    0.29    0.05
   6   5   9    0.30    0.02
  -7  -5  -9    0.09    0.02
  -7  -5  -9    0.05    0.01
  -7  -5  -9    0.04    0.02
   7   5   9    0.08    0.01
  -5   6   9    0.11    0.02
   4  -6  -9    0.22    0.03
   4  -6  -9    0.30    0.05
  -4   6   9    0.17    0.03
   3  -6  -9    0.10    0.06
   3  -6  -9    0.05    0.03
   3  -6  -9    0.13    0.04
   3  -6  -9    0.08    0.02
   2  -6  -9    0.01    0.05
   2  -6  -9    0.02    0.03
   2  -6  -9    0.00    0.02
   2  -6  -9    0.00    0.05
  -2   6   9   -0.04    0.02
   1  -6  -9    0.10    0.07
   1  -6  -9    0.07    0.04
   1  -6  -9    0.14    0.07
   1  -6  -9    0.05    0.02
  -1   6   9    0.09    0.01
  -1   6   9    0.07    0.02
   0  -6  -9    0.71    0.09
   0  -6  -9    0.80    0.07
   0  -6  -9    0.97    0.13
   0  -6  -9    0.93    0.11
   0  -6  -9    0.72    0.10
   0   6   9    0.71    0.07
   0   6   9    0.83    0.06
  -1  -6  -9    0.17    0.07
  -1  -6  -9    0.21    0.07
  -1  -6  -9    0.23    0.03
  -1  -6  -9    0.21    0.05
  -1  -6  -9    0.18    0.06
   1   6   9    0.25    0.02
   1   6   9    0.15    0.03
  -2  -6  -9    0.02    0.04
  -2  -6  -9    0.00    0.03
  -2  -6  -9    0.07    0.06
  -2  -6  -9   -0.02    0.04
   2   6   9    0.04    0.01
  -3  -6  -9    0.13    0.03
  -3  -6  -9    0.16    0.07
  -3  -6  -9    0.10    0.04
   3   6   9    0.11    0.02
  -4  -6  -9    0.07    0.04
  -4  -6  -9    0.12    0.03
  -4  -6  -9    0.13    0.03
  -4  -6  -9    0.14    0.05
   4   6   9    0.10    0.01
  -5  -6  -9    0.12    0.02
  -5  -6  -9    0.23    0.04
  -5  -6  -9    0.18    0.03
   5   6   9    0.17    0.02
  -6  -6  -9    0.73    0.06
  -6  -6  -9    0.70    0.06
  -6  -6  -9    0.69    0.06
   6   6   9    0.70    0.05
  -7  -6  -9    0.20    0.04
  -7  -6  -9    0.32    0.03
  -7  -6  -9    0.29    0.03
   7   6   9    0.27    0.02
  -5   7   9    0.11    0.02
   4  -7  -9    0.08    0.02
  -4   7   9    0.08    0.02
   3  -7  -9    0.41    0.04
   3  -7  -9    0.54    0.09
   3  -7  -9    0.44    0.06
   2  -7  -9    0.04    0.05
   2  -7  -9   -0.01    0.03
   2  -7  -9    0.07    0.05
   2  -7  -9    0.02    0.02
  -2   7   9   -0.01    0.02
   1  -7  -9    0.03    0.03
   1  -7  -9    0.02    0.02
   0  -7  -9    0.84    0.07
   0  -7  -9    0.81    0.09
   0   7   9    0.87    0.07
   0   7   9    1.00    0.06
  -1  -7  -9    0.07    0.04
  -1  -7  -9    0.06    0.08
  -1  -7  -9    0.04    0.02
   1   7   9    0.04    0.01
  -2  -7  -9    0.62    0.10
  -2  -7  -9    0.35    0.07
  -2  -7  -9    0.60    0.09
  -2  -7  -9    0.43    0.05
  -2  -7  -9    0.38    0.07
   2   7   9    0.45    0.04
   2   7   9    0.49    0.04
  -3  -7  -9    0.32    0.05
  -3  -7  -9    0.24    0.07
  -3  -7  -9    0.30    0.04
  -3  -7  -9    0.30    0.05
   3   7   9    0.30    0.03
  -4  -7  -9    0.54    0.05
  -4  -7  -9    0.33    0.07
  -4  -7  -9    0.38    0.06
  -4  -7  -9    0.50    0.05
   4   7   9    0.52    0.04
  -5  -7  -9    0.20    0.03
  -5  -7  -9    0.18    0.03
  -5  -7  -9    0.20    0.04
   5   7   9    0.17    0.02
  -6  -7  -9    0.16    0.03
  -6  -7  -9    0.16    0.02
  -6  -7  -9    0.14    0.02
   6   7   9    0.15    0.02
  -7  -7  -9    0.06    0.01
  -7  -7  -9    0.04    0.01
   7   7   9    0.05    0.01
  -4   8   9    0.17    0.03
   3  -8  -9    0.46    0.04
   3  -8  -9    0.40    0.05
   2  -8  -9    0.08    0.03
   2  -8  -9    0.07    0.05
   2  -8  -9    0.05    0.02
  -2   8   9    0.08    0.02
   1  -8  -9    0.01    0.03
   1  -8  -9    0.03    0.02
  -1   8   9    0.01    0.02
   0  -8  -9    1.08    0.08
   0  -8  -9    1.02    0.09
   0   8   9    1.06    0.07
   0   8   9    1.10    0.08
  -1  -8  -9    0.51    0.05
  -1  -8  -9    0.45    0.06
  -1  -8  -9    0.54    0.07
   1   8   9    0.47    0.05
   1   8   9    0.58    0.04
  -2  -8  -9    0.01    0.03
  -2  -8  -9   -0.02    0.03
  -2  -8  -9   -0.02    0.02
   2   8   9    0.00    0.01
   2   8   9    0.00    0.01
  -3  -8  -9    0.31    0.04
  -3  -8  -9    0.29    0.05
  -3  -8  -9    0.50    0.13
  -3  -8  -9    0.33    0.04
   3   8   9    0.32    0.03
  -4  -8  -9    0.18    0.03
  -4  -8  -9    0.19    0.03
   4   8   9    0.18    0.02
  -5  -8  -9    0.04    0.02
  -5  -8  -9    0.00    0.02
  -5  -8  -9   -0.01    0.03
   5   8   9    0.01    0.01
  -6  -8  -9    0.43    0.04
  -6  -8  -9    0.32    0.04
  -6  -8  -9    0.38    0.04
   6   8   9    0.40    0.03
  -3   9   9    0.71    0.05
   2  -9  -9    0.18    0.03
   2  -9  -9    0.21    0.04
  -2   9   9    0.26    0.03
   1  -9  -9    0.02    0.01
   1  -9  -9    0.03    0.02
  -1   9   9    0.00    0.02
   0  -9  -9    0.08    0.03
   0  -9  -9    0.13    0.02
   0   9   9    0.13    0.03
  -1  -9  -9   -0.01    0.02
  -1  -9  -9    0.00    0.03
  -1  -9  -9    0.02    0.02
   1   9   9   -0.02    0.01
   1   9   9    0.02    0.01
  -2  -9  -9   -0.01    0.03
  -2  -9  -9    0.00    0.02
  -2  -9  -9    0.01    0.02
   2   9   9    0.02    0.01
  -3  -9  -9    0.57    0.07
  -3  -9  -9    0.63    0.05
  -3  -9  -9    0.61    0.05
   3   9   9    0.62    0.04
  -4  -9  -9    0.14    0.02
   4   9   9    0.15    0.01
  -5  -9  -9    0.05    0.02
  -5  -9  -9    0.06    0.03
   5   9   9    0.06    0.01
   1 -10  -9    0.03    0.01
  -1  10   9    0.01    0.01
   0 -10  -9    0.18    0.02
   0 -10  -9    0.18    0.03
   0  10   9    0.15    0.02
  -1 -10  -9    0.03    0.02
  -1 -10  -9    0.03    0.01
  -1 -10  -9   -0.02    0.03
  -2 -10  -9    0.03    0.01
  -2 -10  -9    0.02    0.02
   2  10   9    0.02    0.00
  -3 -10  -9    0.59    0.04
  -3 -10  -9    0.56    0.05
   3  10   9    0.57    0.04
  -4 -10  -9    0.05    0.03
  -4 -10  -9    0.08    0.02
   4  10   9    0.05    0.01
  -2  -1  10    0.03    0.01
  -1  -1  10    0.02    0.01
  -1  -1  10    0.02    0.01
   0  -1  10    0.10    0.02
   0  -1  10    0.14    0.01
  -1   1 -10    0.01    0.01
   1  -1  10    0.01    0.01
   1  -1  10    0.01    0.01
  -2   1 -10    0.00    0.02
  -2   1 -10    0.01    0.01
   2  -1  10    0.00    0.01
  -3   0  10    0.25    0.03
   2   0 -10    0.03    0.02
  -2   0  10    0.01    0.01
  -2   0  10    0.02    0.01
   1   0 -10    0.02    0.02
  -1   0  10    0.00    0.01
  -1   0  10    0.00    0.01
   0   0  10    0.16    0.02
  -1   0 -10   -0.01    0.03
  -1   0 -10    0.02    0.02
   1   0  10    0.02    0.01
  -2   0 -10    0.06    0.01
  -2   0 -10    0.09    0.03
  -3   0 -10    0.08    0.02
   3   0  10    0.08    0.01
  -4   0 -10    0.00    0.01
  -4   0 -10    0.01    0.02
   4   0  10    0.00    0.01
   4  -1 -10    0.11    0.02
   3  -1 -10    0.11    0.03
   3  -1 -10    0.12    0.02
  -3   1  10    0.19    0.03
   2  -1 -10    0.16    0.04
  -2   1  10    0.22    0.03
  -2   1  10    0.21    0.02
   1  -1 -10    0.02    0.02
   1  -1 -10    0.09    0.04
  -1   1  10    0.03    0.01
   0  -1 -10    0.16    0.04
   0  -1 -10    0.17    0.06
   0  -1 -10    0.15    0.02
   0  -1 -10    0.10    0.06
  -1  -1 -10    0.05    0.03
   1   1  10    0.05    0.01
  -2  -1 -10    0.00    0.02
  -2  -1 -10    0.05    0.03
   2   1  10    0.01    0.01
  -3  -1 -10    0.09    0.03
  -3  -1 -10    0.04    0.02
   3   1  10    0.06    0.01
  -4  -1 -10    0.01    0.01
  -4  -1 -10    0.02    0.03
   4   1  10    0.02    0.01
  -5  -1 -10    0.02    0.02
  -5  -1 -10   -0.01    0.01
   5   1  10    0.01    0.01
   5  -2 -10    0.02    0.01
  -5   2  10    0.03    0.01
   4  -2 -10    0.04    0.03
   3  -2 -10    0.23    0.03
   3  -2 -10    0.18    0.03
   2  -2 -10    0.07    0.03
   2  -2 -10    0.06    0.05
   2  -2 -10    0.04    0.07
   2  -2 -10    0.01    0.02
  -2   2  10    0.07    0.01
  -2   2  10    0.09    0.02
   1  -2 -10    0.02    0.05
   1  -2 -10   -0.03    0.02
   1  -2 -10    0.01    0.06
  -1   2  10    0.01    0.01
   0  -2 -10    0.35    0.07
   0  -2 -10    0.47    0.06
   0  -2 -10    0.43    0.05
   0  -2 -10    0.66    0.11
   0  -2 -10    0.46    0.08
   0   2  10    0.57    0.04
  -1  -2 -10    0.00    0.02
  -1  -2 -10    0.10    0.04
  -1  -2 -10   -0.08    0.06
  -1  -2 -10    0.11    0.05
   1   2  10    0.03    0.01
  -2  -2 -10   -0.14    0.07
  -2  -2 -10    0.12    0.04
  -2  -2 -10    0.06    0.02
  -3  -2 -10    0.13    0.04
  -3  -2 -10    0.06    0.02
   3   2  10    0.09    0.01
  -4  -2 -10    0.03    0.02
  -4  -2 -10    0.12    0.03
   4   2  10    0.08    0.01
  -5  -2 -10    0.00    0.01
  -5  -2 -10    0.08    0.03
   5   2  10    0.02    0.01
  -6  -2 -10    0.02    0.01
   6   2  10    0.04    0.01
   5  -3 -10   -0.01    0.01
  -5   3  10    0.01    0.01
   4  -3 -10    0.05    0.03
   4  -3 -10   -0.01    0.02
  -4   3  10    0.02    0.01
   3  -3 -10    0.43    0.04
   3  -3 -10    0.41    0.06
   3  -3 -10    0.28    0.06
   2  -3 -10    0.06    0.05
   2  -3 -10    0.02    0.06
   2  -3 -10   -0.02    0.02
   2  -3 -10   -0.02    0.03
  -2   3  10    0.04    0.02
  -2   3  10    0.02    0.01
   1  -3 -10    0.25    0.04
   1  -3 -10    0.34    0.05
   1  -3 -10    0.29    0.06
   1  -3 -10    0.24    0.04
   1  -3 -10    0.31    0.07
  -1   3  10    0.35    0.03
   0  -3 -10    0.45    0.06
   0  -3 -10    0.36    0.07
   0  -3 -10    0.36    0.06
   0  -3 -10    0.32    0.05
   0  -3 -10    0.39    0.07
   0   3  10    0.36    0.04
  -1  -3 -10   -0.02    0.06
  -1  -3 -10    0.21    0.06
  -1  -3 -10   -0.01    0.02
  -1  -3 -10   -0.01    0.04
  -1  -3 -10    0.09    0.04
  -2  -3 -10    0.19    0.05
  -2  -3 -10    0.07    0.04
  -2  -3 -10    0.02    0.02
  -2  -3 -10    0.00    0.06
  -2  -3 -10    0.04    0.06
   2   3  10    0.06    0.01
  -3  -3 -10    0.33    0.04
  -3  -3 -10    0.47    0.06
   3   3  10    0.43    0.03
  -4  -3 -10    0.12    0.04
  -4  -3 -10    0.06    0.02
   4   3  10    0.10    0.01
  -5  -3 -10   -0.01    0.01
  -5  -3 -10    0.06    0.03
   5   3  10    0.02    0.01
  -6  -3 -10    0.02    0.01
  -6  -3 -10    0.03    0.02
   6   3  10    0.03    0.01
   5  -4 -10    0.03    0.01
  -5   4  10    0.02    0.01
   4  -4 -10   -0.01    0.02
   4  -4 -10    0.00    0.02
  -4   4  10   -0.01    0.01
   3  -4 -10    0.13    0.03
   3  -4 -10    0.20    0.04
   3  -4 -10    0.09    0.02
   2  -4 -10    0.04    0.05
   2  -4 -10    0.02    0.06
   2  -4 -10    0.01    0.03
  -2   4  10    0.02    0.02
   1  -4 -10    0.76    0.11
   1  -4 -10    0.85    0.10
   1  -4 -10    0.60    0.08
   1  -4 -10    0.76    0.08
   1  -4 -10    0.84    0.07
  -1   4  10    0.85    0.06
   0  -4 -10    0.19    0.06
   0  -4 -10    0.22    0.06
   0  -4 -10    0.15    0.06
   0  -4 -10    0.06    0.04
   0   4  10    0.17    0.02
  -1  -4 -10   -0.01    0.06
  -1  -4 -10    0.06    0.04
  -1  -4 -10    0.13    0.06
  -1  -4 -10    0.13    0.06
   1   4  10    0.10    0.01
  -2  -4 -10    0.01    0.02
  -2  -4 -10    0.05    0.05
  -2  -4 -10   -0.09    0.06
  -2  -4 -10    0.05    0.07
   2   4  10   -0.01    0.02
  -3  -4 -10    0.35    0.04
  -3  -4 -10    0.32    0.04
  -3  -4 -10    0.38    0.06
   3   4  10    0.34    0.03
  -4  -4 -10    0.07    0.04
  -4  -4 -10    0.01    0.02
   4   4  10    0.02    0.01
  -5  -4 -10    0.09    0.03
  -5  -4 -10    0.07    0.01
   5   4  10    0.08    0.01
  -6  -4 -10    0.10    0.02
  -6  -4 -10    0.04    0.02
  -6  -4 -10    0.06    0.01
   6   4  10    0.08    0.01
  -5   5  10    0.06    0.01
   4  -5 -10    0.04    0.03
   4  -5 -10    0.01    0.02
  -4   5  10    0.04    0.02
   3  -5 -10    0.08    0.06
   3  -5 -10    0.14    0.02
   3  -5 -10    0.08    0.03
  -3   5  10    0.14    0.02
   2  -5 -10    0.40    0.06
   2  -5 -10    0.50    0.05
   2  -5 -10    0.42    0.07
   2  -5 -10    0.37    0.07
   2  -5 -10    0.32    0.06
   1  -5 -10   -0.01    0.04
   1  -5 -10    0.01    0.04
   1  -5 -10    0.00    0.05
   1  -5 -10   -0.01    0.05
   1  -5 -10    0.01    0.02
  -1   5  10    0.02    0.01
  -1   5  10    0.04    0.02
   0  -5 -10    0.24    0.06
   0  -5 -10    0.26    0.06
   0  -5 -10    0.29    0.05
   0  -5 -10    0.17    0.04
   0  -5 -10    0.22    0.03
  -1  -5 -10    0.06    0.04
  -1  -5 -10    0.10    0.03
  -1  -5 -10    0.02    0.06
  -1  -5 -10    0.04    0.06
  -1  -5 -10    0.09    0.06
   1   5  10    0.07    0.01
  -2  -5 -10    0.02    0.06
  -2  -5 -10    0.03    0.04
  -2  -5 -10    0.04    0.02
  -2  -5 -10    0.06    0.06
   2   5  10    0.02    0.02
  -3  -5 -10    0.40    0.10
  -3  -5 -10    0.52    0.06
   3   5  10    0.54    0.04
  -4  -5 -10    0.03    0.02
  -4  -5 -10    0.05    0.04
  -4  -5 -10   -0.01    0.03
   4   5  10    0.02    0.01
  -5  -5 -10    0.04    0.01
  -5  -5 -10    0.01    0.02
  -5  -5 -10    0.05    0.03
  -6  -5 -10    0.31    0.04
  -6  -5 -10    0.19    0.03
  -6  -5 -10    0.24    0.02
   6   5  10    0.27    0.02
   3  -6 -10    0.03    0.03
   3  -6 -10    0.04    0.02
   2  -6 -10    0.10    0.06
   2  -6 -10    0.08    0.04
   2  -6 -10    0.05    0.02
   2  -6 -10    0.04    0.03
   2  -6 -10    0.00    0.04
  -2   6  10    0.04    0.02
   1  -6 -10    0.11    0.05
   1  -6 -10    0.14    0.06
   1  -6 -10    0.12    0.02
   1  -6 -10    0.16    0.04
  -1   6  10    0.17    0.02
   0  -6 -10    0.23    0.05
   0  -6 -10    0.30    0.06
   0  -6 -10    0.31    0.04
   0  -6 -10    0.27    0.05
   0   6  10    0.36    0.03
  -1  -6 -10    0.01    0.05
  -1  -6 -10    0.04    0.02
  -1  -6 -10    0.09    0.05
  -1  -6 -10    0.03    0.06
   1   6  10    0.08    0.01
  -2  -6 -10   -0.04    0.06
  -2  -6 -10    0.01    0.04
  -2  -6 -10   -0.03    0.04
  -2  -6 -10    0.13    0.07
  -2  -6 -10    0.00    0.02
   2   6  10    0.01    0.01
  -3  -6 -10    0.22    0.04
  -3  -6 -10    0.26    0.04
  -3  -6 -10    0.41    0.08
  -3  -6 -10    0.50    0.12
   3   6  10    0.23    0.02
  -4  -6 -10    0.13    0.03
  -4  -6 -10    0.09    0.03
  -4  -6 -10    0.13    0.02
   4   6  10    0.11    0.02
  -5  -6 -10    0.02    0.03
  -5  -6 -10    0.01    0.01
  -5  -6 -10    0.02    0.02
   5   6  10    0.00    0.01
  -6  -6 -10    0.33    0.04
  -6  -6 -10    0.32    0.03
  -6  -6 -10    0.25    0.03
   6   6  10    0.33    0.02
   3  -7 -10    0.11    0.02
   3  -7 -10    0.11    0.03
  -3   7  10    0.06    0.01
   2  -7 -10    0.05    0.02
   1  -7 -10    0.02    0.02
   1  -7 -10   -0.01    0.03
   1  -7 -10    0.06    0.05
   1  -7 -10   -0.02    0.05
   0  -7 -10    0.97    0.10
   0  -7 -10    0.69    0.06
   0   7  10    0.64    0.06
   0   7  10    0.82    0.05
  -1  -7 -10    0.33    0.05
  -1  -7 -10    0.12    0.06
  -1  -7 -10    0.21    0.03
  -1  -7 -10    0.40    0.07
   1   7  10    0.24    0.02
  -2  -7 -10    0.18    0.07
  -2  -7 -10    0.09    0.02
  -2  -7 -10    0.14    0.07
   2   7  10    0.08    0.01
  -3  -7 -10    0.26    0.03
  -3  -7 -10    0.25    0.04
  -3  -7 -10    0.22    0.03
  -3  -7 -10    0.14    0.05
   3   7  10    0.25    0.02
  -4  -7 -10    0.16    0.03
  -4  -7 -10    0.13    0.03
   4   7  10    0.12    0.01
  -5  -7 -10   -0.02    0.03
  -5  -7 -10    0.02    0.02
  -5  -7 -10    0.01    0.02
   5   7  10    0.00    0.01
  -6  -7 -10    0.04    0.01
  -6  -7 -10    0.05    0.02
  -6  -7 -10    0.07    0.01
   6   7  10    0.05    0.01
   3  -8 -10    0.18    0.02
  -3   8  10    0.13    0.02
   2  -8 -10    0.04    0.02
   2  -8 -10    0.04    0.03
   1  -8 -10   -0.01    0.02
   1  -8 -10    0.05    0.03
   0  -8 -10    0.81    0.07
   0  -8 -10    0.81    0.06
   0   8  10    0.79    0.06
  -1  -8 -10    0.51    0.06
  -1  -8 -10    0.38    0.04
   1   8  10    0.48    0.03
  -2  -8 -10    0.02    0.02
  -2  -8 -10    0.01    0.03
   2   8  10    0.02    0.01
  -3  -8 -10    0.35    0.05
  -3  -8 -10    0.36    0.04
  -3  -8 -10    0.42    0.04
   3   8  10    0.43    0.03
  -4  -8 -10    0.02    0.02
  -4  -8 -10    0.02    0.02
   4   8  10    0.01    0.01
  -5  -8 -10    0.00    0.02
   5   8  10   -0.01    0.01
   2  -9 -10    0.04    0.01
   1  -9 -10   -0.01    0.01
   0  -9 -10    0.22    0.03
   0   9  10    0.15    0.02
  -1  -9 -10    0.04    0.03
  -1  -9 -10    0.04    0.02
  -2  -9 -10    0.24    0.03
   2   9  10    0.26    0.02
  -3  -9 -10    0.36    0.03
  -3  -9 -10    0.30    0.04
  -3  -9 -10    0.35    0.04
   3   9  10    0.36    0.03
  -4  -9 -10    0.01    0.02
  -4  -9 -10    0.04    0.01
   4   9  10    0.02    0.01
  -1   1  11    0.02    0.01
  -1   1  11    0.01    0.01
   0   1  11    0.09    0.01
   0   1  11    0.08    0.01
   1   1  11    0.08    0.01
  -2  -1 -11    0.04    0.02
   2   1  11    0.08    0.01
   2  -2 -11    0.01    0.01
  -2   2  11    0.01    0.01
   1  -2 -11    0.02    0.02
  -1   2  11    0.01    0.01
  -1   2  11    0.01    0.01
   0  -2 -11    0.04    0.02
   0   2  11    0.06    0.01
  -1  -2 -11    0.03    0.03
  -2  -2 -11    0.06    0.02
   2   2  11    0.06    0.01
  -3  -2 -11    0.08    0.02
  -3  -2 -11    0.06    0.01
   3   2  11    0.08    0.01
   3  -3 -11    0.02    0.01
  -3   3  11    0.05    0.01
   2  -3 -11    0.01    0.03
   2  -3 -11    0.03    0.02
  -2   3  11    0.00    0.01
   1  -3 -11    0.08    0.03
   1  -3 -11    0.00    0.02
  -1   3  11    0.03    0.01
   0  -3 -11    0.03    0.04
   0  -3 -11    0.00    0.03
   0  -3 -11    0.02    0.02
   0   3  11    0.03    0.01
  -1  -3 -11    0.05    0.02
  -1  -3 -11    0.03    0.03
  -2  -3 -11    0.07    0.03
   2   3  11    0.05    0.01
  -3  -3 -11    0.18    0.03
   3   3  11    0.20    0.02
  -4  -3 -11    0.01    0.02
  -4  -3 -11    0.02    0.01
   4   3  11    0.01    0.01
   3  -4 -11    0.05    0.02
  -3   4  11    0.07    0.01
   2  -4 -11    0.01    0.02
   2  -4 -11    0.01    0.03
  -2   4  11    0.02    0.01
   1  -4 -11    0.00    0.02
   1  -4 -11    0.01    0.03
  -1   4  11    0.04    0.01
   0  -4 -11    0.39    0.04
   0  -4 -11    0.41    0.05
   0  -4 -11    0.48    0.06
   0   4  11    0.52    0.03
  -1  -4 -11    0.26    0.05
  -1  -4 -11    0.37    0.06
  -1  -4 -11    0.25    0.03
   1   4  11    0.28    0.02
  -2  -4 -11    0.02    0.03
  -2  -4 -11    0.05    0.02
   2   4  11    0.00    0.01
  -3  -4 -11    0.13    0.03
   3   4  11    0.15    0.01
  -4  -4 -11    0.01    0.01
  -4  -4 -11    0.03    0.02
   4   4  11    0.00    0.01
  -5  -4 -11    0.02    0.01
   3  -5 -11    0.23    0.03
   2  -5 -11    0.06    0.02
   2  -5 -11    0.06    0.03
  -2   5  11    0.08    0.01
   1  -5 -11    0.04    0.03
   1  -5 -11    0.04    0.03
  -1   5  11    0.06    0.01
   0  -5 -11   -0.01    0.03
   0  -5 -11    0.05    0.03
   0   5  11    0.03    0.01
   0   5  11    0.04    0.01
  -1  -5 -11    0.01    0.04
  -1  -5 -11    0.01    0.02
  -1  -5 -11    0.03    0.03
   1   5  11    0.01    0.01
  -2  -5 -11    0.00    0.03
  -2  -5 -11    0.02    0.03
   2   5  11    0.01    0.01
  -3  -5 -11    0.18    0.03
   3   5  11    0.16    0.02
  -4  -5 -11    0.09    0.03
   4   5  11    0.08    0.01
  -5  -5 -11    0.02    0.02
  -5  -5 -11    0.05    0.01
   5   5  11    0.02    0.01
   3  -6 -11    0.16    0.02
   2  -6 -11    0.06    0.03
   1  -6 -11    0.02    0.02
   1  -6 -11    0.02    0.03
   1  -6 -11   -0.03    0.03
  -1   6  11    0.00    0.01
   0  -6 -11    0.10    0.03
   0  -6 -11    0.16    0.02
   0  -6 -11    0.15    0.03
   0   6  11    0.21    0.03
   0   6  11    0.19    0.01
  -1  -6 -11    0.04    0.03
  -1  -6 -11    0.08    0.03
  -1  -6 -11    0.07    0.02
   1   6  11    0.05    0.01
  -2  -6 -11    0.02    0.03
   2   6  11    0.00    0.01
  -3  -6 -11    0.07    0.03
   3   6  11    0.05    0.01
  -4  -6 -11    0.16    0.03
   4   6  11    0.18    0.02
  -5  -6 -11    0.01    0.02
   5   6  11    0.01    0.00
   2  -7 -11    0.00    0.01
   1  -7 -11    0.01    0.02
   1  -7 -11    0.04    0.03
   1  -7 -11    0.02    0.02
   0  -7 -11    0.30    0.04
   0  -7 -11    0.32    0.03
   0  -7 -11    0.27    0.05
  -1  -7 -11    0.03    0.02
  -1  -7 -11    0.01    0.03
  -1  -7 -11    0.04    0.03
   1   7  11    0.03    0.01
  -2  -7 -11    0.03    0.02
  -2  -7 -11    0.02    0.03
   2   7  11    0.04    0.01
  -3  -7 -11    0.28    0.04
   3   7  11    0.30    0.02
  -4  -7 -11    0.17    0.03
   4   7  11    0.21    0.02
   1  -8 -11    0.03    0.02
   1  -8 -11    0.03    0.01
   0  -8 -11    0.42    0.04
   0  -8 -11    0.46    0.04
  -1  -8 -11    0.02    0.02
  -1  -8 -11    0.06    0.01
  -2  -8 -11    0.05    0.02
  -2  -8 -11    0.09    0.01
   2   8  11    0.09    0.01
  -3  -8 -11    0.07    0.02
   3   8  11    0.05    0.01
   0  -5 -12    0.03    0.01
   0   5  12    0.00    0.01
  -1  -5 -12   -0.02    0.02
   1   5  12    0.04    0.01
  -1  -6 -12    0.05    0.02
   0   0   0    0.00    0.00
;
_shelx_hkl_checksum              5628
loop_
_space_group_symop_operation_xyz
'x, y, z'
'-x, -y, -z'
loop_
_atom_site_label
_atom_site_type_symbol
_atom_site_fract_x
_atom_site_fract_y
_atom_site_fract_z
_atom_site_U_iso_or_equiv
_atom_site_adp_type
_atom_site_occupancy
_atom_site_site_symmetry_order
_atom_site_calc_flag
_atom_site_refinement_flags_posn
_atom_site_refinement_flags_adp
_atom_site_refinement_flags_occupancy
Co1 Co 0.16661(14) 0.00180(15) 0.50853(15) 0.0798(6) Uani 1 1 d . . .
Co2 Co 0.5000 0.0000 0.5000 0.0827(7) Uani 1 2 d S . P
C1 C 0.2703(11) 0.2714(11) 0.4152(11) 0.088(2) Uani 1 1 d . . .
C2 C 0.3446(6) 0.4242(5) 0.3511(6) 0.081(2) Uani 1 1 d G . .
C3 C 0.3029(5) 0.5418(6) 0.3962(6) 0.078(2) Uani 1 1 d G . .
H3A H 0.2197 0.5327 0.4604 0.094 Uiso 1 1 calc R U .
C4 C 0.3828(6) 0.6728(5) 0.3475(6) 0.0755(19) Uani 1 1 d G . .
C5 C 0.5044(6) 0.6862(5) 0.2536(6) 0.081(2) Uani 1 1 d G . .
H5A H 0.5590 0.7757 0.2203 0.097 Uiso 1 1 calc R U .
C6 C 0.5461(5) 0.5685(6) 0.2085(6) 0.085(2) Uani 1 1 d G . .
C7 C 0.4662(6) 0.4375(6) 0.2572(6) 0.082(2) Uani 1 1 d G . .
H7A H 0.4947 0.3571 0.2264 0.098 Uiso 1 1 calc R U .
C8 C 0.6744(11) 0.5781(13) 0.0988(13) 0.104(3) Uani 1 1 d . . .
H8A H 0.7347 0.4747 0.1391 0.124 Uiso 1 1 calc R U .
H8B H 0.6357 0.5978 0.0011 0.124 Uiso 1 1 calc R U .
N7 N 0.7660(6) 0.7029(7) 0.0744(7) 0.094(2) Uani 1 1 d G . .
C9 C 0.8651(8) 0.6824(7) 0.1819(6) 0.121(4) Uani 1 1 d G . .
H9A H 0.8703 0.5881 0.2747 0.145 Uiso 1 1 calc R U .
C10 C 0.9566(7) 0.8001(8) 0.1538(6) 0.117(4) Uani 1 1 d G . .
H10A H 1.0244 0.7861 0.2273 0.140 Uiso 1 1 calc R U .
C11 C 0.9490(6) 0.9382(7) 0.0181(7) 0.083(2) Uani 1 1 d G . .
C12 C 0.8499(7) 0.9586(6) -0.0895(6) 0.096(3) Uani 1 1 d G . .
H12A H 0.8447 1.0530 -0.1822 0.115 Uiso 1 1 calc R U .
C13 C 0.7584(6) 0.8410(8) -0.0613(7) 0.105(3) Uani 1 1 d G . .
H13A H 0.6906 0.8550 -0.1348 0.126 Uiso 1 1 calc R U .
C14 C 0.3505(9) 0.7954(9) 0.4050(9) 0.0745(19) Uani 1 1 d . . .
N1 N 0.3345(8) -0.0947(9) 0.6672(9) 0.0844(19) Uani 1 1 d . . .
N2 N 0.3424(9) -0.1068(10) 0.7886(11) 0.100(2) Uani 1 1 d . . .
N3 N 0.3556(13) -0.1224(17) 0.9035(13) 0.151(4) Uani 1 1 d . . .
N4 N -0.0028(7) -0.1034(9) 0.6548(9) 0.0854(19) Uani 1 1 d . . .
N5 N 0.0026(9) -0.2419(11) 0.7435(10) 0.104(2) Uani 1 1 d . . .
N6 N 0.0027(12) -0.3679(13) 0.8288(12) 0.138(4) Uani 1 1 d . . .
O1 O 0.3206(6) 0.1666(6) 0.3726(7) 0.0827(15) Uani 1 1 d . . .
O2 O 0.1648(8) 0.2499(7) 0.5042(8) 0.0979(18) Uani 1 1 d . . .
O3 O 0.2246(6) 0.8187(7) 0.4476(7) 0.0843(15) Uani 1 1 d . . .
O4 O 0.4575(6) 0.8669(7) 0.4000(7) 0.0858(16) Uani 1 1 d . . .
loop_
_atom_site_aniso_label
_atom_site_aniso_U_11
_atom_site_aniso_U_22
_atom_site_aniso_U_33
_atom_site_aniso_U_23
_atom_site_aniso_U_13
_atom_site_aniso_U_12
Co1 0.0798(9) 0.0740(9) 0.0924(10) -0.0425(7) 0.0044(7) -0.0148(6)
Co2 0.0833(12) 0.0837(12) 0.0978(14) -0.0534(11) 0.0026(10) -0.0196(9)
C1 0.094(6) 0.083(5) 0.094(6) -0.044(5) -0.006(5) -0.014(5)
C2 0.087(5) 0.074(5) 0.094(6) -0.045(4) -0.005(4) -0.012(4)
C3 0.077(5) 0.082(5) 0.086(5) -0.046(4) 0.000(4) -0.010(4)
C4 0.077(5) 0.072(4) 0.083(5) -0.039(4) -0.005(4) -0.010(4)
C5 0.088(5) 0.071(5) 0.089(5) -0.039(4) -0.002(4) -0.018(4)
C6 0.084(5) 0.091(6) 0.091(6) -0.049(5) -0.002(4) -0.015(4)
C7 0.087(5) 0.078(5) 0.094(6) -0.049(4) 0.002(4) -0.015(4)
C8 0.103(7) 0.104(7) 0.133(8) -0.076(6) 0.019(6) -0.032(5)
N7 0.089(5) 0.105(5) 0.104(5) -0.061(5) 0.015(4) -0.025(4)
C9 0.135(9) 0.110(8) 0.101(7) -0.029(6) 0.004(7) -0.038(7)
C10 0.118(8) 0.122(8) 0.103(7) -0.034(6) -0.016(6) -0.047(7)
C11 0.080(5) 0.093(6) 0.085(5) -0.048(5) 0.006(4) -0.015(4)
C12 0.102(7) 0.091(6) 0.097(6) -0.043(5) -0.004(5) -0.022(5)
C13 0.105(7) 0.121(8) 0.110(7) -0.066(7) -0.004(6) -0.022(6)
C14 0.076(5) 0.069(4) 0.081(5) -0.034(4) -0.008(4) -0.008(4)
N1 0.079(4) 0.089(5) 0.093(5) -0.046(4) 0.002(4) -0.019(4)
N2 0.108(6) 0.108(6) 0.085(6) -0.047(5) -0.004(4) -0.003(5)
N3 0.143(9) 0.215(13) 0.099(7) -0.077(8) -0.012(6) 0.002(8)
N4 0.070(4) 0.088(5) 0.091(5) -0.034(4) 0.003(3) -0.011(3)
N5 0.094(5) 0.089(6) 0.101(6) -0.020(5) 0.006(4) -0.007(4)
N6 0.137(8) 0.096(6) 0.127(8) -0.007(6) 0.005(6) 0.000(6)
O1 0.087(4) 0.072(3) 0.098(4) -0.045(3) 0.004(3) -0.021(3)
O2 0.110(5) 0.087(4) 0.108(4) -0.052(4) 0.015(4) -0.027(3)
O3 0.080(4) 0.082(3) 0.108(4) -0.058(3) -0.001(3) -0.009(3)
O4 0.089(4) 0.088(4) 0.102(4) -0.059(3) 0.005(3) -0.024(3)
loop_
_atom_type_symbol
_atom_type_description
_atom_type_scat_dispersion_real
_atom_type_scat_dispersion_imag
_atom_type_scat_source
C C 0.0181 0.0091 'International Tables Vol C Tables 4.2.6.8 and 6.1.1.4'
Co Co -2.3653 3.6143 'International Tables Vol C Tables 4.2.6.8 and 6.1.1.4'
N N 0.0311 0.0180 'International Tables Vol C Tables 4.2.6.8 and 6.1.1.4'
O O 0.0492 0.0322 'International Tables Vol C Tables 4.2.6.8 and 6.1.1.4'
H H 0.0000 0.0000 'International Tables Vol C Tables 4.2.6.8 and 6.1.1.4'
loop_
_geom_angle_atom_site_label_1
_geom_angle_atom_site_label_2
_geom_angle_atom_site_label_3
_geom_angle
_geom_angle_site_symmetry_1
_geom_angle_site_symmetry_3
N4 Co1 N4 84.4(3) . 2_556
N4 Co1 O3 96.7(3) . 1_545
N4 Co1 O3 91.4(3) 2_556 1_545
N4 Co1 N1 97.2(3) . .
N4 Co1 N1 178.3(3) 2_556 .
O3 Co1 N1 88.9(3) 1_545 .
N4 Co1 O1 163.2(3) . .
N4 Co1 O1 94.0(3) 2_556 .
O3 Co1 O1 100.1(2) 1_545 .
N1 Co1 O1 84.3(3) . .
N4 Co1 O2 104.6(3) . .
N4 Co1 O2 87.7(3) 2_556 .
O3 Co1 O2 158.5(3) 1_545 .
N1 Co1 O2 91.4(3) . .
O1 Co1 O2 58.7(2) . .
O4 Co2 O4 180.0 2_666 1_545
O4 Co2 N1 92.2(3) 2_666 2_656
O4 Co2 N1 87.8(3) 1_545 2_656
O4 Co2 N1 87.8(3) 2_666 .
O4 Co2 N1 92.2(3) 1_545 .
N1 Co2 N1 180.0 2_656 .
O4 Co2 O1 86.7(2) 2_666 2_656
O4 Co2 O1 93.3(2) 1_545 2_656
N1 Co2 O1 83.3(3) 2_656 2_656
N1 Co2 O1 96.7(3) . 2_656
O4 Co2 O1 93.3(2) 2_666 .
O4 Co2 O1 86.7(2) 1_545 .
N1 Co2 O1 96.7(3) 2_656 .
N1 Co2 O1 83.3(3) . .
O1 Co2 O1 180.0 2_656 .
O2 C1 O1 121.7(8) . .
O2 C1 C2 121.3(8) . .
O1 C1 C2 117.1(8) . .
C3 C2 C7 120.0 . .
C3 C2 C1 121.4(5) . .
C7 C2 C1 118.2(5) . .
C2 C3 C4 120.0 . .
C2 C3 H3A 120.0 . .
C4 C3 H3A 120.0 . .
C5 C4 C3 120.0 . .
C5 C4 C14 117.9(4) . .
C3 C4 C14 121.9(4) . .
C4 C5 C6 120.0 . .
C4 C5 H5A 120.0 . .
C6 C5 H5A 120.0 . .
C7 C6 C5 120.0 . .
C7 C6 C8 116.6(5) . .
C5 C6 C8 123.3(5) . .
C6 C7 C2 120.0 . .
C6 C7 H7A 120.0 . .
C2 C7 H7A 120.0 . .
N7 C8 C6 112.6(7) . .
N7 C8 H8A 109.1 . .
C6 C8 H8A 109.1 . .
N7 C8 H8B 109.1 . .
C6 C8 H8B 109.1 . .
H8A C8 H8B 107.8 . .
C9 N7 C13 120.0 . .
C9 N7 C8 120.8(6) . .
C13 N7 C8 119.2(6) . .
N7 C9 C10 120.0 . .
N7 C9 H9A 120.0 . .
C10 C9 H9A 120.0 . .
C9 C10 C11 120.0 . .
C9 C10 H10A 120.0 . .
C11 C10 H10A 120.0 . .
C12 C11 C10 120.0 . .
C12 C11 C11 118.9(7) . 2_775
C10 C11 C11 121.0(8) . 2_775
C13 C12 C11 120.0 . .
C13 C12 H12A 120.0 . .
C11 C12 H12A 120.0 . .
C12 C13 N7 120.0 . .
C12 C13 H13A 120.0 . .
N7 C13 H13A 120.0 . .
O3 C14 O4 126.7(7) . .
O3 C14 C4 119.2(6) . .
O4 C14 C4 114.0(7) . .
N2 N1 Co1 132.3(7) . .
N2 N1 Co2 122.2(6) . .
Co1 N1 Co2 92.9(3) . .
N3 N2 N1 176.8(12) . .
N5 N4 Co1 123.9(6) . .
N5 N4 Co1 120.5(6) . 2_556
Co1 N4 Co1 95.6(3) . 2_556
N6 N5 N4 176.9(11) . .
C1 O1 Co1 93.5(5) . .
C1 O1 Co2 116.7(5) . .
Co1 O1 Co2 90.5(2) . .
C1 O2 Co1 86.1(5) . .
C14 O3 Co1 121.4(5) . 1_565
C14 O4 Co2 133.0(6) . 1_565
loop_
_geom_bond_atom_site_label_1
_geom_bond_atom_site_label_2
_geom_bond_distance
_geom_bond_site_symmetry_2
Co1 N4 2.069(7) .
Co1 N4 2.109(8) 2_556
Co1 O3 2.092(5) 1_545
Co1 N1 2.107(8) .
Co1 O1 2.147(5) .
Co1 O2 2.331(6) .
Co2 O4 2.014(5) 2_666
Co2 O4 2.014(5) 1_545
Co2 N1 2.126(7) 2_656
Co2 N1 2.126(7) .
Co2 O1 2.172(6) 2_656
Co2 O1 2.172(6) .
C1 O2 1.241(11) .
C1 O1 1.279(11) .
C1 C2 1.516(10) .
C2 C3 1.3900 .
C2 C7 1.3900 .
C3 C4 1.3900 .
C3 H3A 0.9500 .
C4 C5 1.3900 .
C4 C14 1.508(9) .
C5 C6 1.3900 .
C5 H5A 0.9500 .
C6 C7 1.3900 .
C6 C8 1.538(11) .
C7 H7A 0.9500 .
C8 N7 1.452(10) .
C8 H8A 0.9900 .
C8 H8B 0.9900 .
N7 C9 1.3900 .
N7 C13 1.3900 .
C9 C10 1.3900 .
C9 H9A 0.9500 .
C10 C11 1.3900 .
C10 H10A 0.9500 .
C11 C12 1.3900 .
C11 C11 1.486(8) 2_775
C12 C13 1.3900 .
C12 H12A 0.9500 .
C13 H13A 0.9500 .
C14 O3 1.240(10) .
C14 O4 1.245(9) .
N1 N2 1.171(11) .
N2 N3 1.102(12) .
N4 N5 1.202(11) .
N4 Co1 2.109(8) 2_556
N5 N6 1.107(11) .
O3 Co1 2.092(5) 1_565
O4 Co2 2.014(5) 1_565
loop_
_geom_torsion_atom_site_label_1
_geom_torsion_atom_site_label_2
_geom_torsion_atom_site_label_3
_geom_torsion_atom_site_label_4
_geom_torsion
_geom_torsion_site_symmetry_1
_geom_torsion_site_symmetry_4
O2 C1 C2 C3 3.9(11) . .
O1 C1 C2 C3 -176.7(6) . .
O2 C1 C2 C7 177.2(7) . .
O1 C1 C2 C7 -3.4(9) . .
C7 C2 C3 C4 0.0 . .
C1 C2 C3 C4 173.2(6) . .
C2 C3 C4 C5 0.0 . .
C2 C3 C4 C14 -174.1(6) . .
C3 C4 C5 C6 0.0 . .
C14 C4 C5 C6 174.3(6) . .
C4 C5 C6 C7 0.0 . .
C4 C5 C6 C8 176.9(7) . .
C5 C6 C7 C2 0.0 . .
C8 C6 C7 C2 -177.1(7) . .
C3 C2 C7 C6 0.0 . .
C1 C2 C7 C6 -173.5(6) . .
C7 C6 C8 N7 -170.2(6) . .
C5 C6 C8 N7 12.9(11) . .
C6 C8 N7 C9 76.8(9) . .
C6 C8 N7 C13 -106.2(8) . .
C13 N7 C9 C10 0.0 . .
C8 N7 C9 C10 177.0(7) . .
N7 C9 C10 C11 0.0 . .
C9 C10 C11 C12 0.0 . .
C9 C10 C11 C11 -176.7(10) . 2_775
C10 C11 C12 C13 0.0 . .
C11 C11 C12 C13 176.8(10) 2_775 .
C11 C12 C13 N7 0.0 . .
C9 N7 C13 C12 0.0 . .
C8 N7 C13 C12 -177.1(7) . .
C5 C4 C14 O3 157.7(6) . .
C3 C4 C14 O3 -28.1(9) . .
C5 C4 C14 O4 -20.4(8) . .
C3 C4 C14 O4 153.8(5) . .
O2 C1 O1 Co1 -1.2(9) . .
C2 C1 O1 Co1 179.4(6) . .
O2 C1 O1 Co2 -93.6(9) . .
C2 C1 O1 Co2 87.0(8) . .
O1 C1 O2 Co1 1.1(8) . .
C2 C1 O2 Co1 -179.5(7) . .
O4 C14 O3 Co1 4.1(12) . 1_565
C4 C14 O3 Co1 -173.8(4) . 1_565
O3 C14 O4 Co2 18.8(13) . 1_565
C4 C14 O4 Co2 -163.2(5) . 1_565
