#------------------------------------------------------------------------------
#$Date: 2019-10-28 05:45:54 +0200 (Mon, 28 Oct 2019) $
#$Revision: 219766 $
#$URL: file:///home/coder/svn-repositories/cod/cif/4/51/45/4514582.cif $
#------------------------------------------------------------------------------
#
# This file is available in the Crystallography Open Database (COD),
# http://www.crystallography.net/
#
# All data on this site have been placed in the public domain by the
# contributors.
#
data_4514582
loop_
_publ_author_name
'Dietrich, Dennis'
'Licht, Christopher'
'Nuhnen, Alexander'
'H\"ofert, Simon-Patrick'
'De Laporte, Laura'
'Janiak, Christoph'
_publ_section_title
;
 Metal-Organic Gels Based on a Bisamide Tetracarboxyl Ligand for Carbon
 Dioxide, Sulfur Dioxide, and Selective Dye Uptake.
;
_journal_issue                   21
_journal_name_full               'ACS applied materials &amp; interfaces'
_journal_page_first              19654
_journal_page_last               19667
_journal_paper_doi               10.1021/acsami.9b04659
_journal_volume                  11
_journal_year                    2019
_chemical_formula_moiety         'C24 H16 N2 O10, 4(C3 H7 N O)'
_chemical_formula_sum            'C36 H44 N6 O14'
_chemical_formula_weight         784.77
_chemical_name_systematic        'N1,N4-(diterephthalic acid)terephthalamide'
_space_group_crystal_system      triclinic
_space_group_IT_number           2
_space_group_name_Hall           '-P 1'
_space_group_name_H-M_alt        'P -1'
_symmetry_space_group_name_Hall  '-P 1'
_symmetry_space_group_name_H-M   'P -1'
_atom_sites_solution_hydrogens   mixed
_atom_sites_solution_primary     direct
_atom_sites_solution_secondary   difmap
_audit_creation_method           SHELXL-2017/1
_cell_angle_alpha                70.524(3)
_cell_angle_beta                 85.858(3)
_cell_angle_gamma                82.850(3)
_cell_formula_units_Z            1
_cell_length_a                   6.3468(4)
_cell_length_b                   12.4679(8)
_cell_length_c                   13.0046(9)
_cell_measurement_reflns_used    9926
_cell_measurement_temperature    110(2)
_cell_measurement_theta_max      27.576
_cell_measurement_theta_min      3.209
_cell_volume                     962.12(11)
_computing_cell_refinement       'SAINT (Bruker, 2012)'
_computing_data_collection       'APEX2 (Bruker, 2012)'
_computing_data_reduction        'SAINT (Bruker, 2012)'
_computing_molecular_graphics    'DIAMOND 4.3.1 (Brandenburg, 1999)'
_computing_publication_material  'SHELXL-2017/1 (Sheldrick, 2015b)'
_computing_structure_refinement  'SHELXL-2017/1 (Sheldrick, 2015b)'
_computing_structure_solution    'SHELXT-2015 (Sheldrick 2015a)'
_diffrn_ambient_temperature      110(2)
_diffrn_measured_fraction_theta_full 0.995
_diffrn_measured_fraction_theta_max 0.995
_diffrn_measurement_device_type  'Bruker Kappa APEX-II CCD area detector'
_diffrn_measurement_method       '\w scans, \f scans'
_diffrn_radiation_monochromator  'multilayer mirror'
_diffrn_radiation_source         'microfocus sealed tube'
_diffrn_radiation_type           MoK\a
_diffrn_radiation_wavelength     0.71073
_diffrn_reflns_av_R_equivalents  0.0208
_diffrn_reflns_av_unetI/netI     0.0128
_diffrn_reflns_Laue_measured_fraction_full 0.995
_diffrn_reflns_Laue_measured_fraction_max 0.995
_diffrn_reflns_limit_h_max       7
_diffrn_reflns_limit_h_min       -7
_diffrn_reflns_limit_k_max       15
_diffrn_reflns_limit_k_min       -15
_diffrn_reflns_limit_l_max       16
_diffrn_reflns_limit_l_min       -16
_diffrn_reflns_number            24165
_diffrn_reflns_point_group_measured_fraction_full 0.995
_diffrn_reflns_point_group_measured_fraction_max 0.995
_diffrn_reflns_theta_full        25.242
_diffrn_reflns_theta_max         26.149
_diffrn_reflns_theta_min         1.662
_exptl_absorpt_coefficient_mu    0.105
_exptl_absorpt_correction_T_max  1.0000
_exptl_absorpt_correction_T_min  0.9452
_exptl_absorpt_correction_type   multi-scan
_exptl_absorpt_process_details   '(<i>SADABS</i>; Sheldrick, 1996)'
_exptl_crystal_colour            'clear colourless'
_exptl_crystal_density_diffrn    1.354
_exptl_crystal_density_method    'not measured'
_exptl_crystal_description       needle
_exptl_crystal_F_000             414
_exptl_crystal_size_max          0.125
_exptl_crystal_size_mid          0.080
_exptl_crystal_size_min          0.050
_refine_diff_density_max         0.371
_refine_diff_density_min         -0.277
_refine_diff_density_rms         0.045
_refine_ls_extinction_method     none
_refine_ls_goodness_of_fit_ref   1.030
_refine_ls_hydrogen_treatment    mixed
_refine_ls_matrix_type           full
_refine_ls_number_parameters     285
_refine_ls_number_reflns         3835
_refine_ls_number_restraints     4
_refine_ls_restrained_S_all      1.029
_refine_ls_R_factor_all          0.0393
_refine_ls_R_factor_gt           0.0364
_refine_ls_shift/su_max          0.000
_refine_ls_shift/su_mean         0.000
_refine_ls_structure_factor_coef Fsqd
_refine_ls_weighting_details
'w=1/[\s^2^(Fo^2^)+(0.0509P)^2^+0.4028P] where P=(Fo^2^+2Fc^2^)/3'
_refine_ls_weighting_scheme      calc
_refine_ls_wR_factor_gt          0.0976
_refine_ls_wR_factor_ref         0.1004
_reflns_Friedel_coverage         0.000
_reflns_number_gt                3537
_reflns_number_total             3835
_reflns_threshold_expression     'I > 2\s(I)'
_cod_data_source_file            am9b04659_si_002.cif
_cod_data_source_block           Dietrich_Ligand
_cod_database_code               4514582
_shelx_shelxl_version_number     2017/1
_shelx_space_group_comment
;
The symmetry employed for this shelxl refinement is uniquely defined
by the following loop, which should always be used as a source of
symmetry information in preference to the above space-group names.
They are only intended as comments.
;
_shelx_estimated_absorpt_t_min   0.987
_shelx_estimated_absorpt_t_max   0.995
_shelx_res_file
;

TITL mo_SH_DD_DSLA3_1M_0m_a.res in P-1
    Dietrich_Ligand.res
    created by SHELXL-2017/1 at 14:37:12 on 04-Jul-2018
REM Old TITL mo_SH_DD_DSLA3_1M_0m in P-1
REM SHELXT solution in P-1
REM R1 0.156,  Rweak 0.003,  Alpha 0.037,  Orientation as input
REM Formula found by SHELXT:  C19 N3 O6
CELL  0.71073   6.3468  12.4679  13.0046   70.524   85.858   82.850
ZERR   1.000   0.0004   0.0008   0.0009    0.003    0.003    0.003
LATT  1
SFAC C H N O
UNIT 36 44 6 14
TEMP -163.15
SIZE 0.05 0.08 0.125
L.S. 10
BOND $H
OMIT -1 52.3
OMIT 0 -3 9
OMIT    -4  -1   4
OMIT    -2  -1   2
OMIT    -2  -2   1
OMIT    -4  -2   4
OMIT 3 -3 6
OMIT 3 0 9
OMIT -2 -2 2
OMIT -3 3 3
ACTA
HTAB
HTAB O3 O6
HTAB O4 O8
HTAB O5 O7
HTAB N1 O2
HTAB C10 O1
HTAB C13 O2
EQIV $1 x+1, y+1, z
HTAB C15 O4_$1
HTAB C15 O8_$1
EQIV $2 -x-1, -y, -z
HTAB C18 O1_$2
LIST 6
FMAP 2
PLAN 20
FLAT 0.01 H16 C16 O7 N3
FLAT 0.01 H17 C16 O8 N3
DFIX 0.950 0.02 C16 H16
DFIX 0.950 0.02 C16 H17
WGHT    0.050900    0.402800
FVAR       0.41882   0.82347
O1    4    0.071517    0.315328    0.050960    11.00000    0.02142    0.03000 =
         0.02674   -0.01843    0.00836   -0.01142
O2    4    0.008738    0.550046    0.291218    11.00000    0.02709    0.03180 =
         0.02816   -0.01948    0.01296   -0.01560
O3    4   -0.254731    0.544189    0.415059    11.00000    0.02492    0.03135 =
         0.02835   -0.02059    0.01210   -0.01167
H3    2   -0.179006    0.601758    0.425040    11.00000   -1.50000
O4    4   -0.733907    0.135294    0.295477    11.00000    0.03123    0.03706 =
         0.03419   -0.01735    0.01285   -0.02166
H4    2   -0.831547    0.095733    0.266783   -21.00000   -1.50000
O5    4   -0.486857    0.136429    0.163983    11.00000    0.02996    0.04896 =
         0.04069   -0.03154    0.01115   -0.01964
H5    2   -0.569600    0.087432    0.152095    21.00000   -1.50000
N1    3    0.018734    0.411853    0.174104    11.00000    0.01558    0.01954 =
         0.01819   -0.00968    0.00427   -0.00697
H1    2    0.070624    0.460975    0.195345    11.00000   -1.50000
C1    1    0.123911    0.384542    0.089458    11.00000    0.01368    0.01698 =
         0.01597   -0.00575    0.00064   -0.00163
C2    1    0.316725    0.447040    0.044888    11.00000    0.01339    0.01619 =
         0.01440   -0.00421    0.00012   -0.00158
C3    1    0.376905    0.533479    0.078747    11.00000    0.01784    0.01979 =
         0.01759   -0.00957    0.00516   -0.00327
AFIX  43
H3A   2    0.292988    0.556851    0.132594    11.00000   -1.20000
AFIX   0
C4    1    0.557954    0.585393    0.034442    11.00000    0.01908    0.01857 =
         0.01786   -0.00948    0.00222   -0.00453
AFIX  43
H4A   2    0.597404    0.643980    0.058441    11.00000   -1.20000
AFIX   0
C5    1   -0.167984    0.373428    0.230855    11.00000    0.01425    0.01752 =
         0.01432   -0.00388    0.00181   -0.00245
C6    1   -0.258327    0.423306    0.309617    11.00000    0.01741    0.01787 =
         0.01596   -0.00544    0.00121   -0.00325
C7    1   -0.450407    0.389669    0.363378    11.00000    0.01838    0.02192 =
         0.01567   -0.00676    0.00371   -0.00287
AFIX  43
H7    2   -0.511944    0.423909    0.415260    11.00000   -1.20000
AFIX   0
C8    1   -0.552410    0.307779    0.342634    11.00000    0.01523    0.02256 =
         0.01675   -0.00383    0.00392   -0.00548
AFIX  43
H8    2   -0.683477    0.286361    0.379152    11.00000   -1.20000
AFIX   0
C9    1   -0.459885    0.257045    0.267214    11.00000    0.01711    0.01727 =
         0.01558   -0.00266   -0.00035   -0.00355
C10   1   -0.269743    0.289196    0.211700    11.00000    0.01688    0.01749 =
         0.01535   -0.00553    0.00151   -0.00307
AFIX  43
H10   2   -0.209084    0.253675    0.160615    11.00000   -1.20000
AFIX   0
C11   1   -0.154526    0.511193    0.336581    11.00000    0.01883    0.02044 =
         0.01712   -0.00766    0.00367   -0.00328
C12   1   -0.571621    0.169118    0.243897    11.00000    0.02005    0.01874 =
         0.01950   -0.00288   -0.00011   -0.00557
N2    3    0.207577    0.799943    0.420633    11.00000    0.02060    0.02264 =
         0.02044   -0.00750    0.00312   -0.00443
O6    4   -0.073793    0.695827    0.456034    11.00000    0.02291    0.02909 =
         0.02908   -0.01746    0.00697   -0.00841
C13   1    0.107431    0.715412    0.415664    11.00000    0.02222    0.02322 =
         0.01932   -0.00993    0.00214   -0.00206
AFIX  43
H13   2    0.177942    0.666149    0.378904    11.00000   -1.20000
AFIX   0
C14   1    0.421114    0.816904    0.373342    11.00000    0.02161    0.03231 =
         0.02782   -0.00492    0.00424   -0.00744
AFIX 137
H14A  2    0.467068    0.760043    0.337149    11.00000   -1.50000
H14B  2    0.519063    0.808134    0.431203    11.00000   -1.50000
H14C  2    0.420801    0.893940    0.319874    11.00000   -1.50000
AFIX   0
C15   1    0.111303    0.877437    0.477789    11.00000    0.03407    0.02695 =
         0.03572   -0.01780    0.00674   -0.00876
AFIX 137
H15A  2    0.116729    0.956748    0.430058    11.00000   -1.50000
H15B  2    0.189476    0.864388    0.543916    11.00000   -1.50000
H15C  2   -0.037009    0.863263    0.497812    11.00000   -1.50000
AFIX   0
N3    3   -0.957622   -0.104208    0.127957    11.00000    0.02703    0.02719 =
         0.02448   -0.00786   -0.00228   -0.00588
C16   1   -0.870700   -0.019621    0.141690    11.00000    0.03148    0.02583 =
         0.03182   -0.01430    0.00422   -0.00413
PART 1
O7    4   -0.686699   -0.000791    0.110955    21.00000    0.03345    0.03279 =
         0.03682   -0.01874    0.00040   -0.01222
H16   2   -0.958013    0.027915    0.176607    21.00000   -1.50000
PART 2
O8    4   -0.954454    0.017512    0.220370   -21.00000    0.02415    0.02493 =
         0.02827   -0.01408    0.00239   -0.00719
H17   2   -0.754611    0.018851    0.102363   -21.00000   -1.50000
PART 0
C17   1   -1.175537   -0.125456    0.163327    11.00000    0.03220    0.05757 =
         0.04403   -0.00040   -0.00177   -0.01968
AFIX 137
H17A  2   -1.255806   -0.122977    0.100820    11.00000   -1.50000
H17B  2   -1.241058   -0.066694    0.193782    11.00000   -1.50000
H17C  2   -1.176673   -0.201024    0.219225    11.00000   -1.50000
AFIX   0
C18   1   -0.834340   -0.183790    0.082270    11.00000    0.04957    0.04337 =
         0.05875   -0.03610   -0.00739   -0.00401
AFIX 137
H18A  2   -0.925567   -0.208240    0.038447    11.00000   -1.50000
H18B  2   -0.775923   -0.250637    0.141408    11.00000   -1.50000
H18C  2   -0.717807   -0.146539    0.035929    11.00000   -1.50000
AFIX   0
HKLF 4




REM  mo_SH_DD_DSLA3_1M_0m_a.res in P-1
REM R1 =  0.0364 for    3537 Fo > 4sig(Fo)  and  0.0393 for all    3835 data
REM    285 parameters refined using      4 restraints

END

WGHT      0.0504      0.4062

REM Instructions for potential hydrogen bonds
HTAB O3 O6
HTAB O4 O8^b
HTAB O5 O7^a
HTAB N1 O2
HTAB C10 O1
HTAB C13 O2
HTAB C15 O4_$1
HTAB C15 O8^b_$1
HTAB C18 O1_$2

REM Highest difference peak  0.371,  deepest hole -0.277,  1-sigma level  0.045
Q1    1  -0.7894 -0.1382  0.0238  11.00000  0.05    0.37
Q2    1  -0.4591  0.0812  0.2188  11.00000  0.05    0.36
Q3    1   0.2159  0.4257  0.0669  11.00000  0.05    0.29
Q4    1   0.0018  0.9178  0.4383  11.00000  0.05    0.24
Q5    1  -0.2066  0.3944  0.2753  11.00000  0.05    0.22
Q6    1  -0.2019  0.4609  0.3233  11.00000  0.05    0.22
Q7    1  -0.2318  0.4165  0.2582  11.00000  0.05    0.21
Q8    1  -0.3766  0.2734  0.2354  11.00000  0.05    0.21
Q9    1   0.3972  0.4168  0.0220  11.00000  0.05    0.21
Q10   1  -0.3442  0.2532  0.2550  11.00000  0.05    0.21
Q11   1  -0.3624  0.4220  0.3188  11.00000  0.05    0.20
Q12   1  -1.2885 -0.0756  0.1187  11.00000  0.05    0.20
Q13   1   0.0582  0.8367  0.5469  11.00000  0.05    0.20
Q14   1  -0.3309  0.3980  0.3402  11.00000  0.05    0.20
Q15   1  -0.5115  0.2127  0.2520  11.00000  0.05    0.19
Q16   1   0.3650  0.4396  0.0006  11.00000  0.05    0.19
Q17   1  -0.1937  0.3143  0.2335  11.00000  0.05    0.18
Q18   1   0.3669  0.4701  0.0741  11.00000  0.05    0.18
Q19   1  -0.0669  0.3839  0.2068  11.00000  0.05    0.17
Q20   1  -0.5295  0.3021  0.2843  11.00000  0.05    0.17
;
_shelx_res_checksum              97712
_shelx_hkl_file
;
  -1   0   0  165.88    3.80
  -2   0   0   62.69    1.50
  -2   0   0   58.49    1.40
  -2   0   0   63.59    1.40
  -3   0   0   62.29    1.50
  -3   0   0   65.29    1.60
  -3   0   0   65.59    1.50
   3   0   0   66.39    1.50
  -4   0   0   45.50    1.10
  -4   0   0   45.90    1.10
  -4   0   0   46.50    1.20
  -4   0   0   41.80    1.00
   4   0   0   46.00    1.10
  -5   0   0    6.30    0.20
  -5   0   0    7.10    0.30
  -5   0   0    7.10    0.30
  -5   0   0    6.90    0.40
  -5   0   0    6.60    0.30
   5   0   0    7.10    0.30
  -6   0   0    5.70    0.40
  -6   0   0    5.70    0.30
  -6   0   0    6.90    0.30
  -6   0   0    6.10    0.30
  -6   0   0    6.20    0.30
   6   0   0    5.90    0.30
  -7   0   0   28.80    0.90
  -7   0   0   28.30    0.80
  -7   0   0   26.60    0.90
  -7   0   0   27.20    1.00
  -7   0   0   27.20    0.80
   7   0   0   26.50    0.80
  -8   0   0    1.50    0.20
  -8   0   0    1.50    0.20
  -8   0   0    1.20    0.20
   8   0   0    1.30    0.20
   8  -1   0    1.00    0.20
  -8   1   0    1.40    0.20
  -8   1   0    1.40    0.20
  -8   1   0    1.10    0.20
  -8   1   0    1.40    0.30
   7  -1   0    6.70    0.40
  -7   1   0    7.10    0.40
  -7   1   0    7.00    0.40
  -7   1   0    6.90    0.40
  -7   1   0    6.80    0.40
  -7   1   0    6.50    0.40
   6  -1   0    0.80    0.10
  -6   1   0    0.70    0.20
  -6   1   0    0.70    0.10
  -6   1   0    0.60    0.10
  -6   1   0    0.70    0.20
   5  -1   0    0.30    0.10
   5  -1   0    0.30    0.10
  -5   1   0    0.30    0.10
  -5   1   0    0.30    0.10
  -5   1   0    0.30    0.10
  -5   1   0    0.30    0.10
   4  -1   0   24.50    0.70
   4  -1   0   24.00    0.70
  -4   1   0   22.20    0.60
  -4   1   0   24.90    0.70
  -4   1   0   24.00    0.70
  -4   1   0   24.30    0.70
   3  -1   0    1.50    0.10
   3  -1   0    1.60    0.10
  -3   1   0    1.60    0.10
  -3   1   0    1.40    0.10
  -3   1   0    1.50    0.10
  -3   1   0    1.50    0.10
   2  -1   0   21.10    0.50
  -2   1   0   20.30    0.50
  -2   1   0   21.30    0.50
  -2   1   0   21.00    0.50
  -2   1   0   21.70    0.60
  -2   1   0   18.90    0.50
  -1   1   0  101.59    2.30
  -1   1   0  102.89    2.30
  -1   1   0  103.39    2.30
  -1   1   0  102.39    2.30
   0  -1   0  306.07    6.90
   0  -1   0  303.57    6.90
  -1  -1   0    9.90    0.30
  -2  -1   0    4.30    0.20
  -3  -1   0  102.29    2.50
  -4  -1   0  103.09    2.40
  -4  -1   0  107.69    2.40
  -4  -1   0  106.69    2.60
   4   1   0  109.29    2.50
  -5  -1   0   28.90    0.80
  -5  -1   0   28.40    0.90
  -5  -1   0   28.70    0.70
   5   1   0   28.40    0.80
  -6  -1   0    0.40    0.20
  -6  -1   0    0.40    0.10
  -6  -1   0    0.30    0.10
  -6  -1   0    0.20    0.10
  -6  -1   0    0.20    0.10
   6   1   0    0.30    0.10
  -7  -1   0    5.20    0.30
  -7  -1   0    5.00    0.30
  -7  -1   0    5.50    0.40
  -7  -1   0    4.70    0.30
  -7  -1   0    5.20    0.30
   7   1   0    4.60    0.30
  -8  -1   0    2.90    0.40
  -8  -1   0    2.50    0.20
  -8  -1   0    2.40    0.30
  -8  -1   0    2.70    0.20
  -8   2   0   20.40    0.80
  -8   2   0   20.60    0.90
  -8   2   0   19.90    0.80
   7  -2   0    1.10    0.20
  -7   2   0    1.40    0.20
  -7   2   0    1.60    0.30
  -7   2   0    1.40    0.30
  -7   2   0    1.50    0.20
   6  -2   0   23.60    0.80
  -6   2   0   23.30    0.80
  -6   2   0   22.00    0.80
  -6   2   0   23.10    0.80
  -6   2   0   22.60    0.80
  -6   2   0   23.40    0.80
   5  -2   0    0.30    0.10
   5  -2   0    0.70    0.10
  -5   2   0    0.60    0.10
  -5   2   0    0.60    0.10
  -5   2   0    0.50    0.10
  -5   2   0    0.50    0.10
  -5   2   0    0.60    0.20
   4  -2   0   13.40    0.50
   4  -2   0   13.10    0.50
  -4   2   0   12.80    0.50
  -4   2   0   13.60    0.40
  -4   2   0   12.60    0.40
  -4   2   0   13.00    0.40
  -4   2   0   13.10    0.50
   3  -2   0    5.00    0.20
   3  -2   0    5.10    0.20
  -3   2   0    4.60    0.20
  -3   2   0    4.60    0.20
  -3   2   0    4.90    0.20
  -3   2   0    4.90    0.20
  -3   2   0    4.90    0.20
   2  -2   0  278.47    6.10
   2  -2   0  271.77    6.10
  -2   2   0  269.47    6.10
  -2   2   0  266.87    6.10
  -2   2   0  260.37    6.10
  -2   2   0  268.37    6.10
   1  -2   0    4.90    0.10
   1  -2   0    4.60    0.20
   1  -2   0    4.90    0.20
  -1   2   0    4.50    0.20
  -1   2   0    5.10    0.20
  -1   2   0    4.30    0.10
  -1   2   0    4.70    0.20
  -1   2   0    4.70    0.20
   0  -2   0    4.90    0.20
   0  -2   0    5.00    0.20
   0  -2   0    5.10    0.20
   0  -2   0    4.80    0.20
   0   2   0    5.00    0.20
   1   2   0   90.19    2.30
  -2  -2   0   10.70    0.40
  -3  -2   0  952.60   22.00
  -4  -2   0   45.80    1.30
   4   2   0   45.60    1.10
  -5  -2   0   17.30    0.50
  -5  -2   0   18.50    0.70
  -5  -2   0   18.10    0.50
   5   2   0   17.80    0.50
  -6  -2   0   37.00    0.90
  -6  -2   0   35.70    1.20
  -6  -2   0   36.90    0.90
  -6  -2   0   30.70    0.80
   6   2   0   36.00    0.90
  -7  -2   0   17.20    0.50
  -7  -2   0   17.30    0.80
  -7  -2   0   16.00    0.50
  -7  -2   0   16.50    0.60
  -7  -2   0   16.90    0.60
  -8  -2   0    2.10    0.30
  -8  -2   0    1.90    0.20
  -8  -2   0    1.90    0.20
  -8  -2   0    2.30    0.20
   7  -3   0    0.20    0.10
  -7   3   0    0.30    0.20
  -7   3   0    0.40    0.20
  -7   3   0    0.40    0.20
  -7   3   0    0.40    0.20
   6  -3   0   21.30    0.80
  -6   3   0   20.00    0.70
  -6   3   0   20.70    0.70
  -6   3   0   21.10    0.70
  -6   3   0   19.40    0.80
  -6   3   0   20.70    0.80
   5  -3   0   41.10    1.20
   5  -3   0   41.60    1.20
  -5   3   0   41.30    1.20
  -5   3   0   38.60    1.10
  -5   3   0   40.40    1.20
  -5   3   0   39.80    1.20
   4  -3   0   52.29    1.40
   4  -3   0   51.59    1.20
   4  -3   0   54.59    1.40
  -4   3   0   51.79    1.40
  -4   3   0   54.49    1.40
  -4   3   0   54.59    1.40
  -4   3   0   50.29    1.20
  -4   3   0   52.79    1.40
  -4   3   0   53.59    1.40
   3  -3   0   18.50    0.50
   3  -3   0   18.90    0.60
   3  -3   0   18.70    0.60
  -3   3   0   19.00    0.60
  -3   3   0   18.60    0.60
  -3   3   0   18.20    0.60
  -3   3   0   18.50    0.60
  -3   3   0   18.50    0.50
   2  -3   0   21.00    0.60
   2  -3   0   20.30    0.60
   2  -3   0   20.20    0.50
  -2   3   0   20.70    0.60
  -2   3   0   19.80    0.60
  -2   3   0   20.20    0.60
  -2   3   0   20.80    0.60
  -2   3   0   20.00    0.60
   1  -3   0  446.36    9.80
   1  -3   0  433.96    9.80
  -1   3   0  431.66    9.80
  -1   3   0  459.65    9.90
  -1   3   0  419.36    9.80
  -1   3   0  436.86    9.80
  -1   3   0  432.96    9.80
  -1   3   0  420.56    9.80
   0  -3   0  184.98    4.00
   0  -3   0  179.28    4.00
   0  -3   0  183.48    4.00
   0  -3   0  149.79    4.00
   0  -3   0  178.68    4.00
   0   3   0  184.28    4.00
   0   3   0  175.28    4.10
   0   3   0  183.88    4.00
  -1  -3   0    0.20    0.10
  -1  -3   0    0.30    0.10
  -1  -3   0    0.40    0.10
  -1  -3   0    0.30    0.10
  -1  -3   0    0.40    0.10
   1   3   0    0.10    0.10
   1   3   0    0.40    0.10
  -3  -3   0  143.39    3.40
  -4  -3   0   10.70    0.50
   4   3   0   11.00    0.30
  -5  -3   0   60.19    1.70
   5   3   0   61.79    1.40
  -6  -3   0    0.20    0.10
  -6  -3   0    0.30    0.10
  -6  -3   0   -0.10    0.10
  -7  -3   0    1.70    0.20
  -7  -3   0    1.60    0.10
  -7  -3   0    1.40    0.10
  -7  -3   0    1.90    0.30
  -7  -3   0    1.80    0.20
  -8  -3   0    5.60    0.30
  -8  -3   0    5.30    0.30
  -8  -3   0    5.80    0.50
  -8  -3   0    5.70    0.30
   7  -4   0    1.40    0.20
  -7   4   0    1.30    0.20
  -7   4   0    1.70    0.30
  -7   4   0    1.30    0.30
   6  -4   0   16.00    0.70
   6  -4   0   15.40    0.70
  -6   4   0   15.30    0.60
  -6   4   0   16.00    0.60
  -6   4   0   15.40    0.70
  -6   4   0   15.70    0.60
   5  -4   0   -0.10    0.10
   5  -4   0    0.00    0.10
   5  -4   0    0.00    0.10
  -5   4   0   -0.10    0.10
  -5   4   0   -0.10    0.10
  -5   4   0    0.10    0.10
  -5   4   0   -0.10    0.10
  -5   4   0   -0.10    0.10
   4  -4   0   15.20    0.60
   4  -4   0   15.20    0.60
   4  -4   0   15.00    0.40
  -4   4   0   14.40    0.40
  -4   4   0   15.90    0.60
  -4   4   0   15.30    0.50
  -4   4   0   16.20    0.60
  -4   4   0   14.60    0.60
  -4   4   0   14.80    0.50
  -4   4   0   15.20    0.50
   3  -4   0  105.59    2.60
   3  -4   0  109.19    2.60
   3  -4   0  111.09    2.50
  -3   4   0  105.99    2.60
  -3   4   0  105.19    2.50
  -3   4   0  108.09    2.70
  -3   4   0  107.29    2.60
   2  -4   0   16.70    0.50
   2  -4   0   16.50    0.50
   2  -4   0   16.20    0.50
  -2   4   0   16.00    0.50
  -2   4   0   17.20    0.60
  -2   4   0   16.40    0.50
  -2   4   0   15.30    0.50
  -2   4   0   15.90    0.50
   1  -4   0    0.10    0.10
   1  -4   0   -0.10    0.10
   1  -4   0    0.00    0.10
   1  -4   0    0.00    0.10
  -1   4   0    0.00    0.10
  -1   4   0   -0.10    0.10
  -1   4   0    0.00    0.10
  -1   4   0    0.00    0.10
  -1   4   0    0.00    0.10
   0  -4   0   89.89    2.00
   0  -4   0   90.09    2.10
   0  -4   0   89.69    2.10
   0  -4   0   88.79    2.10
   0  -4   0   91.79    2.10
   0  -4   0   89.79    2.10
   0  -4   0   91.69    2.10
   0   4   0   90.99    2.10
   0   4   0   90.89    2.10
   0   4   0   90.29    2.30
  -1  -4   0    0.80    0.10
  -1  -4   0    0.90    0.10
  -1  -4   0    0.80    0.20
  -1  -4   0    0.80    0.10
  -1  -4   0    0.70    0.10
   1   4   0    1.00    0.10
   1   4   0    0.80    0.10
   1   4   0    0.70    0.20
   1   4   0    1.10    0.20
  -2  -4   0  110.99    2.70
  -2  -4   0  112.89    2.60
  -2  -4   0  111.49    2.50
   2   4   0  114.59    2.60
  -3  -4   0    0.10    0.10
   3   4   0    0.10    0.20
   3   4   0    0.20    0.10
  -4  -4   0    5.50    0.30
   4   4   0    3.60    0.50
   4   4   0    4.70    0.20
  -5  -4   0    8.00    0.50
   5   4   0    7.70    0.80
   5   4   0    8.30    0.30
  -6  -4   0   16.10    0.50
  -6  -4   0   16.10    0.50
  -6  -4   0   16.30    0.70
   6   4   0   16.60    1.20
  -7  -4   0    2.60    0.20
  -7  -4   0    2.40    0.20
  -7  -4   0    2.40    0.40
  -8  -4   0    5.60    0.60
  -8  -4   0    5.90    0.30
  -8  -4   0    5.50    0.30
  -8  -4   0    6.40    0.30
   7  -5   0   29.80    1.10
  -7   5   0   29.20    1.20
  -7   5   0   31.30    1.20
   6  -5   0    6.50    0.30
   6  -5   0    6.80    0.40
   6  -5   0    7.30    0.50
  -6   5   0    6.70    0.40
  -6   5   0    6.30    0.50
  -6   5   0    6.60    0.40
   5  -5   0    9.00    0.50
   5  -5   0    8.90    0.50
   5  -5   0    8.90    0.30
  -5   5   0    8.80    0.40
  -5   5   0    8.60    0.30
  -5   5   0    9.20    0.50
  -5   5   0    8.50    0.40
  -5   5   0    8.50    0.50
   4  -5   0    0.30    0.10
   4  -5   0    0.20    0.10
   4  -5   0    0.20    0.10
  -4   5   0    0.20    0.10
  -4   5   0    0.30    0.10
  -4   5   0    0.40    0.10
  -4   5   0    0.20    0.10
  -4   5   0    0.10    0.10
  -4   5   0    0.10    0.10
   3  -5   0   24.70    0.70
   3  -5   0   24.60    0.80
   3  -5   0   25.80    0.80
  -3   5   0   23.30    0.80
  -3   5   0   23.80    0.70
  -3   5   0   24.40    0.80
  -3   5   0   25.70    0.80
  -3   5   0   25.00    0.80
  -3   5   0   23.90    0.80
   2  -5   0   10.50    0.30
   2  -5   0   11.00    0.40
  -2   5   0   11.60    0.50
  -2   5   0   10.90    0.50
  -2   5   0   10.00    0.40
  -2   5   0   10.40    0.40
  -2   5   0   11.00    0.40
  -2   5   0   10.30    0.40
  -2   5   0   10.60    0.30
   1  -5   0  101.29    2.30
   1  -5   0   97.49    2.40
   1  -5   0  105.19    2.40
   1  -5   0  102.39    2.40
  -1   5   0  102.59    2.50
  -1   5   0   99.39    2.60
  -1   5   0   99.99    2.30
  -1   5   0  100.09    2.40
   0  -5   0    0.80    0.10
   0  -5   0    1.00    0.10
   0  -5   0    0.70    0.10
   0  -5   0    0.80    0.10
   0  -5   0    0.90    0.10
   0  -5   0    0.80    0.10
   0   5   0    0.80    0.10
   0   5   0    0.50    0.10
   0   5   0    0.80    0.20
   0   5   0    0.90    0.10
  -1  -5   0   31.60    0.90
  -1  -5   0   38.00    1.00
  -1  -5   0   38.70    1.00
  -1  -5   0   38.70    1.00
  -1  -5   0   40.10    1.20
   1   5   0   39.70    1.00
   1   5   0   38.50    1.10
   1   5   0   38.20    1.00
  -2  -5   0   19.50    0.50
  -2  -5   0   20.20    0.60
  -2  -5   0   20.10    0.50
   2   5   0   21.50    0.50
   2   5   0   19.80    0.70
   2   5   0   21.80    0.50
  -3  -5   0    1.00    0.20
  -3  -5   0    1.00    0.10
  -3  -5   0    1.00    0.10
   3   5   0    1.00    0.30
   3   5   0    1.10    0.10
   4   5   0    2.40    0.10
   4   5   0    2.20    0.40
  -5  -5   0   63.19    1.80
   5   5   0   66.49    1.50
   5   5   0   62.19    2.40
  -6  -5   0   10.30    0.30
  -6  -5   0   10.50    0.30
  -6  -5   0   11.30    0.60
   6   5   0    9.30    0.90
  -7  -5   0    2.40    0.20
  -7  -5   0    3.00    0.40
  -7  -5   0    2.60    0.20
  -8  -5   0    0.90    0.10
  -8  -5   0    0.80    0.30
  -8  -5   0    0.70    0.10
  -8  -5   0    0.70    0.10
   7  -6   0   18.30    0.80
   7  -6   0   18.60    0.70
   7  -6   0   17.80    0.80
  -7   6   0   17.50    0.90
   6  -6   0    0.70    0.20
   6  -6   0    0.80    0.20
   6  -6   0    0.80    0.20
  -6   6   0    1.10    0.30
   5  -6   0    1.70    0.30
   5  -6   0    1.50    0.20
   5  -6   0    1.40    0.20
  -5   6   0    1.70    0.20
  -5   6   0    1.80    0.30
  -5   6   0    1.80    0.20
  -5   6   0    1.50    0.20
   4  -6   0    4.40    0.30
   4  -6   0    4.60    0.20
   4  -6   0    3.90    0.40
  -4   6   0    4.40    0.40
  -4   6   0    3.90    0.30
  -4   6   0    4.10    0.30
  -4   6   0    4.10    0.30
   3  -6   0    0.00    0.10
   3  -6   0    0.00    0.10
   3  -6   0    0.00    0.10
  -3   6   0    0.10    0.10
  -3   6   0    0.10    0.10
  -3   6   0    0.10    0.10
  -3   6   0    0.10    0.10
  -3   6   0    0.20    0.10
   2  -6   0   27.70    0.90
   2  -6   0   27.10    0.80
   2  -6   0   26.80    0.70
  -2   6   0   27.60    0.80
  -2   6   0   26.00    1.00
  -2   6   0   27.70    0.70
  -2   6   0   26.90    0.80
  -2   6   0   26.80    0.90
   1  -6   0   95.39    2.30
   1  -6   0   95.39    2.40
   1  -6   0   96.49    2.30
   1  -6   0   96.49    2.20
   1  -6   0   96.19    2.30
  -1   6   0   92.99    2.30
  -1   6   0   98.39    2.40
  -1   6   0   94.79    2.20
  -1   6   0   93.49    2.50
   0  -6   0   18.70    0.50
   0  -6   0   17.50    0.50
   0  -6   0   17.80    0.60
   0  -6   0   17.40    0.60
   0  -6   0   17.30    0.60
   0  -6   0   17.60    0.60
   0  -6   0   18.20    0.40
   0   6   0   18.10    0.60
   0   6   0   16.80    0.50
   0   6   0   18.70    0.60
   0   6   0   17.60    0.70
  -1  -6   0  118.59    2.80
  -1  -6   0  117.49    2.80
  -1  -6   0  120.19    2.80
  -1  -6   0  117.09    2.80
  -1  -6   0  121.19    3.10
   1   6   0  116.49    3.00
   1   6   0  118.49    2.70
   1   6   0  125.39    2.80
   1   6   0  115.09    2.80
  -2  -6   0    3.00    0.20
  -2  -6   0    3.70    0.40
  -2  -6   0    3.00    0.20
  -2  -6   0    3.00    0.20
  -2  -6   0    2.90    0.20
   2   6   0    3.30    0.40
   2   6   0    3.00    0.20
   2   6   0    2.70    0.20
   2   6   0    3.00    0.30
  -3  -6   0   71.69    1.70
  -3  -6   0   74.49    1.80
  -3  -6   0   75.69    1.70
   3   6   0   75.09    2.40
   3   6   0   77.49    1.70
   3   6   0   75.99    1.90
  -4  -6   0  112.09    2.60
  -4  -6   0  113.19    2.60
   4   6   0  111.49    2.70
   4   6   0  118.49    3.40
  -5  -6   0    0.40    0.10
  -5  -6   0    0.30    0.20
  -5  -6   0    0.40    0.10
   5   6   0    0.40    0.30
   5   6   0    0.50    0.10
  -6  -6   0    1.30    0.10
  -6  -6   0    1.40    0.30
  -6  -6   0    1.10    0.10
   6   6   0    1.10    0.40
  -7  -6   0    3.80    0.40
  -7  -6   0    4.70    0.30
  -7  -6   0    4.70    0.20
   6  -7   0   22.80    0.90
   6  -7   0   22.90    0.90
   6  -7   0   22.50    0.80
   6  -7   0   23.60    1.00
  -6   7   0   22.20    1.00
   5  -7   0    0.60    0.20
   5  -7   0    0.70    0.20
   5  -7   0    0.30    0.10
  -5   7   0    0.70    0.20
  -5   7   0    0.60    0.20
  -5   7   0    0.60    0.10
   4  -7   0   45.60    1.30
   4  -7   0   40.00    1.10
   4  -7   0   42.90    1.30
  -4   7   0   43.90    1.40
  -4   7   0   42.70    1.20
  -4   7   0   42.10    1.30
   3  -7   0   60.79    1.50
   3  -7   0   62.59    1.70
   3  -7   0   60.69    1.70
  -3   7   0   61.79    1.60
  -3   7   0   62.39    1.70
  -3   7   0   61.09    1.70
  -3   7   0   63.29    1.80
   2  -7   0    5.20    0.30
   2  -7   0    5.80    0.30
   2  -7   0    5.70    0.20
   2  -7   0    5.60    0.30
   2  -7   0    5.70    0.30
  -2   7   0    5.80    0.40
  -2   7   0    6.10    0.40
  -2   7   0    5.30    0.20
  -2   7   0    5.50    0.30
   1  -7   0    2.80    0.20
   1  -7   0    2.60    0.20
   1  -7   0    2.70    0.10
   1  -7   0    2.90    0.20
   1  -7   0    2.80    0.20
  -1   7   0    3.00    0.40
  -1   7   0    3.00    0.20
  -1   7   0    2.60    0.20
  -1   7   0    2.70    0.20
   0  -7   0  471.05   10.80
   0  -7   0  479.35   10.60
   0  -7   0  475.95   10.70
   0  -7   0  464.95   10.70
   0  -7   0  483.95   10.70
   0  -7   0  493.45   10.70
   0  -7   0  480.15   10.70
   0   7   0  461.75   10.60
   0   7   0  476.75   10.70
   0   7   0  461.85   10.80
   0   7   0  459.65   11.00
  -1  -7   0    9.80    0.40
  -1  -7   0    9.90    0.40
  -1  -7   0    9.70    0.40
  -1  -7   0   10.80    0.60
  -1  -7   0    9.60    0.30
   1   7   0    9.80    0.50
   1   7   0   10.10    0.40
   1   7   0   10.00    0.40
   1   7   0    9.90    0.30
  -2  -7   0    5.10    0.30
  -2  -7   0    4.90    0.50
  -2  -7   0    4.60    0.20
  -2  -7   0    4.90    0.20
  -2  -7   0    4.50    0.20
   2   7   0    4.80    0.20
   2   7   0    4.90    0.20
   2   7   0    4.30    0.30
  -3  -7   0    1.20    0.10
  -3  -7   0    1.10    0.10
  -3  -7   0    1.40    0.20
   3   7   0    0.90    0.30
   3   7   0    1.20    0.10
   3   7   0    1.10    0.20
   3   7   0    1.10    0.10
  -4  -7   0   19.40    0.60
  -4  -7   0   19.00    0.50
  -4  -7   0   18.80    0.50
  -4  -7   0   18.70    0.50
   4   7   0   19.20    0.70
   4   7   0   21.10    1.10
  -5  -7   0  195.58    4.50
  -5  -7   0  193.48    4.50
  -5  -7   0  195.58    4.40
   5   7   0  194.08    4.60
   5   7   0  198.68    5.50
  -6  -7   0    0.20    0.10
  -6  -7   0    0.40    0.10
   6   7   0    0.70    0.40
  -7  -7   0    0.20    0.10
  -7  -7   0    0.30    0.10
  -7  -7   0    0.20    0.10
  -7  -7   0    0.30    0.10
   6  -8   0   53.19    1.50
   6  -8   0   54.19    1.70
   6  -8   0   57.69    1.80
   6  -8   0   54.69    1.70
   6  -8   0   55.99    1.80
  -6   8   0   55.99    1.80
   5  -8   0    1.00    0.20
   5  -8   0    1.30    0.20
   5  -8   0    1.10    0.20
   5  -8   0    1.20    0.30
  -5   8   0    1.40    0.20
  -5   8   0    1.60    0.30
   4  -8   0   10.20    0.50
   4  -8   0    9.90    0.50
   4  -8   0   10.70    0.60
   4  -8   0   10.90    0.40
  -4   8   0   11.80    0.60
  -4   8   0   10.80    0.50
  -4   8   0   11.30    0.60
   3  -8   0    1.80    0.30
   3  -8   0    1.50    0.20
   3  -8   0    1.80    0.20
   3  -8   0    1.80    0.20
  -3   8   0    1.90    0.30
  -3   8   0    2.00    0.20
  -3   8   0    2.30    0.30
   2  -8   0    6.90    0.40
   2  -8   0    6.80    0.40
   2  -8   0    6.60    0.30
   2  -8   0    6.90    0.30
   2  -8   0    6.30    0.40
  -2   8   0    6.10    0.40
  -2   8   0    6.20    0.30
  -2   8   0    7.30    0.50
   1  -8   0   10.60    0.40
   1  -8   0    9.90    0.50
   1  -8   0   10.20    0.30
   1  -8   0   10.70    0.40
  -1   8   0   10.30    0.40
  -1   8   0   10.30    0.60
  -1   8   0   10.30    0.50
  -1   8   0   10.50    0.50
   0  -8   0    6.20    0.30
   0  -8   0    6.20    0.30
   0  -8   0    6.10    0.30
   0  -8   0    5.30    0.30
   0   8   0    7.10    0.40
  -1  -8   0    0.10    0.10
  -1  -8   0    0.10    0.10
  -1  -8   0    0.20    0.10
  -1  -8   0    0.10    0.20
  -1  -8   0    0.20    0.10
  -1  -8   0    0.10    0.10
   1   8   0    0.10    0.10
   1   8   0    0.20    0.10
   1   8   0    0.10    0.10
  -2  -8   0    1.10    0.20
  -2  -8   0    1.10    0.10
  -2  -8   0    0.70    0.10
  -2  -8   0    1.30    0.30
  -2  -8   0    0.80    0.10
  -2  -8   0    1.00    0.10
   2   8   0    0.80    0.10
   2   8   0    0.80    0.10
   2   8   0    0.70    0.20
   2   8   0    0.90    0.10
  -3  -8   0  140.09    3.30
  -3  -8   0  141.99    3.40
  -3  -8   0  137.09    3.40
  -3  -8   0  145.09    3.40
   3   8   0  140.49    3.60
   3   8   0  150.98    4.10
   3   8   0  141.79    3.40
   3   8   0  146.49    3.40
  -4  -8   0    9.40    0.30
  -4  -8   0    9.30    0.40
  -4  -8   0    9.50    0.40
  -4  -8   0    9.00    0.30
   4   8   0    9.20    0.50
   4   8   0    9.80    0.30
  -5  -8   0   26.50    0.80
  -5  -8   0   25.80    0.70
  -5  -8   0   27.50    0.80
  -5  -8   0   26.30    0.70
   5   8   0   27.20    0.90
   5   8   0   26.40    0.70
   5   8   0   28.40    1.50
  -6  -8   0    0.20    0.10
  -6  -8   0    0.30    0.10
  -6  -8   0    0.20    0.10
  -6  -8   0    0.30    0.10
   6   8   0    0.10    0.30
  -7  -8   0    1.30    0.10
  -7  -8   0    1.30    0.10
  -7  -8   0    1.30    0.10
   6  -9   0    2.50    0.40
   6  -9   0    2.10    0.30
   6  -9   0    3.80    0.50
   6  -9   0    2.30    0.40
   6  -9   0    2.10    0.30
  -6   9   0    2.80    0.40
   5  -9   0    1.60    0.30
   5  -9   0    1.30    0.20
   5  -9   0    1.40    0.30
   5  -9   0    1.10    0.30
  -5   9   0    1.70    0.20
  -5   9   0    1.20    0.30
   4  -9   0   10.40    0.50
   4  -9   0   10.90    0.60
   4  -9   0   10.90    0.40
   4  -9   0    9.60    0.60
  -4   9   0   10.50    0.60
  -4   9   0   10.30    0.50
  -4   9   0   10.20    0.60
   3  -9   0    6.90    0.40
   3  -9   0    7.50    0.30
   3  -9   0    7.30    0.50
   3  -9   0    6.90    0.40
  -3   9   0    7.80    0.40
  -3   9   0    7.30    0.60
  -3   9   0    7.50    0.50
   2  -9   0    1.90    0.30
   2  -9   0    2.10    0.30
   2  -9   0    2.50    0.20
   2  -9   0    2.40    0.30
  -2   9   0    2.20    0.20
  -2   9   0    2.40    0.30
  -2   9   0    1.70    0.20
  -2   9   0    2.40    0.40
   1  -9   0   31.60    0.80
   1  -9   0   31.00    1.00
   1  -9   0   31.70    0.90
   1  -9   0   32.70    1.00
   1  -9   0   31.90    1.00
   1  -9   0   29.30    1.00
  -1   9   0   32.70    0.90
  -1   9   0   33.60    1.30
  -1   9   0   32.80    1.00
   0  -9   0    5.20    0.30
   0  -9   0    5.40    0.30
   0  -9   0    4.90    0.30
   0  -9   0    5.20    0.30
   0  -9   0    4.80    0.30
   0  -9   0    5.20    0.30
   0   9   0    5.40    0.30
   0   9   0    5.50    0.30
  -1  -9   0    0.70    0.20
  -1  -9   0    0.40    0.10
  -1  -9   0    0.50    0.10
  -1  -9   0    0.50    0.10
  -1  -9   0    0.40    0.10
  -1  -9   0    0.60    0.20
   1   9   0    0.40    0.10
   1   9   0    0.30    0.10
   1   9   0    0.20    0.20
  -2  -9   0    5.70    0.30
  -2  -9   0    5.30    0.50
  -2  -9   0    4.90    0.30
  -2  -9   0    5.10    0.20
  -2  -9   0    5.20    0.30
   2   9   0    4.40    0.50
   2   9   0    5.30    0.30
   2   9   0    5.30    0.20
   2   9   0    5.30    0.30
  -3  -9   0  399.16    8.90
  -3  -9   0  385.06    8.90
  -3  -9   0  394.26    8.90
  -3  -9   0  390.26    8.90
   3   9   0  386.66    9.20
   3   9   0  389.36    8.90
   3   9   0  393.36    8.90
  -4  -9   0   17.40    0.60
  -4  -9   0   16.70    0.60
  -4  -9   0   17.70    0.60
  -4  -9   0   17.30    0.60
   4   9   0   17.10    0.80
   4   9   0   17.10    1.10
   4   9   0   17.70    0.60
  -5  -9   0    0.00    0.10
  -5  -9   0    0.10    0.10
  -5  -9   0    0.00    0.10
  -5  -9   0    0.00    0.10
   5   9   0    0.00    0.10
   5   9   0    0.00    0.10
   5   9   0    0.30    0.30
  -6  -9   0    1.80    0.10
  -6  -9   0    1.70    0.20
  -6  -9   0    2.00    0.20
   6   9   0    1.10    0.40
   6   9   0    1.60    0.10
  -7  -9   0    0.70    0.10
  -7  -9   0    0.60    0.10
  -7  -9   0    0.50    0.10
   5 -10   0    1.80    0.40
   5 -10   0    2.20    0.40
   5 -10   0    1.80    0.20
   5 -10   0    1.80    0.30
   5 -10   0    1.70    0.30
  -5  10   0    2.20    0.30
   4 -10   0    5.60    0.40
   4 -10   0    4.80    0.50
   4 -10   0    6.40    0.50
   4 -10   0    5.80    0.30
  -4  10   0    6.10    0.60
  -4  10   0    6.00    0.40
   3 -10   0    0.00    0.10
   3 -10   0    0.00    0.10
   3 -10   0    0.00    0.10
   3 -10   0    0.00    0.20
  -3  10   0   -0.10    0.10
  -3  10   0    0.00    0.10
  -3  10   0    0.30    0.20
   2 -10   0    0.10    0.10
   2 -10   0   -0.20    0.10
   2 -10   0    0.10    0.10
   2 -10   0    0.10    0.10
   2 -10   0   -0.10    0.10
  -2  10   0    0.10    0.10
  -2  10   0    0.20    0.10
  -2  10   0    0.20    0.20
   1 -10   0   46.10    1.40
   1 -10   0   45.20    1.30
   1 -10   0   45.30    1.40
   1 -10   0   47.90    1.30
   1 -10   0   47.10    1.10
  -1  10   0   47.20    1.70
  -1  10   0   46.70    1.40
  -1  10   0   46.30    1.20
   0 -10   0   40.00    1.20
   0 -10   0   41.40    1.60
   0 -10   0   42.30    1.20
   0 -10   0   43.80    1.20
   0 -10   0   43.10    1.20
   0  10   0   41.50    1.10
   0  10   0   42.20    1.60
   0  10   0   41.40    1.20
  -1 -10   0    6.00    0.40
  -1 -10   0    5.60    0.40
  -1 -10   0    5.10    0.30
  -1 -10   0    5.90    0.60
  -1 -10   0    5.50    0.30
  -1 -10   0    5.40    0.30
   1  10   0    5.80    0.60
   1  10   0    5.40    0.40
   1  10   0    5.90    0.30
   1  10   0    5.50    0.40
  -2 -10   0   15.40    0.60
  -2 -10   0   14.70    0.60
  -2 -10   0   15.30    0.40
  -2 -10   0   16.20    0.60
  -2 -10   0   16.80    0.90
   2  10   0   15.50    0.50
   2  10   0   16.20    0.60
   2  10   0   15.80    0.80
   2  10   0   15.40    0.60
  -3 -10   0   20.20    0.70
  -3 -10   0   20.90    0.70
  -3 -10   0   21.50    0.70
   3  10   0   20.30    0.70
   3  10   0   21.20    0.70
   3  10   0   21.20    1.00
  -4 -10   0    7.30    0.40
  -4 -10   0    7.40    0.40
  -4 -10   0    8.00    0.40
   4  10   0    7.50    0.40
   4  10   0    8.40    0.60
   4  10   0    7.20    0.80
  -5 -10   0    9.10    0.40
  -5 -10   0    9.00    0.40
  -5 -10   0    8.60    0.40
   5  10   0    8.60    0.60
   5  10   0    9.50    0.90
   5  10   0    9.00    0.40
  -6 -10   0   14.60    0.50
  -6 -10   0   14.50    0.50
  -6 -10   0   13.50    0.50
   6  10   0   12.40    1.30
   6  10   0   14.90    0.50
   5 -11   0    0.70    0.20
   5 -11   0    0.30    0.20
   5 -11   0    0.60    0.20
   5 -11   0    0.90    0.20
   5 -11   0    1.20    0.30
  -5  11   0    0.70    0.20
   4 -11   0    0.60    0.20
   4 -11   0    0.40    0.20
   4 -11   0    0.90    0.30
   4 -11   0    0.50    0.20
   4 -11   0    0.80    0.20
  -4  11   0    0.90    0.20
  -4  11   0    0.70    0.30
   3 -11   0    1.10    0.20
   3 -11   0    0.80    0.20
   3 -11   0    1.20    0.30
   3 -11   0    1.20    0.20
   3 -11   0    1.10    0.20
  -3  11   0    0.90    0.20
  -3  11   0    1.20    0.10
  -3  11   0    1.30    0.40
   2 -11   0    3.40    0.40
   2 -11   0    2.70    0.40
   2 -11   0    3.00    0.30
   2 -11   0    3.60    0.30
   2 -11   0    3.90    0.20
  -2  11   0    3.90    0.30
  -2  11   0    4.20    0.60
  -2  11   0    3.00    0.30
   1 -11   0   10.60    0.50
   1 -11   0   10.20    0.50
   1 -11   0   10.80    0.50
   1 -11   0   10.70    0.50
   1 -11   0   10.20    0.50
   1 -11   0   10.60    0.30
  -1  11   0   10.20    0.40
  -1  11   0    9.40    0.80
  -1  11   0   10.60    0.50
   0 -11   0    5.50    0.40
   0 -11   0    3.40    0.50
  -1 -11   0    1.60    0.20
  -1 -11   0    1.80    0.20
  -1 -11   0    2.00    0.40
  -1 -11   0    1.80    0.30
  -1 -11   0    1.70    0.20
   1  11   0    1.70    0.40
   1  11   0    1.90    0.30
   1  11   0    2.20    0.20
   1  11   0    2.10    0.30
  -2 -11   0   22.60    0.80
  -2 -11   0   23.20    0.80
  -2 -11   0   22.60    0.60
   2  11   0   21.90    0.90
   2  11   0   24.30    0.70
   2  11   0   24.20    0.80
   2  11   0   22.30    1.10
  -3 -11   0   13.70    0.60
  -3 -11   0   13.80    0.60
  -3 -11   0   14.00    0.60
   3  11   0   14.80    0.60
   3  11   0   13.80    0.60
   3  11   0   14.10    0.80
  -4 -11   0    6.70    0.40
  -4 -11   0    7.00    0.40
  -4 -11   0    6.80    0.40
   4  11   0    6.30    0.40
   4  11   0    6.00    0.60
  -5 -11   0    2.50    0.20
  -5 -11   0    1.90    0.20
  -5 -11   0    2.30    0.30
   5  11   0    2.20    0.30
   5  11   0    2.70    0.40
   5  11   0    1.50    0.50
  -6 -11   0    5.30    0.30
  -6 -11   0    4.70    0.30
  -6 -11   0    5.00    0.40
   6  11   0    5.30    0.30
   4 -12   0    2.40    0.30
   4 -12   0    2.50    0.40
   4 -12   0    2.50    0.30
   4 -12   0    2.10    0.40
   4 -12   0    2.40    0.40
  -4  12   0    2.30    0.30
  -4  12   0    2.30    0.50
   3 -12   0    3.80    0.40
   3 -12   0    3.40    0.40
   3 -12   0    4.10    0.30
   3 -12   0    3.90    0.40
   3 -12   0    3.70    0.40
  -3  12   0    3.40    0.40
  -3  12   0    4.30    0.60
   2 -12   0    3.20    0.40
   2 -12   0    2.60    0.30
   2 -12   0    4.00    0.30
   2 -12   0    3.00    0.40
   2 -12   0    3.20    0.20
  -2  12   0    3.60    0.60
  -2  12   0    3.60    0.30
  -2  12   0    2.70    0.30
   1 -12   0   53.69    1.60
   1 -12   0   50.79    1.60
  -1  12   0   54.59    1.40
  -1  12   0   54.49    2.00
  -1  12   0   53.49    1.60
   0 -12   0   18.60    0.70
   0 -12   0   19.90    0.80
   0 -12   0   17.80    0.70
   0  12   0   16.90    1.00
   0  12   0   18.60    0.60
   0  12   0   19.90    0.80
  -1 -12   0    1.90    0.20
  -1 -12   0    2.10    0.30
  -1 -12   0    2.10    0.30
   1  12   0    1.80    0.20
   1  12   0    1.80    0.30
   1  12   0    1.40    0.40
  -2 -12   0   89.09    2.30
  -2 -12   0   85.19    2.30
   2  12   0   84.59    2.40
   2  12   0   81.19    2.70
   2  12   0   85.79    2.30
   2  12   0   85.79    2.10
  -3 -12   0   19.70    0.70
  -3 -12   0   20.70    0.80
   3  12   0   19.80    0.80
   3  12   0   18.50    1.00
   3  12   0   19.80    0.80
  -4 -12   0    0.50    0.10
  -4 -12   0    0.90    0.20
  -4 -12   0    0.90    0.20
   4  12   0    1.20    0.30
   4  12   0    0.60    0.20
  -5 -12   0   20.20    0.70
  -5 -12   0   18.10    0.70
  -5 -12   0   19.00    0.80
   5  12   0   19.30    1.00
   5  12   0   19.30    0.80
   3 -13   0    1.90    0.20
   3 -13   0    1.80    0.30
   3 -13   0    1.90    0.30
   3 -13   0    1.70    0.30
  -3  13   0    1.00    0.40
  -3  13   0    1.80    0.30
   2 -13   0    7.80    0.50
   2 -13   0    8.50    0.60
  -2  13   0    7.90    0.50
  -2  13   0    7.50    0.80
  -2  13   0    7.30    0.40
   1 -13   0    0.50    0.20
   1 -13   0    0.40    0.20
  -1  13   0    0.00    0.30
  -1  13   0    0.20    0.10
  -1  13   0    0.70    0.20
   0 -13   0    3.70    0.40
   0 -13   0    3.90    0.30
   0 -13   0    3.80    0.40
   0  13   0    3.10    0.50
   0  13   0    3.30    0.30
   0  13   0    4.00    0.40
  -1 -13   0    1.10    0.20
  -1 -13   0    1.30    0.20
   1  13   0    1.40    0.20
   1  13   0    1.10    0.40
   1  13   0    1.00    0.20
  -2 -13   0    2.10    0.30
   2  13   0    1.40    0.40
   2  13   0    2.50    0.30
   2  13   0    2.70    0.30
   2  13   0    1.50    0.30
  -3 -13   0    0.20    0.20
   3  13   0   -0.10    0.10
   3  13   0    0.30    0.20
   3  13   0    0.30    0.20
   3  13   0    0.00    0.20
  -4 -13   0    0.00    0.10
  -4 -13   0   -0.10    0.10
   4  13   0   -0.20    0.10
   4  13   0   -0.10    0.20
  -5 -13   0    6.00    0.40
  -5 -13   0    6.10    0.40
   5  13   0    5.10    0.60
   5  13   0    5.90    0.50
   2 -14   0   21.30    0.90
   2 -14   0   23.10    1.00
  -2  14   0   22.60    0.70
  -2  14   0   21.20    0.90
  -2  14   0   21.30    1.30
   1 -14   0    4.80    0.40
   1 -14   0    4.30    0.50
  -1  14   0    3.80    0.60
  -1  14   0    5.00    0.40
  -1  14   0    4.60    0.50
   0 -14   0    4.10    0.40
   0 -14   0    3.70    0.40
   0  14   0    3.30    0.60
   0  14   0    3.70    0.30
   0  14   0    3.20    0.40
  -1 -14   0    1.10    0.20
  -1 -14   0    1.20    0.20
   1  14   0    1.50    0.30
   1  14   0    1.10    0.20
   1  14   0    1.10    0.40
  -2 -14   0   11.40    0.60
   2  14   0   11.00    0.70
   2  14   0   11.50    0.50
   2  14   0   11.20    0.60
   2  14   0   11.60    0.90
  -3 -14   0    1.50    0.30
   3  14   0    1.20    0.30
   3  14   0    1.20    0.30
   3  14   0    0.70    0.40
   3  14   0    1.30    0.20
  -4 -14   0    1.50    0.20
   4  14   0    1.50    0.30
   4  14   0    1.60    0.40
   0 -15   0    0.30    0.20
   0  15   0    0.10    0.20
   0  15   0    0.20    0.20
   0  15   0   -0.20    0.30
  -1 -15   0    0.00    0.10
  -1 -15   0    0.10    0.20
   1  15   0    0.40    0.30
   1  15   0   -0.20    0.20
   1  15   0    0.30    0.20
  -2 -15   0   -0.10    0.20
   2  15   0    0.30    0.30
   2  15   0   -0.30    0.10
   2  15   0    0.00    0.20
   3  14  -1   11.50    0.70
   3  14  -1   10.10    0.50
   3  14  -1   10.20    0.90
  -3 -14   1   11.20    0.60
   2  14  -1    0.50    0.30
   2  14  -1    0.50    0.20
   2  14  -1    0.50    0.20
  -2 -14   1    0.30    0.20
   1  14  -1   23.60    1.30
   1  14  -1   22.10    0.80
   1  14  -1   24.50    1.00
  -1 -14   1   23.70    0.90
  -1 -14   1   23.00    0.70
   0  14  -1    0.00    0.10
   0  14  -1   -0.20    0.20
   0  14  -1   -0.20    0.20
   0 -14   1   -0.10    0.10
  -1  14  -1   11.60    0.70
  -1  14  -1   10.90    0.90
  -1  14  -1   10.00    0.50
   1 -14   1   11.00    0.60
   1 -14   1   11.70    0.60
  -2  14  -1    1.30    0.30
  -2  14  -1    1.30    0.20
  -2  14  -1    1.80    0.50
   2 -14   1    2.00    0.30
   2 -14   1    1.50    0.30
   4  13  -1    1.60    0.40
   4  13  -1    1.80    0.30
  -4 -13   1    2.30    0.30
  -4 -13   1    1.40    0.20
   3  13  -1    1.90    0.40
   3  13  -1    1.50    0.30
  -3 -13   1    2.10    0.30
  -3 -13   1    2.00    0.30
   2  13  -1    4.00    0.60
   2  13  -1    4.70    0.30
   2  13  -1    5.40    0.40
  -2 -13   1    5.40    0.40
   1  13  -1    9.40    0.60
   1  13  -1    9.60    0.50
   1  13  -1    9.70    0.80
  -1 -13   1    9.60    0.40
  -1 -13   1    9.50    0.50
   0  13  -1    0.90    0.40
   0  13  -1    0.70    0.20
   0  13  -1    0.60    0.20
   0 -13   1    0.50    0.20
   0 -13   1    0.40    0.20
   0 -13   1    0.50    0.20
  -1  13  -1    2.60    0.40
  -1  13  -1    3.00    0.30
  -1  13  -1    2.80    0.50
   1 -13   1    1.90    0.30
   1 -13   1    3.60    0.40
  -2  13  -1    0.50    0.30
  -2  13  -1    0.70    0.30
  -2  13  -1    0.50    0.20
   2 -13   1    0.60    0.20
   2 -13   1    0.40    0.20
  -3  13  -1    0.20    0.20
  -3  13  -1    0.20    0.30
   3 -13   1   -0.10    0.10
   3 -13   1    0.20    0.20
   3 -13   1   -0.10    0.20
   3 -13   1    0.20    0.20
   5  12  -1   -0.20    0.20
   5  12  -1    0.10    0.10
  -5 -12   1    0.00    0.10
  -5 -12   1   -0.10    0.10
  -5 -12   1    0.00    0.10
   4  12  -1    0.00    0.20
   4  12  -1    0.10    0.20
  -4 -12   1    0.20    0.10
  -4 -12   1    0.10    0.10
  -4 -12   1    0.10    0.10
   3  12  -1    0.60    0.30
  -3 -12   1    1.00    0.20
  -3 -12   1    0.70    0.20
   2  12  -1    0.10    0.10
   2  12  -1    0.00    0.20
   2  12  -1    0.20    0.20
   2  12  -1    0.00    0.20
  -2 -12   1    0.40    0.20
  -2 -12   1    0.10    0.10
   1  12  -1    0.00    0.10
   1  12  -1    0.00    0.10
   1  12  -1    0.10    0.20
  -1 -12   1    0.00    0.10
  -1 -12   1    0.10    0.10
   0  12  -1    0.30    0.10
   0  12  -1    0.10    0.20
   0  12  -1    0.10    0.20
   0 -12   1    0.30    0.10
   0 -12   1    0.50    0.20
   0 -12   1    0.40    0.20
  -1  12  -1    1.60    0.30
  -1  12  -1    1.70    0.20
  -1  12  -1    1.00    0.30
   1 -12   1    1.50    0.30
   1 -12   1    1.50    0.30
  -2  12  -1    6.10    0.40
  -2  12  -1    6.90    0.50
  -2  12  -1    6.30    0.70
   2 -12   1    7.00    0.30
   2 -12   1    6.50    0.40
   2 -12   1    7.40    0.50
   2 -12   1    6.90    0.50
  -3  12  -1   -0.10    0.20
  -3  12  -1    0.10    0.30
  -3  12  -1    0.30    0.10
   3 -12   1    0.20    0.20
   3 -12   1    0.20    0.20
   3 -12   1    0.00    0.20
   3 -12   1    0.10    0.10
  -4  12  -1    0.50    0.20
  -4  12  -1    0.50    0.30
   4 -12   1    0.40    0.20
   4 -12   1    0.40    0.20
   4 -12   1    0.30    0.10
   4 -12   1    0.50    0.20
   6  11  -1    9.70    0.50
  -6 -11   1   10.40    0.50
  -6 -11   1   10.00    0.50
  -6 -11   1   10.10    0.40
   5  11  -1    8.70    0.60
   5  11  -1   10.10    0.50
  -5 -11   1    9.90    0.50
  -5 -11   1   10.20    0.40
  -5 -11   1    9.90    0.50
   4  11  -1    0.70    0.20
   4  11  -1    1.10    0.30
  -4 -11   1    0.90    0.20
  -4 -11   1    0.50    0.10
  -4 -11   1    0.60    0.10
   3  11  -1   25.70    1.20
   3  11  -1   25.90    0.90
  -3 -11   1   27.30    0.90
  -3 -11   1   26.80    0.90
  -3 -11   1   26.50    0.90
   2  11  -1   27.80    0.90
   2  11  -1   28.70    0.80
   2  11  -1   27.80    1.00
   2  11  -1   28.30    1.30
  -2 -11   1   28.40    1.00
  -2 -11   1   27.80    0.90
   1  11  -1    0.70    0.20
   1  11  -1    0.70    0.30
   1  11  -1    0.60    0.10
  -1 -11   1    0.80    0.20
  -1 -11   1    0.50    0.10
  -1 -11   1    1.00    0.20
  -1 -11   1    0.90    0.20
   0  11  -1    4.40    0.40
   0  11  -1    3.80    0.50
   0  11  -1    3.90    0.30
   0 -11   1    4.50    0.30
   0 -11   1    4.40    0.30
   0 -11   1    4.80    0.30
  -1  11  -1    2.70    0.50
  -1  11  -1    2.30    0.30
  -1  11  -1    2.30    0.20
   1 -11   1    2.50    0.30
   1 -11   1    3.00    0.30
   1 -11   1    3.20    0.30
  -2  11  -1    0.00    0.10
  -2  11  -1    0.10    0.30
  -2  11  -1   -0.20    0.10
   2 -11   1    0.10    0.10
   2 -11   1    0.10    0.20
   2 -11   1   -0.10    0.10
   2 -11   1   -0.10    0.10
  -3  11  -1    0.00    0.30
  -3  11  -1    0.20    0.10
  -3  11  -1    0.10    0.20
   3 -11   1    0.10    0.20
   3 -11   1    0.20    0.10
   3 -11   1    0.30    0.20
   3 -11   1    0.00    0.20
  -4  11  -1    4.50    0.60
  -4  11  -1    4.00    0.40
   4 -11   1    3.00    0.30
   4 -11   1    3.50    0.40
   4 -11   1    3.70    0.40
   4 -11   1    3.30    0.40
   6  10  -1   10.30    0.40
  -6 -10   1   10.60    0.40
  -6 -10   1   10.20    0.40
  -6 -10   1   11.10    0.40
   5  10  -1    0.50    0.10
   5  10  -1   -0.10    0.40
   5  10  -1    0.40    0.20
  -5 -10   1    0.30    0.10
  -5 -10   1    0.30    0.10
  -5 -10   1    0.20    0.10
  -5 -10   1    0.30    0.10
   4  10  -1   16.00    0.80
   4  10  -1   15.30    0.60
  -4 -10   1   14.60    0.60
  -4 -10   1   15.70    0.60
  -4 -10   1   14.00    0.50
  -4 -10   1   14.20    0.60
   3  10  -1   60.09    1.70
   3  10  -1   61.59    2.00
   3  10  -1   64.39    1.70
  -3 -10   1   61.19    1.60
  -3 -10   1   62.09    1.70
  -3 -10   1   61.29    1.60
  -3 -10   1   61.09    1.70
   2  10  -1    0.00    0.10
   2  10  -1    0.30    0.10
   2  10  -1    0.20    0.10
   2  10  -1    0.00    0.20
  -2 -10   1    0.10    0.10
  -2 -10   1    0.10    0.10
  -2 -10   1    0.10    0.10
  -2 -10   1    0.10    0.10
   1  10  -1    0.60    0.20
   1  10  -1    1.10    0.20
   1  10  -1    0.60    0.30
   1  10  -1    1.30    0.20
  -1 -10   1    1.20    0.20
  -1 -10   1    1.10    0.20
  -1 -10   1    1.00    0.20
  -1 -10   1    1.00    0.10
  -1 -10   1    1.10    0.30
   0  10  -1    0.00    0.20
   0  10  -1    0.00    0.10
   0  10  -1   -0.10    0.10
   0 -10   1   -0.20    0.30
   0 -10   1    0.00    0.10
   0 -10   1    0.00    0.10
   0 -10   1    0.20    0.10
  -1  10  -1   13.30    0.50
  -1  10  -1   12.30    0.60
  -1  10  -1   14.00    0.80
   1 -10   1   13.00    0.60
   1 -10   1   13.20    0.60
   1 -10   1   14.40    0.50
   1 -10   1   14.30    0.40
   1 -10   1   13.80    0.60
  -2  10  -1    1.50    0.40
  -2  10  -1    1.30    0.20
  -2  10  -1    1.00    0.20
   2 -10   1    0.90    0.20
   2 -10   1    0.90    0.20
   2 -10   1    1.10    0.20
   2 -10   1    1.40    0.20
   2 -10   1    1.30    0.20
  -3  10  -1    1.30    0.10
  -3  10  -1    1.20    0.20
  -3  10  -1    1.20    0.30
   3 -10   1    1.30    0.20
   3 -10   1    1.50    0.30
   3 -10   1    0.90    0.20
   3 -10   1    1.20    0.30
   3 -10   1    1.10    0.20
  -4  10  -1   12.00    0.60
  -4  10  -1   12.60    0.80
   4 -10   1   11.20    0.70
   4 -10   1   12.10    0.70
   4 -10   1   12.10    0.50
   4 -10   1   11.70    0.60
   4 -10   1   12.20    0.70
  -5  10  -1    0.40    0.20
   5 -10   1    0.60    0.30
   5 -10   1    0.40    0.20
   5 -10   1    0.20    0.10
   5 -10   1    0.60    0.20
   5 -10   1    0.70    0.20
  -6  -9   1    4.20    0.20
  -6  -9   1    4.30    0.20
  -6  -9   1    4.30    0.20
   5   9  -1    0.80    0.10
   5   9  -1    0.60    0.20
   5   9  -1    1.20    0.50
  -5  -9   1    0.80    0.10
  -5  -9   1    0.70    0.10
  -5  -9   1    0.80    0.10
   4   9  -1    2.00    0.20
   4   9  -1    1.70    0.50
   4   9  -1    1.70    0.30
  -4  -9   1    2.00    0.20
  -4  -9   1    2.10    0.20
  -4  -9   1    1.80    0.20
   3   9  -1    3.90    0.30
   3   9  -1    3.80    0.30
   3   9  -1    3.80    0.40
  -3  -9   1    3.80    0.20
  -3  -9   1    4.20    0.30
  -3  -9   1    3.80    0.30
   2   9  -1    0.60    0.10
   2   9  -1    0.80    0.20
   2   9  -1    0.90    0.10
   2   9  -1    0.80    0.20
  -2  -9   1    0.90    0.30
  -2  -9   1    0.90    0.20
  -2  -9   1    0.90    0.10
  -2  -9   1    1.00    0.10
  -2  -9   1    0.90    0.20
   1   9  -1    3.70    0.30
   1   9  -1    3.80    0.50
   1   9  -1    4.30    0.20
   1   9  -1    4.60    0.30
  -1  -9   1    3.80    0.30
  -1  -9   1    4.20    0.30
  -1  -9   1    4.20    0.30
  -1  -9   1    4.40    0.30
  -1  -9   1    4.70    0.50
  -1  -9   1    4.40    0.30
  -1  -9   1    4.30    0.20
   0   9  -1    6.60    0.40
   0   9  -1    6.60    0.30
   0   9  -1    6.50    0.50
   0  -9   1    6.60    0.40
   0  -9   1    6.70    0.40
   0  -9   1    6.20    0.40
   0  -9   1    6.70    0.30
   0  -9   1    6.40    0.30
  -1   9  -1   77.89    2.30
  -1   9  -1   74.09    2.00
  -1   9  -1   76.79    1.90
   1  -9   1   77.79    2.00
   1  -9   1   77.99    1.80
   1  -9   1   75.69    1.90
   1  -9   1   72.39    2.00
   1  -9   1   74.39    2.00
  -2   9  -1   11.40    0.50
  -2   9  -1   12.20    0.40
  -2   9  -1   13.00    0.80
   2  -9   1   12.00    0.60
   2  -9   1   12.10    0.50
   2  -9   1   11.60    0.60
   2  -9   1   10.80    0.50
   2  -9   1   11.70    0.40
  -3   9  -1    0.00    0.10
  -3   9  -1    0.20    0.10
  -3   9  -1    0.40    0.20
  -3   9  -1    0.00    0.10
   3  -9   1    0.10    0.10
   3  -9   1    0.20    0.20
   3  -9   1   -0.10    0.10
   3  -9   1    0.00    0.10
   3  -9   1    0.00    0.10
  -4   9  -1    0.60    0.20
  -4   9  -1    0.40    0.20
  -4   9  -1    0.70    0.30
   4  -9   1    0.50    0.20
   4  -9   1    0.10    0.20
   4  -9   1    0.20    0.10
   4  -9   1    0.50    0.20
   4  -9   1    0.40    0.20
  -5   9  -1    3.90    0.50
  -5   9  -1    5.00    0.30
   5  -9   1    5.00    0.50
   5  -9   1    4.40    0.50
   5  -9   1    3.80    0.40
   5  -9   1    4.10    0.30
   5  -9   1    4.20    0.40
  -7  -8   1    9.20    0.30
  -7  -8   1    8.60    0.30
  -7  -8   1    9.40    0.30
   6   8  -1    0.60    0.40
  -6  -8   1    0.40    0.10
  -6  -8   1    0.40    0.10
  -6  -8   1    0.30    0.10
  -6  -8   1    0.40    0.10
   5   8  -1    4.10    0.30
   5   8  -1    2.80    0.60
  -5  -8   1    3.50    0.20
  -5  -8   1    3.90    0.20
  -5  -8   1    3.80    0.20
  -5  -8   1    3.80    0.20
   4   8  -1  328.07    7.40
   4   8  -1  336.87    8.50
   4   8  -1  322.57    7.70
  -4  -8   1  319.77    7.40
  -4  -8   1  328.47    7.40
  -4  -8   1  329.77    7.50
  -4  -8   1  320.07    7.40
   3   8  -1   62.79    2.30
   3   8  -1   60.59    1.60
   3   8  -1   61.69    1.80
   3   8  -1   64.39    1.60
  -3  -8   1   61.89    1.60
  -3  -8   1   59.49    1.50
  -3  -8   1   63.19    1.60
  -3  -8   1   61.39    1.60
   2   8  -1    4.30    0.20
   2   8  -1    4.50    0.30
   2   8  -1    4.20    0.30
   2   8  -1    4.00    0.40
  -2  -8   1    4.60    0.50
  -2  -8   1    3.90    0.20
  -2  -8   1    4.40    0.20
  -2  -8   1    4.50    0.30
  -2  -8   1    4.10    0.30
   1   8  -1    6.90    0.40
   1   8  -1    6.80    0.50
   1   8  -1    7.80    0.40
   1   8  -1    7.20    0.30
  -1  -8   1    7.60    0.40
  -1  -8   1    7.00    0.40
  -1  -8   1    7.90    0.40
  -1  -8   1    7.10    0.30
  -1  -8   1    7.40    0.30
  -1  -8   1    7.60    0.60
   0   8  -1  218.98    5.10
   0   8  -1  221.58    5.20
   0  -8   1  216.08    5.10
   0  -8   1  227.18    5.20
   0  -8   1  217.48    5.20
   0  -8   1  219.58    5.10
   0  -8   1  225.98    5.20
   0  -8   1  223.08    5.20
  -1   8  -1    2.70    0.30
  -1   8  -1    3.70    0.50
  -1   8  -1    3.40    0.30
  -1   8  -1    2.60    0.20
   1  -8   1    2.90    0.20
   1  -8   1    2.70    0.20
   1  -8   1    2.80    0.20
   1  -8   1    3.20    0.30
   1  -8   1    3.00    0.20
  -2   8  -1    0.40    0.10
  -2   8  -1    0.30    0.10
  -2   8  -1    0.30    0.10
  -2   8  -1    0.20    0.20
   2  -8   1    0.40    0.10
   2  -8   1    0.10    0.10
   2  -8   1    0.50    0.10
   2  -8   1    0.00    0.10
   2  -8   1    0.20    0.10
   2  -8   1    0.20    0.10
  -3   8  -1   68.89    1.60
  -3   8  -1   68.79    1.80
  -3   8  -1   69.89    1.90
  -3   8  -1   67.79    2.10
   3  -8   1   69.19    1.90
   3  -8   1   68.19    1.70
   3  -8   1   69.59    1.90
   3  -8   1   67.69    1.90
   3  -8   1   67.09    1.90
  -4   8  -1    1.90    0.30
  -4   8  -1    2.20    0.30
  -4   8  -1    1.80    0.20
   4  -8   1    2.10    0.30
   4  -8   1    2.50    0.20
   4  -8   1    1.90    0.30
   4  -8   1    2.20    0.30
   4  -8   1    2.00    0.30
  -5   8  -1   11.60    0.70
  -5   8  -1   11.20    0.50
   5  -8   1   11.20    0.60
   5  -8   1   10.10    0.60
   5  -8   1   11.20    0.50
   5  -8   1   10.20    0.60
   5  -8   1   11.50    0.60
  -6   8  -1    5.20    0.50
   6  -8   1    5.30    0.40
   6  -8   1    5.50    0.50
   6  -8   1    4.50    0.50
   6  -8   1    6.00    0.60
   6  -8   1    6.10    0.50
  -7  -7   1    2.80    0.20
  -7  -7   1    2.90    0.20
  -7  -7   1    2.90    0.40
   6   7  -1    6.70    0.90
  -6  -7   1    5.80    0.50
  -6  -7   1    6.30    0.20
  -6  -7   1    5.70    0.30
   5   7  -1    6.60    0.80
   5   7  -1    6.20    0.40
  -5  -7   1    6.20    0.20
  -5  -7   1    5.80    0.40
  -5  -7   1    5.30    0.20
   4   7  -1    4.10    0.30
   4   7  -1    3.80    0.60
  -4  -7   1    4.40    0.20
  -4  -7   1    4.10    0.20
  -4  -7   1    4.10    0.10
  -4  -7   1    3.60    0.30
  -4  -7   1    3.90    0.10
   3   7  -1   40.60    1.20
   3   7  -1   43.00    1.70
   3   7  -1   41.30    1.00
   3   7  -1   41.60    1.10
  -3  -7   1   39.70    1.00
  -3  -7   1   39.80    1.00
   2   7  -1    3.00    0.20
   2   7  -1    2.60    0.30
   2   7  -1    2.60    0.20
  -2  -7   1    3.10    0.20
  -2  -7   1    2.60    0.20
  -2  -7   1    3.00    0.20
  -2  -7   1    3.60    0.50
  -2  -7   1    2.90    0.20
   1   7  -1    0.40    0.10
   1   7  -1    0.40    0.10
   1   7  -1    0.30    0.10
   1   7  -1    0.50    0.20
  -1  -7   1    0.40    0.10
  -1  -7   1    0.40    0.20
  -1  -7   1    0.40    0.10
  -1  -7   1    0.50    0.10
  -1  -7   1    0.50    0.10
  -1  -7   1    0.30    0.10
   0   7  -1   48.00    1.20
   0   7  -1   49.60    1.30
   0   7  -1   46.10    1.50
   0  -7   1   47.30    1.30
   0  -7   1   48.50    1.30
   0  -7   1   49.80    1.20
   0  -7   1   49.90    1.30
   0  -7   1   48.70    1.30
   0  -7   1   49.40    1.30
   0  -7   1   48.10    1.30
  -1   7  -1  116.59    3.20
  -1   7  -1  121.69    3.00
  -1   7  -1  121.29    2.80
  -1   7  -1  123.89    2.90
   1  -7   1  123.19    3.00
   1  -7   1  120.19    2.90
   1  -7   1  125.19    2.90
   1  -7   1  120.69    2.90
   1  -7   1  115.59    2.80
  -2   7  -1   10.00    0.50
  -2   7  -1   10.70    0.60
  -2   7  -1   10.50    0.30
   2  -7   1   10.50    0.40
   2  -7   1   10.60    0.40
   2  -7   1   10.10    0.50
   2  -7   1    9.70    0.50
   2  -7   1    9.80    0.50
   2  -7   1    9.40    0.40
  -3   7  -1    8.70    0.50
  -3   7  -1    8.30    0.50
  -3   7  -1    8.30    0.40
   3  -7   1    8.90    0.50
   3  -7   1    8.90    0.40
   3  -7   1    9.20    0.40
   3  -7   1    8.90    0.50
  -4   7  -1    9.40    0.40
  -4   7  -1   10.10    0.60
  -4   7  -1    8.70    0.50
   4  -7   1    9.00    0.50
   4  -7   1    9.30    0.40
   4  -7   1    8.60    0.50
   4  -7   1    8.90    0.50
  -5   7  -1   11.40    0.60
  -5   7  -1   10.70    0.40
   5  -7   1   11.20    0.60
   5  -7   1   10.60    0.60
   5  -7   1   11.00    0.60
   5  -7   1   10.30    0.60
   5  -7   1   10.20    0.40
  -6   7  -1   12.00    0.70
   6  -7   1   11.10    0.60
   6  -7   1   11.50    0.50
   6  -7   1   12.20    0.70
   6  -7   1   12.20    0.70
   6  -7   1   12.30    0.70
  -7  -6   1    1.60    0.10
  -7  -6   1    1.70    0.30
  -7  -6   1    1.50    0.10
   6   6  -1    2.40    0.60
  -6  -6   1    2.10    0.30
   5   6  -1    0.50    0.30
  -5  -6   1    0.00    0.10
   4   6  -1   33.10    0.90
   4   6  -1   32.10    1.50
  -4  -6   1   32.90    0.80
  -4  -6   1   31.80    1.10
  -4  -6   1   32.90    0.80
   3   6  -1    9.50    0.40
  -3  -6   1   10.30    0.50
  -3  -6   1    9.90    0.30
  -3  -6   1   10.20    0.30
  -3  -6   1   10.10    0.30
  -3  -6   1    9.80    0.30
   2   6  -1    0.10    0.20
   2   6  -1    0.10    0.10
   2   6  -1    0.10    0.10
   2   6  -1    0.20    0.10
  -2  -6   1    0.10    0.10
  -2  -6   1    0.10    0.10
  -2  -6   1    0.10    0.10
  -2  -6   1    0.00    0.10
  -2  -6   1    0.20    0.20
   1   6  -1  178.68    4.40
   1   6  -1  177.98    4.20
   1   6  -1  180.48    4.00
   1   6  -1  181.38    4.20
  -1  -6   1  181.78    4.10
  -1  -6   1  166.18    4.10
  -1  -6   1  187.48    4.60
  -1  -6   1  176.88    4.10
  -1  -6   1  180.08    4.10
  -1  -6   1  179.48    4.10
   0   6  -1    1.30    0.20
   0   6  -1    0.70    0.10
   0   6  -1    0.90    0.10
   0  -6   1    0.60    0.10
   0  -6   1    0.80    0.10
   0  -6   1    0.50    0.10
   0  -6   1    0.80    0.10
   0  -6   1    0.80    0.10
   0  -6   1    0.60    0.10
   0  -6   1    0.80    0.10
  -1   6  -1   52.79    1.40
  -1   6  -1   53.39    1.40
  -1   6  -1   52.19    1.60
  -1   6  -1   52.29    1.30
   1  -6   1   54.59    1.40
   1  -6   1   54.79    1.40
   1  -6   1   53.69    1.40
   1  -6   1   54.59    1.40
   1  -6   1   54.29    1.40
   1  -6   1   53.89    1.30
   1  -6   1   55.69    1.40
  -2   6  -1   13.50    0.60
  -2   6  -1   14.20    0.60
  -2   6  -1   13.60    0.50
  -2   6  -1   13.20    0.40
   2  -6   1   13.60    0.50
   2  -6   1   13.20    0.50
   2  -6   1   13.20    0.40
   2  -6   1   12.50    0.50
   2  -6   1   13.40    0.50
  -3   6  -1    0.10    0.10
  -3   6  -1    0.00    0.10
  -3   6  -1    0.10    0.10
  -3   6  -1    0.00    0.10
  -3   6  -1    0.00    0.10
   3  -6   1    0.10    0.10
   3  -6   1   -0.10    0.10
   3  -6   1    0.00    0.10
   3  -6   1    0.00    0.10
  -4   6  -1    6.90    0.30
  -4   6  -1    7.20    0.40
  -4   6  -1    7.10    0.40
  -4   6  -1    7.20    0.50
   4  -6   1    7.00    0.30
   4  -6   1    7.30    0.40
   4  -6   1    7.80    0.40
   4  -6   1    6.80    0.40
  -5   6  -1    1.00    0.20
  -5   6  -1    0.90    0.20
   5  -6   1    1.30    0.20
   5  -6   1    0.80    0.20
   5  -6   1    1.10    0.20
   5  -6   1    0.80    0.20
  -6   6  -1   40.00    1.30
   6  -6   1   38.40    1.20
   6  -6   1   36.40    1.30
   6  -6   1   38.50    1.30
   6  -6   1   35.90    1.30
   6  -6   1   38.80    1.10
  -7   6  -1    1.50    0.30
   7  -6   1    0.60    0.20
   7  -6   1    0.90    0.30
   7  -6   1    0.80    0.30
   7  -6   1    0.50    0.20
   7  -6   1    0.70    0.20
  -7  -5   1    0.50    0.20
  -7  -5   1    0.80    0.10
  -7  -5   1    0.60    0.10
   6   5  -1    1.20    0.40
  -6  -5   1    0.80    0.20
   5   5  -1   52.49    2.10
  -5  -5   1   50.89    1.50
   4   5  -1   69.19    2.40
   4   5  -1   70.19    1.60
   3   5  -1    0.20    0.20
   3   5  -1    0.00    0.10
  -3  -5   1    0.00    0.10
  -3  -5   1    0.00    0.10
  -3  -5   1   -0.10    0.10
   2   5  -1   11.10    0.40
   2   5  -1   10.90    0.30
   2   5  -1   12.10    0.40
   2   5  -1   11.00    0.70
  -2  -5   1   10.60    0.30
  -2  -5   1   10.50    0.30
  -2  -5   1   10.70    0.30
  -2  -5   1   10.50    0.30
  -2  -5   1   10.20    0.60
  -2  -5   1   10.40    0.40
   1   5  -1  184.88    4.10
   1   5  -1  175.58    4.20
   1   5  -1  180.58    4.10
  -1  -5   1  175.08    4.10
  -1  -5   1  185.78    4.50
  -1  -5   1  164.18    4.00
  -1  -5   1  174.58    4.00
   0   5  -1   10.00    0.30
   0   5  -1    9.60    0.50
   0   5  -1   10.10    0.40
   0  -5   1   10.30    0.40
   0  -5   1    9.40    0.30
   0  -5   1   10.10    0.30
   0  -5   1    9.90    0.40
  -1   5  -1   10.70    0.50
  -1   5  -1    9.70    0.40
  -1   5  -1    9.10    0.30
  -1   5  -1    9.20    0.40
   1  -5   1    9.50    0.40
   1  -5   1    9.40    0.40
   1  -5   1    9.90    0.40
   1  -5   1    9.40    0.40
   1  -5   1    9.30    0.30
   1  -5   1    9.50    0.40
   1  -5   1   10.10    0.40
  -2   5  -1   30.90    0.90
  -2   5  -1   31.20    0.80
  -2   5  -1   30.70    0.90
  -2   5  -1   30.40    1.00
  -2   5  -1   30.50    0.90
  -2   5  -1   30.40    0.90
   2  -5   1   29.60    0.90
   2  -5   1   30.20    0.90
   2  -5   1   30.30    0.80
   2  -5   1   30.80    0.90
  -3   5  -1    0.50    0.10
  -3   5  -1    0.60    0.20
  -3   5  -1    0.50    0.10
  -3   5  -1    0.40    0.10
  -3   5  -1    0.60    0.10
   3  -5   1    0.40    0.10
   3  -5   1    0.50    0.10
   3  -5   1    0.40    0.10
   3  -5   1    0.70    0.10
  -4   5  -1    7.40    0.30
  -4   5  -1    7.60    0.40
  -4   5  -1    7.40    0.40
  -4   5  -1    8.00    0.30
  -4   5  -1    7.80    0.40
  -4   5  -1    7.30    0.40
   4  -5   1    7.60    0.40
   4  -5   1    7.40    0.30
   4  -5   1    7.30    0.40
  -5   5  -1    2.40    0.20
  -5   5  -1    2.50    0.30
  -5   5  -1    2.50    0.20
  -5   5  -1    2.10    0.30
   5  -5   1    2.30    0.30
   5  -5   1    2.10    0.30
   5  -5   1    2.40    0.30
   5  -5   1    2.40    0.20
  -6   5  -1    0.00    0.20
  -6   5  -1    0.10    0.10
   6  -5   1    0.20    0.20
   6  -5   1    0.00    0.10
   6  -5   1   -0.10    0.10
   6  -5   1    0.30    0.10
   6  -5   1    0.00    0.10
  -7   5  -1   14.90    0.80
   7  -5   1   15.80    0.60
   7  -5   1   14.20    0.70
   7  -5   1   15.70    0.70
  -8  -4   1    4.00    0.20
  -8  -4   1    3.80    0.20
  -8  -4   1    3.90    0.20
  -8  -4   1    3.70    0.50
  -7  -4   1   34.60    0.90
  -7  -4   1   35.50    1.30
  -7  -4   1   34.90    0.90
   6   4  -1    0.20    0.30
  -6  -4   1    0.10    0.20
   5   4  -1    0.00    0.20
  -5  -4   1    0.10    0.10
   3   4  -1   90.09    2.70
  -3  -4   1   88.29    2.20
   2   4  -1   88.79    2.60
   2   4  -1   91.69    2.20
  -2  -4   1   91.69    2.10
  -2  -4   1   90.89    2.10
  -2  -4   1   88.89    2.20
  -2  -4   1   90.89    2.60
   1   4  -1   23.80    0.60
   1   4  -1   22.30    0.70
   1   4  -1   23.20    0.60
  -1  -4   1   19.10    0.60
  -1  -4   1   22.20    0.90
  -1  -4   1   24.60    0.70
  -1  -4   1   23.50    0.60
  -1  -4   1   22.00    0.60
  -1  -4   1   21.70    0.60
   0   4  -1    0.30    0.10
   0   4  -1    0.50    0.10
   0   4  -1    0.50    0.10
   0  -4   1    0.40    0.10
   0  -4   1    0.50    0.10
   0  -4   1    0.30    0.10
   0  -4   1    0.60    0.10
   0  -4   1    0.30    0.10
   0  -4   1    0.30    0.10
  -1   4  -1   66.79    1.70
  -1   4  -1   69.59    1.70
  -1   4  -1   68.39    1.80
  -1   4  -1   67.29    1.60
   1  -4   1   69.19    1.70
   1  -4   1   70.49    1.70
   1  -4   1   68.99    1.60
   1  -4   1   67.39    1.70
  -2   4  -1    5.20    0.30
  -2   4  -1    5.50    0.30
  -2   4  -1    5.50    0.30
  -2   4  -1    5.10    0.30
  -2   4  -1    5.50    0.30
  -2   4  -1    5.10    0.20
   2  -4   1    5.60    0.30
   2  -4   1    5.30    0.30
   2  -4   1    4.80    0.20
  -3   4  -1    0.50    0.10
  -3   4  -1    0.60    0.10
  -3   4  -1    0.50    0.10
  -3   4  -1    0.50    0.10
  -3   4  -1    0.50    0.10
   3  -4   1    0.40    0.10
   3  -4   1    0.40    0.10
   3  -4   1    0.70    0.10
  -4   4  -1    6.80    0.40
  -4   4  -1    5.70    0.30
  -4   4  -1    6.60    0.30
  -4   4  -1    6.40    0.30
  -4   4  -1    6.20    0.30
   4  -4   1    6.70    0.40
   4  -4   1    5.70    0.30
   4  -4   1    5.80    0.20
  -5   4  -1    2.60    0.30
  -5   4  -1    2.80    0.20
  -5   4  -1    2.60    0.20
  -5   4  -1    2.30    0.30
  -5   4  -1    2.80    0.10
   5  -4   1    3.20    0.30
   5  -4   1    2.60    0.20
   5  -4   1    2.90    0.30
  -6   4  -1    0.30    0.10
  -6   4  -1    0.10    0.10
  -6   4  -1    0.00    0.10
   6  -4   1    0.00    0.10
   6  -4   1    0.30    0.20
   6  -4   1    0.20    0.10
   6  -4   1    0.20    0.10
  -7   4  -1   11.70    0.60
  -7   4  -1   11.50    0.60
   7  -4   1   11.60    0.60
   7  -4   1   10.90    0.60
  -8  -3   1    0.10    0.10
  -8  -3   1   -0.10    0.10
  -8  -3   1    0.10    0.10
  -8  -3   1    0.20    0.20
  -7  -3   1    0.10    0.20
  -7  -3   1    0.10    0.10
  -7  -3   1    0.30    0.10
   6   3  -1    0.10    0.30
  -6  -3   1    0.30    0.20
   5   3  -1   28.10    1.50
  -5  -3   1   28.00    0.90
   4   3  -1    9.70    0.70
  -4  -3   1    9.80    0.40
   3   3  -1   30.50    1.20
  -3  -3   1   29.40    0.90
   1   3  -1    0.50    0.20
   1   3  -1    0.80    0.10
  -1  -3   1    0.80    0.10
  -1  -3   1    0.70    0.20
  -1  -3   1    0.80    0.10
  -1  -3   1    0.90    0.10
  -1  -3   1    0.90    0.10
   0   3  -1   62.09    1.60
   0   3  -1   60.99    1.50
   0   3  -1   60.39    1.40
   0  -3   1   60.39    1.40
   0  -3   1   60.09    1.40
   0  -3   1   60.19    1.50
   0  -3   1   63.49    1.50
   0  -3   1   61.49    1.50
  -1   3  -1  102.29    2.50
  -1   3  -1  103.49    2.40
  -1   3  -1  103.69    2.50
  -1   3  -1  104.59    2.40
  -1   3  -1  103.69    2.40
   1  -3   1  107.19    2.50
   1  -3   1  103.99    2.40
   1  -3   1  102.59    2.40
   1  -3   1  106.69    2.40
  -2   3  -1  280.67    6.20
  -2   3  -1  274.67    6.20
  -2   3  -1  270.17    6.20
  -2   3  -1  264.77    6.10
  -2   3  -1  262.47    6.20
  -2   3  -1  273.57    6.30
   2  -3   1  278.47    6.20
   2  -3   1  270.97    6.20
   2  -3   1  269.27    6.10
  -3   3  -1    0.00    0.10
  -3   3  -1    0.10    0.10
  -3   3  -1    0.00    0.10
  -3   3  -1    0.00    0.10
  -3   3  -1    0.10    0.10
  -3   3  -1    0.00    0.10
   3  -3   1    0.00    0.10
   3  -3   1    0.00    0.10
   3  -3   1    0.10    0.10
  -4   3  -1    3.30    0.20
  -4   3  -1    2.80    0.20
  -4   3  -1    2.80    0.20
  -4   3  -1    2.80    0.20
  -4   3  -1    2.90    0.20
  -4   3  -1    3.10    0.20
   4  -3   1    3.10    0.20
   4  -3   1    2.90    0.10
   4  -3   1    3.40    0.20
  -5   3  -1    4.50    0.30
  -5   3  -1    4.40    0.30
  -5   3  -1    4.30    0.30
  -5   3  -1    3.70    0.30
   5  -3   1    4.40    0.30
   5  -3   1    4.10    0.20
   5  -3   1    4.00    0.30
  -6   3  -1    8.30    0.40
  -6   3  -1    7.80    0.40
  -6   3  -1    8.00    0.50
  -6   3  -1    7.60    0.40
   6  -3   1    7.20    0.40
   6  -3   1    6.90    0.40
  -7   3  -1    6.40    0.40
  -7   3  -1    6.80    0.40
  -7   3  -1    6.40    0.50
   7  -3   1    6.80    0.40
   7  -3   1    6.50    0.40
  -8  -2   1    0.30    0.20
  -8  -2   1    0.10    0.10
  -8  -2   1    0.00    0.10
  -8  -2   1    0.10    0.10
  -7  -2   1    3.80    0.20
  -7  -2   1    3.60    0.40
  -7  -2   1    3.40    0.20
  -7  -2   1    3.80    0.20
  -7  -2   1    3.90    0.20
  -6  -2   1    5.80    0.40
  -6  -2   1    6.00    0.20
  -6  -2   1    5.90    0.20
   5   2  -1    4.50    0.20
  -5  -2   1    4.80    0.30
  -4  -2   1   71.89    1.90
  -3  -2   1  201.78    4.70
   2   2  -1    0.00    0.10
  -2  -2   1    0.00    0.10
   1   2  -1  309.17    7.20
  -1  -2   1  309.07    7.20
  -1  -2   1  313.97    7.10
   0   2  -1    2.30    0.10
   0  -2   1    2.20    0.10
   0  -2   1    2.10    0.10
   0  -2   1    2.40    0.10
  -1   2  -1  204.48    4.80
  -1   2  -1  213.18    4.80
  -1   2  -1  216.18    4.90
  -1   2  -1  208.68    4.70
  -1   2  -1  212.38    4.80
   1  -2   1  210.88    4.80
   1  -2   1  215.58    4.80
   1  -2   1  209.08    4.70
  -2   2  -1   47.20    1.20
  -2   2  -1   47.30    1.20
  -2   2  -1   45.50    1.20
  -2   2  -1   49.20    1.20
   2  -2   1   46.00    1.20
   2  -2   1   45.70    1.10
   2  -2   1   46.70    1.20
  -3   2  -1    0.00    0.10
  -3   2  -1    0.10    0.10
  -3   2  -1    0.00    0.10
  -3   2  -1    0.10    0.10
  -3   2  -1    0.10    0.10
  -3   2  -1    0.00    0.10
  -3   2  -1    0.10    0.10
   3  -2   1    0.10    0.10
   3  -2   1    0.00    0.10
   3  -2   1    0.10    0.10
  -4   2  -1  106.19    2.60
  -4   2  -1  106.99    2.60
  -4   2  -1  105.89    2.60
  -4   2  -1  108.29    2.60
  -4   2  -1  103.49    2.60
  -4   2  -1  108.59    2.60
   4  -2   1  107.29    2.60
   4  -2   1  108.29    2.60
  -5   2  -1   20.90    0.70
  -5   2  -1   20.90    0.70
  -5   2  -1   20.40    0.70
  -5   2  -1   19.50    0.70
   5  -2   1   20.70    0.70
   5  -2   1   21.60    0.70
  -6   2  -1    0.40    0.10
  -6   2  -1    0.30    0.10
  -6   2  -1    0.50    0.10
  -6   2  -1    0.50    0.20
   6  -2   1    0.50    0.10
  -7   2  -1   23.20    0.90
  -7   2  -1   26.10    0.90
  -7   2  -1   25.50    0.90
  -7   2  -1   24.00    0.90
   7  -2   1   25.10    0.90
  -8   2  -1    0.10    0.10
  -8  -1   1   12.00    0.70
  -8  -1   1   11.80    0.50
  -8  -1   1   11.30    0.50
  -8  -1   1   12.60    0.50
  -8  -1   1   11.50    0.50
  -7  -1   1    5.00    0.40
  -7  -1   1    4.90    0.30
  -7  -1   1    4.70    0.30
  -7  -1   1    4.90    0.30
  -7  -1   1    4.90    0.20
   6   1  -1    5.10    0.20
  -6  -1   1    5.60    0.20
  -6  -1   1    5.30    0.40
  -6  -1   1    5.40    0.30
   5   1  -1    3.20    0.20
  -5  -1   1    3.30    0.10
  -5  -1   1    2.80    0.30
   4   1  -1  191.78    4.20
  -4  -1   1  185.28    4.50
  -3  -1   1  208.98    4.80
  -2  -1   1    5.90    0.20
   1   1  -1    1.00    0.20
  -1  -1   1    1.00    0.10
  -1  -1   1    1.20    0.20
   0  -1   1  394.46    9.30
   0  -1   1  400.16    9.30
   0  -1   1  417.96    9.20
   0  -1   1  429.56    9.30
   0  -1   1  404.76    9.20
  -1   1  -1  623.14   14.40
  -1   1  -1  628.34   14.40
  -1   1  -1  625.64   14.30
  -1   1  -1  634.14   14.40
  -1   1  -1  642.74   14.20
   1  -1   1  652.83   14.40
  -2   1  -1    2.70    0.10
  -2   1  -1    2.30    0.10
  -2   1  -1    2.90    0.10
  -2   1  -1    2.70    0.10
  -2   1  -1    2.80    0.20
  -2   1  -1    2.90    0.10
   2  -1   1    3.00    0.10
   2  -1   1    2.80    0.10
  -3   1  -1    8.30    0.20
  -3   1  -1    8.20    0.30
  -3   1  -1    8.30    0.30
  -3   1  -1    7.90    0.30
  -3   1  -1    7.90    0.30
  -3   1  -1    8.60    0.30
   3  -1   1    8.80    0.30
   3  -1   1    8.60    0.30
  -4   1  -1  114.49    2.70
  -4   1  -1  109.09    2.60
  -4   1  -1  109.89    2.60
  -4   1  -1  108.99    2.70
  -4   1  -1  111.59    2.60
  -4   1  -1  104.19    2.60
   4  -1   1  109.89    2.60
   4  -1   1  116.49    2.60
  -5   1  -1   48.00    1.30
  -5   1  -1   47.60    1.20
  -5   1  -1   48.20    1.20
  -5   1  -1   47.00    1.30
  -5   1  -1   45.20    1.20
  -5   1  -1   46.90    1.20
   5  -1   1   45.90    1.30
   5  -1   1   48.30    1.30
  -6   1  -1    1.00    0.20
  -6   1  -1    0.70    0.20
  -6   1  -1    0.50    0.20
  -6   1  -1    1.00    0.20
   6  -1   1    1.10    0.20
  -7   1  -1    7.20    0.40
  -7   1  -1    7.50    0.40
  -7   1  -1    7.50    0.50
  -7   1  -1    7.50    0.40
   7  -1   1    7.10    0.40
  -8   1  -1    5.30    0.40
  -8   1  -1    5.20    0.40
  -8   1  -1    5.70    0.40
  -8   1  -1    5.40    0.40
   8  -1   1    5.30    0.40
   8  -1   1    5.40    0.40
  -8   0   1    0.10    0.10
  -8   0   1   -0.10    0.10
  -8   0   1    0.10    0.20
  -8   0   1    0.00    0.10
  -8   0   1   -0.10    0.10
   7   0  -1    0.70    0.10
  -7   0   1    0.60    0.20
  -7   0   1    0.70    0.10
  -7   0   1    0.50    0.20
  -7   0   1    0.70    0.10
   6   0  -1   52.09    1.40
  -6   0   1   53.99    1.30
  -6   0   1   54.49    1.30
  -6   0   1   52.69    1.40
  -6   0   1   49.99    1.30
  -6   0   1   50.19    1.50
   5   0  -1    0.00    0.10
  -5   0   1    0.00    0.10
  -5   0   1    0.00    0.10
  -5   0   1    0.00    0.10
   4   0  -1   15.70    0.40
  -4   0   1   15.40    0.60
  -4   0   1   15.20    0.40
  -4   0   1   14.30    0.40
  -3   0   1  345.27    7.80
  -2   0   1    2.40    0.10
   0   0   1   36.90    0.80
   0   0   1   36.50    0.80
  -1   0  -1   27.90    0.60
  -1   0  -1   26.10    0.60
  -1   0  -1   26.80    0.70
  -1   0  -1   26.90    0.60
  -1   0  -1   26.80    0.60
  -2   0  -1   29.80    0.70
  -2   0  -1   28.30    0.70
  -2   0  -1   29.40    0.70
  -2   0  -1   29.00    0.70
   2   0   1   29.80    0.70
  -3   0  -1   15.50    0.50
  -3   0  -1   17.30    0.50
  -3   0  -1   17.90    0.50
  -3   0  -1   17.00    0.50
   3   0   1   18.10    0.50
   3   0   1   17.30    0.50
  -4   0  -1  123.59    2.90
  -4   0  -1  125.99    3.00
  -4   0  -1  121.59    2.90
  -4   0  -1  131.29    3.00
   4   0   1  126.69    3.00
   4   0   1  131.39    3.00
  -5   0  -1    4.40    0.20
  -5   0  -1    4.20    0.20
  -5   0  -1    3.80    0.20
  -5   0  -1    4.80    0.30
  -5   0  -1    4.70    0.20
   5   0   1    4.70    0.30
   5   0   1    4.60    0.20
  -6   0  -1    7.40    0.40
  -6   0  -1    6.90    0.40
  -6   0  -1    7.80    0.30
  -6   0  -1    7.50    0.30
   6   0   1    7.50    0.40
  -7   0  -1    0.80    0.10
  -7   0  -1    0.50    0.20
  -7   0  -1    0.60    0.10
  -7   0  -1    0.90    0.20
   7   0   1    0.80    0.20
  -8   0  -1    2.00    0.30
  -8   0  -1    2.00    0.30
  -8   0  -1    2.10    0.30
  -8   0  -1    2.20    0.30
   8   0   1    1.90    0.30
   8   0   1    2.00    0.20
   8  -1  -1    0.30    0.10
  -8   1   1    0.40    0.10
  -8   1   1    0.60    0.20
  -8   1   1    0.50    0.10
  -8   1   1    0.40    0.10
  -8   1   1    0.50    0.20
   7  -1  -1   13.70    0.50
  -7   1   1   14.70    0.70
  -7   1   1   13.60    0.50
  -7   1   1   13.40    0.50
  -7   1   1   12.70    0.60
   6  -1  -1    5.90    0.30
  -6   1   1    6.00    0.30
  -6   1   1    5.60    0.30
  -6   1   1    6.00    0.40
  -6   1   1    5.80    0.30
  -6   1   1    5.30    0.30
   5  -1  -1   17.30    0.60
  -5   1   1   17.30    0.50
  -5   1   1   17.50    0.60
  -5   1   1   17.00    0.50
  -5   1   1   18.20    0.70
  -5   1   1   18.20    0.50
   4  -1  -1   28.30    0.90
   4  -1  -1   28.80    0.80
  -4   1   1   27.30    0.80
  -4   1   1   28.70    0.70
  -4   1   1   27.20    0.80
  -4   1   1   26.00    0.70
   3  -1  -1    0.00    0.10
  -3   1   1    0.00    0.10
  -3   1   1    0.10    0.10
  -3   1   1    0.00    0.10
  -3   1   1    0.10    0.10
  -3   1   1    0.00    0.10
  -2   1   1    5.90    0.20
  -1   1   1 2060.49   46.50
  -1   1   1 1913.31   46.30
  -1   1   1 1998.50   46.00
   0  -1  -1  102.69    2.40
   0   1   1  105.19    2.30
   0   1   1  103.49    2.30
  -1  -1  -1   10.10    0.20
  -1  -1  -1   10.30    0.30
  -1  -1  -1    9.90    0.30
  -1  -1  -1    9.70    0.30
  -2  -1  -1  136.59    3.10
  -2  -1  -1  132.79    3.00
  -2  -1  -1  134.69    3.00
  -3  -1  -1    4.80    0.20
  -3  -1  -1    4.80    0.20
  -3  -1  -1    4.70    0.20
   3   1   1    5.00    0.20
  -4  -1  -1    9.90    0.30
  -4  -1  -1    9.70    0.30
  -4  -1  -1   10.00    0.40
  -4  -1  -1    9.20    0.30
   4   1   1   10.00    0.30
  -5  -1  -1    0.50    0.10
  -5  -1  -1    0.60    0.10
  -5  -1  -1    0.60    0.10
  -5  -1  -1    0.40    0.10
  -5  -1  -1    0.50    0.10
   5   1   1    0.80    0.10
  -6  -1  -1   33.40    0.90
  -6  -1  -1   32.40    0.90
  -6  -1  -1   33.10    0.90
  -6  -1  -1   32.10    0.90
  -6  -1  -1   31.80    1.00
  -6  -1  -1   32.90    0.90
   6   1   1   31.60    0.90
  -7  -1  -1    0.40    0.10
  -7  -1  -1    0.40    0.10
  -7  -1  -1    0.40    0.10
  -7  -1  -1    0.40    0.20
   7   1   1    0.40    0.10
  -8  -1  -1    0.10    0.10
  -8  -1  -1   -0.10    0.10
  -8  -1  -1   -0.30    0.20
  -8  -1  -1    0.20    0.10
   8   1   1    0.40    0.10
   8   1   1    0.20    0.10
  -8   2   1    9.50    0.50
   7  -2  -1    0.30    0.10
  -7   2   1    0.20    0.10
  -7   2   1    0.50    0.10
  -7   2   1    0.40    0.20
   6  -2  -1   14.60    0.60
  -6   2   1   14.90    0.50
  -6   2   1   14.20    0.60
  -6   2   1   13.90    0.60
  -6   2   1   14.60    0.50
   5  -2  -1    0.90    0.10
   5  -2  -1    0.80    0.10
  -5   2   1    0.70    0.10
  -5   2   1    0.80    0.20
  -5   2   1    0.70    0.10
  -5   2   1    0.80    0.10
   4  -2  -1    9.90    0.40
   4  -2  -1    9.50    0.40
  -4   2   1    9.70    0.40
  -4   2   1    9.60    0.30
  -4   2   1    9.40    0.30
  -4   2   1   10.20    0.40
   3  -2  -1   11.50    0.40
   3  -2  -1   11.50    0.40
  -3   2   1   11.20    0.40
  -3   2   1   11.20    0.30
  -3   2   1   10.80    0.40
  -3   2   1   10.50    0.30
   2  -2  -1    0.00    0.10
   2  -2  -1    0.00    0.10
  -2   2   1    0.10    0.10
  -2   2   1    0.10    0.10
  -2   2   1    0.10    0.10
  -2   2   1    0.10    0.10
   1  -2  -1    7.20    0.20
  -1   2   1    7.10    0.20
  -1   2   1    7.00    0.20
  -1   2   1    7.40    0.20
  -1   2   1    6.70    0.20
   0  -2  -1 1097.69   23.80
   0  -2  -1  997.70   23.80
   0  -2  -1 1043.40   23.80
   0   2   1 1084.09   23.80
  -1  -2  -1   62.69    1.40
  -1  -2  -1   63.19    1.40
  -1  -2  -1   61.09    1.40
  -2  -2  -1   17.90    0.50
  -2  -2  -1   18.10    0.40
  -2  -2  -1   18.30    0.40
  -3  -2  -1    9.50    0.30
  -3  -2  -1    9.80    0.40
   3   2   1    9.80    0.30
  -4  -2  -1  133.19    3.00
  -4  -2  -1  131.39    3.00
  -4  -2  -1  129.69    3.20
   4   2   1  136.49    3.10
  -5  -2  -1   15.60    0.40
  -5  -2  -1   15.30    0.60
  -5  -2  -1   15.70    0.50
  -5  -2  -1   16.40    0.50
  -5  -2  -1   14.50    0.40
   5   2   1   15.50    0.50
  -6  -2  -1    1.00    0.10
  -6  -2  -1    1.10    0.20
  -6  -2  -1    1.30    0.10
  -6  -2  -1    1.20    0.20
  -6  -2  -1    1.00    0.10
  -6  -2  -1    1.30    0.10
   6   2   1    1.30    0.20
  -7  -2  -1    2.20    0.20
  -7  -2  -1    2.30    0.30
  -7  -2  -1    2.10    0.20
  -7  -2  -1    2.10    0.20
   7   2   1    2.50    0.20
  -8  -2  -1   11.40    0.50
  -8  -2  -1   12.50    0.70
  -8  -2  -1   11.00    0.50
  -8  -2  -1   11.90    0.50
   8   2   1   11.30    0.50
   7  -3  -1   13.00    0.60
  -7   3   1   13.10    0.60
  -7   3   1   13.80    0.60
  -7   3   1   12.70    0.60
  -7   3   1   13.90    0.60
  -7   3   1   12.90    0.60
   6  -3  -1   44.10    1.30
  -6   3   1   43.80    1.20
  -6   3   1   43.00    1.30
  -6   3   1   43.40    1.30
  -6   3   1   42.70    1.30
   5  -3  -1    3.10    0.30
   5  -3  -1    2.80    0.20
  -5   3   1    3.10    0.30
  -5   3   1    3.20    0.30
  -5   3   1    2.60    0.20
  -5   3   1    3.20    0.20
   4  -3  -1    5.50    0.30
   4  -3  -1    5.80    0.30
  -4   3   1    5.60    0.30
  -4   3   1    5.60    0.30
  -4   3   1    5.70    0.30
  -4   3   1    5.60    0.30
  -4   3   1    5.00    0.30
   3  -3  -1   66.69    1.60
   3  -3  -1   64.89    1.60
  -3   3   1   64.69    1.60
  -3   3   1   64.59    1.60
  -3   3   1   61.39    1.60
   2  -3  -1    4.90    0.20
   2  -3  -1    4.90    0.20
   2  -3  -1    4.90    0.20
  -2   3   1    5.40    0.30
  -2   3   1    5.10    0.20
  -2   3   1    4.60    0.20
  -2   3   1    5.10    0.20
   1  -3  -1   36.50    0.90
   1  -3  -1   36.10    0.90
   1  -3  -1   35.80    0.90
  -1   3   1   35.20    0.90
  -1   3   1   36.40    1.00
  -1   3   1   35.00    0.80
  -1   3   1   36.20    0.90
  -1   3   1   36.30    0.90
  -1   3   1   35.90    0.90
   0  -3  -1   26.90    0.70
   0  -3  -1   28.80    0.70
   0  -3  -1   28.90    0.70
   0   3   1   28.70    0.70
   0   3   1   28.10    0.70
   0   3   1   28.00    0.70
  -1  -3  -1   53.19    1.30
  -1  -3  -1   54.49    1.30
  -1  -3  -1   53.89    1.30
  -1  -3  -1   55.19    1.30
   1   3   1   53.09    1.30
   1   3   1   54.79    1.40
   1   3   1   54.99    1.30
  -2  -3  -1  127.49    2.90
  -2  -3  -1  124.39    3.00
  -3  -3  -1    3.00    0.10
  -3  -3  -1    3.00    0.20
   3   3   1    3.10    0.10
  -4  -3  -1    0.00    0.10
  -4  -3  -1    0.00    0.10
  -4  -3  -1    0.00    0.10
   4   3   1    0.00    0.10
  -5  -3  -1   27.00    0.70
  -5  -3  -1   26.60    0.90
  -5  -3  -1   26.70    0.70
   5   3   1   27.20    0.70
  -6  -3  -1    9.50    0.30
  -6  -3  -1   10.10    0.30
  -6  -3  -1   11.20    0.60
  -6  -3  -1   10.10    0.40
  -6  -3  -1   10.80    0.30
  -6  -3  -1   10.50    0.40
   6   3   1    9.90    0.40
  -7  -3  -1    0.40    0.20
  -7  -3  -1    0.80    0.10
  -7  -3  -1    0.60    0.10
  -7  -3  -1    0.80    0.10
  -8  -3  -1    3.30    0.20
  -8  -3  -1    3.40    0.30
  -8  -3  -1    3.70    0.30
  -8  -3  -1    4.10    0.50
   8   3   1    3.00    0.20
   7  -4  -1    3.70    0.40
  -7   4   1    3.80    0.40
  -7   4   1    3.80    0.30
  -7   4   1    3.60    0.40
   6  -4  -1    1.00    0.20
  -6   4   1    0.90    0.20
  -6   4   1    0.90    0.20
  -6   4   1    0.40    0.20
  -6   4   1    0.50    0.20
   5  -4  -1   89.49    2.30
   5  -4  -1   90.09    2.30
  -5   4   1   87.69    2.30
  -5   4   1   89.29    2.30
  -5   4   1   88.89    2.30
  -5   4   1   89.69    2.30
   4  -4  -1   10.80    0.50
   4  -4  -1   11.60    0.50
   4  -4  -1   11.60    0.30
  -4   4   1   10.30    0.30
  -4   4   1   11.20    0.50
  -4   4   1   11.50    0.40
  -4   4   1   12.00    0.50
   3  -4  -1   12.20    0.50
   3  -4  -1   12.50    0.50
   3  -4  -1   12.70    0.40
  -3   4   1   13.60    0.50
  -3   4   1   12.40    0.50
  -3   4   1   12.40    0.40
  -3   4   1   13.00    0.40
  -3   4   1   12.60    0.50
   2  -4  -1    1.20    0.10
   2  -4  -1    1.40    0.10
   2  -4  -1    1.40    0.20
  -2   4   1    1.20    0.20
  -2   4   1    1.60    0.20
  -2   4   1    1.00    0.20
  -2   4   1    1.20    0.10
  -2   4   1    1.40    0.10
   1  -4  -1   21.30    0.50
   1  -4  -1   21.50    0.60
  -1   4   1   20.30    0.50
  -1   4   1   20.10    0.60
  -1   4   1   20.20    0.60
  -1   4   1   20.80    0.70
   0  -4  -1  108.99    2.50
   0  -4  -1  109.49    2.50
   0  -4  -1  104.59    2.50
   0  -4  -1  106.99    2.50
   0  -4  -1  106.99    2.40
   0   4   1  105.19    2.40
   0   4   1  105.99    2.50
   0   4   1  105.79    2.50
  -1  -4  -1   10.70    0.30
  -1  -4  -1   10.70    0.30
  -1  -4  -1   11.50    0.50
  -1  -4  -1   10.90    0.30
  -1  -4  -1   10.30    0.30
   1   4   1   10.70    0.30
   1   4   1   10.60    0.40
   1   4   1   10.80    0.50
   1   4   1   10.50    0.30
  -2  -4  -1   94.79    2.20
  -2  -4  -1   92.59    2.20
  -2  -4  -1   99.69    2.20
   2   4   1   97.69    2.20
   2   4   1   95.89    2.60
   2   4   1   98.49    2.30
  -3  -4  -1   46.50    1.10
  -3  -4  -1   45.80    1.30
  -3  -4  -1   46.30    1.10
   3   4   1   48.30    1.10
  -4  -4  -1    6.80    0.40
  -4  -4  -1    7.10    0.20
  -4  -4  -1    6.70    0.20
   4   4   1    7.60    0.30
  -5  -4  -1    8.00    0.50
  -5  -4  -1    8.70    0.30
  -5  -4  -1    8.40    0.30
   5   4   1    9.00    0.30
  -6  -4  -1    6.60    0.50
  -6  -4  -1    7.00    0.20
  -6  -4  -1    6.70    0.20
  -6  -4  -1    7.70    0.30
  -6  -4  -1    7.10    0.30
   6   4   1    6.90    0.30
  -7  -4  -1    0.60    0.10
  -7  -4  -1    0.50    0.10
  -7  -4  -1    0.10    0.20
  -7  -4  -1    0.50    0.10
  -7  -4  -1    0.70    0.10
  -8  -4  -1    3.20    0.40
  -8  -4  -1    2.50    0.20
  -8  -4  -1    2.50    0.20
  -8  -4  -1    2.60    0.20
   7  -5  -1   37.60    1.30
  -7   5   1   39.50    1.30
  -7   5   1   35.70    1.30
  -7   5   1   38.30    1.20
   6  -5  -1   -0.20    0.10
   6  -5  -1    0.20    0.10
  -6   5   1   -0.20    0.10
  -6   5   1    0.00    0.10
  -6   5   1   -0.20    0.10
   5  -5  -1   23.70    0.80
   5  -5  -1   23.30    0.70
   5  -5  -1   23.30    0.80
  -5   5   1   23.50    0.80
  -5   5   1   23.70    0.80
  -5   5   1   23.90    0.80
  -5   5   1   23.20    0.90
   4  -5  -1    9.70    0.50
   4  -5  -1   10.80    0.50
   4  -5  -1   11.20    0.40
  -4   5   1   10.90    0.50
  -4   5   1   11.10    0.50
  -4   5   1   11.40    0.50
  -4   5   1   10.40    0.50
  -4   5   1   10.70    0.40
   3  -5  -1   21.80    0.70
   3  -5  -1   23.10    0.70
   3  -5  -1   22.80    0.60
  -3   5   1   24.10    0.80
  -3   5   1   23.00    0.80
  -3   5   1   22.40    0.70
  -3   5   1   22.50    0.70
   2  -5  -1    4.30    0.30
   2  -5  -1    4.20    0.20
   2  -5  -1    4.70    0.30
  -2   5   1    4.10    0.30
  -2   5   1    4.10    0.20
  -2   5   1    4.60    0.20
  -2   5   1    4.00    0.10
  -2   5   1    4.10    0.20
  -2   5   1    4.40    0.30
   1  -5  -1   65.79    1.50
   1  -5  -1   63.29    1.60
   1  -5  -1   66.49    1.60
   1  -5  -1   65.59    1.60
  -1   5   1   66.09    1.60
  -1   5   1   67.89    1.80
  -1   5   1   64.89    1.50
  -1   5   1   64.89    1.70
  -1   5   1   61.49    1.60
   0  -5  -1  417.76    9.20
   0  -5  -1  400.36    9.20
   0  -5  -1  400.46    9.20
   0  -5  -1  413.56    9.20
   0   5   1  412.86    9.20
   0   5   1  408.56    9.30
  -1  -5  -1   31.70    0.90
  -1  -5  -1   32.50    0.80
  -1  -5  -1   32.50    0.80
  -1  -5  -1   32.60    1.00
  -1  -5  -1   34.20    0.90
   1   5   1   32.70    0.90
   1   5   1   33.70    0.80
   1   5   1   31.00    1.00
   1   5   1   34.30    0.90
  -2  -5  -1    3.20    0.10
  -2  -5  -1    3.10    0.10
  -2  -5  -1    3.20    0.20
  -2  -5  -1    2.80    0.10
  -2  -5  -1    2.90    0.10
   2   5   1    3.90    0.40
   2   5   1    3.40    0.20
   2   5   1    3.30    0.20
   2   5   1    3.50    0.10
  -3  -5  -1    0.00    0.10
  -3  -5  -1    0.10    0.10
  -3  -5  -1    0.00    0.10
  -3  -5  -1    0.10    0.10
   3   5   1    0.00    0.20
   3   5   1    0.20    0.10
  -4  -5  -1   13.10    0.40
  -4  -5  -1   12.70    0.50
  -4  -5  -1   12.60    0.40
   4   5   1   13.40    0.40
   4   5   1   13.30    0.90
  -5  -5  -1    6.90    0.40
  -5  -5  -1    7.10    0.30
  -5  -5  -1    7.50    0.30
   5   5   1    6.90    0.30
   5   5   1    6.50    0.70
  -6  -5  -1    5.10    0.30
  -6  -5  -1    4.90    0.20
  -6  -5  -1    4.10    0.40
  -6  -5  -1    4.90    0.20
   6   5   1    4.70    0.20
   6   5   1    5.30    0.80
  -7  -5  -1    1.40    0.10
  -7  -5  -1    1.60    0.20
  -7  -5  -1    1.40    0.20
  -7  -5  -1    1.30    0.10
  -7  -5  -1    1.20    0.30
  -8  -5  -1    2.30    0.20
  -8  -5  -1    2.10    0.20
  -8  -5  -1    2.10    0.20
  -8  -5  -1    2.00    0.20
   7  -6  -1    7.70    0.50
  -7   6   1    6.00    0.50
   6  -6  -1   11.60    0.60
   6  -6  -1   12.30    0.60
   6  -6  -1   11.80    0.50
  -6   6   1   12.70    0.60
  -6   6   1   12.60    0.60
  -6   6   1   13.30    0.70
   5  -6  -1    7.70    0.30
   5  -6  -1    7.70    0.50
   5  -6  -1    7.90    0.50
  -5   6   1    7.60    0.30
  -5   6   1    7.60    0.40
  -5   6   1    8.10    0.40
  -5   6   1    7.70    0.50
   4  -6  -1   13.70    0.60
   4  -6  -1   12.20    0.40
   4  -6  -1   12.30    0.60
  -4   6   1   12.70    0.40
  -4   6   1   12.50    0.60
  -4   6   1   13.90    0.50
  -4   6   1   12.20    0.50
  -4   6   1   12.90    0.50
  -4   6   1   13.30    0.60
   3  -6  -1    1.60    0.20
   3  -6  -1    1.80    0.20
   3  -6  -1    1.40    0.20
  -3   6   1    1.30    0.20
  -3   6   1    1.90    0.20
  -3   6   1    1.60    0.20
  -3   6   1    1.80    0.20
  -3   6   1    1.50    0.20
  -3   6   1    1.50    0.20
   2  -6  -1  281.57    6.40
   2  -6  -1  280.57    6.50
  -2   6   1  284.07    6.50
  -2   6   1  283.67    6.60
  -2   6   1  282.87    6.50
  -2   6   1  281.47    6.30
  -2   6   1  282.17    6.50
  -2   6   1  286.67    6.70
  -2   6   1  285.97    6.50
   1  -6  -1    0.40    0.10
   1  -6  -1    0.50    0.10
   1  -6  -1    0.60    0.10
   1  -6  -1    0.80    0.10
  -1   6   1    0.60    0.10
  -1   6   1    0.60    0.20
  -1   6   1    0.80    0.10
   0  -6  -1    3.60    0.20
   0  -6  -1    3.50    0.20
   0  -6  -1    3.00    0.20
   0  -6  -1    3.10    0.20
   0  -6  -1    3.80    0.20
   0  -6  -1    3.50    0.20
   0  -6  -1    3.30    0.10
   0   6   1    3.90    0.20
   0   6   1    3.70    0.20
   0   6   1    4.00    0.20
  -1  -6  -1  646.84   14.90
  -1  -6  -1  665.53   15.10
  -1  -6  -1  644.24   15.10
  -1  -6  -1  676.23   15.00
  -1  -6  -1  650.33   14.90
  -1  -6  -1  644.94   15.00
   1   6   1  678.43   15.00
   1   6   1  676.73   16.60
   1   6   1  656.83   15.00
   1   6   1  664.03   15.10
  -2  -6  -1   12.80    0.40
  -2  -6  -1   12.50    0.40
  -2  -6  -1   12.30    0.40
  -2  -6  -1   12.40    0.40
   2   6   1   12.90    0.40
   2   6   1   13.60    0.40
   2   6   1   13.40    0.50
  -3  -6  -1    2.70    0.10
  -3  -6  -1    2.60    0.10
  -3  -6  -1    2.90    0.10
  -3  -6  -1    3.00    0.20
  -3  -6  -1    2.60    0.10
   3   6   1    2.70    0.20
   3   6   1    2.70    0.40
   3   6   1    2.80    0.10
   3   6   1    2.90    0.10
  -4  -6  -1   82.29    2.00
  -4  -6  -1   85.59    2.00
  -4  -6  -1   85.19    2.00
  -4  -6  -1   85.39    1.90
   4   6   1   86.89    2.10
   4   6   1   86.19    2.70
  -5  -6  -1  300.17    6.70
  -5  -6  -1  308.07    6.90
  -5  -6  -1  296.47    6.80
   5   6   1  308.37    6.90
   5   6   1  295.07    7.80
  -6  -6  -1    0.10    0.10
  -6  -6  -1    0.10    0.10
  -6  -6  -1    0.10    0.10
  -6  -6  -1    0.10    0.10
   6   6   1    0.10    0.30
  -7  -6  -1    0.30    0.10
  -7  -6  -1    0.40    0.20
  -7  -6  -1    0.30    0.10
  -7  -6  -1    0.40    0.10
   6  -7  -1   37.10    1.30
   6  -7  -1   36.10    1.30
   6  -7  -1   37.40    1.10
  -6   7   1   39.20    1.40
   5  -7  -1    0.10    0.20
   5  -7  -1    0.20    0.10
   5  -7  -1    0.20    0.10
  -5   7   1    0.20    0.10
  -5   7   1    0.10    0.20
  -5   7   1   -0.10    0.10
   4  -7  -1   29.50    0.80
   4  -7  -1   31.20    1.00
   4  -7  -1   28.70    1.00
  -4   7   1   29.20    0.90
  -4   7   1   30.10    1.00
  -4   7   1   29.40    1.00
  -4   7   1   30.20    1.10
   3  -7  -1    3.30    0.30
   3  -7  -1    2.90    0.20
   3  -7  -1    2.70    0.30
  -3   7   1    2.20    0.30
  -3   7   1    2.50    0.30
  -3   7   1    2.50    0.20
  -3   7   1    3.10    0.20
   2  -7  -1    1.70    0.20
   2  -7  -1    1.70    0.20
   2  -7  -1    1.20    0.20
  -2   7   1    1.80    0.10
  -2   7   1    1.40    0.20
  -2   7   1    1.70    0.30
  -2   7   1    1.10    0.20
   1  -7  -1   37.40    1.10
   1  -7  -1   37.40    0.90
   1  -7  -1   37.60    1.00
   1  -7  -1   37.90    1.10
  -1   7   1   38.20    1.30
  -1   7   1   37.80    1.00
  -1   7   1   37.50    1.10
  -1   7   1   38.90    1.10
   0  -7  -1  175.68    4.20
   0  -7  -1  182.28    4.20
   0  -7  -1  179.28    4.10
   0  -7  -1  159.38    4.10
   0  -7  -1  180.68    4.10
   0  -7  -1  181.78    4.20
   0  -7  -1  178.98    4.00
   0   7   1  175.68    4.20
   0   7   1  177.98    4.10
   0   7   1  179.48    4.20
  -1  -7  -1    2.00    0.20
  -1  -7  -1    1.90    0.20
  -1  -7  -1    1.90    0.20
  -1  -7  -1    2.40    0.30
  -1  -7  -1    2.20    0.20
   1   7   1    2.00    0.20
   1   7   1    1.70    0.20
   1   7   1    1.60    0.20
   1   7   1    1.70    0.10
  -2  -7  -1    5.50    0.20
  -2  -7  -1    5.10    0.30
  -2  -7  -1    5.70    0.30
  -2  -7  -1    4.70    0.20
  -2  -7  -1    5.10    0.20
   2   7   1    5.20    0.20
   2   7   1    4.80    0.40
   2   7   1    5.20    0.50
   2   7   1    5.20    0.30
  -3  -7  -1    9.40    0.40
  -3  -7  -1   10.70    0.40
  -3  -7  -1    9.80    0.30
  -3  -7  -1   10.30    0.40
   3   7   1   10.70    0.40
   3   7   1   10.50    0.50
   3   7   1   10.20    0.30
   3   7   1    9.60    0.70
  -4  -7  -1    1.50    0.10
  -4  -7  -1    1.70    0.10
  -4  -7  -1    1.80    0.10
  -4  -7  -1    1.70    0.10
  -4  -7  -1    2.20    0.20
   4   7   1    2.20    0.40
   4   7   1    1.80    0.10
   4   7   1    1.80    0.20
  -5  -7  -1   13.90    0.40
  -5  -7  -1   13.80    0.40
  -5  -7  -1   14.20    0.40
  -5  -7  -1   14.70    0.50
   5   7   1   14.70    0.60
   5   7   1   14.20    1.00
   5   7   1   14.50    0.40
  -6  -7  -1    9.90    0.30
  -6  -7  -1   10.40    0.40
  -6  -7  -1    9.60    0.30
  -6  -7  -1   10.50    0.40
   6   7   1    9.90    0.90
  -7  -7  -1    2.10    0.20
  -7  -7  -1    2.30    0.20
  -7  -7  -1    2.40    0.20
   6  -8  -1    0.00    0.10
   6  -8  -1    0.00    0.20
   6  -8  -1    0.20    0.20
  -6   8   1    0.20    0.20
   5  -8  -1    0.30    0.20
   5  -8  -1    0.10    0.20
   5  -8  -1    0.10    0.10
  -5   8   1    0.40    0.10
  -5   8   1    0.10    0.20
   4  -8  -1    4.30    0.40
   4  -8  -1    4.10    0.40
   4  -8  -1    4.70    0.30
  -4   8   1    4.20    0.40
  -4   8   1    4.30    0.30
  -4   8   1    4.50    0.40
   3  -8  -1   28.00    1.00
   3  -8  -1   29.70    0.80
   3  -8  -1   27.00    1.00
  -3   8   1   28.00    1.00
  -3   8   1   27.40    0.90
  -3   8   1   29.20    1.10
   2  -8  -1    8.70    0.50
   2  -8  -1    9.20    0.60
   2  -8  -1    8.60    0.40
   2  -8  -1    8.60    0.30
  -2   8   1    8.80    0.30
  -2   8   1    8.60    0.50
  -2   8   1    8.80    0.60
   1  -8  -1    1.90    0.10
   1  -8  -1    2.30    0.20
   1  -8  -1    1.70    0.20
   1  -8  -1    1.90    0.20
  -1   8   1    1.90    0.20
  -1   8   1    1.70    0.30
  -1   8   1    2.30    0.30
  -1   8   1    1.90    0.20
   0  -8  -1   78.79    2.10
   0  -8  -1   83.69    1.90
   0  -8  -1   82.19    2.10
   0  -8  -1   84.09    2.10
   0  -8  -1   83.49    2.10
   0  -8  -1   84.09    2.10
   0   8   1   84.19    2.10
   0   8   1   79.59    2.00
   0   8   1   80.59    2.10
  -1  -8  -1    0.80    0.10
  -1  -8  -1    0.80    0.10
  -1  -8  -1    0.70    0.10
  -1  -8  -1    0.50    0.20
  -1  -8  -1    0.70    0.10
  -1  -8  -1    0.70    0.10
   1   8   1    0.80    0.10
   1   8   1    0.70    0.10
   1   8   1    0.60    0.20
   1   8   1    0.40    0.10
  -2  -8  -1    1.20    0.10
  -2  -8  -1    1.20    0.20
  -2  -8  -1    1.10    0.30
  -2  -8  -1    0.90    0.10
  -2  -8  -1    1.00    0.10
   2   8   1    0.90    0.10
   2   8   1    1.20    0.20
   2   8   1    1.00    0.10
   2   8   1    1.00    0.20
  -3  -8  -1    0.20    0.10
  -3  -8  -1    0.20    0.10
  -3  -8  -1    0.20    0.10
  -3  -8  -1    0.40    0.10
   3   8   1    0.40    0.20
   3   8   1    0.10    0.10
   3   8   1    0.10    0.20
   3   8   1    0.10    0.10
  -4  -8  -1  166.28    3.80
  -4  -8  -1  158.98    3.80
  -4  -8  -1  158.28    3.80
  -4  -8  -1  167.18    3.90
   4   8   1  161.38    4.00
   4   8   1  165.88    3.80
   4   8   1  166.58    4.60
  -5  -8  -1   10.00    0.40
  -5  -8  -1    9.80    0.30
  -5  -8  -1    9.60    0.40
  -5  -8  -1   10.00    0.40
   5   8   1    9.90    0.30
   5   8   1   10.10    0.50
   5   8   1   10.00    0.90
  -6  -8  -1    0.10    0.10
  -6  -8  -1   -0.10    0.10
  -6  -8  -1    0.10    0.10
   6   8   1    0.10    0.20
   6   8   1   -0.10    0.30
   6   8   1    0.00    0.10
  -7  -8  -1   17.80    0.50
  -7  -8  -1   17.10    0.60
  -7  -8  -1   16.70    0.60
   6  -9  -1    0.50    0.30
   6  -9  -1    0.40    0.20
   6  -9  -1    0.70    0.20
   6  -9  -1    0.40    0.20
  -6   9   1    0.70    0.30
   5  -9  -1    2.00    0.30
   5  -9  -1    1.50    0.30
   5  -9  -1    1.60    0.30
   5  -9  -1    1.70    0.20
  -5   9   1    1.90    0.30
  -5   9   1    1.80    0.20
   4  -9  -1    2.50    0.30
   4  -9  -1    2.30    0.20
   4  -9  -1    2.40    0.30
  -4   9   1    2.10    0.30
  -4   9   1    2.40    0.40
  -4   9   1    3.20    0.40
   3  -9  -1   26.40    0.80
   3  -9  -1   26.40    1.00
   3  -9  -1   25.40    0.90
  -3   9   1   25.10    0.90
  -3   9   1   26.10    1.00
  -3   9   1   25.80    1.10
   2  -9  -1   10.30    0.40
   2  -9  -1   11.40    0.50
   2  -9  -1   11.50    0.50
   2  -9  -1   10.30    0.50
  -2   9   1   11.30    0.70
  -2   9   1   10.20    0.50
  -2   9   1   10.90    0.40
  -2   9   1   11.00    0.50
   1  -9  -1    0.00    0.10
   1  -9  -1    0.20    0.10
   1  -9  -1    0.00    0.10
   1  -9  -1   -0.10    0.10
   1  -9  -1   -0.10    0.10
  -1   9   1    0.00    0.10
  -1   9   1    0.00    0.20
  -1   9   1    0.00    0.10
  -1   9   1    0.00    0.10
   0  -9  -1   10.20    0.50
   0  -9  -1    9.90    0.40
   0  -9  -1    9.30    0.40
   0  -9  -1    9.90    0.40
   0   9   1    9.80    0.50
   0   9   1    9.40    0.40
   0   9   1    9.70    0.50
  -1  -9  -1    7.60    0.30
  -1  -9  -1    8.20    0.60
  -1  -9  -1    7.40    0.40
  -1  -9  -1    7.80    0.30
  -1  -9  -1    7.60    0.30
  -1  -9  -1    7.50    0.30
   1   9   1    7.20    0.40
   1   9   1    7.20    0.50
   1   9   1    7.40    0.30
  -2  -9  -1    1.20    0.20
  -2  -9  -1    0.90    0.30
  -2  -9  -1    0.70    0.10
  -2  -9  -1    1.20    0.10
  -2  -9  -1    1.40    0.20
  -2  -9  -1    1.10    0.10
   2   9   1    1.20    0.10
   2   9   1    0.90    0.20
   2   9   1    1.10    0.20
   2   9   1    0.90    0.20
  -3  -9  -1   29.30    0.90
  -3  -9  -1   28.10    0.90
  -3  -9  -1   27.80    0.90
   3   9   1   30.80    0.90
   3   9   1   30.50    1.10
   3   9   1   31.40    1.40
   3   9   1   28.90    0.90
  -4  -9  -1   40.50    1.10
  -4  -9  -1   38.70    1.10
  -4  -9  -1   39.70    1.10
   4   9   1   43.30    1.80
   4   9   1   38.80    1.30
   4   9   1   39.80    1.10
  -5  -9  -1    3.10    0.20
  -5  -9  -1    3.30    0.20
  -5  -9  -1    2.90    0.20
   5   9   1    3.30    0.20
   5   9   1    2.80    0.60
   5   9   1    3.50    0.40
  -6  -9  -1    3.80    0.20
  -6  -9  -1    4.00    0.30
  -6  -9  -1    4.10    0.30
   6   9   1    4.70    0.80
   6   9   1    3.90    0.20
   6   9   1    4.50    0.40
  -7  -9  -1    9.80    0.40
  -7  -9  -1    9.40    0.40
  -7  -9  -1    9.80    0.40
   5 -10  -1    0.80    0.20
   5 -10  -1    0.50    0.30
   5 -10  -1    0.90    0.30
   5 -10  -1    0.70    0.20
  -5  10   1    1.00    0.20
  -5  10   1    1.20    0.30
   4 -10  -1    0.30    0.10
   4 -10  -1    0.50    0.20
   4 -10  -1    0.30    0.20
   4 -10  -1    0.00    0.20
  -4  10   1    0.40    0.20
  -4  10   1    0.50    0.20
  -4  10   1    0.20    0.20
   3 -10  -1    0.20    0.20
   3 -10  -1    0.10    0.20
   3 -10  -1   -0.10    0.10
   3 -10  -1   -0.20    0.10
  -3  10   1   -0.10    0.20
  -3  10   1   -0.10    0.20
  -3  10   1   -0.20    0.10
   2 -10  -1    1.40    0.20
   2 -10  -1    1.20    0.10
   2 -10  -1    1.40    0.20
   2 -10  -1    1.40    0.20
  -2  10   1    1.30    0.30
  -2  10   1    0.90    0.20
  -2  10   1    1.30    0.20
   1 -10  -1   23.00    0.80
   1 -10  -1   21.00    0.80
   1 -10  -1   22.90    0.80
   1 -10  -1   22.90    0.60
   1 -10  -1   23.30    0.80
  -1  10   1   22.30    0.70
  -1  10   1   23.00    1.10
  -1  10   1   22.30    0.80
   0 -10  -1    2.00    0.20
   0 -10  -1    2.00    0.20
   0 -10  -1    2.20    0.40
   0 -10  -1    1.50    0.20
   0 -10  -1    2.30    0.20
   0  10   1    1.90    0.40
   0  10   1    2.40    0.20
   0  10   1    1.80    0.20
  -1 -10  -1    0.40    0.10
  -1 -10  -1    0.20    0.20
  -1 -10  -1    0.20    0.10
  -1 -10  -1    0.20    0.10
  -1 -10  -1    0.30    0.10
  -1 -10  -1    0.00    0.10
   1  10   1    0.10    0.10
   1  10   1    0.20    0.10
   1  10   1    0.40    0.20
   1  10   1    0.30    0.10
  -2 -10  -1    1.60    0.20
  -2 -10  -1    1.60    0.10
  -2 -10  -1    1.80    0.20
  -2 -10  -1    2.30    0.20
  -2 -10  -1    2.10    0.40
   2  10   1    1.90    0.20
   2  10   1    1.80    0.30
   2  10   1    1.90    0.20
   2  10   1    1.20    0.20
  -3 -10  -1    5.30    0.30
  -3 -10  -1    4.90    0.30
  -3 -10  -1    5.20    0.30
   3  10   1    5.30    0.30
   3  10   1    4.90    0.50
   3  10   1    4.80    0.30
  -4 -10  -1    0.70    0.10
  -4 -10  -1    0.90    0.20
  -4 -10  -1    0.60    0.10
   4  10   1    0.50    0.40
   4  10   1    0.70    0.10
   4  10   1    0.50    0.20
  -5 -10  -1    0.00    0.10
  -5 -10  -1    0.00    0.10
  -5 -10  -1    0.00    0.10
   5  10   1    0.00    0.10
   5  10   1   -0.20    0.30
   5  10   1    0.00    0.20
  -6 -10  -1    2.10    0.20
  -6 -10  -1    1.90    0.20
  -6 -10  -1    1.70    0.20
   6  10   1    1.80    0.20
   6  10   1    1.40    0.50
   6  10   1    1.80    0.30
   5 -11  -1    4.40    0.30
   5 -11  -1    4.50    0.50
   5 -11  -1    4.30    0.50
   5 -11  -1    4.30    0.50
  -5  11   1    4.60    0.40
   4 -11  -1   14.10    0.70
   4 -11  -1   14.30    0.60
   4 -11  -1   14.60    0.80
   4 -11  -1   13.90    0.70
  -4  11   1   13.40    0.60
  -4  11   1   13.60    0.80
   3 -11  -1    3.50    0.40
   3 -11  -1    4.00    0.40
   3 -11  -1    4.10    0.30
   3 -11  -1    3.40    0.40
  -3  11   1    3.90    0.50
  -3  11   1    4.40    0.40
   2 -11  -1    0.10    0.20
   2 -11  -1    0.00    0.10
   2 -11  -1    0.10    0.10
   2 -11  -1    0.00    0.10
  -2  11   1    0.20    0.30
  -2  11   1    0.30    0.20
  -2  11   1    0.20    0.10
   1 -11  -1    1.00    0.20
   1 -11  -1    0.90    0.20
   1 -11  -1    0.60    0.20
   1 -11  -1    0.60    0.20
  -1  11   1    0.20    0.30
  -1  11   1    0.40    0.10
  -1  11   1    0.50    0.20
   0 -11  -1    9.50    0.50
   0 -11  -1   10.00    0.70
   0 -11  -1   10.10    0.50
   0 -11  -1   10.00    0.50
   0 -11  -1   10.10    0.50
   0  11   1    9.80    0.50
   0  11   1    9.60    0.70
   0  11   1    9.90    0.40
  -1 -11  -1    0.10    0.10
  -1 -11  -1    0.00    0.20
  -1 -11  -1    0.10    0.10
  -1 -11  -1    0.00    0.10
  -1 -11  -1    0.10    0.10
   1  11   1   -0.10    0.10
   1  11   1    0.00    0.10
   1  11   1    0.10    0.10
   1  11   1   -0.30    0.20
  -2 -11  -1   19.10    1.40
  -2 -11  -1   21.30    0.70
  -2 -11  -1   22.70    0.80
  -2 -11  -1   21.70    0.60
   2  11   1   21.30    0.60
   2  11   1   21.90    0.80
   2  11   1   20.10    1.00
   2  11   1   21.30    0.80
  -3 -11  -1    5.30    0.40
  -3 -11  -1    5.30    0.30
  -3 -11  -1    5.00    0.30
   3  11   1    4.90    0.30
   3  11   1    4.30    0.50
   3  11   1    4.50    0.40
  -4 -11  -1    1.60    0.20
  -4 -11  -1    1.70    0.20
  -4 -11  -1    1.60    0.20
   4  11   1    1.10    0.20
   4  11   1    1.40    0.30
  -5 -11  -1    2.90    0.20
  -5 -11  -1    3.10    0.30
  -5 -11  -1    3.00    0.30
   5  11   1    3.10    0.30
   5  11   1    3.30    0.70
   5  11   1    3.60    0.50
  -6 -11  -1    4.90    0.40
  -6 -11  -1    5.50    0.30
  -6 -11  -1    5.20    0.30
   6  11   1    5.60    0.30
   6  11   1    5.60    0.60
   4 -12  -1    1.20    0.30
   4 -12  -1    1.70    0.30
   4 -12  -1    1.40    0.20
   4 -12  -1    1.10    0.30
   4 -12  -1    1.10    0.30
  -4  12   1    1.20    0.30
  -4  12   1    1.40    0.40
   3 -12  -1    3.90    0.40
   3 -12  -1    4.10    0.30
   3 -12  -1    4.00    0.40
   3 -12  -1    3.20    0.40
  -3  12   1    3.50    0.50
  -3  12   1    3.70    0.40
   2 -12  -1    0.90    0.20
   2 -12  -1    0.80    0.20
   2 -12  -1    1.30    0.20
   2 -12  -1    1.40    0.30
   2 -12  -1    1.30    0.20
  -2  12   1    1.20    0.20
  -2  12   1    0.70    0.30
  -2  12   1    1.00    0.20
   1 -12  -1   14.00    0.70
   1 -12  -1   13.90    0.70
   1 -12  -1   14.20    0.60
   1 -12  -1   13.80    0.40
  -1  12   1   13.80    0.50
  -1  12   1   15.00    1.00
  -1  12   1   14.40    0.70
   0 -12  -1   55.59    1.60
   0 -12  -1   57.89    1.60
   0 -12  -1   54.69    1.60
   0 -12  -1   57.79    1.60
   0  12   1   58.59    1.70
   0  12   1   54.89    2.00
   0  12   1   55.99    1.50
  -1 -12  -1    1.60    0.20
  -1 -12  -1    2.20    0.20
  -1 -12  -1    1.80    0.20
   1  12   1    1.90    0.20
   1  12   1    1.50    0.30
   1  12   1    2.00    0.30
   1  12   1    1.90    0.40
  -2 -12  -1   43.60    1.30
  -2 -12  -1   43.60    1.10
  -2 -12  -1   41.90    1.30
   2  12   1   42.90    1.30
   2  12   1   43.00    1.70
   2  12   1   44.40    1.40
   2  12   1   42.80    1.20
  -3 -12  -1    0.20    0.10
  -3 -12  -1    0.40    0.20
   3  12   1    0.30    0.10
   3  12   1    0.20    0.10
   3  12   1    0.20    0.20
   3  12   1    0.20    0.20
  -4 -12  -1   17.00    0.70
  -4 -12  -1   17.40    0.70
  -4 -12  -1   15.70    0.60
   4  12   1   16.50    0.70
   4  12   1   15.30    0.90
  -5 -12  -1    0.00    0.10
  -5 -12  -1   -0.20    0.10
  -5 -12  -1    0.10    0.10
   5  12   1    0.00    0.10
   5  12   1    0.20    0.20
   3 -13  -1    0.20    0.20
   3 -13  -1    0.10    0.20
   3 -13  -1    0.40    0.20
   3 -13  -1    0.00    0.20
   3 -13  -1    0.60    0.20
  -3  13   1    0.20    0.20
  -3  13   1    0.80    0.40
   2 -13  -1   66.19    2.00
   2 -13  -1   64.69    2.00
   2 -13  -1   69.79    1.90
   2 -13  -1   66.49    1.60
   2 -13  -1   61.89    1.90
  -2  13   1   67.49    1.70
  -2  13   1   66.69    2.30
  -2  13   1   61.39    1.90
   1 -13  -1    0.00    0.10
   1 -13  -1    0.10    0.20
   1 -13  -1    0.10    0.10
  -1  13   1   -0.10    0.20
  -1  13   1    0.10    0.10
  -1  13   1    0.30    0.30
   0 -13  -1    5.30    0.40
   0 -13  -1    4.10    0.40
   0 -13  -1    4.50    0.40
   0  13   1    4.30    0.60
   0  13   1    4.40    0.30
   0  13   1    5.00    0.40
  -1 -13  -1    0.40    0.20
  -1 -13  -1    0.40    0.10
   1  13   1    0.30    0.20
   1  13   1    0.50    0.20
   1  13   1    0.50    0.30
  -2 -13  -1    7.10    0.40
  -2 -13  -1    6.70    0.30
   2  13   1    7.30    0.40
   2  13   1    6.40    0.70
   2  13   1    6.10    0.40
   2  13   1    6.70    0.50
  -3 -13  -1    2.20    0.30
  -3 -13  -1    3.20    0.30
   3  13   1    2.80    0.30
   3  13   1    2.60    0.20
   3  13   1    3.40    0.50
   3  13   1    2.60    0.40
  -4 -13  -1    9.90    0.60
  -4 -13  -1    9.70    0.50
   4  13   1    9.20    0.80
   4  13   1    8.60    0.50
  -5 -13  -1   58.19    1.70
  -5 -13  -1   56.89    1.60
   5  13   1   55.39    2.00
   5  13   1   56.59    1.70
   2 -14  -1    0.00    0.20
   2 -14  -1    0.10    0.20
   2 -14  -1   -0.10    0.20
  -2  14   1   -0.10    0.20
  -2  14   1   -0.30    0.30
  -2  14   1    0.10    0.10
   1 -14  -1   16.40    0.80
   1 -14  -1   17.30    0.80
  -1  14   1   16.10    1.10
  -1  14   1   16.70    0.60
  -1  14   1   16.70    0.80
   0 -14  -1    5.00    0.40
   0 -14  -1    5.20    0.40
   0  14   1    5.00    0.30
   0  14   1    4.30    0.40
   0  14   1    4.20    0.70
  -1 -14  -1    1.70    0.20
  -1 -14  -1    1.10    0.20
   1  14   1    1.10    0.20
   1  14   1    1.00    0.40
   1  14   1    1.10    0.20
  -2 -14  -1   10.40    0.60
   2  14   1    8.90    0.60
   2  14   1    9.40    0.60
   2  14   1    7.50    0.80
   2  14   1    8.70    0.40
  -3 -14  -1   32.40    1.10
   3  14   1   31.60    1.10
   3  14   1   31.50    1.20
   3  14   1   32.70    1.00
   3  14   1   31.50    1.50
  -4 -14  -1   19.20    0.80
   4  14   1   18.80    0.90
   4  14   1   18.20    1.10
   1 -15  -1    1.50    0.30
   1 -15  -1    1.30    0.30
  -1  15   1    1.20    0.20
  -1  15   1    1.20    0.50
  -1  15   1    1.00    0.30
   0 -15  -1    0.30    0.20
   0 -15  -1    0.30    0.20
   0  15   1    0.30    0.20
   0  15   1    0.20    0.30
   0  15   1    0.30    0.20
  -1 -15  -1    8.80    0.60
  -1 -15  -1    9.30    0.50
   1  15   1    8.70    1.00
   1  15   1    9.80    0.50
   1  15   1    8.90    0.60
  -2 -15  -1    1.10    0.20
   2  15   1    1.20    0.40
   2  15   1    2.10    0.30
   2  15   1    1.50    0.20
  -3 -15  -1    0.70    0.20
   3  15   1    0.50    0.20
   3  15   1    1.00    0.30
   3  15   1    0.80    0.20
   3  15   1    0.20    0.30
   2  14  -2   12.60    0.60
   2  14  -2   13.10    1.00
   2  14  -2   12.10    0.70
  -2 -14   2   13.10    0.70
   1  14  -2   33.20    1.60
   1  14  -2   34.10    1.10
   1  14  -2   34.60    1.20
  -1 -14   2   32.60    1.20
   0  14  -2    1.50    0.30
   0  14  -2    1.50    0.20
   0  14  -2    0.50    0.30
   0 -14   2    1.70    0.20
  -1  14  -2    6.70    0.50
  -1  14  -2    6.80    0.80
  -1  14  -2    5.70    0.40
   1 -14   2    6.70    0.50
   1 -14   2    7.30    0.50
   4  13  -2    1.10    0.40
   4  13  -2    0.60    0.20
  -4 -13   2    1.00    0.20
  -4 -13   2    1.00    0.20
   3  13  -2    8.50    0.80
   3  13  -2    8.30    0.60
  -3 -13   2    8.70    0.50
   2  13  -2    5.40    0.30
   2  13  -2    5.80    0.70
   2  13  -2    6.10    0.50
  -2 -13   2    5.50    0.40
   1  13  -2   17.70    0.70
   1  13  -2   17.90    1.10
   1  13  -2   17.50    0.80
  -1 -13   2   17.90    0.60
  -1 -13   2   18.00    0.80
   0  13  -2    3.70    0.40
   0  13  -2    4.70    0.30
   0  13  -2    3.60    0.60
   0 -13   2    3.80    0.30
   0 -13   2    3.30    0.40
  -1  13  -2    5.00    0.70
  -1  13  -2    5.90    0.40
  -1  13  -2    5.60    0.50
   1 -13   2    5.40    0.40
   1 -13   2    6.10    0.50
  -2  13  -2    0.50    0.20
  -2  13  -2    0.20    0.30
  -2  13  -2    0.60    0.20
   2 -13   2    0.30    0.20
   2 -13   2    0.20    0.20
   5  12  -2   10.00    0.50
   5  12  -2    9.80    0.70
  -5 -12   2    9.80    0.50
  -5 -12   2   10.40    0.50
  -5 -12   2   10.40    0.50
   4  12  -2   10.70    0.80
   4  12  -2   11.20    0.60
  -4 -12   2   10.30    0.50
  -4 -12   2   10.70    0.50
  -4 -12   2   10.80    0.60
  -4 -12   2    9.80    0.50
   3  12  -2    3.30    0.40
   3  12  -2    3.60    0.50
  -3 -12   2    3.40    0.40
  -3 -12   2    3.90    0.30
   2  12  -2    8.40    0.50
   2  12  -2    9.20    0.40
   2  12  -2    9.10    0.70
  -2 -12   2    8.60    0.50
   1  12  -2   11.20    0.60
   1  12  -2   10.90    0.50
   1  12  -2   11.20    0.80
  -1 -12   2   11.00    0.40
  -1 -12   2   11.40    0.60
   0  12  -2    6.60    0.40
   0  12  -2    7.50    0.80
   0  12  -2    7.80    0.50
   0 -12   2    6.90    0.40
   0 -12   2    6.60    0.40
   0 -12   2    6.90    0.40
  -1  12  -2   27.70    0.90
  -1  12  -2   30.70    1.40
  -1  12  -2   27.80    1.00
   1 -12   2   28.20    1.00
   1 -12   2   27.00    1.00
  -2  12  -2   23.60    0.90
  -2  12  -2   22.80    1.20
  -2  12  -2   23.30    0.70
   2 -12   2   24.80    1.00
   2 -12   2   21.90    0.90
  -3  12  -2   -0.20    0.20
  -3  12  -2   -0.20    0.30
  -3  12  -2    0.10    0.10
   3 -12   2   -0.20    0.20
   3 -12   2   -0.10    0.10
   3 -12   2    0.20    0.20
   3 -12   2    0.00    0.20
   5  11  -2    7.50    0.60
   5  11  -2    7.20    0.40
  -5 -11   2    7.20    0.40
  -5 -11   2    7.60    0.40
  -5 -11   2    7.60    0.40
  -5 -11   2    7.50    0.40
   4  11  -2    0.00    0.20
   4  11  -2   -0.10    0.10
  -4 -11   2    0.00    0.10
  -4 -11   2   -0.10    0.10
  -4 -11   2    0.10    0.10
  -4 -11   2    0.00    0.10
   3  11  -2    6.50    0.70
   3  11  -2    7.20    0.50
  -3 -11   2    6.70    0.40
  -3 -11   2    6.60    0.40
  -3 -11   2    6.60    0.40
  -3 -11   2    7.00    0.40
   2  11  -2  104.09    2.50
   2  11  -2  107.29    3.10
   2  11  -2   99.19    2.80
   2  11  -2  107.49    2.70
  -2 -11   2  107.09    2.70
  -2 -11   2  105.59    2.70
  -2 -11   2  111.19    2.80
   1  11  -2   12.20    0.50
   1  11  -2   14.30    0.90
   1  11  -2   13.00    0.60
  -1 -11   2   13.00    0.50
  -1 -11   2   13.20    0.60
   0  11  -2    0.30    0.10
   0  11  -2    0.10    0.20
   0  11  -2    0.10    0.20
   0 -11   2    0.10    0.10
   0 -11   2   -0.10    0.10
   0 -11   2    0.10    0.10
  -1  11  -2    0.70    0.20
  -1  11  -2    0.50    0.20
  -1  11  -2    0.40    0.30
   1 -11   2    0.90    0.20
   1 -11   2    0.80    0.20
   1 -11   2    1.20    0.20
  -2  11  -2    7.30    0.50
  -2  11  -2    6.90    0.40
  -2  11  -2    7.10    0.70
   2 -11   2    7.20    0.30
   2 -11   2    7.00    0.40
   2 -11   2    6.70    0.50
   2 -11   2    6.70    0.50
  -3  11  -2    0.00    0.30
  -3  11  -2    0.30    0.10
  -3  11  -2    0.40    0.20
   3 -11   2    0.20    0.20
   3 -11   2    0.20    0.20
   3 -11   2    0.20    0.10
   3 -11   2    0.30    0.20
  -4  11  -2    0.30    0.30
  -4  11  -2    0.50    0.20
   4 -11   2    0.20    0.20
   4 -11   2    0.50    0.20
   4 -11   2    0.30    0.20
   4 -11   2    0.20    0.20
   6  10  -2    0.20    0.10
  -6 -10   2    0.10    0.10
  -6 -10   2    0.10    0.10
  -6 -10   2    0.10    0.10
   5  10  -2    0.50    0.20
   5  10  -2    0.80    0.20
   5  10  -2    0.30    0.40
  -5 -10   2    0.50    0.10
  -5 -10   2    0.70    0.10
  -5 -10   2    0.50    0.10
   4  10  -2   18.00    0.70
   4  10  -2   18.70    0.90
  -4 -10   2   17.50    0.60
  -4 -10   2   19.00    0.60
  -4 -10   2   20.20    0.70
   3  10  -2    0.60    0.30
   3  10  -2    0.60    0.20
  -3 -10   2    0.60    0.10
  -3 -10   2    0.50    0.10
  -3 -10   2    0.90    0.20
   2  10  -2  162.88    4.30
   2  10  -2  157.28    4.00
   2  10  -2  162.78    3.70
   2  10  -2  165.78    3.90
  -2 -10   2  159.68    3.90
  -2 -10   2  162.08    3.90
  -2 -10   2  157.48    3.90
  -2 -10   2  162.18    3.90
   1  10  -2    0.80    0.20
   1  10  -2    1.10    0.20
   1  10  -2    0.60    0.30
  -1 -10   2    1.00    0.20
  -1 -10   2    1.00    0.20
  -1 -10   2    0.80    0.10
  -1 -10   2    0.70    0.20
  -1 -10   2    0.90    0.20
   0  10  -2    0.00    0.10
   0  10  -2    0.30    0.20
   0  10  -2    0.40    0.10
   0 -10   2    0.10    0.10
   0 -10   2    0.10    0.10
   0 -10   2    0.30    0.10
  -1  10  -2   -0.10    0.10
  -1  10  -2   -0.20    0.20
  -1  10  -2    0.00    0.10
   1 -10   2   -0.20    0.10
   1 -10   2    0.00    0.10
   1 -10   2   -0.10    0.10
   1 -10   2   -0.20    0.10
  -2  10  -2    0.70    0.10
  -2  10  -2    0.50    0.20
  -2  10  -2    0.90    0.30
   2 -10   2    0.90    0.20
   2 -10   2    0.30    0.10
   2 -10   2    0.70    0.10
   2 -10   2    0.60    0.20
  -3  10  -2   -0.10    0.10
  -3  10  -2    0.00    0.20
  -3  10  -2   -0.20    0.20
   3 -10   2    0.10    0.10
   3 -10   2    0.10    0.10
   3 -10   2   -0.10    0.10
   3 -10   2   -0.10    0.10
  -4  10  -2    1.10    0.20
  -4  10  -2    0.40    0.30
   4 -10   2    0.40    0.20
   4 -10   2    1.20    0.30
   4 -10   2    0.50    0.20
   4 -10   2    1.10    0.30
  -5  10  -2    5.00    0.40
   5 -10   2    4.30    0.50
   5 -10   2    5.40    0.50
   5 -10   2    4.60    0.30
   5 -10   2    4.80    0.50
  -6  -9   2    1.20    0.10
  -6  -9   2    1.20    0.10
  -6  -9   2    1.30    0.10
   5   9  -2    1.20    0.50
   5   9  -2    1.20    0.30
   5   9  -2    1.00    0.10
  -5  -9   2    0.80    0.10
  -5  -9   2    0.90    0.10
  -5  -9   2    0.80    0.10
   4   9  -2  106.39    3.60
   4   9  -2  107.29    2.90
   4   9  -2  104.29    2.60
  -4  -9   2  106.09    2.60
  -4  -9   2  106.29    2.60
  -4  -9   2  105.89    2.60
   3   9  -2   16.50    0.80
   3   9  -2   15.40    0.60
  -3  -9   2   16.40    0.60
  -3  -9   2   16.80    0.60
  -3  -9   2   15.70    0.60
   2   9  -2    9.20    0.50
   2   9  -2    9.80    0.60
   2   9  -2    9.80    0.30
   2   9  -2   10.20    0.50
  -2  -9   2   10.50    0.40
  -2  -9   2   10.40    0.40
  -2  -9   2   10.10    0.40
   1   9  -2    1.70    0.20
   1   9  -2    1.60    0.30
   1   9  -2    1.70    0.20
  -1  -9   2    1.70    0.20
  -1  -9   2    2.00    0.20
  -1  -9   2    1.70    0.20
  -1  -9   2    2.00    0.20
  -1  -9   2    1.80    0.20
  -1  -9   2    1.40    0.20
   0   9  -2    3.00    0.40
   0   9  -2    4.00    0.30
   0   9  -2    3.90    0.20
   0  -9   2    4.00    0.30
   0  -9   2    4.00    0.30
   0  -9   2    4.20    0.30
   0  -9   2    4.40    0.30
   0  -9   2    4.20    0.30
  -1   9  -2   83.29    2.20
  -1   9  -2   84.99    2.50
  -1   9  -2   82.29    2.10
   1  -9   2   82.19    2.20
   1  -9   2   84.49    1.90
   1  -9   2   85.29    2.10
   1  -9   2   82.89    2.20
   1  -9   2   85.49    2.20
  -2   9  -2    0.20    0.20
  -2   9  -2    0.00    0.10
  -2   9  -2    0.20    0.10
   2  -9   2    0.20    0.10
   2  -9   2    0.30    0.20
   2  -9   2    0.00    0.10
   2  -9   2    0.10    0.10
  -3   9  -2    1.90    0.30
  -3   9  -2    1.70    0.40
  -3   9  -2    1.90    0.20
   3  -9   2    2.00    0.30
   3  -9   2    1.30    0.20
   3  -9   2    1.70    0.20
   3  -9   2    1.40    0.20
  -4   9  -2   27.00    1.10
  -4   9  -2   23.80    0.90
   4  -9   2   25.00    1.00
   4  -9   2   24.90    0.80
   4  -9   2   24.70    0.90
   4  -9   2   24.00    1.00
  -5   9  -2   12.80    0.60
   5  -9   2   12.50    0.50
   5  -9   2   12.70    0.70
   5  -9   2   11.70    0.60
   5  -9   2   13.40    0.70
  -7  -8   2    8.40    0.30
  -7  -8   2    8.90    0.40
  -6  -8   2    1.80    0.10
  -6  -8   2    1.70    0.20
  -6  -8   2    1.20    0.30
   5   8  -2    2.20    0.70
  -5  -8   2    2.60    0.10
  -5  -8   2    2.30    0.30
  -5  -8   2    2.50    0.20
  -5  -8   2    2.30    0.10
  -5  -8   2    2.70    0.20
   4   8  -2   11.30    0.60
   4   8  -2   13.10    1.00
   4   8  -2   11.70    0.40
  -4  -8   2   11.60    0.40
  -4  -8   2   11.90    0.40
  -4  -8   2   11.10    0.40
  -4  -8   2   11.30    0.40
   3   8  -2  103.59    2.50
   3   8  -2  100.89    2.70
  -3  -8   2  102.99    2.50
  -3  -8   2  103.29    2.50
  -3  -8   2  102.29    2.50
   2   8  -2   19.90    0.70
   2   8  -2   20.60    0.90
   2   8  -2   20.40    0.70
  -2  -8   2   20.20    0.60
  -2  -8   2   20.20    1.10
  -2  -8   2   20.80    0.70
  -2  -8   2   20.20    0.70
   1   8  -2    3.80    0.40
   1   8  -2    4.10    0.20
   1   8  -2    4.40    0.30
   1   8  -2    3.60    0.30
  -1  -8   2    4.10    0.30
  -1  -8   2    4.60    0.50
  -1  -8   2    4.20    0.20
  -1  -8   2    4.00    0.30
  -1  -8   2    3.90    0.30
   0   8  -2   46.70    1.20
   0   8  -2   47.90    1.30
   0   8  -2   42.50    1.50
   0  -8   2   47.80    1.30
   0  -8   2   47.20    1.30
   0  -8   2   45.90    1.30
   0  -8   2   46.30    1.30
   0  -8   2   46.00    1.30
   0  -8   2   47.50    1.20
  -1   8  -2    9.60    0.50
  -1   8  -2    9.20    0.40
  -1   8  -2    8.20    0.60
   1  -8   2    8.30    0.40
   1  -8   2    9.30    0.40
   1  -8   2   10.40    0.40
   1  -8   2    9.00    0.30
   1  -8   2    8.90    0.40
  -2   8  -2   33.30    1.10
  -2   8  -2   32.90    0.90
  -2   8  -2   31.70    1.00
  -2   8  -2   35.80    1.30
   2  -8   2   33.30    1.10
   2  -8   2   33.80    1.10
   2  -8   2   35.10    1.10
   2  -8   2   33.70    1.00
   2  -8   2   33.80    0.90
  -3   8  -2    2.90    0.40
  -3   8  -2    4.40    0.40
  -3   8  -2    3.10    0.30
  -3   8  -2    3.50    0.20
   3  -8   2    3.40    0.30
   3  -8   2    3.50    0.20
   3  -8   2    3.50    0.40
   3  -8   2    2.80    0.30
  -4   8  -2    1.10    0.30
  -4   8  -2    0.50    0.20
  -4   8  -2    0.80    0.20
   4  -8   2    0.80    0.20
   4  -8   2    0.40    0.20
   4  -8   2    0.80    0.20
   4  -8   2    0.70    0.20
  -5   8  -2    0.40    0.20
  -5   8  -2    0.60    0.20
   5  -8   2    0.30    0.20
   5  -8   2    0.70    0.20
   5  -8   2    0.20    0.20
   5  -8   2    0.20    0.10
  -6   8  -2    0.00    0.20
  -6   8  -2    0.00    0.10
   6  -8   2    0.10    0.10
   6  -8   2    0.00    0.20
   6  -8   2    0.00    0.20
   6  -8   2   -0.10    0.10
  -7  -7   2    0.00    0.10
  -7  -7   2    0.10    0.10
  -7  -7   2    0.00    0.20
   6   7  -2    2.00    0.60
  -6  -7   2    1.60    0.10
  -6  -7   2    1.60    0.10
  -6  -7   2    1.60    0.30
   5   7  -2    0.90    0.40
  -5  -7   2    1.10    0.10
  -5  -7   2    1.10    0.10
  -5  -7   2    0.70    0.20
   4   7  -2   39.30    2.00
   4   7  -2   53.69    1.40
  -4  -7   2   49.20    1.50
  -4  -7   2   50.89    1.20
  -4  -7   2   51.49    1.30
  -4  -7   2   51.49    1.20
  -4  -7   2   48.70    1.20
   3   7  -2    0.50    0.10
   3   7  -2    0.30    0.30
   3   7  -2    0.50    0.10
   3   7  -2    0.60    0.20
  -3  -7   2    0.40    0.10
  -3  -7   2    0.50    0.10
  -3  -7   2    0.30    0.10
  -3  -7   2    0.50    0.10
  -3  -7   2    0.40    0.10
   2   7  -2   16.80    0.60
   2   7  -2   16.30    0.70
   2   7  -2   17.40    0.60
  -2  -7   2   17.30    0.50
  -2  -7   2   17.40    0.60
  -2  -7   2   17.10    0.50
  -2  -7   2   17.50    0.50
  -2  -7   2   17.50    1.00
   1   7  -2   23.50    0.80
   1   7  -2   23.20    0.60
   1   7  -2   23.80    0.70
   1   7  -2   22.30    0.90
  -1  -7   2   23.30    0.70
  -1  -7   2   23.10    0.70
  -1  -7   2   23.10    0.70
  -1  -7   2   23.50    0.70
  -1  -7   2   23.00    0.60
   0   7  -2   18.10    0.50
   0   7  -2   16.20    0.60
   0   7  -2   15.90    0.80
   0  -7   2   16.50    0.60
   0  -7   2   15.70    0.60
   0  -7   2   15.80    0.50
   0  -7   2   16.40    0.50
   0  -7   2   16.60    0.60
   0  -7   2   16.30    0.60
  -1   7  -2    0.80    0.10
  -1   7  -2    0.80    0.10
  -1   7  -2    0.80    0.20
  -1   7  -2    0.80    0.20
   1  -7   2    0.90    0.20
   1  -7   2    0.70    0.10
   1  -7   2    0.90    0.10
   1  -7   2    0.60    0.10
   1  -7   2    0.80    0.10
  -2   7  -2   31.60    1.00
  -2   7  -2   29.50    0.80
  -2   7  -2   29.10    1.10
   2  -7   2   32.00    1.00
   2  -7   2   29.30    1.00
   2  -7   2   30.70    0.90
   2  -7   2   31.60    0.90
   2  -7   2   30.10    0.80
  -3   7  -2    0.30    0.10
  -3   7  -2    0.30    0.20
  -3   7  -2    0.50    0.20
  -3   7  -2    0.30    0.10
   3  -7   2    0.40    0.20
   3  -7   2    0.60    0.20
   3  -7   2    0.40    0.10
   3  -7   2    0.40    0.10
   3  -7   2    0.40    0.10
  -4   7  -2   10.00    0.50
  -4   7  -2   10.20    0.60
  -4   7  -2    9.10    0.60
   4  -7   2    9.00    0.50
   4  -7   2   10.00    0.50
   4  -7   2    9.70    0.40
   4  -7   2    8.30    0.50
   4  -7   2    9.30    0.50
  -5   7  -2    2.30    0.30
  -5   7  -2    1.70    0.20
   5  -7   2    1.70    0.30
   5  -7   2    1.50    0.30
   5  -7   2    1.30    0.30
   5  -7   2    1.80    0.20
   5  -7   2    1.40    0.30
  -6   7  -2    2.30    0.40
   6  -7   2    2.40    0.40
   6  -7   2    2.40    0.40
   6  -7   2    2.20    0.30
   6  -7   2    2.10    0.30
  -7  -6   2    1.70    0.30
   6   6  -2    4.40    0.80
  -6  -6   2    3.30    0.40
   5   6  -2   22.60    1.40
  -5  -6   2   22.10    0.90
   4   6  -2   51.79    1.40
   4   6  -2   50.39    2.10
  -4  -6   2   50.49    1.20
  -4  -6   2   53.19    1.20
  -4  -6   2   51.99    1.50
   3   6  -2    8.80    0.80
   3   6  -2    8.00    0.40
  -3  -6   2    7.40    0.20
  -3  -6   2    7.10    0.20
  -3  -6   2    7.40    0.30
  -3  -6   2    7.70    0.30
  -3  -6   2    7.20    0.40
   2   6  -2    0.20    0.10
   2   6  -2    0.20    0.10
   2   6  -2    0.40    0.10
  -2  -6   2    0.20    0.10
  -2  -6   2    0.20    0.10
  -2  -6   2    0.40    0.20
  -2  -6   2    0.20    0.10
  -2  -6   2    0.20    0.10
  -2  -6   2    0.20    0.10
   1   6  -2   31.60    0.90
   1   6  -2   31.70    0.90
   1   6  -2   31.30    1.10
   1   6  -2   32.90    0.80
  -1  -6   2   31.90    0.80
  -1  -6   2   32.00    0.90
  -1  -6   2   31.50    0.80
  -1  -6   2   31.40    0.90
  -1  -6   2   31.20    0.90
   0   6  -2    0.20    0.10
   0   6  -2    0.00    0.10
   0   6  -2    0.10    0.10
   0  -6   2    0.10    0.10
   0  -6   2    0.20    0.10
   0  -6   2    0.10    0.10
   0  -6   2    0.00    0.10
   0  -6   2    0.20    0.10
   0  -6   2    0.10    0.10
  -1   6  -2    3.30    0.20
  -1   6  -2    3.10    0.20
  -1   6  -2    2.30    0.30
  -1   6  -2    3.30    0.20
   1  -6   2    3.30    0.20
   1  -6   2    2.80    0.20
   1  -6   2    3.30    0.20
   1  -6   2    3.50    0.20
   1  -6   2    3.40    0.20
   1  -6   2    3.40    0.20
  -2   6  -2    7.40    0.30
  -2   6  -2    5.50    0.40
  -2   6  -2    6.10    0.40
   2  -6   2    6.50    0.30
   2  -6   2    5.70    0.30
   2  -6   2    6.30    0.30
   2  -6   2    5.60    0.30
   2  -6   2    5.40    0.30
   2  -6   2    6.00    0.30
  -3   6  -2   14.20    0.60
  -3   6  -2   14.10    0.50
  -3   6  -2   13.20    0.60
  -3   6  -2   13.60    0.70
  -3   6  -2   13.60    0.40
   3  -6   2   14.50    0.60
   3  -6   2   13.40    0.50
   3  -6   2   13.60    0.60
   3  -6   2   12.60    0.60
  -4   6  -2   11.00    0.50
  -4   6  -2   10.90    0.60
  -4   6  -2   11.40    0.60
   4  -6   2   11.40    0.50
   4  -6   2   11.00    0.50
   4  -6   2   10.40    0.50
   4  -6   2   11.10    0.60
   4  -6   2   10.80    0.40
  -5   6  -2   16.70    0.70
  -5   6  -2   15.40    0.60
   5  -6   2   16.00    0.70
   5  -6   2   16.40    0.70
   5  -6   2   15.50    0.70
   5  -6   2   15.50    0.60
   5  -6   2   15.10    0.70
  -6   6  -2    0.20    0.20
   6  -6   2   -0.10    0.20
   6  -6   2    0.10    0.20
   6  -6   2   -0.20    0.10
   6  -6   2    0.00    0.10
   7  -6   2    3.50    0.30
  -7  -5   2   18.80    0.90
   6   5  -2   -0.10    0.30
  -6  -5   2    0.00    0.10
   5   5  -2    8.60    0.80
  -5  -5   2    6.90    0.50
   4   5  -2   60.49    2.30
   4   5  -2   64.59    1.50
  -4  -5   2   61.59    1.70
   3   5  -2    4.90    0.30
   3   5  -2    5.10    0.50
  -3  -5   2    4.60    0.20
  -3  -5   2    4.70    0.10
  -3  -5   2    5.30    0.30
   2   5  -2   55.89    1.50
   2   5  -2   56.49    1.40
   2   5  -2   57.59    1.30
   2   5  -2   57.39    1.90
  -2  -5   2   56.09    1.30
  -2  -5   2   55.79    1.30
  -2  -5   2   56.59    1.40
  -2  -5   2   55.79    1.90
  -2  -5   2   55.09    1.50
  -2  -5   2   54.39    1.30
   1   5  -2   38.30    1.20
   1   5  -2   39.10    1.00
   1   5  -2   39.60    1.00
  -1  -5   2   38.90    1.00
  -1  -5   2   38.90    1.00
  -1  -5   2   41.20    1.50
  -1  -5   2   39.00    1.00
   0   5  -2    0.20    0.10
   0   5  -2    0.20    0.10
   0   5  -2    0.20    0.10
   0  -5   2    0.20    0.10
   0  -5   2    0.20    0.10
   0  -5   2    0.20    0.10
   0  -5   2    0.20    0.10
   0  -5   2    0.30    0.10
  -1   5  -2    3.20    0.20
  -1   5  -2    3.40    0.20
  -1   5  -2    3.60    0.30
  -1   5  -2    3.20    0.20
   1  -5   2    2.80    0.20
   1  -5   2    3.50    0.20
   1  -5   2    3.60    0.20
   1  -5   2    3.50    0.20
   1  -5   2    3.10    0.20
   1  -5   2    3.50    0.20
   1  -5   2    3.70    0.20
  -2   5  -2  151.98    3.80
  -2   5  -2  153.98    3.60
  -2   5  -2  158.08    3.70
  -2   5  -2  156.28    3.70
   2  -5   2  159.28    3.70
   2  -5   2  158.48    3.70
   2  -5   2  155.08    3.60
   2  -5   2  154.08    3.70
   2  -5   2  157.98    3.70
   2  -5   2  153.18    3.70
  -3   5  -2    3.20    0.20
  -3   5  -2    3.10    0.30
  -3   5  -2    3.40    0.30
  -3   5  -2    3.20    0.20
  -3   5  -2    3.60    0.40
   3  -5   2    3.30    0.30
   3  -5   2    3.20    0.20
   3  -5   2    3.40    0.20
   3  -5   2    3.80    0.30
  -4   5  -2   20.20    0.60
  -4   5  -2   21.60    0.80
  -4   5  -2   21.00    0.80
  -4   5  -2   20.20    0.70
   4  -5   2   21.80    0.80
   4  -5   2   20.30    0.80
   4  -5   2   20.40    0.70
   4  -5   2   19.90    0.60
   4  -5   2   20.50    0.80
  -5   5  -2   26.60    1.00
  -5   5  -2   27.60    0.80
  -5   5  -2   28.30    1.00
   5  -5   2   27.20    0.90
   5  -5   2   27.90    0.80
   5  -5   2   27.20    1.00
   5  -5   2   28.10    1.00
   5  -5   2   28.40    1.00
  -6   5  -2   18.40    0.80
   6  -5   2   16.20    0.70
   6  -5   2   16.70    0.60
   6  -5   2   17.60    0.80
   6  -5   2   15.30    0.70
  -7   5  -2    7.20    0.50
   7  -5   2    7.60    0.50
   7  -5   2    7.50    0.50
   7  -5   2    8.10    0.40
   7  -5   2    7.40    0.50
  -7  -4   2    5.30    0.40
   6   4  -2   33.30    1.70
  -6  -4   2   32.90    1.10
   5   4  -2   49.30    2.10
  -5  -4   2   49.30    1.50
   3   4  -2   67.09    2.20
  -3  -4   2   65.29    1.70
   2   4  -2  283.47    7.10
   2   4  -2  294.57    6.60
  -2  -4   2  291.07    6.60
  -2  -4   2  291.67    6.50
  -2  -4   2  289.07    7.10
  -2  -4   2  279.87    6.50
   1   4  -2   26.30    0.70
   1   4  -2   25.50    0.80
   1   4  -2   25.20    0.70
  -1  -4   2   25.30    0.60
  -1  -4   2   25.40    0.70
  -1  -4   2   23.90    0.70
  -1  -4   2   25.10    0.70
  -1  -4   2   26.40    1.00
   0   4  -2    6.50    0.40
   0   4  -2    6.50    0.20
   0   4  -2    6.10    0.30
   0  -4   2    6.00    0.30
   0  -4   2    6.40    0.20
   0  -4   2    6.00    0.20
   0  -4   2    6.10    0.30
   0  -4   2    6.00    0.30
  -1   4  -2   19.40    0.60
  -1   4  -2   20.00    0.70
  -1   4  -2   18.90    0.60
  -1   4  -2   20.10    0.50
   1  -4   2   19.00    0.50
   1  -4   2   19.90    0.60
   1  -4   2   19.90    0.60
   1  -4   2   20.50    0.60
   1  -4   2   18.90    0.60
  -2   4  -2    0.40    0.10
  -2   4  -2    0.70    0.10
  -2   4  -2    0.20    0.10
  -2   4  -2    0.10    0.10
  -2   4  -2    0.20    0.10
   2  -4   2    0.20    0.10
   2  -4   2    0.30    0.10
   2  -4   2    0.20    0.10
   2  -4   2    0.20    0.10
   2  -4   2    0.20    0.10
  -3   4  -2   48.90    1.30
  -3   4  -2   48.10    1.40
  -3   4  -2   48.10    1.30
  -3   4  -2   47.80    1.30
  -3   4  -2   48.00    1.30
  -3   4  -2   47.60    1.20
   3  -4   2   46.70    1.30
   3  -4   2   48.50    1.30
   3  -4   2   46.90    1.30
   3  -4   2   47.80    1.20
   3  -4   2   47.80    1.30
  -4   4  -2    0.10    0.10
  -4   4  -2    0.30    0.10
  -4   4  -2    0.40    0.10
  -4   4  -2    0.10    0.10
  -4   4  -2    0.30    0.10
  -4   4  -2    0.20    0.10
   4  -4   2    0.10    0.10
   4  -4   2    0.20    0.10
   4  -4   2    0.30    0.10
   4  -4   2    0.20    0.10
   4  -4   2    0.10    0.10
  -5   4  -2    6.20    0.40
  -5   4  -2    6.10    0.30
  -5   4  -2    6.10    0.30
  -5   4  -2    5.80    0.40
  -5   4  -2    6.30    0.40
   5  -4   2    5.80    0.30
   5  -4   2    5.40    0.40
   5  -4   2    5.70    0.40
   5  -4   2    5.50    0.40
   5  -4   2    5.90    0.40
  -6   4  -2    3.40    0.40
  -6   4  -2    3.50    0.30
   6  -4   2    2.70    0.30
   6  -4   2    3.10    0.20
   6  -4   2    3.30    0.30
   6  -4   2    3.30    0.40
   6  -4   2    3.30    0.40
  -7   4  -2   10.80    0.60
   7  -4   2   10.00    0.60
   7  -4   2   10.20    0.60
   7  -4   2   10.30    0.40
  -8  -3   2    0.00    0.10
  -8  -3   2   -0.10    0.20
  -8  -3   2   -0.10    0.10
  -7  -3   2    1.60    0.30
   6   3  -2    4.50    0.70
  -6  -3   2    5.30    0.40
   5   3  -2    2.00    0.50
  -5  -3   2    2.10    0.30
   3   3  -2   87.79    2.70
  -3  -3   2   86.79    2.20
   2   3  -2  278.37    6.80
  -2  -3   2  271.37    6.30
  -2  -3   2  282.87    6.80
   1   3  -2   42.60    1.00
   1   3  -2   42.40    1.10
  -1  -3   2   41.30    1.40
  -1  -3   2   41.60    1.00
  -1  -3   2   42.50    1.10
  -1  -3   2   42.50    1.00
   0   3  -2    0.20    0.10
   0   3  -2    0.20    0.10
   0   3  -2    0.20    0.10
   0  -3   2    0.20    0.10
   0  -3   2    0.20    0.10
   0  -3   2    0.20    0.10
   0  -3   2    0.20    0.10
  -1   3  -2   21.80    0.60
  -1   3  -2   22.60    0.60
   1  -3   2   21.00    0.60
   1  -3   2   21.20    0.60
   1  -3   2   21.90    0.60
   1  -3   2   21.70    0.60
   1  -3   2   22.00    0.60
  -2   3  -2   43.20    1.10
  -2   3  -2   43.40    1.10
  -2   3  -2   42.50    1.00
  -2   3  -2   43.00    1.20
  -2   3  -2   43.10    1.10
  -2   3  -2   43.30    1.20
   2  -3   2   42.50    1.10
   2  -3   2   42.30    1.00
   2  -3   2   43.40    1.10
   2  -3   2   42.00    1.10
  -3   3  -2    4.50    0.30
  -3   3  -2    4.70    0.30
  -3   3  -2    4.80    0.30
  -3   3  -2    5.00    0.20
  -3   3  -2    4.60    0.30
  -3   3  -2    4.90    0.20
   3  -3   2    4.60    0.20
   3  -3   2    4.90    0.30
   3  -3   2    3.90    0.20
   3  -3   2    4.70    0.30
   3  -3   2    5.00    0.30
  -4   3  -2    8.80    0.40
  -4   3  -2    8.80    0.30
  -4   3  -2    8.20    0.30
  -4   3  -2    7.90    0.40
  -4   3  -2    9.00    0.40
   4  -3   2    7.90    0.30
   4  -3   2    8.60    0.40
   4  -3   2    8.30    0.40
   4  -3   2    8.50    0.40
   4  -3   2    8.50    0.40
  -5   3  -2   16.90    0.50
  -5   3  -2   17.40    0.70
  -5   3  -2   17.70    0.70
  -5   3  -2   17.10    0.60
  -5   3  -2   17.80    0.60
   5  -3   2   17.40    0.70
   5  -3   2   17.20    0.50
   5  -3   2   17.60    0.60
   5  -3   2   17.90    0.70
   5  -3   2   16.20    0.70
  -6   3  -2    0.50    0.20
  -6   3  -2    0.70    0.20
  -6   3  -2    1.00    0.20
  -6   3  -2    0.70    0.20
   6  -3   2    0.80    0.10
   6  -3   2    0.90    0.20
   6  -3   2    0.90    0.20
   6  -3   2    0.60    0.20
   6  -3   2    0.80    0.20
  -7   3  -2    1.70    0.30
  -7   3  -2    1.60    0.30
   7  -3   2    1.80    0.30
   7  -3   2    1.60    0.20
  -8  -2   2   -0.10    0.20
  -8  -2   2    0.00    0.10
  -8  -2   2    0.00    0.10
  -8  -2   2   -0.10    0.10
  -7  -2   2   -0.20    0.10
  -7  -2   2    0.10    0.10
  -7  -2   2    0.00    0.10
   6   2  -2   43.40    2.00
  -6  -2   2   42.00    1.40
   5   2  -2    5.10    0.70
  -5  -2   2    5.80    0.40
   4   2  -2    1.00    0.30
  -4  -2   2    0.60    0.20
  -3  -2   2   78.29    2.00
   2   2  -2   10.30    0.60
   1   2  -2   89.59    2.40
  -1  -2   2   90.89    2.10
  -1  -2   2   90.09    2.00
  -1  -2   2   87.19    2.40
  -1  -2   2   89.59    2.00
   0   2  -2  170.28    4.00
   0   2  -2  172.78    3.90
   0  -2   2  172.68    3.90
   0  -2   2  175.88    3.90
   0  -2   2  172.88    3.90
   0  -2   2  176.28    3.90
   0  -2   2  170.78    3.90
  -1   2  -2 9513.85  220.08
  -1   2  -2 9394.36  217.98
  -1   2  -2 9273.27  221.08
  -1   2  -2 9232.38  214.58
  -1   2  -2 9485.55  226.18
   1  -2   2 9999.00  221.58
   1  -2   2 9446.75  218.68
   1  -2   2 9400.16  218.88
   1  -2   2 9200.28  220.98
   1  -2   2 9267.47  214.48
  -2   2  -2    5.10    0.20
  -2   2  -2    5.30    0.30
  -2   2  -2    4.70    0.10
  -2   2  -2    4.90    0.20
  -2   2  -2    4.90    0.20
  -2   2  -2    4.90    0.20
  -2   2  -2    5.00    0.20
   2  -2   2    5.30    0.20
   2  -2   2    4.60    0.20
   2  -2   2    4.90    0.20
   2  -2   2    4.80    0.20
  -3   2  -2   28.00    0.80
  -3   2  -2   29.40    0.80
  -3   2  -2   28.80    0.70
  -3   2  -2   28.00    0.80
  -3   2  -2   29.00    0.80
   3  -2   2   27.40    0.80
   3  -2   2   28.40    0.80
   3  -2   2   29.70    0.80
   3  -2   2   28.80    0.70
   3  -2   2   28.60    0.80
  -4   2  -2   14.90    0.50
  -4   2  -2   15.10    0.50
  -4   2  -2   14.10    0.50
  -4   2  -2   14.40    0.50
  -4   2  -2   15.30    0.50
  -4   2  -2   14.50    0.40
   4  -2   2   15.80    0.50
   4  -2   2   15.20    0.40
   4  -2   2   14.10    0.50
   4  -2   2   15.10    0.50
   4  -2   2   14.40    0.50
  -5   2  -2    8.70    0.40
  -5   2  -2    7.90    0.40
  -5   2  -2    7.70    0.40
  -5   2  -2    8.50    0.40
   5  -2   2    8.80    0.40
   5  -2   2    8.20    0.30
   5  -2   2    8.00    0.40
   5  -2   2    8.10    0.40
   5  -2   2    8.40    0.40
  -6   2  -2    3.50    0.30
  -6   2  -2    3.50    0.30
  -6   2  -2    3.80    0.30
  -6   2  -2    3.40    0.30
   6  -2   2    3.70    0.30
   6  -2   2    3.30    0.30
   6  -2   2    3.40    0.30
   6  -2   2    3.50    0.30
  -7   2  -2    4.10    0.30
  -7   2  -2    3.90    0.40
  -7   2  -2    3.90    0.30
   7  -2   2    4.00    0.30
   7  -2   2    3.70    0.40
  -8  -1   2   11.10    0.70
  -8  -1   2   10.40    0.40
  -8  -1   2    9.70    0.50
  -8  -1   2   10.10    0.40
  -7  -1   2    0.20    0.10
  -7  -1   2    0.20    0.10
  -7  -1   2    0.40    0.10
  -7  -1   2    0.20    0.10
  -7  -1   2    0.10    0.20
  -6  -1   2   10.70    0.30
  -6  -1   2   10.40    0.30
  -6  -1   2   11.20    0.60
   5   1  -2   13.50    0.40
  -5  -1   2   12.90    0.60
  -4  -1   2    0.10    0.10
  -3  -1   2    3.40    0.20
   2   1  -2    0.00    0.10
  -2  -1   2    0.00    0.10
  -1  -1   2   62.29    1.70
  -1  -1   2   63.89    1.50
   0   1  -2   36.40    0.90
   0  -1   2   36.20    0.80
   0  -1   2   34.90    0.90
   0  -1   2   36.80    0.90
   0  -1   2   35.00    0.90
   0  -1   2   36.40    0.90
  -1   1  -2 1400.46   31.10
  -1   1  -2 1397.76   30.70
  -1   1  -2 1337.77   30.40
  -1   1  -2 1334.47   32.00
  -1   1  -2 1379.56   30.70
   1  -1   2 1371.66   30.40
   1  -1   2 1344.47   30.80
   1  -1   2 1302.67   30.60
  -2   1  -2   26.70    0.70
  -2   1  -2   26.20    0.70
  -2   1  -2   26.00    0.70
  -2   1  -2   27.30    0.70
  -2   1  -2   26.30    0.70
   2  -1   2   26.30    0.70
   2  -1   2   26.40    0.70
   2  -1   2   28.00    0.70
   2  -1   2   26.00    0.60
  -3   1  -2    0.40    0.10
  -3   1  -2    0.40    0.10
  -3   1  -2    0.30    0.10
  -3   1  -2    0.40    0.10
  -3   1  -2    0.30    0.10
   3  -1   2    0.40    0.10
   3  -1   2    0.50    0.10
   3  -1   2    0.50    0.10
   3  -1   2    0.60    0.10
   3  -1   2    0.50    0.10
  -4   1  -2    2.30    0.10
  -4   1  -2    2.40    0.20
  -4   1  -2    2.30    0.20
  -4   1  -2    2.40    0.20
  -4   1  -2    2.40    0.20
  -4   1  -2    2.30    0.20
   4  -1   2    2.60    0.20
   4  -1   2    2.40    0.20
   4  -1   2    2.50    0.20
  -5   1  -2   32.40    1.00
  -5   1  -2   32.30    1.00
  -5   1  -2   33.10    1.00
  -5   1  -2   34.80    1.00
   5  -1   2   36.10    1.00
   5  -1   2   32.60    1.00
   5  -1   2   34.10    1.00
  -6   1  -2    0.20    0.10
  -6   1  -2    0.10    0.10
  -6   1  -2    0.20    0.10
  -6   1  -2    0.10    0.10
   6  -1   2    0.20    0.10
   6  -1   2    0.00    0.10
  -7   1  -2   -0.20    0.10
  -7   1  -2    0.00    0.10
  -7   1  -2    0.00    0.10
  -7   1  -2    0.30    0.10
   7  -1   2    0.00    0.10
   7  -1   2    0.00    0.10
  -8   1  -2    6.30    0.50
  -8   1  -2    6.90    0.50
   8  -1   2    6.50    0.40
   8  -1   2    6.80    0.40
  -8   0   2    0.00    0.10
  -8   0   2    0.10    0.10
  -8   0   2    0.20    0.20
  -8   0   2    0.10    0.10
  -7   0   2   23.50    0.70
  -7   0   2   24.00    0.70
  -7   0   2   24.50    1.00
  -7   0   2   23.70    0.80
   6   0  -2    7.90    0.30
  -6   0   2    8.40    0.50
  -6   0   2    8.20    0.30
  -6   0   2    8.10    0.30
  -6   0   2    8.10    0.30
  -6   0   2    7.50    0.20
   5   0  -2   32.90    0.80
  -5   0   2   31.50    1.00
  -5   0   2   32.10    0.80
  -5   0   2   32.60    0.80
   4   0  -2    0.20    0.10
  -4   0   2    0.00    0.10
  -3   0   2   40.30    1.10
  -2   0   2   21.10    0.60
   1   0  -2  452.45   10.50
  -1   0   2  467.95   10.50
   0   0  -2   40.90    1.00
   0   0   2   40.70    0.90
   0   0   2   40.60    0.90
   0   0   2   39.70    0.90
   0   0   2   39.50    0.90
  -1   0  -2   11.70    0.30
  -1   0  -2   11.60    0.30
  -1   0  -2   11.20    0.30
  -1   0  -2   11.90    0.30
   1   0   2   11.70    0.30
   1   0   2   12.20    0.30
  -2   0  -2   90.39    2.20
  -2   0  -2   88.19    2.20
  -2   0  -2   94.89    2.20
  -2   0  -2   91.39    2.20
  -2   0  -2   94.69    2.20
   2   0   2   94.89    2.20
   2   0   2   93.39    2.20
   2   0   2   99.29    2.20
  -3   0  -2   11.70    0.40
  -3   0  -2   11.70    0.30
  -3   0  -2   11.80    0.40
  -3   0  -2   11.40    0.40
  -3   0  -2   10.70    0.40
  -3   0  -2   11.30    0.40
   3   0   2   12.30    0.40
   3   0   2   11.90    0.40
   3   0   2   11.90    0.40
  -4   0  -2  487.85   11.00
  -4   0  -2  488.75   10.90
  -4   0  -2  474.95   11.00
  -4   0  -2  484.65   11.00
  -4   0  -2  470.45   10.90
   4   0   2  486.55   11.00
   4   0   2  504.15   11.00
   4   0   2  492.25   11.00
  -5   0  -2   15.70    0.60
  -5   0  -2   17.00    0.60
  -5   0  -2   16.20    0.60
  -5   0  -2   16.30    0.60
  -5   0  -2   17.70    0.60
   5   0   2   17.20    0.60
   5   0   2   17.70    0.60
   5   0   2   16.60    0.60
  -6   0  -2   11.90    0.50
  -6   0  -2   11.40    0.50
  -6   0  -2   11.20    0.50
  -6   0  -2   10.70    0.50
   6   0   2   11.70    0.50
   6   0   2   11.00    0.40
  -7   0  -2   29.10    0.90
  -7   0  -2   28.50    1.00
  -7   0  -2   30.20    1.00
  -7   0  -2   28.10    1.00
   7   0   2   29.00    0.90
   7   0   2   30.20    1.00
  -8   0  -2    7.40    0.50
  -8   0  -2    7.50    0.50
  -8   0  -2    8.00    0.40
  -8   0  -2    7.30    0.50
   8   0   2    7.50    0.40
   8   0   2    8.30    0.50
  -8   1   2    0.10    0.10
  -8   1   2   -0.10    0.10
  -8   1   2    0.40    0.20
  -8   1   2    0.00    0.20
   7  -1  -2   31.60    1.00
  -7   1   2   32.90    1.00
  -7   1   2   33.30    0.90
  -7   1   2   33.20    1.00
  -7   1   2   32.70    1.20
   6  -1  -2   13.40    0.50
  -6   1   2   12.60    0.50
  -6   1   2   12.60    0.60
  -6   1   2   12.90    0.40
  -6   1   2   12.70    0.40
  -6   1   2   12.30    0.40
   5  -1  -2   44.30    1.10
  -5   1   2   41.90    1.20
  -5   1   2   42.20    1.10
  -5   1   2   43.50    1.10
  -5   1   2   40.30    1.00
  -5   1   2   42.50    1.00
   4  -1  -2   91.39    2.10
  -4   1   2   87.09    2.00
  -4   1   2   86.39    2.20
  -4   1   2   85.29    2.10
   3  -1  -2   69.59    1.60
  -3   1   2   67.29    1.60
  -3   1   2   68.89    1.70
  -2   1   2    8.00    0.20
  -1   1   2   54.09    1.20
  -1   1   2   52.49    1.20
  -1   1   2   53.89    1.20
   0  -1  -2  272.37    6.20
   0   1   2  277.67    6.20
   0   1   2  278.77    6.20
   0   1   2  271.27    6.30
   0   1   2  265.97    6.40
  -1  -1  -2  399.46    9.40
  -1  -1  -2  419.26    9.30
  -1  -1  -2  402.96    9.40
   1   1   2  414.86    9.20
   1   1   2  403.36    9.20
  -2  -1  -2   12.80    0.40
  -2  -1  -2   12.00    0.40
  -2  -1  -2   12.90    0.40
  -2  -1  -2   12.90    0.40
  -2  -1  -2   12.70    0.40
   2   1   2   13.60    0.40
   2   1   2   13.60    0.40
   2   1   2   12.70    0.30
  -3  -1  -2   30.60    0.80
  -3  -1  -2   31.20    0.90
  -3  -1  -2   29.20    0.80
  -3  -1  -2   32.50    0.80
  -3  -1  -2   31.50    0.80
   3   1   2   33.80    0.80
   3   1   2   33.50    0.80
  -4  -1  -2   16.30    0.60
  -4  -1  -2   16.00    0.50
  -4  -1  -2   16.20    0.50
  -4  -1  -2   15.00    0.50
   4   1   2   17.20    0.50
   4   1   2   16.20    0.50
  -5  -1  -2   15.60    0.50
  -5  -1  -2   16.10    0.50
  -5  -1  -2   15.80    0.60
  -5  -1  -2   12.30    0.50
   5   1   2   16.80    0.50
   5   1   2   15.40    0.50
  -6  -1  -2   31.00    1.00
  -6  -1  -2   31.70    0.90
  -6  -1  -2   31.40    0.90
  -6  -1  -2   30.30    0.90
   6   1   2   31.60    0.90
   6   1   2   31.80    0.90
  -7  -1  -2    0.10    0.10
  -7  -1  -2    0.10    0.10
  -7  -1  -2   -0.30    0.10
  -7  -1  -2   -0.10    0.10
   7   1   2    0.10    0.10
   7   1   2    0.10    0.10
  -8  -1  -2    0.90    0.20
  -8  -1  -2    0.70    0.20
  -8  -1  -2    1.10    0.30
  -8  -1  -2    0.90    0.20
   8   1   2    0.80    0.20
   8   1   2    1.10    0.20
   7  -2  -2    3.30    0.30
  -7   2   2    3.80    0.30
  -7   2   2    3.30    0.40
  -7   2   2    3.20    0.30
  -7   2   2    3.90    0.30
   6  -2  -2    0.60    0.10
  -6   2   2    0.50    0.10
  -6   2   2    0.70    0.20
  -6   2   2    0.70    0.10
  -6   2   2    1.10    0.20
   5  -2  -2   26.30    0.80
  -5   2   2   25.00    0.80
  -5   2   2   26.80    0.90
  -5   2   2   25.30    0.70
  -5   2   2   26.00    0.70
  -5   2   2   25.90    0.70
   4  -2  -2    0.30    0.10
   4  -2  -2    0.40    0.10
  -4   2   2    0.20    0.10
  -4   2   2    0.30    0.10
  -4   2   2    0.10    0.10
  -4   2   2    0.30    0.10
   3  -2  -2    6.30    0.20
   3  -2  -2    6.40    0.30
  -3   2   2    6.10    0.20
  -3   2   2    6.10    0.20
  -3   2   2    6.50    0.20
   2  -2  -2  656.13   14.60
   2  -2  -2  660.33   14.40
  -2   2   2  609.34   14.50
  -2   2   2  655.13   14.50
   1  -2  -2   30.60    0.80
   1  -2  -2   31.50    0.90
  -1   2   2   29.00    0.70
  -1   2   2   29.40    0.80
  -1   2   2   29.60    0.70
  -1   2   2   30.20    0.70
   0  -2  -2   96.19    2.30
   0  -2  -2  101.99    2.40
   0  -2  -2  101.49    2.30
   0   2   2  103.59    2.30
   0   2   2  102.79    2.40
   0   2   2  101.79    2.40
   0   2   2  106.59    2.30
   0   2   2  101.49    2.30
  -1  -2  -2  134.19    3.10
  -1  -2  -2  133.69    3.10
  -1  -2  -2  139.89    3.10
  -1  -2  -2  133.49    3.10
   1   2   2  135.99    3.10
   1   2   2  136.29    3.10
  -2  -2  -2    8.00    0.20
  -2  -2  -2    8.00    0.30
  -2  -2  -2    7.70    0.20
  -2  -2  -2    7.30    0.20
   2   2   2    8.00    0.20
   2   2   2    8.30    0.30
   2   2   2    8.00    0.20
  -3  -2  -2   78.09    1.90
  -3  -2  -2   80.09    1.90
  -3  -2  -2   76.09    1.80
  -3  -2  -2   76.79    1.80
  -3  -2  -2   77.99    1.90
   3   2   2   79.59    1.90
   3   2   2   83.39    1.90
  -4  -2  -2    0.30    0.10
  -4  -2  -2    0.30    0.10
  -4  -2  -2    0.50    0.10
  -4  -2  -2    0.30    0.10
  -4  -2  -2    0.30    0.10
   4   2   2    0.40    0.10
   4   2   2    0.40    0.10
  -5  -2  -2    2.30    0.20
  -5  -2  -2    2.10    0.10
  -5  -2  -2    1.80    0.10
  -5  -2  -2    2.30    0.20
  -5  -2  -2    1.70    0.20
   5   2   2    2.10    0.20
  -6  -2  -2    0.70    0.10
  -6  -2  -2    0.70    0.10
  -6  -2  -2    0.90    0.20
  -6  -2  -2    0.70    0.10
  -6  -2  -2    0.80    0.10
   6   2   2    0.90    0.10
   6   2   2    0.80    0.10
  -7  -2  -2    7.90    0.40
  -7  -2  -2    7.90    0.40
  -7  -2  -2    8.10    0.50
  -7  -2  -2    8.40    0.40
   7   2   2    7.60    0.40
   7   2   2    8.10    0.40
  -8  -2  -2    0.20    0.10
  -8  -2  -2    0.20    0.10
  -8  -2  -2    0.00    0.10
  -8  -2  -2   -0.20    0.20
   8   2   2    0.30    0.10
   8   2   2    0.10    0.10
   7  -3  -2    0.30    0.20
  -7   3   2    0.40    0.20
  -7   3   2    0.60    0.20
  -7   3   2    0.40    0.20
  -7   3   2    0.70    0.20
   6  -3  -2   55.19    1.50
  -6   3   2   54.79    1.50
  -6   3   2   50.99    1.50
  -6   3   2   52.59    1.50
  -6   3   2   52.99    1.40
   5  -3  -2    0.90    0.20
   5  -3  -2    1.20    0.20
  -5   3   2    0.60    0.20
  -5   3   2    0.90    0.20
  -5   3   2    0.80    0.10
  -5   3   2    1.10    0.20
  -5   3   2    0.70    0.10
   4  -3  -2    6.90    0.30
   4  -3  -2    7.50    0.30
  -4   3   2    6.40    0.30
  -4   3   2    6.80    0.30
  -4   3   2    6.70    0.30
  -4   3   2    6.30    0.30
   3  -3  -2    2.30    0.20
   3  -3  -2    2.80    0.20
  -3   3   2    2.50    0.10
  -3   3   2    2.30    0.20
  -3   3   2    2.50    0.20
  -3   3   2    2.30    0.20
   2  -3  -2   48.30    1.20
   2  -3  -2   48.10    1.20
  -2   3   2   46.90    1.10
  -2   3   2   47.50    1.20
  -2   3   2   46.50    1.20
  -2   3   2   46.50    1.20
   1  -3  -2   66.09    1.60
   1  -3  -2   68.19    1.60
   1  -3  -2   66.49    1.60
   1  -3  -2   65.69    1.50
  -1   3   2   63.79    1.60
  -1   3   2   65.49    1.60
  -1   3   2   64.39    1.60
  -1   3   2   66.59    1.60
   0  -3  -2  151.08    3.50
   0  -3  -2  153.68    3.40
   0  -3  -2  154.28    3.50
   0  -3  -2  150.98    3.50
   0  -3  -2  157.18    3.50
   0   3   2  150.08    3.50
   0   3   2  151.28    3.60
   0   3   2  153.28    3.50
   0   3   2  154.98    3.60
   0   3   2  155.58    3.40
  -1  -3  -2   13.80    0.40
  -1  -3  -2   13.80    0.40
  -1  -3  -2   13.70    0.40
  -1  -3  -2   13.60    0.40
   1   3   2   13.60    0.40
   1   3   2   13.60    0.40
   1   3   2   14.20    0.40
  -2  -3  -2   49.10    1.10
  -2  -3  -2   48.40    1.20
  -2  -3  -2   48.00    1.20
   2   3   2   49.20    1.10
   2   3   2   50.79    1.20
   2   3   2   49.60    1.20
  -3  -3  -2    0.20    0.10
  -3  -3  -2    0.40    0.10
  -3  -3  -2    0.40    0.10
  -3  -3  -2    0.30    0.10
   3   3   2    0.40    0.10
   3   3   2    0.40    0.10
  -4  -3  -2    0.40    0.10
  -4  -3  -2    0.40    0.10
  -4  -3  -2    0.30    0.10
  -4  -3  -2    0.50    0.10
   4   3   2    0.50    0.10
   4   3   2    0.40    0.10
  -5  -3  -2    4.30    0.20
  -5  -3  -2    4.10    0.20
  -5  -3  -2    4.50    0.20
  -5  -3  -2    4.30    0.30
  -5  -3  -2    4.00    0.20
   5   3   2    4.30    0.20
  -6  -3  -2   23.60    0.70
  -6  -3  -2   22.90    0.70
  -6  -3  -2   23.00    0.70
  -6  -3  -2   23.10    0.90
  -6  -3  -2   22.10    0.70
   6   3   2   23.30    0.70
   6   3   2   22.60    0.60
  -7  -3  -2    9.10    0.40
  -7  -3  -2    9.00    0.50
  -7  -3  -2    8.40    0.40
  -7  -3  -2    8.30    0.40
   7   3   2    8.20    0.30
   7   3   2    8.90    0.40
  -8  -3  -2    1.20    0.20
  -8  -3  -2    0.80    0.20
  -8  -3  -2    1.40    0.20
  -8  -3  -2    1.30    0.20
   8   3   2    1.00    0.20
   7  -4  -2    1.00    0.20
  -7   4   2    1.00    0.20
  -7   4   2    1.30    0.20
  -7   4   2    1.00    0.20
  -7   4   2    1.30    0.30
   6  -4  -2   20.60    0.80
  -6   4   2   22.00    0.80
  -6   4   2   21.10    0.80
  -6   4   2   21.00    0.80
  -6   4   2   22.40    0.80
   5  -4  -2    5.20    0.30
   5  -4  -2    5.30    0.30
  -5   4   2    5.10    0.30
  -5   4   2    5.40    0.40
  -5   4   2    5.50    0.30
  -5   4   2    5.40    0.30
   4  -4  -2   37.30    1.10
   4  -4  -2   38.80    1.10
   4  -4  -2   38.50    0.90
  -4   4   2   38.60    1.10
  -4   4   2   37.40    1.00
  -4   4   2   38.50    1.10
  -4   4   2   37.70    1.10
   3  -4  -2   12.40    0.50
   3  -4  -2   12.60    0.30
   3  -4  -2   12.80    0.50
  -3   4   2   12.80    0.50
  -3   4   2   12.70    0.40
  -3   4   2   13.00    0.50
  -3   4   2   12.80    0.40
  -3   4   2   12.50    0.50
   2  -4  -2    0.20    0.10
   2  -4  -2    0.30    0.10
   2  -4  -2    0.50    0.10
  -2   4   2    0.50    0.10
  -2   4   2    0.20    0.10
  -2   4   2    0.10    0.10
  -2   4   2    0.30    0.10
  -2   4   2    0.20    0.10
   1  -4  -2   64.89    1.50
   1  -4  -2   66.79    1.60
  -1   4   2   65.89    1.60
  -1   4   2   65.69    1.60
  -1   4   2   63.49    1.50
  -1   4   2   64.59    1.60
  -1   4   2   67.09    1.70
   0  -4  -2   95.09    2.20
   0  -4  -2   94.09    2.30
   0  -4  -2   95.49    2.20
   0  -4  -2   95.59    2.30
   0  -4  -2   93.19    2.20
   0   4   2   96.79    2.20
   0   4   2   93.79    2.20
   0   4   2   95.99    2.30
   0   4   2   97.59    2.30
  -1  -4  -2  420.96    9.80
  -1  -4  -2  418.26    9.60
  -1  -4  -2  430.86    9.60
  -1  -4  -2  416.16    9.50
   1   4   2  434.46    9.50
   1   4   2  406.16    9.60
   1   4   2  426.66    9.60
   1   4   2  411.26    9.60
   1   4   2  446.16    9.60
  -2  -4  -2   71.19    1.70
  -2  -4  -2   72.19    1.70
  -2  -4  -2   71.29    1.70
  -2  -4  -2   71.79    1.60
   2   4   2   71.19    1.80
   2   4   2   74.69    1.70
   2   4   2   71.89    1.70
  -3  -4  -2    1.90    0.10
  -3  -4  -2    1.70    0.10
  -3  -4  -2    1.70    0.10
  -3  -4  -2    1.60    0.10
   3   4   2    1.80    0.10
   3   4   2    1.90    0.10
   3   4   2    1.90    0.10
  -4  -4  -2   62.09    1.40
  -4  -4  -2   62.69    1.70
  -4  -4  -2   59.89    1.50
  -4  -4  -2   61.39    1.50
  -4  -4  -2   61.79    1.50
   4   4   2   64.29    1.50
  -5  -4  -2   58.99    1.50
  -5  -4  -2   57.69    1.40
  -5  -4  -2   57.99    1.40
  -5  -4  -2   54.99    1.40
  -5  -4  -2   59.49    1.60
   5   4   2   58.99    1.50
  -6  -4  -2    3.40    0.20
  -6  -4  -2    3.40    0.20
  -6  -4  -2    3.20    0.20
  -6  -4  -2    4.00    0.40
  -6  -4  -2    3.40    0.20
   6   4   2    3.30    0.20
   6   4   2    3.50    0.20
  -7  -4  -2    2.00    0.20
  -7  -4  -2    2.80    0.20
  -7  -4  -2    2.40    0.20
  -7  -4  -2    2.60    0.40
   7   4   2    2.40    0.20
   7   4   2    2.70    0.30
  -8  -4  -2    2.90    0.20
  -8  -4  -2    2.80    0.20
  -8  -4  -2    2.80    0.20
   8   4   2    2.60    0.20
   7  -5  -2    0.00    0.10
  -7   5   2    0.20    0.20
  -7   5   2    0.10    0.10
  -7   5   2    0.10    0.20
   6  -5  -2   61.69    1.70
  -6   5   2   61.09    1.70
  -6   5   2   61.89    1.70
  -6   5   2   61.49    1.80
  -6   5   2   62.09    1.70
   5  -5  -2    7.90    0.40
   5  -5  -2    7.80    0.40
  -5   5   2    7.90    0.50
  -5   5   2    7.80    0.40
  -5   5   2    8.20    0.40
  -5   5   2    8.90    0.40
   4  -5  -2    3.80    0.20
   4  -5  -2    4.00    0.30
   4  -5  -2    3.90    0.30
  -4   5   2    4.10    0.30
  -4   5   2    4.00    0.30
  -4   5   2    3.80    0.20
  -4   5   2    3.60    0.30
  -4   5   2    4.00    0.30
   3  -5  -2  147.69    3.60
   3  -5  -2  154.48    3.50
   3  -5  -2  153.48    3.60
  -3   5   2  148.79    3.60
  -3   5   2  151.48    3.50
  -3   5   2  150.08    3.70
  -3   5   2  151.58    3.60
   2  -5  -2   61.49    1.60
   2  -5  -2   60.49    1.60
   2  -5  -2   63.49    1.40
  -2   5   2   60.39    1.50
  -2   5   2   59.29    1.60
  -2   5   2   59.59    1.50
  -2   5   2   60.69    1.50
  -2   5   2   52.29    1.60
   1  -5  -2   16.00    0.50
   1  -5  -2   15.00    0.40
  -1   5   2   15.90    0.50
  -1   5   2   14.80    0.60
  -1   5   2   15.00    0.40
  -1   5   2   14.80    0.50
  -1   5   2   14.00    0.50
   0  -5  -2   45.40    1.10
   0  -5  -2   45.70    1.20
   0  -5  -2   45.40    1.10
   0  -5  -2   44.80    1.20
   0   5   2   44.40    1.20
   0   5   2   44.70    1.10
   0   5   2   45.70    1.20
  -1  -5  -2 1463.25   33.00
  -1  -5  -2 1447.06   33.20
  -1  -5  -2 1464.85   33.10
  -1  -5  -2 1382.86   33.10
   1   5   2 1459.45   32.70
   1   5   2 1616.04   33.70
   1   5   2 1433.76   33.40
   1   5   2 1423.56   33.00
   1   5   2 1444.16   33.20
  -2  -5  -2   57.39    1.40
  -2  -5  -2   56.69    1.30
  -2  -5  -2   55.09    1.40
  -2  -5  -2   55.99    1.40
  -2  -5  -2   57.09    1.40
   2   5   2   58.89    1.40
   2   5   2   55.39    1.60
   2   5   2   55.89    1.50
   2   5   2   57.79    1.40
  -3  -5  -2    2.30    0.20
  -3  -5  -2    1.80    0.10
  -3  -5  -2    2.00    0.10
   3   5   2    2.20    0.20
   3   5   2    2.20    0.10
   3   5   2    2.30    0.10
  -4  -5  -2    0.00    0.10
  -4  -5  -2    0.00    0.10
  -4  -5  -2    0.00    0.10
  -4  -5  -2    0.00    0.10
   4   5   2    0.10    0.10
   4   5   2    0.10    0.10
   4   5   2    0.10    0.10
  -5  -5  -2   18.10    0.50
  -5  -5  -2   17.80    0.50
  -5  -5  -2   18.80    0.60
  -5  -5  -2   17.60    0.50
   5   5   2   18.90    0.60
   5   5   2   18.10    0.50
  -6  -5  -2  148.69    3.40
  -6  -5  -2  139.79    3.40
  -6  -5  -2  148.29    3.40
  -6  -5  -2  147.19    3.50
  -6  -5  -2  151.08    3.50
   6   5   2  150.78    3.50
   6   5   2  143.69    3.40
  -7  -5  -2    0.00    0.10
  -7  -5  -2    0.00    0.10
  -7  -5  -2   -0.10    0.10
  -7  -5  -2    0.00    0.10
   7   5   2    0.10    0.10
  -8  -5  -2    0.80    0.20
  -8  -5  -2    1.10    0.20
  -8  -5  -2    1.30    0.20
   8   5   2    1.10    0.20
   7  -6  -2    7.50    0.50
  -7   6   2    7.60    0.50
  -7   6   2    7.80    0.60
   6  -6  -2    3.60    0.40
   6  -6  -2    3.70    0.40
  -6   6   2    4.10    0.40
  -6   6   2    4.40    0.40
  -6   6   2    4.20    0.40
   5  -6  -2  180.18    4.30
   5  -6  -2  174.38    4.10
   5  -6  -2  172.58    4.30
  -5   6   2  172.38    4.40
  -5   6   2  177.28    4.30
  -5   6   2  179.18    4.20
  -5   6   2  179.98    4.30
   4  -6  -2    1.10    0.20
   4  -6  -2    1.30    0.10
   4  -6  -2    1.20    0.20
  -4   6   2    1.10    0.20
  -4   6   2    1.90    0.30
  -4   6   2    1.30    0.10
  -4   6   2    1.40    0.20
   3  -6  -2   22.10    0.70
   3  -6  -2   21.00    0.60
   3  -6  -2   21.60    0.70
  -3   6   2   21.70    0.80
  -3   6   2   22.30    0.80
  -3   6   2   20.40    0.70
  -3   6   2   20.00    0.60
   2  -6  -2   78.69    1.90
   2  -6  -2   78.89    2.00
   2  -6  -2   78.19    2.00
  -2   6   2   79.59    2.00
  -2   6   2   80.09    2.00
  -2   6   2   82.89    2.20
  -2   6   2   81.99    2.10
   1  -6  -2   79.19    2.00
   1  -6  -2   79.89    2.00
   1  -6  -2   80.89    2.00
   1  -6  -2   79.79    1.90
  -1   6   2   79.39    1.90
  -1   6   2   81.59    2.00
  -1   6   2   80.49    2.00
  -1   6   2   81.19    2.20
  -1   6   2   80.59    2.00
   0  -6  -2   53.79    1.40
   0  -6  -2   53.89    1.30
   0  -6  -2   52.69    1.40
   0  -6  -2   53.49    1.40
   0  -6  -2   53.79    1.30
   0   6   2   51.79    1.30
   0   6   2   52.69    1.40
   0   6   2   52.69    1.40
   0   6   2   50.29    1.50
   0   6   2   56.89    1.70
  -1  -6  -2   64.59    1.60
  -1  -6  -2   65.79    1.60
  -1  -6  -2   64.29    1.60
  -1  -6  -2   67.89    1.80
  -1  -6  -2   65.69    1.60
  -1  -6  -2   65.09    1.60
   1   6   2   66.29    1.50
   1   6   2   66.69    1.80
   1   6   2   68.59    1.60
   1   6   2   62.49    1.60
  -2  -6  -2    0.20    0.10
  -2  -6  -2    0.30    0.10
  -2  -6  -2    0.10    0.10
   2   6   2    0.30    0.10
   2   6   2    0.30    0.20
   2   6   2    0.30    0.10
   2   6   2    0.10    0.10
  -3  -6  -2    0.30    0.10
  -3  -6  -2    0.30    0.10
  -3  -6  -2    0.50    0.10
  -3  -6  -2    0.20    0.10
   3   6   2    0.30    0.10
   3   6   2    0.30    0.20
   3   6   2    0.30    0.10
   3   6   2    0.40    0.10
  -4  -6  -2   48.90    1.20
  -4  -6  -2   47.70    1.30
  -4  -6  -2   47.30    1.20
   4   6   2   50.69    1.20
   4   6   2   47.30    1.30
   4   6   2   47.50    1.80
   4   6   2   48.50    1.20
  -5  -6  -2   26.60    0.80
  -5  -6  -2   27.50    0.70
  -5  -6  -2   26.00    0.70
  -5  -6  -2   26.50    0.70
   5   6   2   27.10    0.70
   5   6   2   26.00    1.40
   5   6   2   25.60    0.80
  -6  -6  -2    7.70    0.30
  -6  -6  -2    8.10    0.40
  -6  -6  -2    7.30    0.30
  -6  -6  -2    7.70    0.30
   6   6   2    7.40    0.30
   6   6   2    7.20    0.40
   6   6   2    7.60    0.80
  -7  -6  -2    0.60    0.10
  -7  -6  -2    0.60    0.10
  -7  -6  -2    0.40    0.10
   7   6   2    0.30    0.10
   7   6   2    0.50    0.50
   6  -7  -2   39.70    1.30
   6  -7  -2   40.20    1.30
   6  -7  -2   39.40    1.10
  -6   7   2   40.30    1.40
  -6   7   2   37.00    1.20
   5  -7  -2    1.20    0.20
   5  -7  -2    1.30    0.20
   5  -7  -2    1.20    0.20
  -5   7   2    2.00    0.30
  -5   7   2    1.50    0.20
   4  -7  -2    0.30    0.20
   4  -7  -2    0.20    0.10
   4  -7  -2   -0.10    0.10
  -4   7   2    0.30    0.20
  -4   7   2    0.10    0.10
  -4   7   2    0.10    0.10
  -4   7   2    0.00    0.10
   3  -7  -2   79.59    2.10
   3  -7  -2   78.59    2.10
   3  -7  -2   78.19    1.90
  -3   7   2   75.79    2.10
  -3   7   2   77.29    2.00
  -3   7   2   77.49    2.00
  -3   7   2   80.19    2.20
  -3   7   2   78.59    2.00
   2  -7  -2   11.70    0.50
   2  -7  -2   12.00    0.40
  -2   7   2   12.10    0.30
  -2   7   2   12.00    0.50
  -2   7   2   12.50    0.50
  -2   7   2   12.50    0.60
  -2   7   2   12.30    0.50
  -2   7   2   12.70    0.50
   1  -7  -2    6.70    0.30
   1  -7  -2    6.50    0.20
   1  -7  -2    6.30    0.30
   1  -7  -2    6.10    0.30
  -1   7   2    6.30    0.20
  -1   7   2    6.70    0.40
  -1   7   2    6.80    0.30
  -1   7   2    6.50    0.50
   0  -7  -2  115.49    2.80
   0  -7  -2  118.69    2.80
   0  -7  -2  119.39    2.80
   0  -7  -2  120.49    2.80
   0  -7  -2  115.89    2.70
   0  -7  -2  115.89    2.80
   0   7   2  116.69    2.70
   0   7   2  109.19    3.00
   0   7   2  116.69    2.90
   0   7   2  115.39    2.80
  -1  -7  -2    3.00    0.30
  -1  -7  -2    3.10    0.20
  -1  -7  -2    2.50    0.20
  -1  -7  -2    2.70    0.20
  -1  -7  -2    3.00    0.20
  -1  -7  -2    2.00    0.20
   1   7   2    2.90    0.20
   1   7   2    2.60    0.20
   1   7   2    2.80    0.20
   1   7   2    2.60    0.30
  -2  -7  -2    6.60    0.30
  -2  -7  -2    6.50    0.20
  -2  -7  -2    6.20    0.30
  -2  -7  -2    5.90    0.20
  -2  -7  -2    6.10    0.30
  -2  -7  -2    6.50    0.30
   2   7   2    6.10    0.20
   2   7   2    6.60    0.50
   2   7   2    6.20    0.30
   2   7   2    6.60    0.40
   2   7   2    6.60    0.30
  -3  -7  -2    0.20    0.10
  -3  -7  -2    0.20    0.10
  -3  -7  -2    0.10    0.10
  -3  -7  -2    0.20    0.10
   3   7   2    0.20    0.10
   3   7   2    0.10    0.20
   3   7   2    0.00    0.10
   3   7   2    0.10    0.10
  -4  -7  -2  696.43   16.00
  -4  -7  -2  716.13   16.00
  -4  -7  -2  650.03   16.10
   4   7   2  758.02   16.00
   4   7   2  721.63   16.70
   4   7   2  715.43   16.10
   4   7   2  719.23   15.90
  -5  -7  -2   17.10    0.50
  -5  -7  -2   17.20    0.60
  -5  -7  -2   16.60    0.50
  -5  -7  -2   17.20    0.50
   5   7   2   17.80    0.50
   5   7   2   16.40    1.10
   5   7   2   18.10    0.70
  -6  -7  -2    0.50    0.10
  -6  -7  -2    0.80    0.10
  -6  -7  -2    0.70    0.20
  -6  -7  -2    0.80    0.10
   6   7   2    0.60    0.10
   6   7   2    1.30    0.40
   6   7   2    0.70    0.10
  -7  -7  -2    0.10    0.10
  -7  -7  -2    0.10    0.10
  -7  -7  -2    0.00    0.10
   7   7   2    0.10    0.10
   6  -8  -2   15.70    0.60
   6  -8  -2   14.40    0.70
   6  -8  -2   16.50    0.80
  -6   8   2   14.70    0.80
   5  -8  -2    1.00    0.20
   5  -8  -2    1.00    0.20
   5  -8  -2    1.30    0.30
  -5   8   2    1.30    0.30
  -5   8   2    1.50    0.20
   4  -8  -2    8.90    0.40
   4  -8  -2    8.50    0.50
   4  -8  -2    8.00    0.50
  -4   8   2    9.40    0.50
  -4   8   2    8.70    0.40
  -4   8   2    8.80    0.50
   3  -8  -2   10.30    0.40
   3  -8  -2   11.10    0.50
   3  -8  -2   10.40    0.50
  -3   8   2    9.80    0.50
  -3   8   2   10.60    0.50
  -3   8   2   10.60    0.60
  -3   8   2   10.90    0.50
   2  -8  -2   36.60    1.10
   2  -8  -2   35.50    1.10
   2  -8  -2   35.20    0.90
  -2   8   2   34.30    1.30
  -2   8   2   36.00    0.90
  -2   8   2   35.10    1.10
  -2   8   2   34.80    1.10
  -2   8   2   36.40    1.00
   1  -8  -2    2.90    0.20
   1  -8  -2    2.20    0.10
   1  -8  -2    2.80    0.20
   1  -8  -2    2.40    0.20
  -1   8   2    2.80    0.20
  -1   8   2    2.50    0.20
  -1   8   2    2.00    0.30
  -1   8   2    2.50    0.30
   0  -8  -2   55.79    1.50
   0  -8  -2   55.09    1.50
   0  -8  -2   57.29    1.30
   0  -8  -2   57.89    1.50
   0  -8  -2   58.49    1.50
   0  -8  -2   56.89    1.50
   0   8   2   53.89    1.70
   0   8   2   55.29    1.50
   0   8   2   56.69    1.60
   0   8   2   55.89    1.40
  -1  -8  -2   17.90    0.60
  -1  -8  -2   17.70    0.60
  -1  -8  -2   17.30    0.60
  -1  -8  -2   18.00    0.60
  -1  -8  -2   18.20    0.60
  -1  -8  -2   17.90    0.70
   1   8   2   18.10    0.60
   1   8   2   18.00    0.50
   1   8   2   17.10    0.80
  -2  -8  -2    3.90    0.20
  -2  -8  -2    3.70    0.20
  -2  -8  -2    3.80    0.20
  -2  -8  -2    3.70    0.20
  -2  -8  -2    4.10    0.20
  -2  -8  -2    3.40    0.20
   2   8   2    4.00    0.40
   2   8   2    3.70    0.20
   2   8   2    4.00    0.20
   2   8   2    3.70    0.20
  -3  -8  -2   13.20    0.50
  -3  -8  -2   13.40    0.50
  -3  -8  -2   12.40    0.40
  -3  -8  -2   13.70    0.50
   3   8   2   13.30    0.50
   3   8   2   13.00    0.50
   3   8   2   12.70    0.60
  -4  -8  -2   51.29    1.30
  -4  -8  -2   50.99    1.30
  -4  -8  -2   49.00    1.30
   4   8   2   50.49    1.30
   4   8   2   54.09    1.90
   4   8   2   51.79    1.50
  -5  -8  -2   10.30    0.40
  -5  -8  -2   10.50    0.40
  -5  -8  -2    9.90    0.40
  -5  -8  -2   10.40    0.50
   5   8   2   10.40    0.40
   5   8   2   10.50    0.90
   5   8   2   10.80    0.50
  -6  -8  -2    3.40    0.20
  -6  -8  -2    3.90    0.20
  -6  -8  -2    3.40    0.20
   6   8   2    4.20    0.30
   6   8   2    4.70    0.70
   6   8   2    3.60    0.20
  -7  -8  -2   12.30    0.50
  -7  -8  -2   12.60    0.50
  -7  -8  -2   12.30    0.50
   7   8   2   12.60    0.40
   6  -9  -2    0.20    0.20
   6  -9  -2    0.20    0.20
   6  -9  -2    0.20    0.10
  -6   9   2    0.20    0.20
   5  -9  -2    0.10    0.20
   5  -9  -2    0.30    0.20
   5  -9  -2    0.00    0.10
  -5   9   2    0.00    0.10
  -5   9   2    0.10    0.20
   4  -9  -2    1.20    0.20
   4  -9  -2    1.30    0.20
   4  -9  -2    1.80    0.30
  -4   9   2    1.40    0.20
  -4   9   2    1.70    0.30
  -4   9   2    1.70    0.30
   3  -9  -2    0.30    0.20
   3  -9  -2    0.00    0.10
   3  -9  -2    0.00    0.10
  -3   9   2    0.00    0.10
  -3   9   2   -0.10    0.10
  -3   9   2   -0.10    0.20
   2  -9  -2   24.40    0.90
   2  -9  -2   25.00    0.70
   2  -9  -2   23.90    0.90
  -2   9   2   24.50    0.90
  -2   9   2   23.10    0.80
  -2   9   2   24.90    1.10
  -2   9   2   23.90    0.60
   1  -9  -2    0.70    0.20
   1  -9  -2    0.70    0.10
   1  -9  -2    0.90    0.10
   1  -9  -2    0.30    0.10
  -1   9   2    0.60    0.30
  -1   9   2    0.90    0.20
  -1   9   2    0.90    0.20
  -1   9   2    0.80    0.10
   0  -9  -2   41.10    1.20
   0  -9  -2   45.30    1.40
   0  -9  -2   44.30    1.30
   0  -9  -2   43.20    1.20
   0  -9  -2   42.30    1.20
   0  -9  -2   42.70    1.00
   0  -9  -2   44.00    1.20
   0   9   2   42.00    1.30
   0   9   2   42.70    1.10
   0   9   2   44.20    1.20
  -1  -9  -2    0.30    0.10
  -1  -9  -2    0.40    0.10
  -1  -9  -2    0.40    0.10
  -1  -9  -2    0.30    0.10
  -1  -9  -2    0.10    0.10
  -1  -9  -2    0.50    0.20
   1   9   2    0.40    0.10
   1   9   2    0.10    0.20
   1   9   2    0.20    0.10
  -2  -9  -2    0.10    0.10
  -2  -9  -2    0.10    0.10
  -2  -9  -2    0.10    0.10
  -2  -9  -2    0.00    0.10
  -2  -9  -2    0.00    0.10
   2   9   2    0.00    0.10
   2   9   2    0.00    0.10
   2   9   2    0.00    0.10
   2   9   2    0.00    0.10
  -3  -9  -2   25.20    0.80
  -3  -9  -2   25.50    0.80
  -3  -9  -2   24.70    0.80
   3   9   2   24.70    0.80
   3   9   2   27.10    1.20
   3   9   2   24.20    1.00
   3   9   2   25.50    0.80
  -4  -9  -2   24.30    0.80
  -4  -9  -2   24.70    0.70
  -4  -9  -2   22.60    0.70
   4   9   2   22.60    0.90
   4   9   2   23.90    0.70
  -5  -9  -2    0.90    0.10
  -5  -9  -2    1.10    0.20
  -5  -9  -2    1.20    0.10
   5   9   2    1.20    0.20
   5   9   2    1.10    0.20
   5   9   2    1.20    0.40
  -6  -9  -2   11.70    0.50
  -6  -9  -2   11.40    0.50
  -6  -9  -2   12.40    0.50
   6   9   2   12.80    1.10
   6   9   2   11.50    0.60
   6   9   2   12.70    0.50
  -7  -9  -2    8.40    0.40
  -7  -9  -2    8.60    0.40
  -7  -9  -2    8.40    0.40
   7   9   2    8.40    0.40
   5 -10  -2    0.30    0.20
   5 -10  -2    0.20    0.20
   5 -10  -2    0.20    0.10
  -5  10   2    0.30    0.20
  -5  10   2    0.30    0.10
   4 -10  -2    0.60    0.10
   4 -10  -2    0.50    0.20
   4 -10  -2    0.90    0.20
  -4  10   2    0.60    0.20
  -4  10   2    1.10    0.30
  -4  10   2    0.90    0.30
   3 -10  -2    0.10    0.10
   3 -10  -2    0.10    0.10
   3 -10  -2    0.10    0.20
  -3  10   2    0.20    0.10
  -3  10   2    0.00    0.20
  -3  10   2    0.50    0.20
   2 -10  -2    4.80    0.40
   2 -10  -2    5.00    0.40
   2 -10  -2    4.80    0.30
  -2  10   2    5.50    0.40
  -2  10   2    5.00    0.40
  -2  10   2    6.30    0.60
  -2  10   2    5.40    0.20
   1 -10  -2    6.00    0.40
   1 -10  -2    6.00    0.40
   1 -10  -2    5.10    0.40
   1 -10  -2    5.80    0.20
   1 -10  -2    5.80    0.40
  -1  10   2    5.50    0.60
  -1  10   2    5.50    0.30
  -1  10   2    6.10    0.40
   0 -10  -2   50.69    1.70
   0 -10  -2   53.69    1.50
   0 -10  -2   54.49    1.50
   0 -10  -2   55.29    1.30
   0 -10  -2   53.39    1.50
   0 -10  -2   56.39    1.50
   0  10   2   56.09    1.90
   0  10   2   54.79    1.40
   0  10   2   57.79    1.60
   0  10   2   55.29    1.60
  -1 -10  -2   13.60    0.50
  -1 -10  -2   13.20    0.70
  -1 -10  -2   14.30    0.60
  -1 -10  -2   15.00    0.70
  -1 -10  -2   13.80    0.50
  -1 -10  -2   14.20    0.50
   1  10   2   14.60    0.50
   1  10   2   14.00    0.60
   1  10   2   13.20    0.80
   1  10   2   14.30    0.60
  -2 -10  -2    3.40    0.20
  -2 -10  -2    3.10    0.20
  -2 -10  -2    3.10    0.30
  -2 -10  -2    3.40    0.30
   2  10   2    2.90    0.40
   2  10   2    3.30    0.30
   2  10   2    2.60    0.20
   2  10   2    3.30    0.30
  -3 -10  -2  125.09    3.00
  -3 -10  -2  128.19    3.10
  -3 -10  -2  122.09    3.10
   3  10   2  126.59    2.90
   3  10   2  122.69    3.10
   3  10   2  121.59    3.40
   3  10   2  129.49    3.10
  -4 -10  -2   12.60    0.50
  -4 -10  -2   13.20    0.50
  -4 -10  -2   13.80    0.50
   4  10   2   14.60    1.00
   4  10   2   13.10    0.50
   4  10   2   13.20    0.70
  -5 -10  -2    1.90    0.20
  -5 -10  -2    1.90    0.20
  -5 -10  -2    1.60    0.20
   5  10   2    1.10    0.40
   5  10   2    2.10    0.20
   5  10   2    2.10    0.30
  -6 -10  -2   15.00    0.60
  -6 -10  -2   16.80    0.60
  -6 -10  -2   15.50    0.60
   6  10   2   16.10    1.20
   6  10   2   16.50    0.80
   6  10   2   16.60    0.60
  -7 -10  -2    1.00    0.20
  -7 -10  -2    1.10    0.20
   5 -11  -2   -0.10    0.20
   5 -11  -2    0.10    0.20
   5 -11  -2    0.10    0.10
   5 -11  -2    0.00    0.20
  -5  11   2    0.00    0.10
   4 -11  -2    2.90    0.40
   4 -11  -2    2.70    0.30
   4 -11  -2    2.00    0.30
   4 -11  -2    2.80    0.40
  -4  11   2    3.10    0.50
  -4  11   2    2.50    0.30
   3 -11  -2    2.50    0.20
   3 -11  -2    3.00    0.40
   3 -11  -2    2.70    0.40
   3 -11  -2    2.10    0.30
  -3  11   2    2.80    0.50
  -3  11   2    2.20    0.30
   2 -11  -2    7.90    0.30
   2 -11  -2    7.60    0.50
   2 -11  -2    7.00    0.50
   2 -11  -2    7.40    0.40
  -2  11   2    7.50    0.40
  -2  11   2    7.60    0.70
  -2  11   2    7.20    0.30
   1 -11  -2    7.40    0.40
   1 -11  -2    7.60    0.30
   1 -11  -2    7.10    0.50
   1 -11  -2    7.80    0.50
  -1  11   2    7.20    0.30
  -1  11   2    6.80    0.70
  -1  11   2    7.60    0.50
   0 -11  -2    2.70    0.30
   0 -11  -2    1.60    0.20
   0 -11  -2    2.40    0.20
   0 -11  -2    2.10    0.50
   0 -11  -2    2.00    0.30
   0  11   2    1.70    0.20
   0  11   2    1.80    0.40
   0  11   2    2.30    0.20
  -1 -11  -2   40.20    1.20
  -1 -11  -2   34.00    1.20
  -1 -11  -2   41.10    1.20
  -1 -11  -2   40.30    1.20
  -1 -11  -2   40.00    1.20
  -1 -11  -2   44.80    1.70
   1  11   2   39.30    1.30
   1  11   2   40.90    1.20
   1  11   2   40.30    1.10
   1  11   2   45.30    1.60
  -2 -11  -2    0.00    0.10
  -2 -11  -2   -0.10    0.10
  -2 -11  -2   -0.10    0.10
   2  11   2   -0.10    0.10
   2  11   2    0.00    0.10
   2  11   2   -0.20    0.20
   2  11   2    0.10    0.10
  -3 -11  -2   23.20    0.80
  -3 -11  -2   22.40    0.80
  -3 -11  -2   23.60    0.80
   3  11   2   21.70    0.80
   3  11   2   21.80    1.00
   3  11   2   22.20    0.60
   3  11   2   23.30    0.80
  -4 -11  -2    1.60    0.20
  -4 -11  -2    1.30    0.20
  -4 -11  -2    1.40    0.20
   4  11   2    1.80    0.20
   4  11   2    1.40    0.30
  -5 -11  -2    0.30    0.10
  -5 -11  -2    0.50    0.10
  -5 -11  -2    0.40    0.10
   5  11   2    0.40    0.20
   5  11   2    0.40    0.10
   5  11   2    0.80    0.40
  -6 -11  -2   23.80    0.80
  -6 -11  -2   22.90    0.80
  -6 -11  -2   22.80    0.80
   6  11   2   22.30    1.10
   6  11   2   22.90    0.80
   4 -12  -2   -0.20    0.10
   4 -12  -2    0.30    0.20
   4 -12  -2    0.20    0.20
   4 -12  -2    0.10    0.10
  -4  12   2   -0.20    0.10
  -4  12   2    0.30    0.30
   3 -12  -2   15.40    0.80
   3 -12  -2   16.20    0.80
   3 -12  -2   17.30    0.70
   3 -12  -2   16.20    0.60
  -3  12   2   15.60    0.70
  -3  12   2   15.60    1.00
   2 -12  -2    0.20    0.10
   2 -12  -2    0.60    0.20
   2 -12  -2    0.40    0.10
   2 -12  -2    0.40    0.20
  -2  12   2    0.20    0.20
  -2  12   2    0.30    0.30
  -2  12   2    0.40    0.10
   1 -12  -2   60.99    1.60
   1 -12  -2   57.49    1.70
   1 -12  -2   58.59    1.70
   1 -12  -2   58.69    1.40
  -1  12   2   57.49    2.10
  -1  12   2   56.79    1.70
  -1  12   2   59.09    1.50
   0 -12  -2    2.50    0.30
   0 -12  -2    2.30    0.30
   0 -12  -2    2.10    0.30
   0  12   2    1.80    0.30
   0  12   2    2.10    0.40
   0  12   2    1.90    0.20
  -1 -12  -2    2.40    0.30
  -1 -12  -2    2.20    0.30
  -1 -12  -2    2.70    0.30
  -1 -12  -2    2.00    0.20
   1  12   2    2.20    0.30
   1  12   2    1.80    0.40
   1  12   2    2.50    0.20
   1  12   2    2.10    0.30
  -2 -12  -2    1.70    0.30
  -2 -12  -2    1.70    0.20
  -2 -12  -2    1.80    0.20
   2  12   2    1.50    0.30
   2  12   2    1.80    0.40
   2  12   2    1.90    0.20
   2  12   2    1.60    0.30
  -3 -12  -2    8.60    0.40
  -3 -12  -2    8.90    0.50
   3  12   2    8.30    0.40
   3  12   2    9.00    0.50
   3  12   2    8.50    0.70
   3  12   2    8.50    0.50
  -4 -12  -2    1.90    0.30
  -4 -12  -2    1.50    0.20
  -4 -12  -2    1.50    0.20
   4  12   2    1.60    0.40
   4  12   2    1.40    0.30
  -5 -12  -2    1.60    0.30
  -5 -12  -2    1.70    0.20
  -5 -12  -2    1.70    0.20
   5  12   2    1.30    0.40
   5  12   2    2.30    0.30
  -6 -12  -2   27.20    0.90
  -6 -12  -2   26.90    1.00
  -6 -12  -2   27.30    0.90
   6  12   2   26.00    1.20
   6  12   2   27.20    1.00
   3 -13  -2   10.10    0.40
   3 -13  -2   11.70    0.60
   3 -13  -2    9.50    0.60
   3 -13  -2    9.80    0.70
  -3  13   2    9.90    0.80
  -3  13   2    9.90    0.60
   2 -13  -2    0.30    0.10
   2 -13  -2    0.10    0.20
   2 -13  -2    0.30    0.20
   2 -13  -2    0.00    0.20
  -2  13   2    0.40    0.10
  -2  13   2    0.10    0.20
  -2  13   2   -0.10    0.30
   1 -13  -2    4.60    0.40
   1 -13  -2    5.20    0.40
   1 -13  -2    4.80    0.20
  -1  13   2    4.00    0.60
  -1  13   2    4.80    0.30
  -1  13   2    4.20    0.40
   0 -13  -2   20.50    0.80
   0 -13  -2   22.30    0.80
   0 -13  -2   21.10    0.80
   0 -13  -2   22.50    0.80
   0  13   2   22.00    0.90
   0  13   2   20.80    0.70
   0  13   2   21.00    1.20
  -1 -13  -2    1.40    0.20
  -1 -13  -2    0.90    0.20
  -1 -13  -2    1.00    0.20
   1  13   2    1.10    0.20
   1  13   2    0.90    0.30
   1  13   2    0.50    0.20
   1  13   2    1.20    0.30
  -2 -13  -2    0.50    0.10
  -2 -13  -2    0.40    0.20
   2  13   2    0.20    0.20
   2  13   2    0.20    0.20
   2  13   2    0.00    0.20
   2  13   2    0.30    0.10
  -3 -13  -2    0.50    0.20
  -3 -13  -2    0.90    0.20
   3  13   2    0.50    0.20
   3  13   2    0.50    0.20
   3  13   2    0.70    0.30
   3  13   2    0.40    0.10
  -4 -13  -2   -0.10    0.10
  -4 -13  -2    0.30    0.20
   4  13   2    0.20    0.30
   4  13   2    0.10    0.10
  -5 -13  -2   21.70    0.90
  -5 -13  -2   22.10    0.80
   5  13   2   22.40    1.20
   5  13   2   21.60    0.90
   3 -14  -2   16.20    0.80
   3 -14  -2   14.50    0.80
   3 -14  -2   13.40    0.80
   3 -14  -2   15.70    0.70
   3 -14  -2   15.40    0.60
  -3  14   2   15.70    0.80
  -3  14   2   16.20    1.10
   2 -14  -2   30.10    1.20
   2 -14  -2   30.80    1.20
   2 -14  -2   33.90    0.90
   2 -14  -2   32.40    1.20
  -2  14   2   31.70    0.90
  -2  14   2   32.30    1.50
  -2  14   2   31.70    1.20
   1 -14  -2    0.00    0.20
   1 -14  -2    0.00    0.10
   1 -14  -2    0.20    0.20
  -1  14   2    0.10    0.20
  -1  14   2    0.30    0.30
  -1  14   2    0.00    0.10
   0 -14  -2    3.10    0.40
   0 -14  -2    3.30    0.40
   0 -14  -2    3.00    0.30
   0  14   2    3.00    0.30
   0  14   2    3.60    0.60
   0  14   2    3.30    0.40
  -1 -14  -2    7.80    0.40
  -1 -14  -2    9.40    0.50
   1  14   2    7.40    0.80
   1  14   2    8.90    0.40
   1  14   2    9.70    0.60
  -2 -14  -2    3.70    0.20
  -2 -14  -2    3.80    0.40
   2  14   2    4.00    0.40
   2  14   2    3.30    0.60
   2  14   2    4.00    0.30
   2  14   2    3.80    0.50
  -3 -14  -2    0.30    0.20
   3  14   2    0.10    0.20
   3  14   2    0.10    0.20
   3  14   2    0.00    0.20
   3  14   2    0.20    0.10
  -4 -14  -2   14.00    0.60
   4  14   2   14.60    0.70
   4  14   2   12.50    0.90
   1 -15  -2    0.90    0.20
   1 -15  -2    1.20    0.30
   1 -15  -2    0.80    0.30
  -1  15   2    0.90    0.30
  -1  15   2    1.30    0.20
  -1  15   2    1.20    0.50
   0 -15  -2    5.10    0.40
   0 -15  -2    5.30    0.40
   0  15   2    5.70    0.50
   0  15   2    5.40    0.40
   0  15   2    4.90    0.70
  -1 -15  -2    0.60    0.20
  -1 -15  -2    0.40    0.20
   1  15   2    0.60    0.20
   1  15   2   -0.10    0.30
   1  15   2    0.30    0.20
  -2 -15  -2    1.50    0.30
   2  15   2    2.00    0.30
   2  15   2    1.10    0.40
   2  15   2    1.60    0.30
   2  15   2    1.40    0.20
  -3 -15  -2    0.10    0.20
   3  15   2    0.40    0.20
   3  15   2    0.20    0.20
   3  15   2    0.20    0.30
   3  15   2    0.20    0.20
   1  14  -3    1.70    0.30
   1  14  -3    1.40    0.40
   1  14  -3    1.50    0.30
  -1 -14   3    2.00    0.30
   0  14  -3    1.10    0.20
   0  14  -3    1.30    0.30
   0  14  -3    1.20    0.40
   0 -14   3    1.20    0.20
   3  13  -3    0.30    0.30
  -3 -13   3    0.50    0.20
   2  13  -3   16.10    0.70
   2  13  -3   16.00    0.60
   2  13  -3   15.20    1.00
  -2 -13   3   15.60    0.70
   1  13  -3   12.50    0.70
   1  13  -3   13.00    0.60
   1  13  -3   12.60    0.90
  -1 -13   3   12.30    0.60
   0  13  -3   -0.10    0.20
   0  13  -3    0.10    0.10
   0  13  -3    0.10    0.20
   0 -13   3    0.20    0.10
   0 -13   3    0.00    0.20
  -1  13  -3    5.20    0.50
  -1  13  -3    4.70    0.70
  -1  13  -3    4.70    0.40
   1 -13   3    5.70    0.50
   1 -13   3    4.80    0.40
  -2  13  -3    1.40    0.30
  -2  13  -3    1.30    0.20
  -2  13  -3    0.70    0.40
   2 -13   3    2.10    0.30
   2 -13   3    1.50    0.30
   4  12  -3    0.70    0.30
   4  12  -3    0.80    0.20
  -4 -12   3    0.60    0.20
  -4 -12   3    0.80    0.20
  -4 -12   3    0.50    0.20
   3  12  -3   11.10    0.80
   3  12  -3   10.90    0.60
  -3 -12   3   10.70    0.60
  -3 -12   3   10.40    0.60
  -3 -12   3   10.70    0.50
   2  12  -3   19.90    0.70
   2  12  -3   20.70    0.80
   2  12  -3   19.70    1.10
  -2 -12   3   19.40    0.80
   1  12  -3    6.60    0.40
   1  12  -3    6.70    0.80
   1  12  -3    6.60    0.50
  -1 -12   3    7.60    0.50
  -1 -12   3    6.90    0.30
   0  12  -3    3.10    0.40
   0  12  -3    2.30    0.30
   0  12  -3    2.10    0.50
   0 -12   3    2.30    0.20
   0 -12   3    2.90    0.40
   0 -12   3    2.80    0.30
  -1  12  -3    0.80    0.20
  -1  12  -3    0.80    0.40
  -1  12  -3    1.10    0.30
   1 -12   3    1.10    0.20
   1 -12   3    1.60    0.30
  -2  12  -3    0.10    0.20
  -2  12  -3    0.30    0.20
  -2  12  -3    0.30    0.30
   2 -12   3    0.10    0.20
   2 -12   3    0.10    0.20
  -3  12  -3    1.40    0.40
  -3  12  -3    1.80    0.30
  -3  12  -3    2.20    0.20
   3 -12   3    1.90    0.30
   3 -12   3    1.90    0.20
   3 -12   3    2.10    0.30
   5  11  -3    2.20    0.40
   5  11  -3    2.20    0.30
  -5 -11   3    2.30    0.30
  -5 -11   3    2.60    0.30
  -5 -11   3    2.10    0.20
   4  11  -3    0.00    0.10
   4  11  -3   -0.10    0.20
  -4 -11   3    0.10    0.10
  -4 -11   3    0.00    0.10
  -4 -11   3    0.10    0.10
   3  11  -3    2.20    0.40
   3  11  -3    1.80    0.30
  -3 -11   3    1.80    0.20
  -3 -11   3    1.90    0.30
  -3 -11   3    1.70    0.20
   2  11  -3    7.30    0.50
   2  11  -3    8.00    0.30
   2  11  -3    7.30    0.70
  -2 -11   3    7.70    0.40
  -2 -11   3    7.50    0.50
  -2 -11   3    8.50    0.50
   1  11  -3    1.40    0.20
   1  11  -3    1.00    0.20
   1  11  -3    1.10    0.40
  -1 -11   3    1.40    0.20
  -1 -11   3    1.40    0.20
   0  11  -3    9.60    0.50
   0  11  -3    9.30    0.70
   0  11  -3    9.00    0.40
   0 -11   3    8.80    0.50
   0 -11   3    8.90    0.50
   0 -11   3    8.70    0.40
  -1  11  -3    9.40    0.40
  -1  11  -3   10.10    0.80
  -1  11  -3    9.90    0.60
   1 -11   3    9.50    0.50
   1 -11   3    9.90    0.50
  -2  11  -3   31.90    1.10
  -2  11  -3   32.90    1.40
  -2  11  -3   30.30    0.90
   2 -11   3   29.90    1.10
   2 -11   3   32.30    0.80
   2 -11   3   30.30    1.10
  -3  11  -3    1.10    0.40
  -3  11  -3    1.10    0.20
  -3  11  -3    1.50    0.30
   3 -11   3    0.90    0.20
   3 -11   3    1.10    0.30
   3 -11   3    1.30    0.20
   3 -11   3    1.30    0.20
  -4  11  -3    1.00    0.30
  -4  11  -3    0.70    0.20
   4 -11   3    0.70    0.20
   4 -11   3    1.10    0.30
   4 -11   3    0.70    0.20
   4 -11   3    0.60    0.20
  -6 -10   3    4.30    0.30
  -6 -10   3    4.00    0.30
  -6 -10   3    4.40    0.30
   5  10  -3    1.80    0.20
   5  10  -3    1.40    0.30
  -5 -10   3    1.60    0.20
  -5 -10   3    1.60    0.20
  -5 -10   3    1.70    0.20
   4  10  -3    3.20    0.30
   4  10  -3    2.90    0.40
  -4 -10   3    3.20    0.30
  -4 -10   3    3.30    0.30
  -4 -10   3    3.50    0.30
   3  10  -3  149.59    4.00
   3  10  -3  148.29    3.70
  -3 -10   3  151.98    3.70
  -3 -10   3  149.19    3.60
  -3 -10   3  152.88    3.70
   2  10  -3   30.00    1.30
   2  10  -3   32.50    1.10
   2  10  -3   33.00    1.00
   2  10  -3   32.50    0.90
  -2 -10   3   31.70    1.00
  -2 -10   3   31.70    1.00
  -2 -10   3   32.90    1.00
   1  10  -3    6.10    0.30
   1  10  -3    5.60    0.40
   1  10  -3    5.20    0.60
  -1 -10   3    6.10    0.30
  -1 -10   3    6.20    0.40
  -1 -10   3    5.50    0.40
  -1 -10   3    5.60    0.40
   0  10  -3    1.70    0.20
   0  10  -3    1.10    0.20
   0  10  -3    1.20    0.30
   0 -10   3    1.40    0.20
   0 -10   3    1.20    0.20
   0 -10   3    1.10    0.20
  -1  10  -3   73.69    1.90
  -1  10  -3   73.79    2.40
  -1  10  -3   76.29    2.10
   1 -10   3   75.99    2.00
   1 -10   3   75.89    2.00
   1 -10   3   70.59    2.00
  -2  10  -3    7.80    0.50
  -2  10  -3    8.20    0.70
  -2  10  -3    7.60    0.40
   2 -10   3    7.20    0.50
   2 -10   3    8.00    0.40
   2 -10   3    7.30    0.30
   2 -10   3    7.60    0.50
  -3  10  -3   -0.10    0.20
  -3  10  -3    0.10    0.20
  -3  10  -3    0.40    0.10
   3 -10   3    0.40    0.20
   3 -10   3    0.30    0.10
   3 -10   3    0.30    0.20
   3 -10   3    0.40    0.20
  -4  10  -3    9.20    0.50
  -4  10  -3   10.80    0.70
   4 -10   3    9.50    0.40
   4 -10   3    9.80    0.60
   4 -10   3   10.70    0.60
   4 -10   3   10.10    0.60
  -5  10  -3    3.30    0.50
  -5  10  -3    3.10    0.40
   5 -10   3    3.10    0.30
   5 -10   3    3.50    0.40
  -6  -9   3    0.80    0.10
  -6  -9   3    0.70    0.10
  -6  -9   3    0.70    0.10
   5   9  -3    7.30    1.10
   5   9  -3    5.60    0.30
  -5  -9   3    5.50    0.30
  -5  -9   3    5.60    0.30
  -5  -9   3    5.90    0.30
   4   9  -3    5.60    0.30
   4   9  -3    5.30    0.50
  -4  -9   3    5.30    0.30
  -4  -9   3    5.90    0.30
  -4  -9   3    5.60    0.30
   3   9  -3   38.90    1.40
   3   9  -3   37.70    1.10
  -3  -9   3   39.60    1.10
  -3  -9   3   39.30    1.10
  -3  -9   3   40.20    1.10
   2   9  -3   44.20    1.50
   2   9  -3   42.60    1.30
   2   9  -3   45.80    1.30
   2   9  -3   46.50    1.20
  -2  -9   3   45.50    1.30
  -2  -9   3   44.60    1.30
  -2  -9   3   44.60    1.30
   1   9  -3    1.50    0.20
   1   9  -3    1.50    0.30
   1   9  -3    1.60    0.20
  -1  -9   3    1.50    0.20
  -1  -9   3    1.70    0.20
  -1  -9   3    1.70    0.20
  -1  -9   3    1.10    0.20
  -1  -9   3    1.30    0.10
   0   9  -3    1.50    0.20
   0   9  -3    1.00    0.30
   0   9  -3    1.30    0.20
   0  -9   3    1.10    0.20
   0  -9   3    1.10    0.20
   0  -9   3    1.50    0.20
   0  -9   3    1.60    0.20
   0  -9   3    1.10    0.20
  -1   9  -3   22.90    0.80
  -1   9  -3   22.30    1.00
  -1   9  -3   21.50    0.70
   1  -9   3   22.10    0.70
   1  -9   3   20.80    0.80
   1  -9   3   23.10    0.80
   1  -9   3   22.00    0.80
  -2   9  -3   17.60    0.90
  -2   9  -3   17.30    0.60
  -2   9  -3   17.00    0.70
   2  -9   3   17.80    0.70
   2  -9   3   18.10    0.70
   2  -9   3   17.30    0.50
   2  -9   3   16.20    0.70
  -3   9  -3    0.90    0.20
  -3   9  -3    1.10    0.10
  -3   9  -3    0.70    0.30
   3  -9   3    1.00    0.20
   3  -9   3    0.90    0.20
   3  -9   3    0.80    0.10
   3  -9   3    1.00    0.20
  -4   9  -3    8.00    0.60
  -4   9  -3    7.30    0.50
   4  -9   3    8.20    0.50
   4  -9   3    7.50    0.50
   4  -9   3    8.00    0.40
   4  -9   3    8.40    0.50
  -5   9  -3    3.10    0.30
  -5   9  -3    2.90    0.40
   5  -9   3    2.80    0.40
   5  -9   3    3.10    0.40
   5  -9   3    3.00    0.30
   5  -9   3    3.00    0.40
  -6  -8   3    0.20    0.10
  -6  -8   3    0.30    0.10
  -6  -8   3   -0.20    0.20
   5   8  -3    3.80    0.80
  -5  -8   3    3.10    0.20
  -5  -8   3    2.90    0.20
  -5  -8   3    3.80    0.40
  -5  -8   3    3.10    0.20
  -5  -8   3    2.90    0.20
   4   8  -3    1.70    0.20
   4   8  -3    1.40    0.30
   4   8  -3    1.10    0.50
  -4  -8   3    0.90    0.20
  -4  -8   3    1.40    0.10
  -4  -8   3    1.50    0.20
  -4  -8   3    1.50    0.20
  -4  -8   3    1.50    0.10
   3   8  -3   19.00    0.80
   3   8  -3   19.90    0.60
  -3  -8   3   18.90    0.60
  -3  -8   3   19.40    0.60
  -3  -8   3   18.10    0.60
   2   8  -3    1.60    0.20
   2   8  -3    1.80    0.20
   2   8  -3    1.70    0.30
  -2  -8   3    1.70    0.20
  -2  -8   3    1.80    0.20
  -2  -8   3    1.40    0.20
   1   8  -3    0.70    0.10
   1   8  -3    0.30    0.10
   1   8  -3    0.20    0.20
  -1  -8   3    0.60    0.10
  -1  -8   3    0.30    0.10
  -1  -8   3    0.50    0.10
  -1  -8   3    0.30    0.10
   0   8  -3   72.09    1.80
   0   8  -3   75.69    1.90
   0   8  -3   69.79    2.20
   0  -8   3   72.29    1.80
   0  -8   3   72.79    1.90
   0  -8   3   73.39    1.90
   0  -8   3   72.59    1.90
   0  -8   3   72.89    1.90
  -1   8  -3    0.00    0.20
  -1   8  -3    0.10    0.10
  -1   8  -3    0.10    0.10
   1  -8   3    0.10    0.10
   1  -8   3    0.20    0.10
   1  -8   3    0.20    0.10
   1  -8   3    0.40    0.10
   1  -8   3    0.30    0.10
  -2   8  -3   25.50    1.10
  -2   8  -3   25.90    0.80
  -2   8  -3   25.30    0.90
   2  -8   3   26.50    0.90
   2  -8   3   25.60    0.90
   2  -8   3   26.40    0.70
   2  -8   3   25.30    0.90
  -3   8  -3    8.90    0.60
  -3   8  -3    9.90    0.30
  -3   8  -3    9.20    0.50
   3  -8   3   10.10    0.40
   3  -8   3    9.70    0.50
   3  -8   3    8.90    0.50
   3  -8   3    9.30    0.50
  -4   8  -3    0.40    0.20
  -4   8  -3    0.80    0.20
  -4   8  -3    0.70    0.30
   4  -8   3    0.80    0.20
   4  -8   3    0.60    0.20
   4  -8   3    0.50    0.20
   4  -8   3    0.80    0.20
  -5   8  -3    2.80    0.30
  -5   8  -3    2.80    0.40
  -5   8  -3    4.20    0.50
   5  -8   3    3.60    0.40
   5  -8   3    3.20    0.40
   5  -8   3    3.20    0.30
   5  -8   3    3.60    0.40
  -6   8  -3    1.10    0.20
  -6   8  -3    1.00    0.30
   6  -8   3    1.20    0.30
   6  -8   3    0.80    0.20
   6  -8   3    1.10    0.20
   6  -8   3    0.70    0.20
  -7  -7   3    3.60    0.50
  -6  -7   3    0.10    0.20
  -6  -7   3    0.30    0.10
   5   7  -3    1.60    0.50
  -5  -7   3    1.10    0.10
  -5  -7   3    1.30    0.30
  -5  -7   3    1.10    0.10
   4   7  -3  107.29    2.70
   4   7  -3  108.69    3.60
  -4  -7   3  107.59    2.50
  -4  -7   3  108.29    2.50
  -4  -7   3  103.89    2.50
  -4  -7   3  106.99    2.80
  -4  -7   3  107.89    2.50
   3   7  -3   30.90    0.80
   3   7  -3   30.60    1.00
   3   7  -3   31.10    1.50
  -3  -7   3   29.90    0.80
  -3  -7   3   30.40    0.90
  -3  -7   3   30.60    1.00
  -3  -7   3   30.60    0.80
  -3  -7   3   29.60    0.80
   2   7  -3    0.40    0.10
   2   7  -3    0.50    0.10
   2   7  -3    0.70    0.20
  -2  -7   3    0.40    0.10
  -2  -7   3    0.50    0.10
  -2  -7   3    0.40    0.10
  -2  -7   3    0.40    0.10
   1   7  -3    4.40    0.20
   1   7  -3    4.60    0.30
   1   7  -3    4.50    0.40
  -1  -7   3    4.00    0.30
  -1  -7   3    4.50    0.20
  -1  -7   3    4.30    0.20
  -1  -7   3    4.30    0.30
  -1  -7   3    4.60    0.30
   0   7  -3   31.00    1.00
   0   7  -3   32.40    1.20
   0   7  -3   31.90    0.90
   0  -7   3   31.40    0.90
   0  -7   3   31.90    0.90
   0  -7   3   32.60    0.90
   0  -7   3   32.20    1.00
   0  -7   3   32.40    0.90
   0  -7   3   33.30    1.00
  -1   7  -3    2.00    0.20
  -1   7  -3    1.70    0.20
   1  -7   3    1.90    0.20
   1  -7   3    2.00    0.20
   1  -7   3    2.10    0.10
   1  -7   3    2.10    0.20
   1  -7   3    2.00    0.20
   1  -7   3    2.30    0.20
   1  -7   3    2.10    0.20
  -2   7  -3    6.00    0.50
  -2   7  -3    5.60    0.30
  -2   7  -3    6.60    0.40
  -2   7  -3    6.00    0.40
   2  -7   3    6.20    0.40
   2  -7   3    6.30    0.30
   2  -7   3    6.00    0.40
   2  -7   3    5.80    0.30
   2  -7   3    6.10    0.40
  -3   7  -3   13.20    0.40
  -3   7  -3   13.60    0.60
  -3   7  -3   14.30    0.60
  -3   7  -3   13.50    0.70
   3  -7   3   13.40    0.60
   3  -7   3   12.80    0.50
   3  -7   3   13.70    0.60
   3  -7   3   13.50    0.60
  -4   7  -3    0.40    0.10
  -4   7  -3    0.30    0.20
  -4   7  -3    0.10    0.20
   4  -7   3    0.10    0.10
   4  -7   3    0.10    0.10
   4  -7   3    0.00    0.10
   4  -7   3    0.30    0.20
  -5   7  -3    0.50    0.20
  -5   7  -3    0.30    0.10
  -5   7  -3   -0.10    0.10
   5  -7   3    0.30    0.10
   5  -7   3    0.00    0.20
   5  -7   3    0.00    0.10
   5  -7   3    0.20    0.20
  -6   7  -3    0.90    0.20
  -6   7  -3    0.90    0.30
   6  -7   3    1.10    0.30
   6  -7   3    1.00    0.20
   6  -7   3    0.90    0.30
   6  -7   3    0.70    0.20
  -7  -6   3    1.90    0.40
   6   6  -3   54.29    2.50
  -6  -6   3   53.59    1.70
   5   6  -3   -0.10    0.30
  -5  -6   3    0.20    0.20
   4   6  -3    0.00    0.30
   4   6  -3    0.10    0.10
  -4  -6   3    0.20    0.10
  -4  -6   3    0.00    0.10
  -4  -6   3    0.00    0.10
   3   6  -3   10.40    0.30
   3   6  -3   12.80    0.90
   3   6  -3   10.70    0.50
  -3  -6   3   11.00    0.30
  -3  -6   3   10.50    0.30
  -3  -6   3   10.60    0.30
  -3  -6   3   10.90    0.50
  -3  -6   3   11.00    0.40
   2   6  -3   23.80    0.70
   2   6  -3   22.90    0.70
   2   6  -3   23.10    0.80
  -2  -6   3   23.00    0.70
  -2  -6   3   24.60    0.70
  -2  -6   3   22.70    0.80
  -2  -6   3   25.20    1.20
  -2  -6   3   23.50    0.70
   1   6  -3   97.29    2.20
   1   6  -3   99.49    2.40
   1   6  -3   96.49    2.60
   1   6  -3   93.89    2.40
  -1  -6   3   99.99    2.30
  -1  -6   3   96.09    2.30
  -1  -6   3   93.29    2.90
  -1  -6   3   95.19    2.30
  -1  -6   3   98.99    2.30
  -1  -6   3   98.29    2.30
   0   6  -3   12.50    0.60
   0   6  -3   12.30    0.50
   0   6  -3   12.80    0.40
   0  -6   3   12.40    0.40
   0  -6   3   13.00    0.40
   0  -6   3   13.60    0.50
   0  -6   3   12.80    0.50
   0  -6   3   13.00    0.50
   0  -6   3   13.30    0.50
  -1   6  -3    0.00    0.10
  -1   6  -3    0.10    0.10
  -1   6  -3    0.10    0.10
  -1   6  -3    0.10    0.10
   1  -6   3    0.10    0.10
   1  -6   3    0.10    0.10
   1  -6   3    0.20    0.10
   1  -6   3    0.00    0.10
   1  -6   3   -0.10    0.10
   1  -6   3    0.00    0.10
  -2   6  -3   11.10    0.60
  -2   6  -3   10.30    0.40
  -2   6  -3    9.60    0.50
   2  -6   3    9.80    0.40
   2  -6   3    9.90    0.50
   2  -6   3   10.20    0.40
   2  -6   3    9.70    0.40
   2  -6   3    9.60    0.50
  -3   6  -3    2.50    0.30
  -3   6  -3    2.40    0.30
  -3   6  -3    2.40    0.30
  -3   6  -3    3.10    0.20
   3  -6   3    2.90    0.20
   3  -6   3    3.40    0.30
   3  -6   3    3.30    0.30
   3  -6   3    3.30    0.30
  -4   6  -3    1.40    0.20
  -4   6  -3    1.00    0.20
  -4   6  -3    1.30    0.30
   4  -6   3    1.00    0.20
   4  -6   3    1.10    0.20
   4  -6   3    0.70    0.20
   4  -6   3    1.10    0.20
  -5   6  -3    4.90    0.30
  -5   6  -3    4.70    0.40
  -5   6  -3    4.80    0.40
   5  -6   3    4.80    0.40
   5  -6   3    4.40    0.40
   5  -6   3    3.80    0.30
   5  -6   3    5.40    0.40
  -6   6  -3    2.80    0.30
  -6   6  -3    2.70    0.40
   6  -6   3    1.60    0.20
   6  -6   3    2.40    0.30
   6  -6   3    1.90    0.30
   6  -6   3    2.00    0.30
  -7  -5   3    0.00    0.20
   6   5  -3    1.00    0.40
  -6  -5   3    0.40    0.20
   5   5  -3    2.90    0.60
  -5  -5   3    2.90    0.30
   4   5  -3    5.60    0.30
   4   5  -3    7.00    0.70
  -4  -5   3    6.10    0.40
   3   5  -3   32.60    0.90
   3   5  -3   32.90    1.50
  -3  -5   3   32.90    0.80
  -3  -5   3   32.00    1.00
  -3  -5   3   31.30    0.80
   2   5  -3   40.80    1.00
   2   5  -3   39.60    1.60
   2   5  -3   40.20    1.00
   2   5  -3   39.90    1.20
  -2  -5   3   40.20    1.50
  -2  -5   3   39.80    1.00
  -2  -5   3   39.20    1.00
  -2  -5   3   37.80    1.10
  -2  -5   3   38.70    1.00
   1   5  -3   12.80    0.60
   1   5  -3   13.60    0.50
   1   5  -3   14.00    0.50
  -1  -5   3   13.60    0.50
  -1  -5   3   13.40    0.40
  -1  -5   3   13.70    0.40
  -1  -5   3   13.80    0.40
   0   5  -3    0.00    0.10
   0   5  -3   -0.10    0.10
   0   5  -3    0.00    0.10
   0  -5   3   -0.10    0.10
   0  -5   3    0.10    0.10
   0  -5   3    0.10    0.10
   0  -5   3    0.00    0.10
   0  -5   3   -0.10    0.10
  -1   5  -3   45.60    1.20
  -1   5  -3   45.40    1.40
  -1   5  -3   44.20    1.10
  -1   5  -3   45.20    1.20
   1  -5   3   48.20    1.20
   1  -5   3   46.60    1.20
   1  -5   3   46.10    1.20
   1  -5   3   45.20    1.10
   1  -5   3   45.00    1.20
  -2   5  -3   10.60    0.50
  -2   5  -3   12.80    0.50
  -2   5  -3   11.70    0.40
  -2   5  -3   14.10    0.60
   2  -5   3   11.00    0.50
   2  -5   3   12.00    0.50
   2  -5   3   11.70    0.40
   2  -5   3   11.30    0.50
   2  -5   3   11.40    0.50
  -3   5  -3   36.60    1.10
  -3   5  -3   36.00    0.90
  -3   5  -3   35.80    1.10
  -3   5  -3   34.90    1.00
  -3   5  -3   36.40    0.90
  -3   5  -3   36.80    1.20
   3  -5   3   37.30    1.10
   3  -5   3   36.70    1.10
   3  -5   3   36.20    1.00
  -4   5  -3    2.10    0.30
  -4   5  -3    2.10    0.20
  -4   5  -3    2.60    0.30
  -4   5  -3    2.60    0.30
   4  -5   3    1.90    0.20
   4  -5   3    2.50    0.30
   4  -5   3    2.30    0.30
   4  -5   3    1.70    0.20
  -5   5  -3    4.80    0.30
  -5   5  -3    4.90    0.50
  -5   5  -3    5.30    0.40
   5  -5   3    5.00    0.30
   5  -5   3    3.60    0.40
   5  -5   3    4.60    0.30
   5  -5   3    4.10    0.40
  -6   5  -3    3.10    0.40
   6  -5   3    3.00    0.30
   6  -5   3    2.80    0.40
   6  -5   3    3.10    0.30
   6  -5   3    2.90    0.40
  -7   5  -3    0.60    0.30
   7  -5   3    0.70    0.20
   7  -5   3    0.70    0.20
   7  -5   3    0.90    0.20
   7  -5   3    0.60    0.20
  -7  -4   3    0.20    0.20
   6   4  -3    1.40    0.50
  -6  -4   3    1.00    0.20
   5   4  -3   14.10    1.10
  -5  -4   3   13.90    0.60
   4   4  -3    0.10    0.20
  -4  -4   3    0.10    0.10
   3   4  -3  122.99    3.60
   3   4  -3  127.19    2.90
  -3  -4   3  123.79    3.10
   2   4  -3   68.09    1.70
   2   4  -3   69.99    2.20
  -2  -4   3   66.19    1.60
  -2  -4   3   66.69    1.70
  -2  -4   3   67.19    1.50
  -2  -4   3   66.49    1.60
  -2  -4   3   68.89    2.20
   1   4  -3    0.30    0.10
   1   4  -3    0.50    0.10
   1   4  -3    0.40    0.10
  -1  -4   3    0.30    0.10
  -1  -4   3    0.30    0.10
  -1  -4   3    0.20    0.10
  -1  -4   3    0.40    0.20
  -1  -4   3    0.30    0.10
  -1  -4   3    0.20    0.10
   0   4  -3  122.19    3.00
   0   4  -3  119.79    2.80
   0   4  -3  121.79    2.80
   0  -4   3  120.39    2.80
   0  -4   3  119.49    2.80
   0  -4   3  123.09    2.80
   0  -4   3  117.39    2.80
   0  -4   3  124.69    2.90
  -1   4  -3   11.40    0.40
  -1   4  -3   10.80    0.40
  -1   4  -3   10.70    0.40
  -1   4  -3   11.40    0.50
   1  -4   3   11.00    0.30
   1  -4   3   11.40    0.40
   1  -4   3   11.60    0.40
   1  -4   3   11.40    0.40
  -2   4  -3  112.59    2.90
  -2   4  -3  114.39    2.80
  -2   4  -3  115.49    2.80
  -2   4  -3  111.39    2.60
   2  -4   3  115.09    2.70
   2  -4   3  111.19    2.80
   2  -4   3  115.29    2.70
   2  -4   3  114.39    2.80
   2  -4   3  114.89    2.70
  -3   4  -3   20.70    0.70
  -3   4  -3   20.50    0.50
  -3   4  -3   21.20    0.80
  -3   4  -3   19.60    0.70
  -3   4  -3   20.50    0.70
  -3   4  -3   20.10    0.70
   3  -4   3   20.00    0.60
   3  -4   3   19.70    0.70
   3  -4   3   20.80    0.70
  -4   4  -3    0.30    0.10
  -4   4  -3    0.00    0.10
  -4   4  -3    0.20    0.10
  -4   4  -3    0.10    0.10
  -4   4  -3    0.40    0.10
  -4   4  -3    0.20    0.10
   4  -4   3    0.30    0.10
   4  -4   3    0.30    0.10
   4  -4   3    0.20    0.10
   4  -4   3   -0.10    0.10
  -5   4  -3   46.90    1.40
  -5   4  -3   45.90    1.20
  -5   4  -3   45.40    1.30
   5  -4   3   45.00    1.30
   5  -4   3   43.00    1.40
   5  -4   3   45.30    1.40
   5  -4   3   44.10    1.20
  -6   4  -3    9.30    0.60
   6  -4   3   10.00    0.50
   6  -4   3    9.60    0.40
   6  -4   3    8.80    0.50
   6  -4   3    9.60    0.50
  -7   4  -3    1.90    0.30
   7  -4   3    1.70    0.20
   7  -4   3    1.70    0.30
   7  -4   3    2.20    0.30
   7  -4   3    1.80    0.30
  -7  -3   3   13.50    0.70
   6   3  -3    0.70    0.40
  -6  -3   3    0.30    0.20
   5   3  -3    1.90    0.50
  -5  -3   3    2.20    0.30
   4   3  -3    3.70    0.60
   3   3  -3  217.98    5.70
  -3  -3   3  220.18    5.10
   2   3  -3  234.48    5.30
  -2  -3   3  235.38    5.90
  -2  -3   3  233.58    5.40
   1   3  -3    0.50    0.10
   1   3  -3    0.50    0.10
   1   3  -3    0.60    0.10
  -1  -3   3    0.40    0.10
  -1  -3   3    0.40    0.10
  -1  -3   3    0.30    0.10
  -1  -3   3    0.50    0.10
  -1  -3   3    0.30    0.10
  -1  -3   3    0.60    0.20
  -1  -3   3    0.40    0.10
   0   3  -3    8.00    0.30
   0   3  -3    7.60    0.40
   0   3  -3    8.70    0.20
   0  -3   3    8.70    0.30
   0  -3   3    8.40    0.30
   0  -3   3    9.00    0.30
   0  -3   3    7.30    0.30
   0  -3   3    7.90    0.30
  -1   3  -3  160.08    3.70
  -1   3  -3  156.58    3.60
  -1   3  -3  159.38    3.70
  -1   3  -3  157.48    3.80
   1  -3   3  151.28    3.70
   1  -3   3  159.68    3.70
   1  -3   3  162.68    3.70
   1  -3   3  156.18    3.60
   1  -3   3  156.88    3.70
  -2   3  -3  120.29    2.80
  -2   3  -3  120.29    2.80
  -2   3  -3  119.09    2.70
  -2   3  -3  118.79    2.80
  -2   3  -3  120.59    2.90
   2  -3   3  117.79    2.80
   2  -3   3  122.19    3.00
   2  -3   3  112.29    2.80
   2  -3   3  115.39    2.80
   2  -3   3  116.69    2.70
  -3   3  -3    6.60    0.30
  -3   3  -3    5.90    0.30
  -3   3  -3    6.30    0.30
  -3   3  -3    6.40    0.20
  -3   3  -3    6.30    0.40
  -3   3  -3    6.60    0.30
   3  -3   3    7.00    0.30
   3  -3   3    6.20    0.30
   3  -3   3    7.20    0.30
   3  -3   3    6.70    0.30
  -4   3  -3    0.20    0.10
  -4   3  -3    0.20    0.10
  -4   3  -3    0.10    0.10
  -4   3  -3    0.10    0.10
  -4   3  -3    0.10    0.10
  -4   3  -3    0.00    0.10
   4  -3   3    0.00    0.10
   4  -3   3    0.10    0.10
   4  -3   3    0.10    0.10
   4  -3   3    0.00    0.10
  -5   3  -3   25.30    0.80
  -5   3  -3   24.10    0.70
  -5   3  -3   25.50    0.90
  -5   3  -3   24.10    0.70
  -5   3  -3   25.20    0.90
   5  -3   3   24.90    0.90
   5  -3   3   25.10    0.90
   5  -3   3   24.00    0.80
   5  -3   3   24.30    0.70
  -6   3  -3    9.40    0.50
  -6   3  -3   10.00    0.50
   6  -3   3    9.20    0.50
   6  -3   3    9.10    0.50
   6  -3   3   10.10    0.40
   6  -3   3    9.50    0.50
  -7   3  -3    0.10    0.20
   7  -3   3    0.00    0.10
   7  -3   3    0.00    0.10
   7  -3   3    0.10    0.10
  -7  -2   3    0.30    0.20
   6   2  -3    5.00    0.80
  -6  -2   3    4.00    0.40
   5   2  -3   57.49    2.30
  -5  -2   3   59.09    1.70
   4   2  -3    0.00    0.10
  -4  -2   3    0.00    0.10
   3   2  -3    1.50    0.30
  -3  -2   3    1.30    0.20
   2   2  -3  476.75   11.70
  -2  -2   3  497.45   11.30
  -2  -2   3  522.85   11.80
   1   2  -3   61.29    1.50
   1   2  -3   62.69    1.40
  -1  -2   3   60.59    1.50
  -1  -2   3   62.89    1.40
  -1  -2   3   60.19    1.80
  -1  -2   3   59.59    1.40
   0   2  -3  153.28    3.50
   0   2  -3  152.88    3.40
   0   2  -3  155.08    3.60
   0  -2   3  149.49    3.50
   0  -2   3  162.68    3.60
   0  -2   3  146.39    3.50
   0  -2   3  152.48    3.50
   0  -2   3  150.98    3.50
   0  -2   3  155.28    3.50
  -1   2  -3   21.50    0.60
  -1   2  -3   22.00    0.60
  -1   2  -3   21.50    0.60
   1  -2   3   21.50    0.60
   1  -2   3   22.20    0.60
   1  -2   3   21.00    0.60
   1  -2   3   21.40    0.60
   1  -2   3   21.10    0.60
  -2   2  -3    1.40    0.10
  -2   2  -3    1.30    0.20
  -2   2  -3    1.50    0.20
  -2   2  -3    1.50    0.20
  -2   2  -3    1.70    0.20
   2  -2   3    1.70    0.10
   2  -2   3    1.70    0.20
   2  -2   3    1.40    0.10
  -3   2  -3    3.00    0.10
  -3   2  -3    3.00    0.20
  -3   2  -3    3.10    0.20
  -3   2  -3    3.20    0.20
  -3   2  -3    3.20    0.20
  -3   2  -3    3.20    0.20
   3  -2   3    2.20    0.20
   3  -2   3    3.10    0.20
   3  -2   3    3.20    0.20
   3  -2   3    3.30    0.20
  -4   2  -3    4.10    0.20
  -4   2  -3    4.20    0.20
  -4   2  -3    3.90    0.30
  -4   2  -3    4.10    0.30
  -4   2  -3    4.30    0.30
   4  -2   3    4.10    0.30
   4  -2   3    4.20    0.30
   4  -2   3    4.00    0.20
   4  -2   3    4.10    0.30
  -5   2  -3   61.89    1.60
  -5   2  -3   56.99    1.60
  -5   2  -3   56.69    1.50
  -5   2  -3   56.19    1.50
  -5   2  -3   55.79    1.40
   5  -2   3   59.59    1.60
   5  -2   3   55.79    1.40
   5  -2   3   55.99    1.60
   5  -2   3   54.69    1.50
  -6   2  -3    0.20    0.10
  -6   2  -3    0.20    0.10
  -6   2  -3    0.30    0.10
  -6   2  -3    0.10    0.10
   6  -2   3    0.10    0.10
   6  -2   3    0.20    0.10
   6  -2   3    0.10    0.10
   6  -2   3    0.20    0.10
  -7   2  -3    2.90    0.30
  -7   2  -3    2.60    0.30
   7  -2   3    3.20    0.30
   7  -2   3    3.20    0.30
  -8  -1   3    2.30    0.20
  -7  -1   3    0.70    0.20
  -7  -1   3    1.00    0.10
  -7  -1   3    1.20    0.20
   6   1  -3    8.30    0.90
  -6  -1   3    8.70    0.50
   5   1  -3    7.70    0.80
  -5  -1   3    7.40    0.40
   3   1  -3  128.99    3.60
   2   1  -3    8.90    0.60
  -2  -1   3    9.20    0.30
   1   1  -3    2.50    0.30
  -1  -1   3    1.80    0.10
  -1  -1   3    2.50    0.30
  -1  -1   3    1.80    0.10
  -1  -1   3    2.00    0.10
   0   1  -3 3151.58   69.89
   0   1  -3 3162.78   75.89
   0  -1   3 3073.89   75.59
   0  -1   3 2991.00   75.89
   0  -1   3 3119.69   76.49
   0  -1   3 3166.18   74.09
  -1   1  -3   30.40    0.80
  -1   1  -3   31.00    0.80
  -1   1  -3   32.20    0.80
  -1   1  -3   32.20    0.80
  -1   1  -3   31.00    0.80
  -1   1  -3   30.60    0.90
   1  -1   3   30.40    0.80
   1  -1   3   31.20    0.80
   1  -1   3   31.10    0.80
   1  -1   3   31.60    0.80
  -2   1  -3    1.70    0.20
  -2   1  -3    1.30    0.10
  -2   1  -3    1.10    0.10
  -2   1  -3    1.30    0.10
  -2   1  -3    1.40    0.10
  -2   1  -3    1.10    0.10
   2  -1   3    1.10    0.10
   2  -1   3    1.20    0.10
   2  -1   3    1.60    0.20
  -3   1  -3   87.89    2.10
  -3   1  -3   86.49    2.10
  -3   1  -3   88.59    2.10
  -3   1  -3   88.89    2.20
  -3   1  -3   90.49    2.20
  -3   1  -3   88.69    2.10
   3  -1   3   87.79    2.20
   3  -1   3   88.49    2.10
   3  -1   3   89.09    2.20
   3  -1   3   88.19    2.00
  -4   1  -3    0.30    0.10
  -4   1  -3    0.30    0.10
  -4   1  -3    0.30    0.10
  -4   1  -3    0.40    0.10
  -4   1  -3    0.20    0.10
  -4   1  -3    0.20    0.10
   4  -1   3    0.30    0.10
   4  -1   3    0.30    0.10
   4  -1   3    0.30    0.10
   4  -1   3    0.10    0.10
  -5   1  -3    4.10    0.30
  -5   1  -3    4.00    0.30
  -5   1  -3    4.60    0.30
  -5   1  -3    3.90    0.30
   5  -1   3    4.20    0.30
   5  -1   3    4.20    0.20
   5  -1   3    4.50    0.30
   5  -1   3    4.10    0.30
  -6   1  -3    1.20    0.20
  -6   1  -3    1.00    0.20
  -6   1  -3    1.10    0.20
  -6   1  -3    1.10    0.20
   6  -1   3    1.00    0.20
   6  -1   3    1.30    0.20
   6  -1   3    0.90    0.20
  -7   1  -3   13.70    0.70
  -7   1  -3   13.20    0.60
  -7   1  -3   12.10    0.60
   7  -1   3   12.70    0.60
   7  -1   3   13.50    0.60
  -8   1  -3    3.50    0.40
  -8   0   3    9.70    0.40
  -7   0   3   17.70    0.50
  -7   0   3   16.10    0.50
  -7   0   3   16.40    0.60
  -7   0   3   17.20    0.50
  -7   0   3   17.30    0.80
  -6   0   3   17.80    0.80
  -6   0   3   18.60    0.50
  -6   0   3   18.90    0.60
   5   0  -3   19.50    0.50
   5   0  -3   19.10    0.60
  -5   0   3   18.80    0.70
   4   0  -3    5.20    0.20
  -4   0   3    4.90    0.30
   3   0  -3   41.40    1.60
  -3   0   3   43.10    1.20
   1   0  -3    1.80    0.20
  -1   0   3    1.90    0.10
  -1   0   3    1.70    0.20
  -1   0   3    1.80    0.10
   0   0  -3    4.00    0.20
   0   0   3    4.30    0.20
   0   0   3    3.80    0.20
   0   0   3    4.10    0.20
   0   0   3    3.90    0.10
  -1   0  -3 1701.83   37.70
  -1   0  -3 1724.33   37.70
  -1   0  -3 1672.03   37.80
  -1   0  -3 1621.34   37.80
  -1   0  -3 1649.44   37.40
  -1   0  -3 1685.83   37.70
   1   0   3 1679.13   37.70
   1   0   3 1736.83   37.80
   1   0   3 1583.14   37.40
  -2   0  -3  136.79    3.20
  -2   0  -3  133.29    3.10
  -2   0  -3  136.89    3.10
  -2   0  -3  137.69    3.20
   2   0   3  135.19    3.10
   2   0   3  138.59    3.20
   2   0   3  136.99    3.20
   2   0   3  132.59    3.10
  -3   0  -3   12.00    0.40
  -3   0  -3   11.70    0.40
  -3   0  -3   12.00    0.40
  -3   0  -3   11.30    0.40
  -3   0  -3   11.50    0.40
   3   0   3   12.40    0.30
   3   0   3   11.10    0.40
   3   0   3   11.10    0.40
   3   0   3   12.20    0.40
  -4   0  -3    0.10    0.10
  -4   0  -3    0.00    0.10
  -4   0  -3   -0.10    0.10
  -4   0  -3    0.00    0.10
  -4   0  -3    0.10    0.10
  -4   0  -3    0.00    0.10
   4   0   3    0.00    0.10
   4   0   3    0.00    0.10
   4   0   3    0.00    0.10
   4   0   3    0.00    0.10
  -5   0  -3   64.99    1.70
  -5   0  -3   59.49    1.70
  -5   0  -3   64.49    1.60
  -5   0  -3   62.09    1.60
   5   0   3   62.89    1.70
   5   0   3   63.39    1.60
   5   0   3   64.69    1.60
  -6   0  -3    5.20    0.30
  -6   0  -3    5.60    0.40
  -6   0  -3    5.30    0.30
  -6   0  -3    4.50    0.30
   6   0   3    5.00    0.30
   6   0   3    5.00    0.30
  -7   0  -3    4.60    0.40
  -7   0  -3    4.30    0.30
  -7   0  -3    4.10    0.30
  -7   0  -3    5.20    0.40
   7   0   3    4.40    0.30
   7   0   3    3.90    0.30
  -8   0  -3    1.70    0.30
  -8   0  -3    1.90    0.30
   8   0   3    1.90    0.30
   8   0   3    2.00    0.30
  -7   1   3    0.50    0.10
  -7   1   3    0.60    0.10
  -7   1   3    0.40    0.20
  -7   1   3    0.90    0.20
   6  -1  -3   42.10    1.10
  -6   1   3   42.80    1.20
  -6   1   3   42.20    1.30
  -6   1   3   42.10    1.10
  -6   1   3   41.60    1.10
  -6   1   3   40.30    1.00
   5  -1  -3   62.99    1.60
  -5   1   3   65.19    1.50
  -5   1   3   60.69    1.60
  -5   1   3   62.99    1.70
   4  -1  -3   11.70    0.40
  -4   1   3   10.90    0.30
  -4   1   3   11.40    0.30
  -4   1   3   10.70    0.50
   3  -1  -3   16.50    0.50
  -3   1   3   16.50    0.40
  -3   1   3   16.00    0.50
  -3   1   3   16.70    0.40
   2  -1  -3   72.29    2.10
  -2   1   3   71.99    1.60
   1  -1  -3   22.20    0.80
  -1   1   3   22.20    0.50
  -1   1   3   21.90    0.80
  -1   1   3   22.70    0.50
  -1   1   3   21.50    0.50
  -1   1   3   22.10    0.50
   0  -1  -3    6.50    0.20
   0   1   3    6.60    0.20
   0   1   3    6.50    0.20
   0   1   3    6.60    0.20
   0   1   3    6.60    0.20
   0   1   3    6.70    0.20
  -1  -1  -3   42.90    1.00
  -1  -1  -3   43.90    1.10
  -1  -1  -3   41.20    1.00
  -1  -1  -3   43.70    1.10
  -1  -1  -3   43.10    1.00
   1   1   3   44.80    1.00
   1   1   3   42.10    1.00
   1   1   3   43.60    1.00
  -2  -1  -3  122.29    2.90
  -2  -1  -3  123.99    2.90
  -2  -1  -3  127.49    2.90
  -2  -1  -3  127.79    2.90
   2   1   3  127.59    2.90
   2   1   3  128.79    2.90
   2   1   3  132.69    3.00
   2   1   3  130.19    3.00
  -3  -1  -3    5.40    0.20
  -3  -1  -3    5.50    0.20
  -3  -1  -3    5.10    0.20
  -3  -1  -3    5.60    0.20
   3   1   3    5.30    0.20
   3   1   3    5.00    0.20
   3   1   3    5.50    0.20
  -4  -1  -3    0.20    0.10
  -4  -1  -3    0.20    0.10
  -4  -1  -3    0.30    0.10
  -4  -1  -3    0.20    0.10
  -4  -1  -3    0.20    0.10
   4   1   3    0.30    0.10
   4   1   3    0.30    0.10
   4   1   3    0.30    0.10
  -5  -1  -3    0.00    0.10
  -5  -1  -3    0.10    0.10
  -5  -1  -3    0.20    0.10
  -5  -1  -3    0.10    0.10
  -5  -1  -3    0.10    0.10
   5   1   3    0.20    0.10
   5   1   3    0.20    0.10
   5   1   3    0.10    0.10
  -6  -1  -3    5.80    0.30
  -6  -1  -3    6.30    0.40
  -6  -1  -3    6.00    0.30
  -6  -1  -3    6.60    0.40
   6   1   3    6.30    0.30
   6   1   3    5.70    0.30
  -7  -1  -3    1.50    0.20
  -7  -1  -3    1.80    0.20
  -7  -1  -3    2.10    0.30
  -7  -1  -3    1.20    0.20
   7   1   3    1.60    0.20
   7   1   3    1.80    0.20
  -8  -1  -3    0.50    0.20
  -8  -1  -3    0.10    0.10
  -8  -1  -3    0.30    0.20
   8   1   3    0.50    0.20
   8   1   3    0.40    0.10
   7  -2  -3    0.00    0.10
  -7   2   3   -0.10    0.10
  -7   2   3   -0.30    0.10
  -7   2   3    0.10    0.10
  -7   2   3    0.10    0.10
   6  -2  -3    2.60    0.20
  -6   2   3    2.40    0.20
  -6   2   3    2.70    0.30
  -6   2   3    2.40    0.20
  -6   2   3    2.70    0.30
   5  -2  -3    2.50    0.20
  -5   2   3    3.20    0.30
  -5   2   3    1.90    0.20
  -5   2   3    2.30    0.20
  -5   2   3    3.00    0.20
  -5   2   3    2.30    0.20
   4  -2  -3  126.39    2.90
   4  -2  -3  126.49    2.90
   4  -2  -3  122.49    2.90
  -4   2   3  120.09    2.80
  -4   2   3  119.79    2.90
  -4   2   3  122.59    3.00
  -4   2   3  118.19    2.80
   3  -2  -3    4.50    0.30
   3  -2  -3    4.30    0.20
  -3   2   3    4.10    0.20
  -3   2   3    4.50    0.20
  -3   2   3    4.20    0.20
  -3   2   3    4.10    0.20
   2  -2  -3    4.70    0.20
   2  -2  -3    4.40    0.20
  -2   2   3    4.60    0.20
  -2   2   3    4.30    0.20
  -2   2   3    4.40    0.20
   1  -2  -3    2.00    0.20
   1  -2  -3    1.90    0.10
   1  -2  -3    2.20    0.10
  -1   2   3    1.80    0.10
  -1   2   3    2.00    0.10
  -1   2   3    2.10    0.10
  -1   2   3    1.90    0.10
   0  -2  -3  234.48    5.20
   0  -2  -3  231.98    5.20
   0   2   3  229.78    5.10
   0   2   3  221.18    5.20
   0   2   3  229.88    5.20
   0   2   3  229.38    5.20
   0   2   3  224.18    5.20
  -1  -2  -3  124.19    2.70
  -1  -2  -3  123.19    2.80
  -1  -2  -3  121.29    2.80
  -1  -2  -3  115.39    2.80
  -1  -2  -3  121.99    2.80
   1   2   3  125.09    2.80
   1   2   3  121.39    2.80
   1   2   3  123.69    2.80
  -2  -2  -3   12.10    0.40
  -2  -2  -3   11.90    0.40
  -2  -2  -3   12.00    0.40
  -2  -2  -3   11.80    0.40
   2   2   3   12.30    0.40
   2   2   3   11.70    0.40
   2   2   3   11.90    0.40
  -3  -2  -3    1.80    0.10
  -3  -2  -3    1.90    0.10
  -3  -2  -3    2.00    0.10
  -3  -2  -3    2.20    0.10
  -3  -2  -3    1.90    0.10
   3   2   3    2.00    0.20
   3   2   3    1.70    0.10
   3   2   3    2.10    0.10
  -4  -2  -3   84.19    2.00
  -4  -2  -3   83.49    2.10
  -4  -2  -3   86.39    2.10
  -4  -2  -3   82.09    2.00
  -4  -2  -3   83.59    2.10
   4   2   3   88.79    2.10
   4   2   3   85.29    2.00
   4   2   3   86.79    2.10
  -5  -2  -3    2.60    0.30
  -5  -2  -3    2.40    0.20
  -5  -2  -3    2.40    0.20
  -5  -2  -3    2.90    0.20
  -5  -2  -3    2.30    0.20
   5   2   3    3.00    0.20
   5   2   3    2.50    0.20
   5   2   3    2.20    0.20
  -6  -2  -3    0.20    0.10
  -6  -2  -3    0.50    0.20
  -6  -2  -3    0.40    0.10
  -6  -2  -3    0.20    0.10
   6   2   3    0.30    0.10
   6   2   3    0.20    0.10
  -7  -2  -3    6.50    0.30
  -7  -2  -3    6.00    0.40
  -7  -2  -3    6.30    0.40
  -7  -2  -3    6.60    0.40
   7   2   3    5.80    0.30
   7   2   3    6.10    0.40
  -8  -2  -3    0.80    0.20
  -8  -2  -3    0.70    0.20
  -8  -2  -3    0.90    0.20
   8   2   3    1.00    0.20
   8   2   3    0.70    0.20
   7  -3  -3   15.00    0.60
  -7   3   3   14.60    0.60
  -7   3   3   14.80    0.70
  -7   3   3   15.60    0.70
  -7   3   3   15.70    0.60
   6  -3  -3   53.29    1.50
  -6   3   3   53.59    1.40
  -6   3   3   51.79    1.50
  -6   3   3   52.29    1.40
  -6   3   3   53.79    1.60
   5  -3  -3    1.90    0.20
  -5   3   3    2.10    0.20
  -5   3   3    2.00    0.30
  -5   3   3    1.70    0.20
  -5   3   3    2.00    0.20
   4  -3  -3   30.30    0.90
   4  -3  -3   31.20    0.90
  -4   3   3   31.20    0.80
  -4   3   3   29.50    0.80
  -4   3   3   30.10    0.80
   3  -3  -3   10.80    0.40
   3  -3  -3   10.50    0.40
  -3   3   3    8.30    0.30
   2  -3  -3   45.70    1.10
   2  -3  -3   45.10    1.10
  -2   3   3   42.80    1.10
  -2   3   3   43.40    1.10
  -2   3   3   46.30    1.10
   1  -3  -3    0.00    0.10
   1  -3  -3    0.10    0.10
   1  -3  -3    0.00    0.10
  -1   3   3    0.10    0.10
  -1   3   3    0.10    0.10
  -1   3   3    0.10    0.10
  -1   3   3    0.10    0.10
   0  -3  -3   71.69    1.70
   0   3   3   72.39    1.70
   0   3   3   72.29    1.70
   0   3   3   72.19    1.60
   0   3   3   72.29    1.80
   0   3   3   71.89    1.70
   0   3   3   70.49    1.70
  -1  -3  -3  251.37    5.80
  -1  -3  -3  253.27    5.70
  -1  -3  -3  258.17    5.80
  -1  -3  -3  250.57    5.80
  -1  -3  -3  257.97    5.80
  -1  -3  -3  257.37    5.80
   1   3   3  256.77    5.90
   1   3   3  258.87    5.70
   1   3   3  263.27    5.80
  -2  -3  -3    4.30    0.20
  -2  -3  -3    4.30    0.20
  -2  -3  -3    4.40    0.20
  -2  -3  -3    3.80    0.20
   2   3   3    5.00    0.20
   2   3   3    4.60    0.20
   2   3   3    4.50    0.20
  -3  -3  -3   28.90    0.70
  -3  -3  -3   28.10    0.80
  -3  -3  -3   29.10    0.80
  -3  -3  -3   29.60    0.80
  -3  -3  -3   28.30    0.80
   3   3   3   30.60    0.80
   3   3   3   29.00    0.70
   3   3   3   28.50    0.80
  -4  -3  -3    2.10    0.20
  -4  -3  -3    2.30    0.20
  -4  -3  -3    2.20    0.10
   4   3   3    2.30    0.20
   4   3   3    2.40    0.20
   4   3   3    1.90    0.10
  -5  -3  -3    1.40    0.20
  -5  -3  -3    1.10    0.10
  -5  -3  -3    1.10    0.10
  -5  -3  -3    1.00    0.10
   5   3   3    1.30    0.20
   5   3   3    1.30    0.10
   5   3   3    1.30    0.10
  -6  -3  -3   24.30    0.70
  -6  -3  -3   23.70    0.70
  -6  -3  -3   23.90    0.80
  -6  -3  -3   24.60    0.90
   6   3   3   24.40    0.70
   6   3   3   23.30    0.80
  -7  -3  -3    5.20    0.30
  -7  -3  -3    5.50    0.30
  -7  -3  -3    5.00    0.30
   7   3   3    5.20    0.30
   7   3   3    5.50    0.30
  -8  -3  -3    0.50    0.10
  -8  -3  -3    0.30    0.10
  -8  -3  -3    0.30    0.10
   8   3   3    0.70    0.20
   8   3   3    0.50    0.10
   7  -4  -3    0.10    0.10
  -7   4   3    0.00    0.10
  -7   4   3    0.10    0.10
  -7   4   3    0.20    0.20
  -7   4   3   -0.20    0.10
   6  -4  -3   29.40    1.00
  -6   4   3   30.00    0.90
  -6   4   3   29.40    1.00
  -6   4   3   28.50    1.00
  -6   4   3   29.80    1.00
   5  -4  -3    6.10    0.40
   5  -4  -3    6.50    0.40
  -5   4   3    6.30    0.30
  -5   4   3    6.30    0.40
  -5   4   3    6.50    0.30
  -5   4   3    6.10    0.40
   4  -4  -3   10.00    0.40
   4  -4  -3   10.10    0.40
  -4   4   3    9.30    0.40
  -4   4   3    9.00    0.40
  -4   4   3    9.40    0.40
  -4   4   3    9.80    0.40
   3  -4  -3    7.00    0.30
   3  -4  -3    6.70    0.30
  -3   4   3    6.50    0.30
  -3   4   3    6.50    0.30
  -3   4   3    7.10    0.30
   2  -4  -3   22.00    0.70
   2  -4  -3   21.10    0.70
   2  -4  -3   21.30    0.70
   2  -4  -3   22.00    0.50
  -2   4   3   22.20    0.70
  -2   4   3   21.90    0.70
  -2   4   3   21.40    0.60
  -2   4   3   21.40    0.60
  -2   4   3   22.00    0.60
   1  -4  -3  678.83   15.20
   1  -4  -3  680.83   15.10
   1  -4  -3  683.43   15.10
  -1   4   3  660.83   15.00
  -1   4   3  652.73   15.20
  -1   4   3  677.03   15.20
  -1   4   3  681.43   15.10
  -1   4   3  651.63   15.20
   0  -4  -3    7.80    0.30
   0  -4  -3    7.50    0.30
   0   4   3    7.90    0.20
   0   4   3    7.50    0.30
   0   4   3    7.40    0.30
   0   4   3    8.00    0.30
  -1  -4  -3   50.99    1.30
  -1  -4  -3   48.60    1.20
  -1  -4  -3   49.90    1.20
  -1  -4  -3   49.50    1.10
  -1  -4  -3   50.09    1.20
   1   4   3   50.79    1.30
   1   4   3   51.39    1.20
   1   4   3   49.90    1.20
  -2  -4  -3  939.61   21.40
  -2  -4  -3  944.01   21.30
  -2  -4  -3  930.51   21.50
  -2  -4  -3  936.61   21.50
   2   4   3  929.71   21.50
   2   4   3  997.60   21.50
   2   4   3  953.00   21.50
  -3  -4  -3    7.00    0.20
  -3  -4  -3    6.60    0.30
  -3  -4  -3    6.80    0.30
  -3  -4  -3    6.60    0.30
   3   4   3    6.80    0.30
   3   4   3    7.00    0.20
   3   4   3    7.20    0.30
  -4  -4  -3    0.20    0.10
  -4  -4  -3    0.30    0.10
  -4  -4  -3    0.20    0.10
   4   4   3    0.20    0.10
   4   4   3    0.30    0.10
   4   4   3    0.50    0.10
  -5  -4  -3   79.59    2.00
  -5  -4  -3   79.29    2.00
  -5  -4  -3   82.29    2.00
  -5  -4  -3   80.49    2.00
  -5  -4  -3   82.09    2.00
   5   4   3   85.99    2.00
   5   4   3   84.09    2.00
  -6  -4  -3  126.79    3.10
  -6  -4  -3  126.59    3.10
  -6  -4  -3  125.59    3.00
   6   4   3  132.49    3.00
   6   4   3  128.89    3.10
  -7  -4  -3    0.40    0.10
  -7  -4  -3    0.30    0.10
  -7  -4  -3    0.40    0.10
  -7  -4  -3    0.50    0.10
   7   4   3    0.30    0.10
   7   4   3    0.30    0.10
  -8  -4  -3    1.80    0.20
  -8  -4  -3    1.70    0.20
  -8  -4  -3    2.00    0.20
  -8  -4  -3    1.80    0.20
   8   4   3    2.00    0.30
   8   4   3    2.20    0.20
   7  -5  -3    2.50    0.30
  -7   5   3    2.30    0.30
  -7   5   3    2.70    0.30
  -7   5   3    2.10    0.30
   6  -5  -3   40.80    1.30
  -6   5   3   40.60    1.20
  -6   5   3   41.40    1.30
  -6   5   3   41.00    1.30
  -6   5   3   38.80    1.30
   5  -5  -3  105.89    2.60
   5  -5  -3  101.39    2.60
  -5   5   3   98.39    2.70
  -5   5   3  104.19    2.60
  -5   5   3  101.49    2.60
  -5   5   3  101.29    2.60
   4  -5  -3    2.60    0.30
   4  -5  -3    2.30    0.20
   4  -5  -3    2.30    0.10
  -4   5   3    2.50    0.20
  -4   5   3    2.30    0.20
  -4   5   3    2.10    0.30
   3  -5  -3   90.19    2.20
   3  -5  -3   87.99    2.20
   3  -5  -3   89.69    2.10
  -3   5   3   86.59    2.10
  -3   5   3   86.59    2.30
  -3   5   3   89.59    2.20
  -3   5   3   86.39    2.20
  -3   5   3   88.29    2.20
   2  -5  -3   28.40    0.70
   2  -5  -3   27.90    0.80
   2  -5  -3   28.40    0.80
  -2   5   3   27.40    0.80
  -2   5   3   28.50    0.80
  -2   5   3   28.40    0.90
  -2   5   3   27.60    0.80
   1  -5  -3    0.30    0.10
   1  -5  -3    0.50    0.10
  -1   5   3    0.40    0.10
  -1   5   3    0.40    0.10
  -1   5   3    0.30    0.10
  -1   5   3    0.40    0.10
  -1   5   3    0.40    0.10
  -1   5   3    0.30    0.10
   0  -5  -3   16.80    0.60
   0  -5  -3   18.50    0.50
   0  -5  -3   18.80    0.60
   0  -5  -3   19.50    0.60
   0  -5  -3   19.20    0.50
   0   5   3   16.40    0.70
   0   5   3   19.50    0.60
   0   5   3   18.80    0.50
   0   5   3   19.30    0.60
  -1  -5  -3  273.67    6.20
  -1  -5  -3  276.77    6.20
  -1  -5  -3  272.87    6.20
  -1  -5  -3  271.47    6.20
  -1  -5  -3  266.97    6.20
   1   5   3  274.67    6.20
   1   5   3  270.97    6.30
   1   5   3  271.37    6.10
   1   5   3  263.57    6.20
  -2  -5  -3    4.10    0.20
  -2  -5  -3    4.00    0.20
   2   5   3    4.30    0.30
   2   5   3    4.10    0.20
   2   5   3    4.30    0.20
  -3  -5  -3   15.30    0.40
  -3  -5  -3   15.00    0.50
  -3  -5  -3   15.80    0.50
  -3  -5  -3   15.00    0.50
   3   5   3   15.00    0.50
   3   5   3   15.10    0.40
   3   5   3   15.60    0.50
  -4  -5  -3   29.40    0.80
  -4  -5  -3   31.90    0.90
  -4  -5  -3   30.70    0.80
   4   5   3   31.40    0.80
   4   5   3   31.00    0.80
   4   5   3   30.30    0.90
  -5  -5  -3   22.30    0.70
  -5  -5  -3   22.40    0.70
  -5  -5  -3   24.20    0.70
  -5  -5  -3   22.90    0.60
   5   5   3   22.60    0.60
   5   5   3   22.20    0.70
  -6  -5  -3   41.90    1.10
  -6  -5  -3   42.50    1.10
  -6  -5  -3   41.70    1.10
   6   5   3   40.90    1.20
   6   5   3   42.30    1.10
  -7  -5  -3   16.10    0.60
  -7  -5  -3   17.00    0.60
  -7  -5  -3   16.90    0.60
   7   5   3   15.90    0.60
   7   5   3   16.80    0.60
  -8  -5  -3    1.00    0.20
  -8  -5  -3    0.80    0.20
  -8  -5  -3    0.60    0.20
   8   5   3    0.90    0.20
   7  -6  -3    0.10    0.10
  -7   6   3    0.20    0.20
  -7   6   3    0.00    0.10
  -7   6   3    0.10    0.20
   6  -6  -3   86.19    2.40
  -6   6   3   88.69    2.40
  -6   6   3   88.89    2.40
  -6   6   3   89.59    2.50
   5  -6  -3    4.00    0.20
   5  -6  -3    4.00    0.30
   5  -6  -3    3.40    0.40
  -5   6   3    4.00    0.30
  -5   6   3    3.50    0.40
  -5   6   3    4.00    0.30
   4  -6  -3    1.70    0.20
   4  -6  -3    2.00    0.30
   4  -6  -3    2.00    0.20
  -4   6   3    1.90    0.30
  -4   6   3    1.90    0.10
  -4   6   3    2.20    0.20
  -4   6   3    1.70    0.20
   3  -6  -3    3.00    0.20
   3  -6  -3    3.00    0.30
   3  -6  -3    2.70    0.30
  -3   6   3    3.40    0.30
  -3   6   3    2.80    0.30
  -3   6   3    3.20    0.20
  -3   6   3    3.00    0.20
  -3   6   3    2.80    0.20
   2  -6  -3   55.19    1.40
   2  -6  -3   57.89    1.50
   2  -6  -3   56.69    1.50
  -2   6   3   57.39    1.50
  -2   6   3   58.59    1.50
  -2   6   3   58.29    1.70
  -2   6   3   56.99    1.50
  -2   6   3   58.19    1.60
   1  -6  -3   28.40    0.80
   1  -6  -3   27.50    0.70
   1  -6  -3   26.30    0.80
   1  -6  -3   28.50    0.80
  -1   6   3   27.40    0.80
  -1   6   3   27.50    0.90
  -1   6   3   27.40    0.70
  -1   6   3   28.40    1.00
   0  -6  -3   33.30    0.90
   0  -6  -3   35.00    0.90
   0  -6  -3   34.60    0.90
   0  -6  -3   32.80    0.80
   0  -6  -3   33.10    0.90
   0   6   3   33.20    0.90
   0   6   3   34.30    1.00
   0   6   3   31.90    1.10
   0   6   3   33.00    1.00
   0   6   3   33.50    0.80
  -1  -6  -3  162.48    3.90
  -1  -6  -3  163.28    3.80
  -1  -6  -3  167.78    3.80
   1   6   3  167.58    3.70
   1   6   3  164.78    3.80
   1   6   3  161.68    4.00
  -2  -6  -3    0.50    0.10
  -2  -6  -3    0.40    0.10
  -2  -6  -3    0.50    0.10
  -2  -6  -3    0.60    0.10
  -2  -6  -3    0.40    0.10
   2   6   3    0.50    0.10
   2   6   3    0.50    0.20
   2   6   3    0.70    0.10
   2   6   3    0.30    0.10
   2   6   3    0.40    0.10
  -3  -6  -3    4.60    0.20
  -3  -6  -3    4.70    0.20
  -3  -6  -3    4.40    0.30
  -3  -6  -3    4.80    0.20
   3   6   3    4.80    0.20
   3   6   3    4.60    0.40
   3   6   3    4.90    0.20
   3   6   3    4.70    0.30
  -4  -6  -3    0.30    0.10
  -4  -6  -3    0.30    0.10
  -4  -6  -3    0.40    0.10
   4   6   3    0.40    0.10
   4   6   3    0.30    0.10
   4   6   3    0.40    0.10
  -5  -6  -3  240.68    5.60
  -5  -6  -3  232.08    5.50
  -5  -6  -3  240.48    5.50
  -5  -6  -3  235.48    5.50
   5   6   3  245.78    5.40
   5   6   3  237.88    5.60
  -6  -6  -3    2.60    0.20
  -6  -6  -3    2.50    0.20
  -6  -6  -3    2.40    0.20
   6   6   3    2.20    0.20
   6   6   3    2.60    0.30
  -7  -6  -3    0.00    0.10
  -7  -6  -3   -0.10    0.10
  -7  -6  -3    0.20    0.10
   7   6   3    0.00    0.10
   7   6   3    0.20    0.10
  -8  -6  -3   20.10    0.70
   6  -7  -3   72.69    2.10
   6  -7  -3   70.29    2.10
   6  -7  -3   73.39    1.80
  -6   7   3   73.19    2.10
  -6   7   3   72.59    2.20
  -6   7   3   72.99    2.00
   5  -7  -3    1.50    0.30
   5  -7  -3    1.00    0.20
   5  -7  -3    1.10    0.20
  -5   7   3    1.60    0.20
  -5   7   3    0.70    0.20
   4  -7  -3    2.00    0.30
   4  -7  -3    2.10    0.30
   4  -7  -3    2.30    0.20
  -4   7   3    2.00    0.30
  -4   7   3    2.00    0.20
  -4   7   3    2.40    0.20
  -4   7   3    2.20    0.30
   3  -7  -3    0.90    0.20
   3  -7  -3    1.40    0.20
   3  -7  -3    1.00    0.10
  -3   7   3    1.10    0.20
  -3   7   3    1.00    0.10
  -3   7   3    1.20    0.20
  -3   7   3    1.40    0.20
   2  -7  -3  125.99    3.10
   2  -7  -3  124.79    2.90
  -2   7   3  123.89    3.20
  -2   7   3  125.29    3.00
  -2   7   3  125.49    3.10
  -2   7   3  122.49    3.10
  -2   7   3  124.39    3.00
   1  -7  -3   45.30    1.10
   1  -7  -3   45.30    1.20
   1  -7  -3   43.70    1.20
  -1   7   3   45.90    1.20
  -1   7   3   43.60    1.30
  -1   7   3   46.10    1.40
  -1   7   3   44.10    1.10
  -1   7   3   36.00    1.20
   0  -7  -3    0.00    0.10
   0  -7  -3    0.00    0.10
   0  -7  -3    0.00    0.10
   0  -7  -3    0.10    0.10
   0  -7  -3    0.10    0.10
   0   7   3    0.10    0.10
   0   7   3    0.00    0.10
   0   7   3    0.00    0.10
   0   7   3    0.10    0.10
   0   7   3    0.00    0.10
  -1  -7  -3   74.69    1.80
  -1  -7  -3   71.69    1.80
  -1  -7  -3   74.49    1.80
  -1  -7  -3   71.59    1.80
  -1  -7  -3   75.59    1.90
   1   7   3   72.89    1.70
   1   7   3   70.99    2.10
   1   7   3   76.59    1.80
  -2  -7  -3   36.50    0.90
  -2  -7  -3   35.20    1.00
  -2  -7  -3   34.20    0.90
  -2  -7  -3   35.10    0.90
  -2  -7  -3   34.10    0.90
   2   7   3   34.60    1.00
   2   7   3   33.70    1.10
   2   7   3   35.00    0.90
   2   7   3   34.90    0.90
  -3  -7  -3    0.00    0.10
  -3  -7  -3    0.00    0.10
  -3  -7  -3    0.00    0.10
  -3  -7  -3    0.10    0.10
   3   7   3    0.00    0.10
   3   7   3    0.00    0.10
   3   7   3   -0.10    0.10
   3   7   3    0.00    0.10
  -4  -7  -3   15.20    0.50
  -4  -7  -3   14.60    0.50
  -4  -7  -3   13.80    0.50
  -4  -7  -3   14.20    0.50
   4   7   3   14.00    0.50
   4   7   3   13.80    0.50
   4   7   3   13.50    0.60
   4   7   3   14.60    0.90
  -5  -7  -3   36.40    1.00
  -5  -7  -3   35.90    1.00
  -5  -7  -3   36.50    1.10
  -5  -7  -3   35.60    1.00
   5   7   3   36.40    1.00
   5   7   3   37.30    1.60
   5   7   3   37.00    1.10
  -6  -7  -3    1.20    0.10
  -6  -7  -3    1.00    0.20
  -6  -7  -3    0.90    0.10
   6   7   3    1.10    0.20
   6   7   3    0.90    0.10
   6   7   3    1.10    0.40
  -7  -7  -3   -0.20    0.10
  -7  -7  -3   -0.10    0.10
  -7  -7  -3    0.00    0.10
   7   7   3    0.10    0.30
   7   7   3   -0.10    0.10
   7   7   3   -0.10    0.10
   6  -8  -3   16.80    0.60
   6  -8  -3   17.10    0.80
   6  -8  -3   16.10    0.80
  -6   8   3   17.30    0.70
  -6   8   3   16.60    0.80
   5  -8  -3    5.50    0.30
   5  -8  -3    5.80    0.40
   5  -8  -3    5.80    0.40
  -5   8   3    5.20    0.50
   4  -8  -3    1.90    0.30
   4  -8  -3    1.40    0.20
   4  -8  -3    1.10    0.20
  -4   8   3    1.40    0.30
  -4   8   3    1.20    0.20
  -4   8   3    1.30    0.20
  -4   8   3    1.40    0.20
   3  -8  -3    4.60    0.40
   3  -8  -3    4.10    0.20
   3  -8  -3    4.30    0.30
  -3   8   3    3.80    0.40
  -3   8   3    3.80    0.30
  -3   8   3    4.60    0.40
  -3   8   3    4.20    0.30
   2  -8  -3    0.00    0.10
   2  -8  -3    0.20    0.10
   2  -8  -3    0.20    0.10
  -2   8   3    0.30    0.10
  -2   8   3    0.40    0.20
  -2   8   3    0.20    0.10
  -2   8   3    0.30    0.10
  -2   8   3    0.30    0.10
   1  -8  -3    0.10    0.10
   1  -8  -3    0.00    0.10
   1  -8  -3    0.10    0.10
   1  -8  -3   -0.10    0.10
  -1   8   3    0.00    0.10
  -1   8   3    0.00    0.10
  -1   8   3    0.10    0.10
  -1   8   3    0.10    0.10
   0  -8  -3   34.40    1.00
   0  -8  -3   37.80    1.10
   0  -8  -3   36.00    1.00
   0  -8  -3   35.10    0.90
   0  -8  -3   37.30    1.00
   0   8   3   35.10    1.10
   0   8   3   35.60    1.10
   0   8   3   36.80    0.90
   0   8   3   35.60    1.00
   0   8   3   35.40    1.30
  -1  -8  -3    5.00    0.30
  -1  -8  -3    4.90    0.30
  -1  -8  -3    5.40    0.30
  -1  -8  -3    5.00    0.30
  -1  -8  -3    5.00    0.30
  -1  -8  -3    5.40    0.30
   1   8   3    4.70    0.30
   1   8   3    5.10    0.20
   1   8   3    5.10    0.30
   1   8   3    3.70    0.40
  -2  -8  -3    0.60    0.10
  -2  -8  -3    0.50    0.10
  -2  -8  -3    0.30    0.10
  -2  -8  -3    0.40    0.10
  -2  -8  -3    0.40    0.10
   2   8   3    0.40    0.20
   2   8   3    0.60    0.10
   2   8   3    0.60    0.10
   2   8   3    0.40    0.10
  -3  -8  -3    0.00    0.10
  -3  -8  -3    0.00    0.10
  -3  -8  -3    0.00    0.10
  -3  -8  -3    0.00    0.10
   3   8   3    0.00    0.10
   3   8   3    0.10    0.10
   3   8   3    0.10    0.10
   3   8   3   -0.20    0.10
   3   8   3    0.00    0.10
  -4  -8  -3    4.10    0.30
  -4  -8  -3    4.10    0.20
  -4  -8  -3    3.70    0.20
  -4  -8  -3    4.00    0.40
   4   8   3    4.60    0.40
   4   8   3    4.20    0.20
   4   8   3    4.70    0.60
   4   8   3    4.20    0.20
  -5  -8  -3    0.00    0.10
  -5  -8  -3   -0.10    0.10
  -5  -8  -3    0.20    0.10
   5   8   3    0.00    0.10
   5   8   3   -0.10    0.10
   5   8   3    0.00    0.20
  -6  -8  -3    2.60    0.20
  -6  -8  -3    2.70    0.20
  -6  -8  -3    2.30    0.20
   6   8   3    2.90    0.30
   6   8   3    2.40    0.20
   6   8   3    2.30    0.50
  -7  -8  -3   10.50    0.50
  -7  -8  -3   11.00    0.50
  -7  -8  -3   11.60    0.40
   7   8   3   10.40    0.60
   7   8   3   10.40    1.50
   7   8   3   11.40    0.40
   6  -9  -3    2.70    0.40
   6  -9  -3    2.90    0.30
   6  -9  -3    3.80    0.50
  -6   9   3    4.10    0.50
   5  -9  -3    0.90    0.20
   5  -9  -3    1.00    0.20
   5  -9  -3    0.60    0.20
  -5   9   3    0.50    0.20
  -5   9   3    0.80    0.10
   4  -9  -3   12.90    0.70
   4  -9  -3   13.30    0.50
   4  -9  -3   13.60    0.70
  -4   9   3   13.60    0.50
  -4   9   3   15.00    0.70
  -4   9   3   14.70    0.70
   3  -9  -3   17.60    0.60
   3  -9  -3   16.80    0.70
   3  -9  -3   18.20    0.70
  -3   9   3   17.20    0.60
  -3   9   3   19.00    0.90
  -3   9   3   17.60    0.80
   2  -9  -3    7.30    0.40
   2  -9  -3    7.20    0.40
   2  -9  -3    7.80    0.30
  -2   9   3    7.20    0.50
  -2   9   3    6.70    0.40
  -2   9   3    7.70    0.30
  -2   9   3    7.00    0.60
   1  -9  -3    2.30    0.20
   1  -9  -3    2.30    0.30
   1  -9  -3    2.70    0.20
   1  -9  -3    2.30    0.20
  -1   9   3    2.20    0.20
  -1   9   3    2.60    0.30
  -1   9   3    2.00    0.20
  -1   9   3    2.40    0.40
   0  -9  -3    1.10    0.20
   0  -9  -3    1.90    0.10
   0  -9  -3    1.60    0.20
   0  -9  -3    1.30    0.20
   0  -9  -3    1.60    0.20
   0   9   3    1.80    0.20
   0   9   3    1.90    0.20
   0   9   3    2.00    0.20
   0   9   3    1.30    0.20
   0   9   3    1.40    0.30
  -1  -9  -3   15.40    0.60
  -1  -9  -3   14.90    0.50
  -1  -9  -3   14.60    0.50
  -1  -9  -3   15.30    0.60
  -1  -9  -3   14.20    0.50
  -1  -9  -3   15.80    0.60
  -1  -9  -3   15.30    0.60
   1   9   3   14.40    0.60
   1   9   3   13.90    0.60
   1   9   3   13.20    0.70
   1   9   3   15.00    0.50
  -2  -9  -3    0.10    0.10
  -2  -9  -3    0.20    0.10
  -2  -9  -3    0.30    0.10
  -2  -9  -3    0.20    0.10
  -2  -9  -3    0.10    0.10
   2   9   3    0.20    0.10
   2   9   3    0.20    0.10
   2   9   3    0.30    0.10
   2   9   3    0.30    0.20
  -3  -9  -3   16.20    0.60
  -3  -9  -3   16.50    0.60
  -3  -9  -3   16.00    0.60
   3   9   3   16.90    0.90
   3   9   3   16.90    0.50
   3   9   3   15.50    0.80
   3   9   3   16.60    0.60
   3   9   3   16.70    0.60
  -4  -9  -3    1.10    0.20
  -4  -9  -3    1.10    0.10
  -4  -9  -3    1.20    0.20
   4   9   3    1.40    0.40
   4   9   3    1.30    0.20
   4   9   3    1.50    0.20
   4   9   3    1.20    0.30
  -5  -9  -3    0.50    0.10
  -5  -9  -3    0.60    0.10
  -5  -9  -3    0.80    0.10
   5   9   3    0.90    0.10
   5   9   3    0.80    0.20
   5   9   3    0.60    0.30
  -6  -9  -3    1.40    0.20
  -6  -9  -3    1.60    0.20
  -6  -9  -3    1.30    0.20
   6   9   3    1.50    0.50
   6   9   3    1.20    0.20
   6   9   3    1.50    0.30
  -7  -9  -3    2.20    0.20
  -7  -9  -3    2.10    0.20
  -7  -9  -3    2.20    0.30
   7   9   3    2.20    0.20
   7   9   3    2.50    0.40
   5 -10  -3    0.70    0.30
   5 -10  -3    0.50    0.20
   5 -10  -3    0.50    0.20
  -5  10   3    0.60    0.20
  -5  10   3    0.60    0.10
   4 -10  -3    0.30    0.20
   4 -10  -3    0.40    0.10
   4 -10  -3    0.50    0.20
  -4  10   3    0.40    0.20
  -4  10   3    0.80    0.30
  -4  10   3    0.40    0.20
   3 -10  -3    8.40    0.50
   3 -10  -3    8.40    0.40
   3 -10  -3    9.10    0.50
  -3  10   3    7.80    0.60
  -3  10   3    8.40    0.50
  -3  10   3    8.30    0.40
   2 -10  -3    6.20    0.40
   2 -10  -3    5.90    0.40
   2 -10  -3    5.90    0.30
  -2  10   3    6.10    0.40
  -2  10   3    6.10    0.60
  -2  10   3    6.30    0.20
  -2  10   3    6.20    0.40
   1 -10  -3    2.30    0.30
   1 -10  -3    2.80    0.30
   1 -10  -3    1.80    0.30
   1 -10  -3    2.50    0.20
  -1  10   3    2.80    0.50
  -1  10   3    2.20    0.30
  -1  10   3    2.50    0.20
   0 -10  -3   45.90    1.10
   0 -10  -3   44.10    1.30
   0 -10  -3   44.40    1.20
   0 -10  -3   44.20    1.30
   0 -10  -3   43.70    1.30
   0 -10  -3   43.20    1.40
   0  10   3   44.10    1.30
   0  10   3   44.70    1.20
   0  10   3   43.70    1.40
   0  10   3   45.70    1.60
  -1 -10  -3  123.09    3.10
  -1 -10  -3  125.79    3.10
  -1 -10  -3  127.89    3.10
  -1 -10  -3  128.09    3.20
  -1 -10  -3  125.19    3.10
   1  10   3  125.29    3.20
   1  10   3  126.49    3.00
   1  10   3  125.89    3.10
   1  10   3  123.89    3.50
  -2 -10  -3    0.30    0.10
  -2 -10  -3    0.40    0.10
  -2 -10  -3    0.80    0.10
  -2 -10  -3    0.40    0.10
  -2 -10  -3    0.40    0.10
   2  10   3    0.20    0.10
   2  10   3    0.30    0.10
   2  10   3    0.20    0.10
   2  10   3    0.30    0.20
  -3 -10  -3   60.19    1.60
  -3 -10  -3   59.39    1.60
  -3 -10  -3   58.89    1.60
   3  10   3   59.99    1.60
   3  10   3   60.99    1.70
   3  10   3   59.39    1.50
   3  10   3   59.19    1.90
  -4 -10  -3    1.30    0.20
  -4 -10  -3    0.70    0.20
  -4 -10  -3    0.70    0.10
   4  10   3    0.90    0.20
   4  10   3    0.80    0.40
   4  10   3    1.10    0.20
   4  10   3    0.60    0.20
  -5 -10  -3   27.10    0.90
  -5 -10  -3   29.60    0.90
  -5 -10  -3   28.60    0.90
   5  10   3   28.40    0.90
   5  10   3   29.40    1.20
   5  10   3   28.10    1.40
  -6 -10  -3    4.00    0.30
  -6 -10  -3    4.20    0.30
  -6 -10  -3    4.20    0.30
   6  10   3    5.70    0.80
   6  10   3    4.40    0.50
   6  10   3    4.50    0.30
  -7 -10  -3    8.20    0.40
  -7 -10  -3    8.70    0.50
  -7 -10  -3    8.80    0.40
   7  10   3    8.60    0.60
   7  10   3    8.70    0.40
   5 -11  -3    0.30    0.20
   5 -11  -3    0.70    0.30
   5 -11  -3    0.30    0.20
  -5  11   3    0.30    0.20
  -5  11   3    0.20    0.10
   4 -11  -3    0.60    0.20
   4 -11  -3    0.80    0.20
   4 -11  -3    0.90    0.30
  -4  11   3    0.60    0.30
  -4  11   3    0.90    0.20
  -4  11   3    0.90    0.30
   3 -11  -3   15.50    0.60
   3 -11  -3   15.40    0.70
   3 -11  -3   15.50    0.70
  -3  11   3   14.80    0.60
  -3  11   3   15.50    0.90
   2 -11  -3    5.10    0.50
   2 -11  -3    4.30    0.40
   2 -11  -3    4.20    0.30
  -2  11   3    5.00    0.60
  -2  11   3    4.20    0.40
  -2  11   3    4.30    0.20
   1 -11  -3  141.59    3.30
   1 -11  -3  142.39    3.60
   1 -11  -3  143.09    3.60
  -1  11   3  139.79    3.30
  -1  11   3  144.79    3.50
  -1  11   3  140.99    4.00
   0 -11  -3    7.70    0.20
   0 -11  -3    8.00    0.40
   0 -11  -3    8.30    0.40
   0 -11  -3    7.30    0.40
   0 -11  -3    8.00    0.50
   0  11   3    8.20    0.50
   0  11   3    7.80    0.40
   0  11   3    8.40    0.70
   0  11   3    8.80    0.50
  -1 -11  -3    0.50    0.10
  -1 -11  -3    1.00    0.20
  -1 -11  -3    0.80    0.20
   1  11   3    1.10    0.20
   1  11   3    0.80    0.20
   1  11   3    0.70    0.30
   1  11   3    0.60    0.10
  -2 -11  -3    0.70    0.20
  -2 -11  -3    0.50    0.10
  -2 -11  -3    0.60    0.20
  -2 -11  -3    0.60    0.10
  -2 -11  -3    0.40    0.10
   2  11   3    0.10    0.20
   2  11   3    0.30    0.10
   2  11   3    0.50    0.10
   2  11   3    0.40    0.10
  -3 -11  -3    5.80    0.30
  -3 -11  -3    6.40    0.40
  -3 -11  -3    6.20    0.40
   3  11   3    5.90    0.40
   3  11   3    5.40    0.60
   3  11   3    6.70    0.30
   3  11   3    6.30    0.40
  -4 -11  -3    1.00    0.20
  -4 -11  -3    0.90    0.20
  -4 -11  -3    1.10    0.20
   4  11   3    1.10    0.30
   4  11   3    1.20    0.40
   4  11   3    1.20    0.20
  -5 -11  -3   13.00    0.60
  -5 -11  -3   13.00    0.50
  -5 -11  -3   12.00    0.50
   5  11   3   13.80    0.60
   5  11   3   12.80    0.80
  -6 -11  -3   52.49    1.50
  -6 -11  -3   55.19    1.50
  -6 -11  -3   52.09    1.60
   6  11   3   52.09    1.50
   6  11   3   52.49    1.80
   4 -12  -3    2.50    0.40
   4 -12  -3    3.30    0.50
   4 -12  -3    2.40    0.30
  -4  12   3    3.20    0.30
  -4  12   3    2.80    0.50
   3 -12  -3   62.79    1.70
   3 -12  -3   64.69    2.00
   3 -12  -3   65.39    2.00
  -3  12   3   61.99    1.80
  -3  12   3   67.49    2.20
   2 -12  -3    0.30    0.20
   2 -12  -3   -0.10    0.10
   2 -12  -3    0.10    0.10
   2 -12  -3    0.00    0.20
  -2  12   3    0.00    0.30
  -2  12   3    0.20    0.20
  -2  12   3   -0.10    0.10
   1 -12  -3    1.10    0.20
   1 -12  -3    0.70    0.20
   1 -12  -3    1.30    0.20
   1 -12  -3    1.20    0.10
  -1  12   3    0.90    0.30
  -1  12   3    1.00    0.20
  -1  12   3    0.70    0.20
   0 -12  -3   41.90    1.30
   0 -12  -3   42.50    1.30
   0 -12  -3   41.50    1.30
   0  12   3   42.20    1.30
   0  12   3   41.60    1.70
   0  12   3   42.80    1.20
  -1 -12  -3    6.40    0.40
  -1 -12  -3    6.50    0.40
  -1 -12  -3    6.70    0.40
   1  12   3    6.70    0.50
   1  12   3    5.80    0.60
   1  12   3    7.30    0.30
   1  12   3    6.60    0.40
  -2 -12  -3    0.00    0.10
  -2 -12  -3    0.00    0.10
   2  12   3    0.00    0.10
   2  12   3   -0.10    0.10
   2  12   3   -0.10    0.20
   2  12   3   -0.20    0.10
  -3 -12  -3   37.40    1.10
  -3 -12  -3   38.20    1.20
   3  12   3   37.80    1.00
   3  12   3   38.70    1.20
   3  12   3   37.50    1.20
   3  12   3   36.10    1.50
  -4 -12  -3   54.59    1.60
  -4 -12  -3   52.39    1.50
   4  12   3   51.89    1.90
   4  12   3   54.69    1.60
  -5 -12  -3   14.30    0.70
  -5 -12  -3   13.20    0.60
  -5 -12  -3   13.70    0.60
   5  12   3   13.50    0.60
   5  12   3   13.40    0.80
  -6 -12  -3   14.30    0.70
  -6 -12  -3   13.50    0.60
  -6 -12  -3   13.90    0.60
   6  12   3   13.10    0.90
   6  12   3   13.40    0.60
   4 -13  -3    0.30    0.10
   4 -13  -3    0.30    0.20
   4 -13  -3    0.20    0.20
   4 -13  -3    0.60    0.20
  -4  13   3    0.10    0.30
  -4  13   3    0.20    0.20
   3 -13  -3   16.60    0.80
   3 -13  -3   17.50    0.90
   3 -13  -3   16.90    0.60
   3 -13  -3   17.10    0.80
  -3  13   3   15.70    0.70
  -3  13   3   17.60    1.10
   2 -13  -3   46.60    1.50
   2 -13  -3   48.30    1.60
   2 -13  -3   49.70    1.50
   2 -13  -3   47.30    1.20
  -2  13   3   44.80    1.50
  -2  13   3   48.40    1.20
  -2  13   3   44.10    1.80
   1 -13  -3    7.40    0.50
   1 -13  -3    7.90    0.30
   1 -13  -3    7.80    0.50
   1 -13  -3    7.60    0.50
  -1  13   3    7.70    0.40
  -1  13   3    6.80    0.80
  -1  13   3    7.60    0.50
   0 -13  -3    1.30    0.20
   0 -13  -3    1.20    0.20
   0  13   3    1.20    0.40
   0  13   3    1.30    0.30
   0  13   3    1.40    0.20
  -1 -13  -3    0.10    0.10
  -1 -13  -3    0.60    0.20
  -1 -13  -3    0.50    0.20
  -1 -13  -3    0.60    0.20
   1  13   3    0.30    0.10
   1  13   3    0.10    0.20
   1  13   3    0.30    0.30
   1  13   3    0.60    0.20
  -2 -13  -3   23.40    0.70
  -2 -13  -3   23.80    0.80
   2  13   3   23.00    1.00
   2  13   3   24.10    1.20
   2  13   3   25.10    0.90
   2  13   3   24.30    0.80
  -3 -13  -3    0.70    0.20
   3  13   3    0.30    0.20
   3  13   3    0.20    0.10
   3  13   3    0.30    0.20
   3  13   3    0.50    0.30
  -4 -13  -3    0.50    0.20
  -4 -13  -3    0.90    0.20
   4  13   3    0.90    0.20
   4  13   3    1.20    0.40
  -5 -13  -3   79.19    2.10
  -5 -13  -3   80.49    2.20
   5  13   3   81.19    2.30
   5  13   3   77.09    2.60
   3 -14  -3   10.70    0.70
   3 -14  -3   10.20    0.40
   3 -14  -3   10.40    0.60
   3 -14  -3   10.00    0.70
  -3  14   3    9.80    0.60
  -3  14   3   11.60    0.90
   2 -14  -3   10.60    0.60
   2 -14  -3    9.60    0.60
   2 -14  -3   10.00    0.60
  -2  14   3    9.70    0.90
  -2  14   3    9.00    0.60
  -2  14   3   10.80    0.40
   1 -14  -3   13.50    0.70
   1 -14  -3   13.00    0.70
  -1  14   3   12.90    0.50
  -1  14   3   13.80    0.70
  -1  14   3   13.20    1.00
   0 -14  -3   11.00    0.60
   0 -14  -3   10.60    0.60
   0 -14  -3   10.00    0.60
   0  14   3   11.00    0.50
   0  14   3   10.70    0.90
   0  14   3   10.70    0.60
  -1 -14  -3    2.50    0.30
  -1 -14  -3    2.50    0.30
  -1 -14  -3    2.40    0.30
  -1 -14  -3    2.70    0.30
   1  14   3    1.70    0.40
   1  14   3    2.40    0.30
   1  14   3    1.90    0.20
   1  14   3    2.10    0.40
  -2 -14  -3    1.40    0.20
  -2 -14  -3    1.00    0.20
   2  14   3    1.10    0.30
   2  14   3    1.30    0.40
   2  14   3    1.50    0.20
   2  14   3    1.30    0.30
  -3 -14  -3   17.80    0.70
   3  14   3   16.00    0.80
   3  14   3   17.00    1.10
   3  14   3   15.70    0.60
   3  14   3   16.60    0.80
  -4 -14  -3    4.10    0.40
   4  14   3    3.60    0.40
   4  14   3    3.80    0.30
   4  14   3    4.10    0.60
   2 -15  -3    0.50    0.10
   2 -15  -3    0.10    0.20
   2 -15  -3   -0.10    0.20
  -2  15   3    0.50    0.10
  -2  15   3    0.50    0.40
  -2  15   3    0.70    0.30
   1 -15  -3    5.00    0.50
   1 -15  -3    5.00    0.50
   1 -15  -3    4.80    0.50
  -1  15   3    5.40    0.30
  -1  15   3    5.30    0.80
  -1  15   3    4.70    0.50
   0 -15  -3    4.70    0.40
   0 -15  -3    3.60    0.40
   0 -15  -3    3.60    0.40
   0  15   3    4.60    0.30
   0  15   3    4.80    0.50
   0  15   3    3.90    0.60
  -1 -15  -3    2.00    0.30
  -1 -15  -3    2.80    0.50
   1  15   3    3.00    0.30
   1  15   3    2.10    0.30
   1  15   3    2.60    0.50
  -2 -15  -3    5.00    0.40
  -2 -15  -3    4.80    0.30
   2  15   3    4.70    0.50
   2  15   3    4.30    0.70
   2  15   3    5.40    0.40
   2  15   3    5.60    0.50
  -3 -15  -3    0.40    0.20
   3  15   3    0.50    0.20
   3  15   3    0.30    0.20
   3  15   3    0.60    0.30
   3  15   3    0.40    0.20
  -1 -16  -3    7.20    0.40
   1  16   3    6.70    0.90
   1  16   3    6.40    0.40
   1  16   3    7.70    0.60
   2  13  -4    2.30    0.30
   2  13  -4    2.30    0.30
   2  13  -4    2.20    0.50
  -2 -13   4    2.20    0.30
   1  13  -4   22.60    1.30
   1  13  -4   24.40    0.80
   1  13  -4   24.50    1.00
  -1 -13   4   24.70    1.00
   0  13  -4    6.80    0.50
   0  13  -4    6.70    0.40
   0  13  -4    6.30    0.80
   0 -13   4    7.90    0.70
   0 -13   4    6.90    0.40
  -1  13  -4    0.20    0.20
  -1  13  -4    0.60    0.30
  -1  13  -4    0.20    0.30
   1 -13   4    0.40    0.20
   1 -13   4    0.60    0.20
   4  12  -4    0.10    0.20
   4  12  -4    0.20    0.20
  -4 -12   4    0.20    0.10
  -4 -12   4    0.30    0.20
   3  12  -4    8.60    0.70
  -3 -12   4    9.70    0.50
  -3 -12   4    8.90    0.50
  -3 -12   4    9.90    0.60
   2  12  -4    0.40    0.10
   2  12  -4    0.10    0.20
   2  12  -4    0.20    0.30
  -2 -12   4    0.10    0.10
   1  12  -4   86.69    2.80
   1  12  -4   88.19    2.40
   1  12  -4   89.99    2.30
  -1 -12   4   89.89    2.40
   0  12  -4    1.10    0.40
   0  12  -4    0.50    0.20
   0  12  -4    0.60    0.20
   0 -12   4    0.70    0.20
   0 -12   4    0.60    0.20
  -1  12  -4    0.90    0.30
  -1  12  -4    0.70    0.20
  -1  12  -4    0.80    0.40
   1 -12   4    1.10    0.20
   1 -12   4    0.70    0.20
  -2  12  -4    0.50    0.20
  -2  12  -4    0.70    0.30
  -2  12  -4    0.60    0.20
   2 -12   4    0.30    0.20
   2 -12   4    0.70    0.20
  -3  12  -4    0.10    0.10
   5  11  -4    4.20    0.40
   5  11  -4    4.90    0.60
  -5 -11   4    4.10    0.30
  -5 -11   4    4.30    0.30
  -5 -11   4    4.20    0.30
   4  11  -4    0.90    0.30
   4  11  -4    0.40    0.20
  -4 -11   4    0.60    0.20
  -4 -11   4    0.90    0.20
  -4 -11   4    0.50    0.20
   3  11  -4   33.40    1.40
  -3 -11   4   35.10    1.10
  -3 -11   4   35.40    1.10
   2  11  -4    6.40    0.30
   2  11  -4    5.70    0.70
   2  11  -4    6.20    0.40
  -2 -11   4    6.20    0.40
  -2 -11   4    6.70    0.40
   1  11  -4   16.30    1.00
   1  11  -4   17.20    0.60
   1  11  -4   16.90    0.70
  -1 -11   4   16.40    0.50
  -1 -11   4   16.30    0.70
   0  11  -4    1.20    0.20
   0  11  -4    1.10    0.40
   0  11  -4    1.10    0.20
   0 -11   4    1.10    0.20
   0 -11   4    1.00    0.20
   0 -11   4    1.00    0.20
  -1  11  -4    1.70    0.40
  -1  11  -4    1.50    0.30
  -1  11  -4    1.40    0.20
   1 -11   4    1.20    0.20
   1 -11   4    1.00    0.20
  -2  11  -4   15.90    0.60
  -2  11  -4   16.00    1.00
  -2  11  -4   14.70    0.70
   2 -11   4   16.10    0.70
   2 -11   4   13.60    0.70
  -3  11  -4    0.40    0.20
  -3  11  -4    0.20    0.20
  -3  11  -4    0.20    0.30
   3 -11   4    0.60    0.20
   3 -11   4    0.20    0.10
   3 -11   4    0.50    0.20
   3 -11   4    0.10    0.10
   5  10  -4   -0.10    0.20
   5  10  -4    0.00    0.10
  -5 -10   4    0.00    0.10
  -5 -10   4    0.10    0.10
  -5 -10   4    0.10    0.10
   4  10  -4    3.00    0.30
   4  10  -4    2.90    0.40
  -4 -10   4    2.90    0.30
  -4 -10   4    2.40    0.20
  -4 -10   4    2.60    0.30
   3  10  -4   18.90    0.80
   3  10  -4   18.90    1.00
  -3 -10   4   19.90    0.70
  -3 -10   4   20.60    0.70
  -3 -10   4   19.40    0.70
   2  10  -4   62.19    1.70
   2  10  -4   59.49    2.00
   2  10  -4   64.29    1.60
  -2 -10   4   65.29    2.20
  -2 -10   4   62.09    1.70
  -2 -10   4   64.19    1.70
   1  10  -4    6.00    0.40
   1  10  -4    5.80    0.30
   1  10  -4    5.40    0.60
  -1 -10   4    5.40    0.40
  -1 -10   4    6.10    0.40
  -1 -10   4    6.20    0.30
   0  10  -4    3.40    0.40
   0  10  -4    3.80    0.30
   0  10  -4    3.10    0.50
   0 -10   4    3.60    0.30
   0 -10   4    4.00    0.30
   0 -10   4    3.20    0.30
  -1  10  -4   15.50    0.70
  -1  10  -4   15.10    0.60
  -1  10  -4   14.90    0.90
   1 -10   4   15.20    0.70
   1 -10   4   15.40    0.60
   1 -10   4   15.10    0.70
  -2  10  -4    9.00    0.40
  -2  10  -4    9.20    0.50
  -2  10  -4    9.90    0.70
   2 -10   4    9.50    0.30
   2 -10   4    9.00    0.50
   2 -10   4   10.30    0.70
  -3  10  -4    5.20    0.40
  -3  10  -4    5.10    0.30
  -3  10  -4    5.00    0.60
   3 -10   4    5.40    0.30
   3 -10   4    5.70    0.40
   3 -10   4    4.90    0.40
   3 -10   4    6.00    0.40
  -4  10  -4    0.00    0.20
  -4  10  -4   -0.20    0.10
   4 -10   4   -0.10    0.10
   4 -10   4   -0.20    0.20
   4 -10   4    0.20    0.20
   4 -10   4    0.00    0.10
  -6  -9   4    0.40    0.10
  -6  -9   4    0.40    0.10
  -6  -9   4    0.50    0.10
   5   9  -4   -0.10    0.10
  -5  -9   4    0.00    0.10
  -5  -9   4    0.10    0.10
  -5  -9   4    0.20    0.10
   4   9  -4    2.10    0.30
   4   9  -4    2.10    0.20
  -4  -9   4    2.00    0.20
  -4  -9   4    2.00    0.20
  -4  -9   4    2.20    0.20
   3   9  -4   14.90    0.80
   3   9  -4   15.90    0.60
  -3  -9   4   15.40    0.60
  -3  -9   4   15.60    0.60
  -3  -9   4   15.60    0.60
   2   9  -4    0.60    0.20
   2   9  -4    0.80    0.20
  -2  -9   4    0.90    0.20
  -2  -9   4    0.60    0.20
  -2  -9   4    0.50    0.10
   1   9  -4   18.90    0.60
   1   9  -4   19.80    0.70
   1   9  -4   20.20    1.00
  -1  -9   4   19.20    0.70
  -1  -9   4   18.90    0.70
  -1  -9   4   18.70    0.60
   0   9  -4    8.50    0.70
   0   9  -4    8.40    0.40
   0   9  -4    8.50    0.50
   0  -9   4    9.00    0.40
   0  -9   4    9.20    0.40
   0  -9   4    9.30    0.50
  -1   9  -4    6.20    0.40
  -1   9  -4    6.70    0.30
  -1   9  -4    6.30    0.60
   1  -9   4    6.70    0.40
   1  -9   4    6.50    0.40
   1  -9   4    6.70    0.40
  -2   9  -4    0.50    0.10
  -2   9  -4    0.30    0.20
  -2   9  -4    0.20    0.20
   2  -9   4    0.40    0.10
   2  -9   4    0.30    0.20
   2  -9   4    0.20    0.10
   2  -9   4    0.40    0.10
  -3   9  -4    7.00    0.50
  -3   9  -4    8.50    0.60
  -3   9  -4    8.60    0.40
   3  -9   4    7.90    0.40
   3  -9   4    7.30    0.50
   3  -9   4    7.70    0.50
   3  -9   4    8.70    0.50
  -4   9  -4    0.10    0.20
  -4   9  -4    0.20    0.20
   4  -9   4    0.50    0.10
   4  -9   4    0.50    0.20
   4  -9   4    0.30    0.20
   4  -9   4    0.40    0.20
  -5   9  -4    2.20    0.30
  -5   9  -4    2.70    0.40
   5  -9   4    2.20    0.30
   5  -9   4    2.90    0.40
   5  -9   4    2.20    0.40
   5  -9   4    2.70    0.40
  -6  -8   4    1.40    0.10
  -6  -8   4    1.30    0.10
  -6  -8   4    1.00    0.30
  -6  -8   4    1.40    0.20
  -6  -8   4    1.40    0.10
   5   8  -4    0.60    0.50
  -5  -8   4    0.80    0.10
  -5  -8   4    0.70    0.10
  -5  -8   4    1.00    0.30
  -5  -8   4    0.80    0.10
  -5  -8   4    0.70    0.10
   4   8  -4   15.00    0.70
   4   8  -4   15.70    0.50
  -4  -8   4   15.50    0.70
  -4  -8   4   15.00    0.50
  -4  -8   4   14.50    0.50
  -4  -8   4   15.00    0.50
   3   8  -4   95.19    2.60
   3   8  -4   92.69    2.40
  -3  -8   4   95.19    2.30
  -3  -8   4   94.99    2.30
  -3  -8   4   96.09    2.30
   2   8  -4    3.40    0.30
   2   8  -4    3.20    0.30
   2   8  -4    3.50    0.40
  -2  -8   4    3.30    0.20
  -2  -8   4    3.20    0.20
  -2  -8   4    3.30    0.30
   1   8  -4    2.10    0.20
   1   8  -4    2.20    0.20
   1   8  -4    2.20    0.40
  -1  -8   4    2.10    0.10
  -1  -8   4    1.60    0.20
  -1  -8   4    1.90    0.20
  -1  -8   4    2.50    0.20
   0   8  -4    2.10    0.30
   0   8  -4    2.10    0.20
   0   8  -4    2.20    0.40
   0  -8   4    2.10    0.20
   0  -8   4    2.30    0.20
   0  -8   4    2.20    0.20
  -1   8  -4    0.10    0.10
  -1   8  -4    0.00    0.10
  -1   8  -4    0.00    0.20
   1  -8   4    0.00    0.10
   1  -8   4    0.10    0.10
   1  -8   4    0.10    0.10
   1  -8   4    0.00    0.10
  -2   8  -4    0.00    0.10
  -2   8  -4   -0.10    0.20
  -2   8  -4    0.10    0.10
   2  -8   4    0.00    0.10
   2  -8   4    0.00    0.10
   2  -8   4    0.10    0.10
   2  -8   4    0.10    0.10
  -3   8  -4    4.40    0.30
  -3   8  -4    4.40    0.40
  -3   8  -4    4.70    0.50
   3  -8   4    4.50    0.40
   3  -8   4    4.30    0.40
   3  -8   4    4.90    0.30
   3  -8   4    4.60    0.30
  -4   8  -4    9.20    0.50
  -4   8  -4    9.80    0.60
   4  -8   4   10.50    0.60
   4  -8   4    9.10    0.50
   4  -8   4   10.20    0.40
   4  -8   4   10.00    0.60
  -5   8  -4    2.20    0.40
  -5   8  -4    2.40    0.30
   5  -8   4    1.90    0.30
   5  -8   4    1.80    0.20
   5  -8   4    1.90    0.30
   5  -8   4    2.00    0.30
  -6  -7   4   14.90    0.40
  -6  -7   4   14.50    0.40
  -6  -7   4   13.80    0.80
   5   7  -4   13.90    1.20
  -5  -7   4   11.30    0.60
  -5  -7   4   11.10    0.40
  -5  -7   4   11.60    0.40
   4   7  -4   27.80    0.70
   4   7  -4   28.70    1.00
   4   7  -4   28.10    1.60
  -4  -7   4   28.10    0.70
  -4  -7   4   27.80    1.00
  -4  -7   4   27.60    0.80
  -4  -7   4   27.80    0.80
  -4  -7   4   27.50    0.70
   3   7  -4   29.10    0.80
   3   7  -4   28.90    1.00
  -3  -7   4   28.70    0.80
  -3  -7   4   30.00    0.80
  -3  -7   4   28.90    1.00
  -3  -7   4   28.60    0.80
  -3  -7   4   30.00    0.90
   2   7  -4    2.70    0.20
   2   7  -4    3.00    0.20
   2   7  -4    3.10    0.40
  -2  -7   4    2.90    0.20
  -2  -7   4    3.00    0.20
  -2  -7   4    2.70    0.20
  -2  -7   4    3.20    0.30
   1   7  -4    0.90    0.20
   1   7  -4    1.30    0.10
   1   7  -4    1.20    0.20
  -1  -7   4    1.10    0.20
  -1  -7   4    1.10    0.20
  -1  -7   4    1.30    0.10
  -1  -7   4    1.10    0.10
  -1  -7   4    1.30    0.20
   0   7  -4   10.20    0.40
   0   7  -4   10.00    0.60
   0   7  -4    9.80    0.50
   0  -7   4   10.00    0.40
   0  -7   4    9.80    0.40
   0  -7   4   10.30    0.50
   0  -7   4   10.40    0.40
   0  -7   4   10.10    0.40
  -1   7  -4    0.10    0.10
  -1   7  -4    0.00    0.20
  -1   7  -4    0.20    0.10
   1  -7   4    0.20    0.10
   1  -7   4    0.20    0.10
   1  -7   4    0.10    0.10
   1  -7   4    0.10    0.10
   1  -7   4    0.20    0.10
   1  -7   4    0.20    0.10
  -2   7  -4   11.90    0.70
  -2   7  -4   10.50    0.50
  -2   7  -4   11.30    0.40
   2  -7   4   11.70    0.50
   2  -7   4   10.70    0.50
   2  -7   4   11.50    0.40
   2  -7   4   11.00    0.50
   2  -7   4   10.70    0.50
  -3   7  -4   41.50    1.40
  -3   7  -4   43.60    1.50
  -3   7  -4   43.20    1.10
  -3   7  -4   42.10    1.30
   3  -7   4   41.80    1.30
   3  -7   4   43.60    1.10
   3  -7   4   41.30    1.30
   3  -7   4   43.20    1.30
  -4   7  -4    0.60    0.20
  -4   7  -4    0.90    0.30
  -4   7  -4    0.40    0.20
   4  -7   4    0.80    0.20
   4  -7   4    0.50    0.20
   4  -7   4    0.90    0.20
   4  -7   4    0.50    0.20
  -5   7  -4    7.40    0.50
  -5   7  -4    7.40    0.40
  -5   7  -4    6.40    0.50
   5  -7   4    6.40    0.50
   5  -7   4    7.00    0.50
   5  -7   4    7.00    0.50
   5  -7   4    6.90    0.40
  -6   7  -4   10.60    0.50
  -6   7  -4   10.60    0.70
   6  -7   4    9.70    0.60
   6  -7   4   10.70    0.70
   6  -7   4   10.60    0.50
   6  -7   4   10.10    0.60
  -7  -6   4    0.90    0.30
  -6  -6   4   10.30    0.60
  -5  -6   4   52.19    1.60
   4   6  -4   59.29    2.40
   4   6  -4   56.99    1.60
  -4  -6   4   57.49    1.40
  -4  -6   4   55.39    1.60
  -4  -6   4   56.49    1.40
   3   6  -4   26.70    0.90
   3   6  -4   26.90    0.70
   3   6  -4   28.30    1.50
  -3  -6   4   26.60    0.70
  -3  -6   4   26.10    0.70
  -3  -6   4   28.10    0.90
  -3  -6   4   27.20    0.70
  -3  -6   4   26.00    0.70
   2   6  -4   30.90    0.90
   2   6  -4   28.70    1.00
   2   6  -4   32.10    0.90
  -2  -6   4   31.60    1.00
  -2  -6   4   30.90    0.80
  -2  -6   4   32.50    0.90
  -2  -6   4   32.30    0.90
  -2  -6   4   30.10    0.90
   1   6  -4    5.80    0.20
   1   6  -4    5.00    0.40
   1   6  -4    5.40    0.30
  -1  -6   4    5.50    0.30
  -1  -6   4    5.20    0.30
  -1  -6   4    5.90    0.60
  -1  -6   4    5.60    0.30
  -1  -6   4    5.90    0.20
  -1  -6   4    5.00    0.30
   0   6  -4   43.30    1.40
   0   6  -4   44.10    1.10
   0   6  -4   44.30    1.20
   0  -6   4   43.30    1.20
   0  -6   4   44.50    1.20
   0  -6   4   43.50    1.20
   0  -6   4   43.40    1.20
  -1   6  -4    0.00    0.10
  -1   6  -4    0.00    0.10
  -1   6  -4   -0.10    0.10
   1  -6   4    0.10    0.10
   1  -6   4    0.00    0.10
   1  -6   4    0.10    0.10
   1  -6   4    0.00    0.10
   1  -6   4    0.00    0.10
   1  -6   4    0.20    0.10
  -2   6  -4    4.40    0.30
  -2   6  -4    4.10    0.30
  -2   6  -4    4.30    0.20
  -2   6  -4    4.70    0.40
   2  -6   4    4.20    0.20
   2  -6   4    4.50    0.30
   2  -6   4    4.30    0.30
   2  -6   4    4.20    0.30
   2  -6   4    4.50    0.30
  -3   6  -4    1.20    0.30
  -3   6  -4    1.40    0.20
  -3   6  -4    1.40    0.20
  -3   6  -4    1.50    0.10
   3  -6   4    1.50    0.20
   3  -6   4    1.50    0.20
   3  -6   4    1.70    0.20
   3  -6   4    1.50    0.20
  -4   6  -4    7.90    0.40
  -4   6  -4    7.80    0.50
  -4   6  -4    8.00    0.50
   4  -6   4    7.30    0.50
   4  -6   4    7.60    0.40
   4  -6   4    8.30    0.40
   4  -6   4    7.30    0.50
  -5   6  -4    1.50    0.20
  -5   6  -4    2.10    0.30
  -5   6  -4    2.40    0.30
   5  -6   4    1.90    0.20
   5  -6   4    1.40    0.30
   5  -6   4    1.20    0.20
   5  -6   4    1.60    0.30
  -6   6  -4    1.90    0.30
  -6   6  -4    1.80    0.20
   6  -6   4    1.60    0.30
   6  -6   4    1.90    0.20
   6  -6   4    1.60    0.30
   6  -6   4    1.70    0.30
  -7  -5   4    3.00    0.40
  -6  -5   4    1.00    0.30
   5   5  -4    9.40    0.90
  -5  -5   4    7.90    0.50
   4   5  -4    1.10    0.20
   4   5  -4    0.50    0.30
  -4  -5   4    1.00    0.20
   3   5  -4   33.90    1.00
   3   5  -4   34.50    1.60
  -3  -5   4   32.80    1.00
  -3  -5   4   33.70    0.90
  -3  -5   4   34.50    0.80
   2   5  -4   17.20    0.50
   2   5  -4   17.10    0.70
   2   5  -4   17.40    0.50
  -2  -5   4   16.80    0.50
  -2  -5   4   17.40    0.50
  -2  -5   4   16.90    0.50
  -2  -5   4   18.40    1.00
  -2  -5   4   18.20    0.60
   1   5  -4  143.79    3.70
   1   5  -4  152.78    3.50
   1   5  -4  153.18    3.40
  -1  -5   4  146.69    3.50
  -1  -5   4  148.19    3.40
  -1  -5   4  147.99    3.50
  -1  -5   4  148.29    3.50
  -1  -5   4  151.88    4.20
  -1  -5   4  149.09    3.50
   0   5  -4   27.50    0.80
   0   5  -4   27.00    1.00
   0   5  -4   28.00    0.70
   0  -5   4   27.80    0.80
   0  -5   4   27.80    0.80
   0  -5   4   27.30    0.80
   0  -5   4   26.80    0.80
   0  -5   4   27.30    0.80
  -1   5  -4    0.20    0.10
  -1   5  -4    0.20    0.10
  -1   5  -4    0.00    0.10
   1  -5   4    0.10    0.10
   1  -5   4    0.20    0.10
   1  -5   4    0.30    0.10
   1  -5   4    0.20    0.10
   1  -5   4    0.10    0.10
   1  -5   4    0.10    0.10
   1  -5   4    0.10    0.10
  -2   5  -4    0.20    0.10
  -2   5  -4    0.40    0.10
  -2   5  -4    0.10    0.10
  -2   5  -4    0.20    0.10
   2  -5   4    0.10    0.10
   2  -5   4    0.30    0.10
   2  -5   4    0.20    0.10
   2  -5   4    0.20    0.10
   2  -5   4    0.10    0.10
  -3   5  -4    8.90    0.40
  -3   5  -4    9.30    0.30
  -3   5  -4    8.70    0.50
  -3   5  -4    8.80    0.50
   3  -5   4    8.80    0.40
   3  -5   4    9.50    0.40
   3  -5   4    9.80    0.50
   3  -5   4    9.60    0.50
  -4   5  -4   10.20    0.50
  -4   5  -4   10.40    0.60
  -4   5  -4    9.50    0.50
   4  -5   4    9.70    0.40
   4  -5   4    9.10    0.50
   4  -5   4    9.40    0.50
   4  -5   4    9.20    0.50
  -5   5  -4    4.50    0.30
  -5   5  -4    4.20    0.40
  -5   5  -4    4.40    0.40
   5  -5   4    4.10    0.30
   5  -5   4    4.30    0.40
   5  -5   4    4.20    0.30
   5  -5   4    4.20    0.40
  -6   5  -4    9.90    0.40
  -6   5  -4    9.60    0.60
   6  -5   4    9.70    0.60
   6  -5   4    9.70    0.50
   6  -5   4    9.60    0.60
   6  -5   4    9.90    0.50
   7  -5   4    0.10    0.20
  -7  -4   4    0.40    0.20
   6   4  -4    0.80    0.40
  -6  -4   4    0.50    0.20
   5   4  -4   28.70    1.60
  -5  -4   4   29.10    1.00
   4   4  -4    9.60    0.80
  -4  -4   4    8.60    0.50
   3   4  -4    5.80    0.30
   3   4  -4    5.00    0.70
  -3  -4   4    5.80    0.20
  -3  -4   4    5.50    0.30
   2   4  -4  105.69    3.20
   2   4  -4  106.69    2.40
   2   4  -4  105.79    2.60
   2   4  -4  110.59    2.50
  -2  -4   4  103.99    2.60
  -2  -4   4  104.59    2.40
  -2  -4   4  104.49    2.50
  -2  -4   4  104.39    2.40
  -2  -4   4  104.09    2.40
  -2  -4   4  108.29    3.10
   1   4  -4   28.30    0.90
   1   4  -4   29.10    0.80
  -1  -4   4   28.90    0.70
  -1  -4   4   28.20    0.80
  -1  -4   4   27.50    0.80
  -1  -4   4   28.20    0.80
  -1  -4   4   27.50    0.70
  -1  -4   4   28.10    0.80
   0   4  -4   33.90    1.10
   0   4  -4   35.00    0.90
   0   4  -4   35.70    1.00
   0  -4   4   34.50    0.90
   0  -4   4   34.60    0.90
   0  -4   4   35.50    1.00
   0  -4   4   36.10    0.90
   0  -4   4   34.40    0.90
  -1   4  -4   35.40    1.10
  -1   4  -4   36.10    0.90
  -1   4  -4   35.80    1.00
  -1   4  -4   35.10    1.00
   1  -4   4   36.80    1.00
   1  -4   4   36.00    1.00
   1  -4   4   36.40    1.00
   1  -4   4   35.20    0.90
   1  -4   4   37.80    1.20
   1  -4   4   35.80    1.00
  -2   4  -4 1451.75   34.10
  -2   4  -4 1516.25   34.20
  -2   4  -4 1481.65   34.00
  -2   4  -4 1537.25   34.20
   2  -4   4 1525.75   34.10
   2  -4   4 1534.15   34.70
   2  -4   4 1559.14   34.60
   2  -4   4 1480.55   34.00
   2  -4   4 1530.65   33.80
  -3   4  -4    0.00    0.10
  -3   4  -4    0.20    0.20
  -3   4  -4    0.00    0.10
  -3   4  -4    0.10    0.10
  -3   4  -4    0.30    0.10
   3  -4   4    0.10    0.10
   3  -4   4    0.00    0.10
   3  -4   4    0.00    0.10
   3  -4   4    0.10    0.10
  -4   4  -4    9.70    0.50
  -4   4  -4    9.80    0.40
  -4   4  -4   10.50    0.50
  -4   4  -4    9.90    0.50
   4  -4   4   10.20    0.50
   4  -4   4   10.20    0.50
   4  -4   4   10.30    0.50
   4  -4   4    9.50    0.40
  -5   4  -4    8.30    0.50
  -5   4  -4    8.40    0.40
  -5   4  -4    8.10    0.50
   5  -4   4    8.40    0.40
   5  -4   4    7.90    0.50
   5  -4   4    8.00    0.40
   5  -4   4    7.70    0.50
  -6   4  -4    0.70    0.20
   6  -4   4    1.00    0.20
   6  -4   4    0.80    0.20
   6  -4   4    0.80    0.20
   6  -4   4    0.80    0.20
  -7   4  -4    1.40    0.30
   7  -4   4    2.10    0.30
   7  -4   4    1.50    0.20
   7  -4   4    1.50    0.30
   7  -4   4    1.20    0.30
  -7  -3   4    8.20    0.60
   6   3  -4    0.00    0.30
  -6  -3   4    0.20    0.20
   5   3  -4   18.30    1.20
  -5  -3   4   18.90    0.80
   4   3  -4    6.10    0.70
  -4  -3   4    6.60    0.40
   3   3  -4    1.40    0.10
   3   3  -4    1.40    0.30
  -3  -3   4    1.40    0.20
   2   3  -4    7.00    0.30
   2   3  -4    6.40    0.60
  -2  -3   4    6.60    0.30
  -2  -3   4    7.00    0.60
  -2  -3   4    6.60    0.20
   1   3  -4    1.80    0.10
   1   3  -4    1.80    0.20
  -1  -3   4    1.50    0.10
  -1  -3   4    1.40    0.10
  -1  -3   4    1.60    0.10
  -1  -3   4    1.50    0.10
  -1  -3   4    1.60    0.10
  -1  -3   4    1.60    0.10
  -1  -3   4    1.90    0.40
   0   3  -4   16.80    0.60
   0   3  -4   18.10    0.50
   0   3  -4   17.30    0.40
   0  -3   4   16.70    0.50
   0  -3   4   16.50    0.50
   0  -3   4   16.90    0.50
   0  -3   4   16.90    0.50
   0  -3   4   17.20    0.50
   0  -3   4   17.10    0.50
  -1   3  -4    3.10    0.30
  -1   3  -4    2.60    0.20
  -1   3  -4    2.60    0.20
  -1   3  -4    2.80    0.20
  -1   3  -4    2.90    0.20
   1  -3   4    2.90    0.20
   1  -3   4    2.50    0.20
   1  -3   4    2.80    0.20
   1  -3   4    2.80    0.10
  -2   3  -4  801.72   19.50
  -2   3  -4  861.11   19.30
  -2   3  -4  870.91   19.30
  -2   3  -4  869.21   19.40
   2  -3   4  854.11   19.70
   2  -3   4  881.71   19.20
   2  -3   4  881.61   19.60
   2  -3   4  841.82   19.40
   2  -3   4  853.31   19.30
  -3   3  -4   11.80    0.50
  -3   3  -4   10.30    0.50
  -3   3  -4   10.70    0.40
  -3   3  -4   11.30    0.50
  -3   3  -4   10.20    0.40
   3  -3   4   10.70    0.40
   3  -3   4   10.40    0.40
   3  -3   4   10.70    0.50
  -4   3  -4    0.40    0.10
  -4   3  -4    0.20    0.10
  -4   3  -4    0.10    0.10
  -4   3  -4    0.30    0.10
  -4   3  -4    0.10    0.10
   4  -3   4    0.30    0.10
   4  -3   4    0.00    0.10
   4  -3   4    0.30    0.10
   4  -3   4    0.40    0.10
  -5   3  -4    3.30    0.30
  -5   3  -4    3.20    0.30
  -5   3  -4    2.60    0.30
  -5   3  -4    3.10    0.20
   5  -3   4    3.10    0.20
   5  -3   4    3.00    0.30
   5  -3   4    2.90    0.30
   5  -3   4    3.50    0.30
  -6   3  -4    5.80    0.40
   6  -3   4    6.00    0.40
   6  -3   4    5.70    0.40
   6  -3   4    5.70    0.40
   6  -3   4    5.70    0.30
  -7   3  -4    1.20    0.30
   7  -3   4    1.40    0.20
   7  -3   4    1.50    0.30
   7  -3   4    1.40    0.30
   7  -3   4    1.70    0.30
  -7  -2   4    1.70    0.30
   6   2  -4   14.10    1.10
  -6  -2   4   15.30    0.70
   5   2  -4   22.90    1.30
  -5  -2   4   20.90    0.80
   4   2  -4    0.00    0.10
  -4  -2   4    0.00    0.10
  -3  -2   4    2.00    0.20
   2   2  -4   78.49    1.90
  -2  -2   4   76.49    2.40
  -2  -2   4   77.19    1.90
  -2  -2   4   78.99    1.80
   1   2  -4    4.00    0.20
   1   2  -4    3.90    0.20
  -1  -2   4    3.50    0.20
  -1  -2   4    3.50    0.10
  -1  -2   4    3.00    0.10
  -1  -2   4    3.80    0.40
  -1  -2   4    3.70    0.20
   0   2  -4  102.29    2.50
   0   2  -4  105.29    2.40
   0   2  -4  108.29    2.50
   0  -2   4  101.39    2.40
   0  -2   4  104.99    2.40
   0  -2   4  102.69    2.40
   0  -2   4  104.29    2.40
   0  -2   4  103.79    2.50
  -1   2  -4   82.59    2.00
  -1   2  -4   83.99    2.10
  -1   2  -4   84.49    2.00
  -1   2  -4   83.39    2.00
   1  -2   4   83.19    2.00
   1  -2   4   80.89    2.00
   1  -2   4   83.39    1.90
   1  -2   4   85.99    2.00
   1  -2   4   72.79    2.00
  -2   2  -4   57.09    1.50
  -2   2  -4   59.49    1.30
  -2   2  -4   54.79    1.40
  -2   2  -4   54.19    1.40
   2  -2   4   55.69    1.40
   2  -2   4   54.29    1.40
   2  -2   4   52.89    1.30
   2  -2   4   55.29    1.40
   2  -2   4   51.69    1.40
  -3   2  -4   36.30    1.00
  -3   2  -4   35.70    1.00
  -3   2  -4   35.70    1.00
  -3   2  -4   35.30    1.00
  -3   2  -4   37.60    1.10
   3  -2   4   36.00    1.00
   3  -2   4   36.30    1.00
   3  -2   4   36.00    1.00
   3  -2   4   35.80    0.90
  -4   2  -4    0.70    0.20
  -4   2  -4    0.80    0.10
  -4   2  -4    0.80    0.10
  -4   2  -4    0.60    0.10
  -4   2  -4    0.50    0.10
   4  -2   4    0.50    0.10
   4  -2   4    0.60    0.10
   4  -2   4    0.70    0.20
  -5   2  -4  138.59    3.20
  -5   2  -4  141.39    3.40
  -5   2  -4  132.29    3.20
  -5   2  -4  137.39    3.40
  -5   2  -4  137.09    3.30
   5  -2   4  138.39    3.40
   5  -2   4  133.19    3.40
   5  -2   4  136.49    3.20
   5  -2   4  134.19    3.30
  -6   2  -4    4.40    0.30
  -6   2  -4    4.70    0.40
   6  -2   4    4.80    0.30
   6  -2   4    4.70    0.40
   6  -2   4    4.70    0.30
   6  -2   4    4.80    0.40
  -7   2  -4    2.60    0.30
   7  -2   4    2.50    0.30
   7  -2   4    2.80    0.20
   7  -2   4    2.50    0.30
  -7  -1   4   -0.10    0.10
  -7  -1   4   -0.10    0.10
  -7  -1   4    0.00    0.20
   6   1  -4  110.59    3.80
  -6  -1   4  111.29    2.90
   5   1  -4   29.10    1.50
  -5  -1   4   30.50    1.00
   4   1  -4    0.00    0.10
  -4  -1   4   -0.10    0.10
   3   1  -4  176.88    4.80
  -3  -1   4  180.18    4.20
   2   1  -4   40.00    1.50
  -2  -1   4   41.50    1.50
  -2  -1   4   40.70    1.10
   1   1  -4    1.00    0.10
   1   1  -4    1.00    0.20
   1   1  -4    0.90    0.10
  -1  -1   4    0.80    0.10
  -1  -1   4    0.80    0.10
  -1  -1   4    0.80    0.20
  -1  -1   4    0.80    0.10
   0   1  -4   56.19    1.30
   0   1  -4   54.49    1.40
   0   1  -4   55.19    1.30
   0  -1   4   54.59    1.30
   0  -1   4   55.49    1.30
   0  -1   4   53.39    1.30
   0  -1   4   55.09    1.30
   0  -1   4   52.29    1.30
  -1   1  -4   91.89    2.20
  -1   1  -4   89.39    2.10
   1  -1   4   93.69    2.10
   1  -1   4   91.59    2.20
   1  -1   4   87.79    2.10
   1  -1   4   90.89    2.10
   1  -1   4   88.09    2.10
  -2   1  -4   22.00    0.70
  -2   1  -4   21.10    0.60
  -2   1  -4   22.70    0.70
  -2   1  -4   22.80    0.70
  -2   1  -4   22.10    0.60
  -2   1  -4   22.20    0.70
   2  -1   4   21.50    0.60
   2  -1   4   23.10    0.60
   2  -1   4   22.00    0.70
  -3   1  -4    9.40    0.40
  -3   1  -4    8.90    0.40
  -3   1  -4    9.30    0.40
  -3   1  -4    8.90    0.40
  -3   1  -4    9.20    0.40
   3  -1   4    8.70    0.30
   3  -1   4    9.20    0.40
   3  -1   4    9.20    0.40
  -4   1  -4    1.70    0.20
  -4   1  -4    2.20    0.20
  -4   1  -4    1.60    0.20
  -4   1  -4    1.80    0.20
   4  -1   4    1.80    0.20
   4  -1   4    2.00    0.20
   4  -1   4    2.10    0.20
   4  -1   4    1.70    0.10
  -5   1  -4    4.10    0.30
  -5   1  -4    3.70    0.20
  -5   1  -4    3.50    0.20
  -5   1  -4    3.50    0.30
  -5   1  -4    3.70    0.30
   5  -1   4    3.50    0.30
   5  -1   4    4.00    0.30
   5  -1   4    3.80    0.20
   5  -1   4    3.70    0.30
  -6   1  -4   12.90    0.60
  -6   1  -4   11.80    0.60
  -6   1  -4   13.50    0.60
  -6   1  -4   12.30    0.50
   6  -1   4   13.20    0.60
   6  -1   4   12.60    0.40
   6  -1   4   11.50    0.60
   6  -1   4   12.60    0.50
  -7   1  -4    9.90    0.60
  -7   1  -4   11.20    0.60
   7  -1   4   10.80    0.60
   7  -1   4   10.50    0.50
  -7   0   4    0.30    0.20
  -7   0   4    0.10    0.10
  -7   0   4    0.30    0.10
  -7   0   4    0.30    0.10
  -7   0   4    0.20    0.10
   6   0  -4    3.10    0.60
  -6   0   4    3.50    0.40
  -6   0   4    3.20    0.20
  -6   0   4    3.00    0.20
   5   0  -4    2.70    0.20
   5   0  -4    2.20    0.50
  -5   0   4    2.90    0.30
   4   0  -4   52.29    2.00
   4   0  -4   52.29    1.20
  -4   0   4   50.29    1.40
   2   0  -4    0.10    0.10
   2   0  -4    0.10    0.20
   1   0  -4  342.27    8.20
   1   0  -4  375.36    7.80
   1   0  -4  346.27    7.80
  -1   0   4  332.97    8.20
  -1   0   4  347.37    7.80
  -1   0   4  336.67    7.70
  -1   0   4  347.07    8.90
   0   0  -4  185.78    4.20
   0   0  -4  183.88    4.30
   0   0  -4  185.28    4.30
   0   0   4  183.88    4.30
   0   0   4  184.48    4.30
   0   0   4  212.68    4.60
   0   0   4  191.18    4.30
   0   0   4  186.48    4.30
  -1   0  -4  176.58    4.00
  -1   0  -4  172.78    4.10
  -1   0  -4  179.98    4.10
   1   0   4  171.08    4.00
   1   0   4  180.28    4.10
   1   0   4  172.68    4.10
   1   0   4  188.88    4.20
   1   0   4  176.48    4.10
  -2   0  -4    7.80    0.20
  -2   0  -4    6.90    0.30
  -2   0  -4    7.50    0.30
  -2   0  -4    7.40    0.30
  -2   0  -4    8.40    0.30
  -2   0  -4    7.80    0.30
   2   0   4    7.50    0.30
   2   0   4    8.00    0.30
   2   0   4    7.60    0.20
   2   0   4    7.60    0.30
  -3   0  -4   19.30    0.60
  -3   0  -4   19.30    0.60
  -3   0  -4   20.00    0.60
  -3   0  -4   20.70    0.60
   3   0   4   20.40    0.60
   3   0   4   19.60    0.60
   3   0   4   20.00    0.50
   3   0   4   19.80    0.60
  -4   0  -4   15.80    0.50
  -4   0  -4   15.70    0.50
  -4   0  -4   15.50    0.50
  -4   0  -4   15.80    0.60
  -4   0  -4   15.70    0.50
   4   0   4   15.80    0.60
   4   0   4   14.60    0.60
   4   0   4   15.70    0.50
   4   0   4   15.30    0.40
  -5   0  -4    0.50    0.10
  -5   0  -4    0.70    0.10
  -5   0  -4    0.60    0.20
   5   0   4    0.70    0.10
   5   0   4    0.60    0.10
   5   0   4    0.60    0.10
   5   0   4    0.70    0.20
  -6   0  -4    1.50    0.20
  -6   0  -4    1.60    0.20
  -6   0  -4    1.50    0.20
   6   0   4    1.90    0.20
   6   0   4    1.40    0.20
   6   0   4    1.90    0.20
  -7   0  -4    0.10    0.10
  -7   0  -4    0.00    0.10
   7   0   4   -0.10    0.10
   7   0   4    0.10    0.10
  -8   0  -4    2.70    0.30
  -7   1   4   13.80    0.60
  -7   1   4   14.50    0.50
  -7   1   4   13.90    0.70
  -7   1   4   13.00    0.50
   6  -1  -4    3.30    0.70
   6  -1  -4    4.50    0.30
  -6   1   4    4.10    0.30
  -6   1   4    4.00    0.20
  -6   1   4    4.10    0.20
  -6   1   4    4.60    0.40
  -6   1   4    4.50    0.20
   5  -1  -4   67.79    1.70
   5  -1  -4   69.09    2.60
  -5   1   4   70.29    1.70
  -5   1   4   69.69    1.60
  -5   1   4   69.69    1.90
   4  -1  -4    3.90    0.20
   4  -1  -4    2.70    0.50
  -4   1   4    4.00    0.20
  -4   1   4    3.70    0.30
  -4   1   4    3.50    0.10
   3  -1  -4    3.80    0.50
   3  -1  -4    4.70    0.20
  -3   1   4    4.20    0.10
  -3   1   4    4.20    0.10
   2  -1  -4    3.00    0.20
   2  -1  -4    3.30    0.40
  -2   1   4    3.00    0.10
  -2   1   4    2.80    0.10
   1  -1  -4  149.39    3.40
   1  -1  -4  154.18    3.40
  -1   1   4  151.38    3.40
  -1   1   4  138.69    3.40
  -1   1   4  150.08    3.40
  -1   1   4  147.69    3.70
  -1   1   4  151.48    3.40
   0  -1  -4  473.95   10.80
   0  -1  -4  499.35   11.00
   0  -1  -4  474.35   10.90
   0   1   4  483.35   10.80
   0   1   4  462.05   11.00
   0   1   4  491.75   11.10
   0   1   4  488.85   10.90
   0   1   4  478.85   11.00
   0   1   4  492.25   10.90
  -1  -1  -4  205.68    4.60
  -1  -1  -4  198.18    4.60
  -1  -1  -4  200.28    4.50
  -1  -1  -4  201.68    4.60
  -1  -1  -4  201.98    4.60
   1   1   4  200.88    4.60
   1   1   4  202.98    4.50
   1   1   4  200.28    4.60
  -2  -1  -4   26.30    0.70
  -2  -1  -4   26.80    0.70
  -2  -1  -4   26.80    0.70
  -2  -1  -4   25.30    0.70
  -2  -1  -4   25.50    0.70
   2   1   4   26.00    0.60
   2   1   4   25.50    0.70
   2   1   4   26.20    0.70
  -3  -1  -4    7.80    0.30
  -3  -1  -4    8.90    0.30
  -3  -1  -4    7.80    0.30
  -3  -1  -4    8.20    0.30
   3   1   4    7.90    0.30
   3   1   4    7.90    0.30
   3   1   4    8.10    0.20
   3   1   4    7.80    0.30
  -4  -1  -4   30.40    0.90
  -4  -1  -4   30.10    0.90
  -4  -1  -4   30.30    0.80
  -4  -1  -4   32.10    0.90
   4   1   4   31.50    0.90
   4   1   4   30.40    0.90
   4   1   4   30.30    0.80
   4   1   4   29.80    0.90
  -5  -1  -4    0.10    0.10
  -5  -1  -4    0.10    0.10
  -5  -1  -4    0.10    0.10
   5   1   4    0.10    0.10
   5   1   4    0.10    0.10
   5   1   4   -0.10    0.10
  -6  -1  -4    1.20    0.20
  -6  -1  -4    1.50    0.20
  -6  -1  -4    1.20    0.20
   6   1   4    1.50    0.20
   6   1   4    1.30    0.20
   6   1   4    1.50    0.20
  -7  -1  -4    1.40    0.20
  -7  -1  -4    1.80    0.20
  -7  -1  -4    1.30    0.20
   7   1   4    1.30    0.20
   7   1   4    1.80    0.30
  -8  -1  -4    4.40    0.40
  -8  -1  -4    4.70    0.40
   8   1   4    4.30    0.40
   8   1   4    4.00    0.30
   7  -2  -4    5.90    0.40
  -7   2   4    6.50    0.40
  -7   2   4    6.90    0.40
  -7   2   4    6.30    0.50
  -7   2   4    6.50    0.30
   6  -2  -4    0.10    0.10
  -6   2   4    0.20    0.10
  -6   2   4    0.20    0.10
  -6   2   4    0.00    0.10
  -6   2   4    0.00    0.10
   5  -2  -4   24.10    0.70
  -5   2   4   23.70    0.70
  -5   2   4   24.50    0.70
  -5   2   4   24.00    0.70
  -5   2   4   24.40    0.70
  -5   2   4   24.10    0.90
   4  -2  -4   18.00    0.50
   4  -2  -4   17.20    0.50
  -4   2   4   15.80    0.50
  -4   2   4   16.10    0.60
  -4   2   4   16.80    0.50
  -4   2   4   16.60    0.50
  -4   2   4   17.40    0.50
   3  -2  -4  132.49    3.00
   3  -2  -4  134.39    3.10
  -3   2   4  128.49    2.90
  -3   2   4  125.19    2.90
  -3   2   4  122.79    2.90
  -3   2   4  127.69    3.00
   2  -2  -4    4.10    0.20
   2  -2  -4    4.30    0.20
   2  -2  -4    3.80    0.40
  -2   2   4    3.80    0.20
  -2   2   4    4.10    0.20
  -2   2   4    4.30    0.20
   1  -2  -4    0.50    0.10
   1  -2  -4    0.70    0.10
   1  -2  -4    0.70    0.10
  -1   2   4    0.70    0.10
  -1   2   4    0.60    0.10
  -1   2   4    0.60    0.10
  -1   2   4    0.70    0.10
   0  -2  -4   60.99    1.50
   0  -2  -4   61.79    1.50
   0   2   4   61.99    1.50
   0   2   4   61.19    1.40
   0   2   4   62.39    1.50
   0   2   4   58.49    1.60
   0   2   4   61.89    1.50
   0   2   4   63.39    1.50
  -1  -2  -4  127.09    2.90
  -1  -2  -4  121.39    2.80
  -1  -2  -4  123.19    2.80
  -1  -2  -4  126.59    2.90
  -1  -2  -4  122.89    2.90
   1   2   4  124.29    2.80
   1   2   4  118.79    2.90
   1   2   4  123.09    2.80
  -2  -2  -4  234.98    5.40
  -2  -2  -4  232.88    5.40
  -2  -2  -4  229.08    5.40
  -2  -2  -4  244.98    5.40
  -2  -2  -4  235.28    5.40
   2   2   4  236.18    5.40
   2   2   4  230.08    5.30
   2   2   4  236.18    5.40
   2   2   4  240.68    5.40
  -3  -2  -4    2.40    0.20
  -3  -2  -4    2.10    0.20
  -3  -2  -4    2.70    0.20
  -3  -2  -4    2.80    0.20
  -3  -2  -4    2.90    0.20
  -3  -2  -4    2.60    0.20
   3   2   4    2.60    0.20
   3   2   4    2.50    0.10
   3   2   4    3.00    0.20
   3   2   4    2.60    0.20
  -4  -2  -4    0.50    0.10
  -4  -2  -4    0.30    0.10
  -4  -2  -4    0.40    0.10
  -4  -2  -4    0.50    0.10
   4   2   4    0.50    0.10
   4   2   4    0.50    0.10
   4   2   4    0.60    0.10
  -5  -2  -4    6.70    0.30
  -5  -2  -4    6.20    0.30
  -5  -2  -4    6.20    0.30
   5   2   4    6.60    0.30
   5   2   4    6.80    0.30
   5   2   4    6.40    0.30
  -6  -2  -4   16.90    0.60
  -6  -2  -4   16.30    0.60
  -6  -2  -4   15.80    0.60
   6   2   4   16.90    0.60
   6   2   4   15.50    0.60
  -7  -2  -4    5.70    0.40
  -7  -2  -4    6.40    0.40
  -7  -2  -4    5.80    0.30
   7   2   4    5.80    0.30
   7   2   4    5.30    0.40
  -8  -2  -4    4.40    0.40
  -8  -2  -4    3.90    0.30
   8   2   4    3.90    0.40
   8   2   4    4.00    0.30
   7  -3  -4    0.10    0.10
  -7   3   4    0.20    0.20
  -7   3   4    0.20    0.10
  -7   3   4   -0.10    0.10
  -7   3   4    0.30    0.10
   6  -3  -4    0.90    0.20
  -6   3   4    1.00    0.20
  -6   3   4    0.80    0.10
  -6   3   4    0.90    0.20
  -6   3   4    1.10    0.20
   5  -3  -4  135.59    3.30
  -5   3   4  137.59    3.20
  -5   3   4  135.09    3.30
  -5   3   4  140.19    3.40
  -5   3   4  138.29    3.20
  -5   3   4  132.59    3.20
   4  -3  -4    3.90    0.20
   4  -3  -4    4.60    0.30
   4  -3  -4    4.40    0.30
  -4   3   4    4.30    0.20
  -4   3   4    4.40    0.20
  -4   3   4    4.30    0.20
   3  -3  -4   20.60    0.60
   3  -3  -4   19.70    0.60
  -3   3   4   20.40    0.60
  -3   3   4   19.60    0.50
  -3   3   4   18.80    0.60
  -3   3   4   18.80    0.60
   2  -3  -4  294.27    6.70
   2  -3  -4  296.57    6.70
  -2   3   4  291.57    6.60
  -2   3   4  288.17    6.60
  -2   3   4  294.27    6.60
  -2   3   4  294.97    6.50
  -2   3   4  284.27    6.60
   1  -3  -4    1.60    0.10
   1  -3  -4    1.90    0.10
   1  -3  -4    1.50    0.10
   1  -3  -4    1.50    0.20
  -1   3   4    1.90    0.10
  -1   3   4    2.10    0.10
  -1   3   4    1.70    0.10
  -1   3   4    2.00    0.20
   0  -3  -4   42.00    1.00
   0  -3  -4   42.50    1.10
   0   3   4   40.90    1.10
   0   3   4   42.60    1.10
   0   3   4   39.80    1.10
   0   3   4   42.20    1.10
   0   3   4   41.10    1.20
   0   3   4   42.70    1.00
   0   3   4   42.20    1.00
  -1  -3  -4  109.09    2.50
  -1  -3  -4  108.59    2.60
  -1  -3  -4  112.39    2.60
  -1  -3  -4  110.69    2.60
  -1  -3  -4  110.99    2.60
   1   3   4  111.09    2.60
   1   3   4  110.59    2.50
  -2  -3  -4  703.93   15.40
  -2  -3  -4  670.63   15.70
  -2  -3  -4  678.63   15.70
  -2  -3  -4  669.03   15.50
  -2  -3  -4  690.33   15.60
   2   3   4  664.43   15.40
   2   3   4  725.83   15.50
   2   3   4  687.33   15.40
   2   3   4  687.23   15.60
  -3  -3  -4  129.49    3.10
  -3  -3  -4  129.09    3.10
  -3  -3  -4  135.29    3.10
   3   3   4  130.49    3.10
   3   3   4  142.19    3.10
   3   3   4  137.89    3.20
  -4  -3  -4    0.00    0.10
  -4  -3  -4    0.00    0.10
  -4  -3  -4    0.00    0.10
  -4  -3  -4    0.00    0.10
  -4  -3  -4    0.10    0.10
   4   3   4   -0.10    0.10
   4   3   4    0.00    0.10
   4   3   4    0.00    0.10
  -5  -3  -4    0.90    0.10
  -5  -3  -4    0.90    0.10
  -5  -3  -4    1.30    0.20
  -5  -3  -4    1.00    0.10
  -5  -3  -4    0.80    0.10
   5   3   4    0.90    0.10
   5   3   4    0.90    0.10
   5   3   4    1.00    0.10
  -6  -3  -4   19.30    0.70
  -6  -3  -4   19.60    0.60
  -6  -3  -4   18.70    0.70
   6   3   4   19.50    0.70
   6   3   4   19.20    0.60
  -7  -3  -4   52.09    1.40
  -7  -3  -4   49.50    1.40
  -7  -3  -4   49.70    1.40
   7   3   4   51.59    1.50
   7   3   4   48.80    1.40
  -8  -3  -4    0.10    0.10
  -8  -3  -4    0.00    0.10
  -8  -3  -4    0.10    0.10
  -8  -3  -4   -0.10    0.10
   8   3   4    0.10    0.10
   8   3   4    0.10    0.10
   7  -4  -4    6.80    0.40
  -7   4   4    6.90    0.40
  -7   4   4    6.00    0.50
  -7   4   4    6.50    0.50
  -7   4   4    6.60    0.40
   6  -4  -4   10.80    0.50
  -6   4   4   11.30    0.60
  -6   4   4   11.70    0.50
  -6   4   4   10.10    0.50
  -6   4   4   10.50    0.50
   5  -4  -4    0.60    0.20
  -5   4   4    0.50    0.20
  -5   4   4    0.50    0.10
  -5   4   4    0.50    0.20
  -5   4   4    0.50    0.10
   4  -4  -4  383.06    8.70
   4  -4  -4  387.36    8.70
  -4   4   4  380.56    8.60
  -4   4   4  377.96    8.70
  -4   4   4  374.66    8.80
  -4   4   4  380.36    8.70
   3  -4  -4    1.40    0.20
   3  -4  -4    1.50    0.20
   3  -4  -4    1.10    0.20
  -3   4   4    1.10    0.10
  -3   4   4    1.20    0.10
  -3   4   4    1.20    0.20
  -3   4   4    1.20    0.10
   2  -4  -4   56.39    1.40
   2  -4  -4   57.79    1.30
   2  -4  -4   56.09    1.40
  -2   4   4   55.29    1.40
  -2   4   4   56.89    1.40
  -2   4   4   56.19    1.50
  -2   4   4   55.19    1.50
   1  -4  -4  480.45   10.70
   1  -4  -4  470.05   10.60
   1  -4  -4  480.15   10.70
  -1   4   4  470.45   10.80
  -1   4   4  462.85   10.70
  -1   4   4  474.25   10.70
  -1   4   4  468.75   10.70
  -1   4   4  473.15   10.60
   0  -4  -4  253.57    5.70
   0  -4  -4  251.77    5.70
   0  -4  -4  246.18    5.60
   0   4   4  245.38    5.60
   0   4   4  248.28    5.70
   0   4   4  249.88    5.70
   0   4   4  253.17    5.70
   0   4   4  249.88    5.70
  -1  -4  -4   44.80    1.00
  -1  -4  -4   45.30    1.10
  -1  -4  -4   44.00    1.20
  -1  -4  -4   46.10    1.10
  -1  -4  -4   44.60    1.20
   1   4   4   44.40    1.10
   1   4   4   45.00    1.10
  -2  -4  -4  205.98    4.80
  -2  -4  -4  212.68    4.80
  -2  -4  -4  206.78    4.80
  -2  -4  -4  208.48    4.80
  -2  -4  -4  214.08    4.80
   2   4   4  217.18    4.80
   2   4   4  204.88    4.80
   2   4   4  215.18    4.70
   2   4   4  211.38    4.90
  -3  -4  -4    0.20    0.10
  -3  -4  -4    0.30    0.10
  -3  -4  -4    0.20    0.10
   3   4   4    0.20    0.10
   3   4   4    0.20    0.10
   3   4   4    0.30    0.10
  -4  -4  -4    4.30    0.20
  -4  -4  -4    3.70    0.20
  -4  -4  -4    3.80    0.20
  -4  -4  -4    3.60    0.20
   4   4   4    3.80    0.20
   4   4   4    3.60    0.20
   4   4   4    3.90    0.20
  -5  -4  -4    4.20    0.20
  -5  -4  -4    3.90    0.30
  -5  -4  -4    4.80    0.30
  -5  -4  -4    4.10    0.30
   5   4   4    4.20    0.20
   5   4   4    4.10    0.20
   5   4   4    4.30    0.30
  -6  -4  -4   26.80    0.80
  -6  -4  -4   27.60    0.90
  -6  -4  -4   27.80    0.90
  -6  -4  -4   27.10    0.90
   6   4   4   28.70    0.90
   6   4   4   26.70    0.80
  -7  -4  -4    1.00    0.20
  -7  -4  -4    0.90    0.20
  -7  -4  -4    1.00    0.20
  -7  -4  -4    1.00    0.20
   7   4   4    0.80    0.20
   7   4   4    1.10    0.20
  -8  -4  -4    0.60    0.20
  -8  -4  -4    0.40    0.20
  -8  -4  -4    0.50    0.10
   8   4   4    0.70    0.20
   8   4   4    0.50    0.20
   7  -5  -4    0.10    0.20
  -7   5   4    0.50    0.20
  -7   5   4    0.40    0.20
  -7   5   4    0.20    0.20
   6  -5  -4    0.20    0.10
  -6   5   4    0.80    0.20
  -6   5   4    0.30    0.20
  -6   5   4    0.50    0.20
  -6   5   4    0.60    0.20
   5  -5  -4   66.79    1.80
   5  -5  -4   70.79    1.90
  -5   5   4   70.79    1.80
  -5   5   4   66.89    1.90
  -5   5   4   65.89    1.80
   4  -5  -4    0.30    0.10
   4  -5  -4    0.10    0.10
   4  -5  -4    0.20    0.10
  -4   5   4    0.50    0.20
  -4   5   4    0.40    0.10
  -4   5   4    0.30    0.10
   3  -5  -4    6.40    0.20
   3  -5  -4    6.80    0.40
   3  -5  -4    6.10    0.30
  -3   5   4    5.90    0.20
  -3   5   4    6.30    0.30
  -3   5   4    6.20    0.40
  -3   5   4    7.00    0.40
  -3   5   4    7.00    0.30
   2  -5  -4  306.67    7.10
   2  -5  -4  313.57    6.90
   2  -5  -4  294.57    7.10
   2  -5  -4  312.17    7.10
  -2   5   4  311.07    7.10
  -2   5   4  309.77    7.00
  -2   5   4  310.27    7.10
  -2   5   4  313.47    7.10
   1  -5  -4    0.30    0.10
   1  -5  -4    0.20    0.10
   1  -5  -4    0.10    0.10
  -1   5   4    0.20    0.10
  -1   5   4    0.30    0.10
  -1   5   4    0.40    0.10
  -1   5   4    0.30    0.10
  -1   5   4    0.30    0.10
  -1   5   4    0.20    0.10
   0  -5  -4   10.60    0.40
   0  -5  -4   10.50    0.40
   0  -5  -4   10.40    0.40
   0  -5  -4    9.70    0.30
   0   5   4   10.20    0.50
   0   5   4    9.70    0.30
   0   5   4    9.90    0.40
   0   5   4   10.50    0.40
  -1  -5  -4  277.57    6.20
  -1  -5  -4  268.07    6.10
  -1  -5  -4  265.97    6.00
  -1  -5  -4  267.07    6.20
  -1  -5  -4  269.87    6.10
   1   5   4  273.07    6.10
   1   5   4  264.17    6.10
   1   5   4  266.57    6.30
   1   5   4  285.27    6.10
   1   5   4  259.67    6.20
  -2  -5  -4    2.40    0.20
  -2  -5  -4    2.40    0.20
  -2  -5  -4    2.30    0.20
  -2  -5  -4    2.00    0.20
  -2  -5  -4    2.30    0.20
  -2  -5  -4    2.20    0.20
   2   5   4    2.40    0.20
   2   5   4    2.20    0.10
   2   5   4    2.50    0.20
   2   5   4    2.20    0.20
  -3  -5  -4   20.80    0.60
  -3  -5  -4   21.90    0.70
  -3  -5  -4   21.90    0.60
   3   5   4   21.50    0.70
   3   5   4   22.80    0.60
   3   5   4   22.20    0.60
  -4  -5  -4    0.20    0.10
  -4  -5  -4    0.10    0.10
  -4  -5  -4    0.10    0.10
  -4  -5  -4    0.30    0.10
   4   5   4    0.40    0.10
   4   5   4    0.10    0.10
   4   5   4    0.10    0.10
  -5  -5  -4  533.55   12.40
  -5  -5  -4  557.34   12.30
  -5  -5  -4  532.15   12.40
  -5  -5  -4  553.44   12.40
   5   5   4  555.94   12.30
   5   5   4  557.64   12.40
   5   5   4  538.95   12.40
  -6  -5  -4    8.30    0.40
  -6  -5  -4    8.20    0.40
  -6  -5  -4    8.30    0.40
   6   5   4    8.70    0.40
   6   5   4    8.40    0.40
  -7  -5  -4    2.00    0.20
  -7  -5  -4    1.90    0.20
  -7  -5  -4    1.60    0.20
   7   5   4    2.80    0.30
   7   5   4    2.00    0.20
  -8  -5  -4    0.30    0.10
  -8  -5  -4    0.30    0.10
  -8  -5  -4    0.20    0.10
   8   5   4    0.10    0.10
   8   5   4    0.40    0.10
   7  -6  -4    1.50    0.30
  -7   6   4    1.60    0.30
  -7   6   4    1.10    0.20
  -7   6   4    1.20    0.30
   6  -6  -4   37.00    1.20
  -6   6   4   39.00    1.20
  -6   6   4   37.30    1.30
  -6   6   4   39.80    1.20
   5  -6  -4   20.70    0.80
   5  -6  -4   19.80    0.80
  -5   6   4   20.70    0.80
  -5   6   4   20.60    0.70
  -5   6   4   20.80    0.80
   4  -6  -4    5.90    0.40
   4  -6  -4    6.80    0.30
   4  -6  -4    6.90    0.40
  -4   6   4    6.70    0.40
  -4   6   4    6.10    0.20
  -4   6   4    6.80    0.40
  -4   6   4    5.80    0.40
   3  -6  -4   36.10    0.90
   3  -6  -4   35.40    1.10
   3  -6  -4   33.60    1.10
  -3   6   4   36.40    1.10
  -3   6   4   35.80    0.90
  -3   6   4   36.80    1.00
  -3   6   4   34.90    1.00
   2  -6  -4   18.40    0.50
   2  -6  -4   19.60    0.70
   2  -6  -4   19.60    0.70
  -2   6   4   18.60    0.60
  -2   6   4   18.50    0.70
  -2   6   4   18.90    0.80
  -2   6   4   19.50    0.60
  -2   6   4   18.60    0.60
   1  -6  -4  344.37    7.90
   1  -6  -4  359.76    8.10
  -1   6   4  351.06    8.10
  -1   6   4  350.76    8.00
  -1   6   4  349.37    8.10
  -1   6   4  351.96    8.00
  -1   6   4  370.06    8.30
  -1   6   4  350.86    7.90
   0  -6  -4    3.80    0.30
   0  -6  -4    3.80    0.20
   0  -6  -4    3.70    0.20
   0  -6  -4    4.00    0.20
   0   6   4    3.40    0.20
   0   6   4    4.20    0.40
   0   6   4    4.10    0.30
   0   6   4    3.50    0.20
   0   6   4    3.70    0.20
  -1  -6  -4   20.90    0.50
  -1  -6  -4   20.50    0.60
  -1  -6  -4   20.60    0.60
  -1  -6  -4   20.80    0.70
  -1  -6  -4   20.70    0.60
  -1  -6  -4   20.60    0.60
   1   6   4   20.10    0.60
   1   6   4   20.90    0.60
   1   6   4   20.40    0.80
   1   6   4   20.70    0.60
  -2  -6  -4    3.70    0.20
  -2  -6  -4    4.40    0.20
  -2  -6  -4    4.00    0.20
  -2  -6  -4    3.80    0.20
  -2  -6  -4    2.80    0.20
   2   6   4    4.20    0.20
   2   6   4    3.90    0.30
   2   6   4    4.10    0.20
   2   6   4    4.20    0.20
   2   6   4    4.40    0.30
  -3  -6  -4    6.00    0.30
  -3  -6  -4    5.90    0.30
  -3  -6  -4    5.70    0.30
   3   6   4    6.70    0.30
   3   6   4    6.40    0.20
   3   6   4    5.90    0.30
   3   6   4    6.40    0.40
  -4  -6  -4   11.60    0.40
  -4  -6  -4   12.40    0.40
  -4  -6  -4   12.40    0.50
  -4  -6  -4   12.40    0.40
   4   6   4   11.80    0.40
   4   6   4   11.90    0.40
   4   6   4   11.90    0.50
  -5  -6  -4  113.79    2.80
  -5  -6  -4  115.99    2.70
  -5  -6  -4  114.19    2.80
   5   6   4  113.09    2.70
   5   6   4  113.29    2.80
  -6  -6  -4   11.80    0.50
  -6  -6  -4   12.30    0.50
  -6  -6  -4   12.00    0.50
   6   6   4   13.80    0.60
   6   6   4   12.20    0.50
  -7  -6  -4    2.90    0.30
  -7  -6  -4    3.20    0.20
  -7  -6  -4    3.50    0.30
   7   6   4    3.00    0.30
   7   6   4    3.00    0.20
   6  -7  -4    0.40    0.20
  -6   7   4    0.50    0.20
  -6   7   4    0.40    0.20
  -6   7   4    0.30    0.20
   5  -7  -4    0.20    0.20
   5  -7  -4    0.10    0.10
   5  -7  -4    0.20    0.20
  -5   7   4    0.40    0.10
  -5   7   4   -0.10    0.20
   4  -7  -4    5.70    0.40
   4  -7  -4    5.20    0.40
   4  -7  -4    5.50    0.30
  -4   7   4    5.60    0.40
  -4   7   4    5.40    0.40
  -4   7   4    5.70    0.40
  -4   7   4    5.20    0.20
   3  -7  -4    0.30    0.10
   3  -7  -4    0.20    0.10
   3  -7  -4    0.00    0.10
  -3   7   4    0.30    0.10
  -3   7   4    0.30    0.10
  -3   7   4    0.30    0.10
  -3   7   4    0.40    0.10
  -3   7   4    0.20    0.10
   2  -7  -4    3.40    0.30
   2  -7  -4    3.10    0.20
  -2   7   4    3.70    0.20
  -2   7   4    2.90    0.30
  -2   7   4    3.40    0.30
  -2   7   4    3.60    0.20
  -2   7   4    3.90    0.40
   1  -7  -4  138.29    3.30
   1  -7  -4  133.19    3.30
   1  -7  -4  138.19    3.20
   1  -7  -4  135.69    3.20
  -1   7   4  137.59    3.30
  -1   7   4  133.69    3.10
  -1   7   4  139.39    3.50
  -1   7   4  139.39    3.40
   0  -7  -4    1.10    0.20
   0  -7  -4    0.90    0.10
   0  -7  -4    1.10    0.10
   0  -7  -4    0.80    0.10
   0  -7  -4    0.80    0.10
   0   7   4    0.90    0.20
   0   7   4    0.70    0.10
   0   7   4    0.70    0.20
   0   7   4    0.70    0.10
   0   7   4    0.80    0.10
  -1  -7  -4  113.19    2.70
  -1  -7  -4  113.89    2.60
  -1  -7  -4  114.09    2.70
  -1  -7  -4  113.59    2.80
  -1  -7  -4  112.89    2.70
  -1  -7  -4  109.09    2.70
   1   7   4  116.89    2.70
   1   7   4  111.89    2.80
   1   7   4  113.29    2.60
   1   7   4  112.29    3.00
  -2  -7  -4    2.80    0.20
  -2  -7  -4    2.70    0.20
  -2  -7  -4    2.80    0.20
   2   7   4    2.30    0.20
   2   7   4    2.80    0.10
   2   7   4    2.70    0.30
   2   7   4    2.90    0.30
   2   7   4    2.90    0.20
  -3  -7  -4    0.00    0.10
  -3  -7  -4   -0.10    0.10
  -3  -7  -4    0.00    0.10
  -3  -7  -4    0.00    0.10
   3   7   4    0.10    0.10
   3   7   4    0.00    0.10
   3   7   4    0.00    0.10
   3   7   4    0.00    0.10
   3   7   4    0.00    0.10
  -4  -7  -4    3.10    0.20
  -4  -7  -4    3.20    0.20
  -4  -7  -4    3.20    0.30
  -4  -7  -4    2.90    0.20
   4   7   4    3.20    0.20
   4   7   4    2.80    0.50
   4   7   4    3.30    0.20
   4   7   4    2.90    0.30
  -5  -7  -4   32.10    0.90
  -5  -7  -4   31.30    0.90
  -5  -7  -4   31.60    1.00
   5   7   4   32.00    1.00
   5   7   4   32.10    0.90
  -6  -7  -4   -0.10    0.10
  -6  -7  -4   -0.10    0.10
  -6  -7  -4    0.00    0.10
   6   7   4    0.00    0.10
   6   7   4    0.10    0.10
  -7  -7  -4    5.90    0.30
  -7  -7  -4    6.10    0.40
  -7  -7  -4    6.00    0.30
   7   7   4    7.60    1.00
   7   7   4    5.70    0.30
   7   7   4    6.10    0.40
   6  -8  -4    3.00    0.30
   6  -8  -4    2.90    0.40
   6  -8  -4    3.20    0.40
  -6   8   4    3.60    0.40
  -6   8   4    3.50    0.40
   5  -8  -4    5.80    0.30
   5  -8  -4    5.40    0.40
   5  -8  -4    5.50    0.40
  -5   8   4    5.40    0.50
   4  -8  -4    0.40    0.10
   4  -8  -4    0.30    0.20
   4  -8  -4    0.30    0.20
  -4   8   4    0.50    0.20
  -4   8   4    0.20    0.10
  -4   8   4    0.30    0.20
   3  -8  -4   19.00    0.60
   3  -8  -4   19.00    0.80
   3  -8  -4   18.70    0.70
  -3   8   4   19.60    0.80
  -3   8   4   18.90    0.60
  -3   8   4   20.00    0.80
   2  -8  -4   19.40    0.60
   2  -8  -4   20.30    0.70
  -2   8   4   19.30    0.70
  -2   8   4   19.50    0.80
  -2   8   4   20.20    0.90
  -2   8   4   20.00    0.70
   1  -8  -4    8.20    0.40
   1  -8  -4    8.30    0.30
   1  -8  -4    8.00    0.40
   1  -8  -4    8.10    0.40
  -1   8   4    8.10    0.30
  -1   8   4    8.30    0.40
  -1   8   4    8.50    0.40
  -1   8   4    8.80    0.60
   0  -8  -4   11.50    0.30
   0  -8  -4   10.10    0.50
   0  -8  -4   10.90    0.40
   0  -8  -4   11.00    0.50
   0  -8  -4   11.30    0.40
   0   8   4   11.20    0.60
   0   8   4   11.00    0.50
   0   8   4   11.00    0.50
   0   8   4   10.90    0.50
   0   8   4   11.30    0.40
  -1  -8  -4   25.30    0.80
  -1  -8  -4   25.30    0.80
  -1  -8  -4   25.60    0.80
  -1  -8  -4   25.60    0.80
  -1  -8  -4   25.00    0.80
   1   8   4   25.10    0.70
   1   8   4   24.70    0.80
   1   8   4   24.20    1.00
   1   8   4   25.30    0.80
  -2  -8  -4    0.50    0.10
  -2  -8  -4    0.90    0.10
  -2  -8  -4    0.60    0.10
  -2  -8  -4    0.70    0.10
  -2  -8  -4    0.70    0.10
   2   8   4    0.60    0.20
   2   8   4    0.70    0.20
   2   8   4    0.70    0.10
   2   8   4    0.60    0.10
   2   8   4    0.40    0.10
  -3  -8  -4    2.80    0.20
  -3  -8  -4    2.80    0.30
  -3  -8  -4    2.40    0.20
  -3  -8  -4    2.50    0.20
  -3  -8  -4    2.40    0.10
   3   8   4    2.30    0.10
   3   8   4    2.60    0.20
   3   8   4    2.50    0.30
   3   8   4    2.60    0.20
  -4  -8  -4  148.59    3.50
  -4  -8  -4  147.29    3.50
  -4  -8  -4  143.39    3.50
   4   8   4  142.69    3.70
   4   8   4  149.39    3.50
   4   8   4  146.39    3.50
   4   8   4  142.79    4.00
  -5  -8  -4   13.30    0.50
  -5  -8  -4   12.50    0.50
  -5  -8  -4   13.30    0.50
   5   8   4   13.20    0.60
   5   8   4   12.70    0.50
   5   8   4   12.60    0.90
  -6  -8  -4    3.90    0.30
  -6  -8  -4    4.20    0.30
  -6  -8  -4    3.80    0.30
   6   8   4    4.10    0.40
   6   8   4    4.00    0.30
   6   8   4    3.60    0.70
  -7  -8  -4    4.20    0.30
  -7  -8  -4    4.00    0.30
  -7  -8  -4    3.90    0.30
   7   8   4    4.20    0.30
   7   8   4    3.60    0.40
   7   8   4    4.50    0.80
   6  -9  -4    0.40    0.20
   6  -9  -4    0.20    0.10
   6  -9  -4    0.30    0.20
  -6   9   4    0.20    0.20
  -6   9   4    0.50    0.30
   5  -9  -4    0.80    0.30
   5  -9  -4    0.70    0.20
   5  -9  -4    0.90    0.20
  -5   9   4    0.90    0.30
   4  -9  -4    0.10    0.10
   4  -9  -4    0.00    0.10
   4  -9  -4   -0.30    0.10
  -4   9   4    0.00    0.20
  -4   9   4   -0.10    0.10
   3  -9  -4    8.40    0.40
   3  -9  -4    8.70    0.50
   3  -9  -4    8.60    0.50
  -3   9   4    8.40    0.40
  -3   9   4    8.40    0.50
  -3   9   4    7.70    0.60
   2  -9  -4    0.00    0.10
   2  -9  -4    0.10    0.10
   2  -9  -4    0.20    0.10
  -2   9   4    0.00    0.10
  -2   9   4    0.10    0.10
  -2   9   4    0.00    0.10
  -2   9   4    0.10    0.20
   1  -9  -4    6.70    0.30
   1  -9  -4    6.60    0.30
   1  -9  -4    6.20    0.40
   1  -9  -4    6.30    0.40
  -1   9   4    6.90    0.30
  -1   9   4    6.20    0.40
  -1   9   4    6.20    0.50
   0  -9  -4    6.70    0.40
   0  -9  -4    7.00    0.40
   0  -9  -4    7.00    0.20
   0  -9  -4    6.70    0.30
   0  -9  -4    5.30    0.30
   0   9   4    6.40    0.40
   0   9   4    7.00    0.40
   0   9   4    6.70    0.30
   0   9   4    6.50    0.40
   0   9   4    6.30    0.50
  -1  -9  -4   16.50    0.60
  -1  -9  -4   16.70    0.60
  -1  -9  -4   15.40    0.60
  -1  -9  -4   15.90    0.60
  -1  -9  -4   15.90    0.60
   1   9   4   15.70    0.60
   1   9   4   16.50    0.60
   1   9   4   15.50    0.50
  -2  -9  -4  143.49    3.60
  -2  -9  -4  145.19    3.50
  -2  -9  -4  152.28    3.50
  -2  -9  -4  149.39    3.50
  -2  -9  -4  149.88    3.60
   2   9   4  146.59    3.90
   2   9   4  146.49    3.40
   2   9   4  152.18    3.60
  -3  -9  -4    0.60    0.10
  -3  -9  -4    0.80    0.20
  -3  -9  -4    0.90    0.10
  -3  -9  -4    0.80    0.10
  -3  -9  -4    0.90    0.10
   3   9   4    0.50    0.10
   3   9   4    0.90    0.10
   3   9   4    0.70    0.10
   3   9   4    0.50    0.20
   3   9   4    0.90    0.20
  -4  -9  -4   64.59    1.70
  -4  -9  -4   61.69    1.60
  -4  -9  -4   63.49    1.70
   4   9   4   61.89    1.70
   4   9   4   64.19    1.70
   4   9   4   61.09    1.90
   4   9   4   64.59    2.10
  -5  -9  -4    2.90    0.20
  -5  -9  -4    3.30    0.30
  -5  -9  -4    3.20    0.20
   5   9   4    3.30    0.40
   5   9   4    3.40    0.60
   5   9   4    2.70    0.20
  -6  -9  -4    0.10    0.10
  -6  -9  -4    0.00    0.10
  -6  -9  -4    0.00    0.10
   6   9   4   -0.10    0.10
   6   9   4    0.20    0.30
   6   9   4    0.10    0.10
  -7  -9  -4   26.70    0.90
  -7  -9  -4   25.60    0.90
  -7  -9  -4   26.60    0.80
   7   9   4   25.40    0.80
   7   9   4   27.10    1.10
   7   9   4   21.00    1.60
   5 -10  -4    0.80    0.20
   5 -10  -4    1.30    0.30
   5 -10  -4    1.00    0.20
  -5  10   4    1.50    0.30
   4 -10  -4    8.70    0.40
   4 -10  -4    9.10    0.60
   4 -10  -4    8.20    0.50
  -4  10   4    8.90    0.60
  -4  10   4    9.00    0.40
   3 -10  -4    0.80    0.20
   3 -10  -4    0.80    0.10
   3 -10  -4    0.70    0.20
  -3  10   4    0.80    0.30
  -3  10   4    1.40    0.30
  -3  10   4    0.70    0.20
   2 -10  -4   40.00    1.10
   2 -10  -4   38.80    1.30
   2 -10  -4   39.80    1.30
  -2  10   4   39.30    1.20
  -2  10   4   40.80    1.00
  -2  10   4   39.80    1.30
  -2  10   4   42.70    1.50
   1 -10  -4   10.30    0.40
   1 -10  -4   10.20    0.50
   1 -10  -4   10.60    0.50
  -1  10   4   11.50    0.60
  -1  10   4   10.70    0.50
  -1  10   4   10.30    0.40
  -1  10   4   10.40    0.70
   0 -10  -4  136.39    3.10
   0 -10  -4  134.09    3.40
   0 -10  -4  140.19    3.30
   0 -10  -4  134.19    3.40
   0 -10  -4  134.09    3.40
   0  10   4  139.49    3.40
   0  10   4  139.59    3.20
   0  10   4  138.89    3.50
   0  10   4  133.19    3.70
  -1 -10  -4    0.40    0.10
  -1 -10  -4    0.30    0.10
  -1 -10  -4    0.60    0.20
  -1 -10  -4    0.50    0.10
  -1 -10  -4    0.30    0.10
   1  10   4    0.30    0.10
   1  10   4    0.50    0.20
   1  10   4    0.30    0.10
   1  10   4    0.20    0.20
  -2 -10  -4    1.20    0.20
  -2 -10  -4    1.40    0.20
  -2 -10  -4    1.40    0.20
  -2 -10  -4    1.30    0.20
  -2 -10  -4    1.50    0.20
   2  10   4    1.70    0.30
   2  10   4    1.10    0.20
   2  10   4    1.30    0.10
   2  10   4    1.20    0.20
  -3 -10  -4    6.40    0.30
  -3 -10  -4    6.00    0.40
  -3 -10  -4    6.50    0.20
  -3 -10  -4    6.80    0.40
   3  10   4    6.50    0.40
   3  10   4    6.50    0.50
   3  10   4    6.50    0.30
   3  10   4    6.40    0.40
  -4 -10  -4    1.60    0.20
  -4 -10  -4    1.60    0.20
  -4 -10  -4    1.60    0.20
   4  10   4    2.00    0.30
   4  10   4    1.80    0.20
   4  10   4    1.60    0.20
  -5 -10  -4    0.40    0.10
  -5 -10  -4    0.20    0.10
  -5 -10  -4    0.30    0.10
   5  10   4    0.60    0.30
   5  10   4    0.30    0.20
   5  10   4    0.30    0.10
  -6 -10  -4    2.10    0.30
  -6 -10  -4    1.50    0.20
  -6 -10  -4    1.80    0.20
   6  10   4    2.00    0.40
   6  10   4    1.90    0.20
  -7 -10  -4   11.30    0.50
  -7 -10  -4   12.30    0.60
  -7 -10  -4   11.00    0.50
   7  10   4   11.10    0.70
   7  10   4   12.00    0.50
   5 -11  -4    2.00    0.30
   5 -11  -4    2.70    0.40
   5 -11  -4    2.60    0.30
  -5  11   4    2.10    0.40
  -5  11   4    2.60    0.20
   4 -11  -4    6.50    0.50
   4 -11  -4    7.00    0.50
   4 -11  -4    6.50    0.40
  -4  11   4    7.40    0.40
  -4  11   4    7.10    0.60
   3 -11  -4   -0.20    0.10
   3 -11  -4   -0.10    0.10
   3 -11  -4    0.10    0.10
  -3  11   4    0.20    0.20
  -3  11   4    0.00    0.10
  -3  11   4    0.10    0.20
   2 -11  -4    8.30    0.40
   2 -11  -4    8.80    0.50
   2 -11  -4    8.80    0.50
  -2  11   4    9.50    0.70
  -2  11   4    8.60    0.30
  -2  11   4    8.10    0.50
   1 -11  -4    5.50    0.40
   1 -11  -4    5.50    0.40
   1 -11  -4    5.50    0.30
  -1  11   4    4.40    0.50
  -1  11   4    4.60    0.40
  -1  11   4    5.50    0.30
   0 -11  -4   20.90    0.70
   0 -11  -4   21.90    0.80
   0 -11  -4   21.20    0.80
   0 -11  -4   20.00    0.50
   0  11   4   19.60    1.00
   0  11   4   21.50    0.80
   0  11   4   20.80    0.60
   0  11   4   18.80    0.80
  -1 -11  -4   41.00    1.20
  -1 -11  -4   39.90    1.20
  -1 -11  -4   42.20    1.20
   1  11   4   42.60    1.10
   1  11   4   39.20    1.30
   1  11   4   44.00    1.60
   1  11   4   41.30    1.30
  -2 -11  -4    1.10    0.20
  -2 -11  -4    1.50    0.20
  -2 -11  -4    0.80    0.20
  -2 -11  -4    1.30    0.20
   2  11   4    1.10    0.20
   2  11   4    1.10    0.30
   2  11   4    1.10    0.20
   2  11   4    0.90    0.20
  -3 -11  -4    1.00    0.20
  -3 -11  -4    1.10    0.20
  -3 -11  -4    1.20    0.10
  -3 -11  -4    1.20    0.20
   3  11   4    1.30    0.20
   3  11   4    1.30    0.20
   3  11   4    1.30    0.30
  -4 -11  -4    4.50    0.30
  -4 -11  -4    4.90    0.40
  -4 -11  -4    4.50    0.30
   4  11   4    4.60    0.50
   4  11   4    4.10    0.30
   4  11   4    4.80    0.30
  -5 -11  -4    3.70    0.30
  -5 -11  -4    4.10    0.30
  -5 -11  -4    4.10    0.30
   5  11   4    4.20    0.50
   5  11   4    3.70    0.30
  -6 -11  -4    8.80    0.50
  -6 -11  -4    8.50    0.50
  -6 -11  -4    9.50    0.50
   6  11   4    8.00    0.60
   6  11   4    9.70    0.50
   4 -12  -4    0.10    0.10
   4 -12  -4   -0.10    0.20
   4 -12  -4   -0.10    0.10
  -4  12   4    0.20    0.20
   3 -12  -4    0.30    0.20
   3 -12  -4    0.20    0.20
   3 -12  -4    0.20    0.10
  -3  12   4    0.30    0.20
  -3  12   4    0.60    0.30
   2 -12  -4   57.59    1.50
   2 -12  -4   56.49    1.80
   2 -12  -4   59.29    1.80
  -2  12   4   59.19    2.10
  -2  12   4   57.89    1.40
  -2  12   4   58.29    1.70
   1 -12  -4   23.00    0.70
   1 -12  -4   20.50    0.90
   1 -12  -4   23.20    0.90
  -1  12   4   23.20    0.70
  -1  12   4   22.50    0.90
  -1  12   4   23.50    1.20
   0 -12  -4    1.30    0.20
   0 -12  -4    0.80    0.20
   0 -12  -4    0.80    0.20
   0 -12  -4    0.80    0.20
   0 -12  -4    0.80    0.10
   0  12   4    0.70    0.20
   0  12   4    0.40    0.30
   0  12   4    0.90    0.20
   0  12   4    0.80    0.20
  -1 -12  -4    3.60    0.30
  -1 -12  -4    2.80    0.30
  -1 -12  -4    2.90    0.30
   1  12   4    3.70    0.40
   1  12   4    2.60    0.30
   1  12   4    3.20    0.50
   1  12   4    3.00    0.30
  -2 -12  -4    0.90    0.20
  -2 -12  -4    0.70    0.20
  -2 -12  -4    0.80    0.20
   2  12   4    0.90    0.20
   2  12   4    0.80    0.30
   2  12   4    0.50    0.20
   2  12   4    0.60    0.20
  -3 -12  -4   15.70    0.60
  -3 -12  -4   16.90    0.70
   3  12   4   15.40    0.50
   3  12   4   15.70    0.70
   3  12   4   15.80    0.70
   3  12   4   15.60    0.90
  -4 -12  -4    0.50    0.20
  -4 -12  -4    0.50    0.20
   4  12   4    0.40    0.20
   4  12   4    0.40    0.20
   4  12   4    0.60    0.20
  -5 -12  -4   32.10    1.00
  -5 -12  -4   32.10    1.10
   5  12   4   30.80    1.40
   5  12   4   30.80    1.10
  -6 -12  -4   43.40    1.30
  -6 -12  -4   45.70    1.40
   6  12   4   43.40    1.70
   6  12   4   44.60    1.40
   4 -13  -4    1.70    0.30
   4 -13  -4    1.30    0.20
   4 -13  -4    1.40    0.30
  -4  13   4    1.70    0.30
   3 -13  -4   17.60    0.60
   3 -13  -4   15.60    0.80
   3 -13  -4   18.10    0.90
  -3  13   4   17.90    1.00
  -3  13   4   17.70    0.80
   2 -13  -4   -0.10    0.20
   2 -13  -4    0.10    0.10
   2 -13  -4    0.20    0.20
  -2  13   4    0.10    0.20
  -2  13   4   -0.40    0.30
  -2  13   4    0.00    0.10
   1 -13  -4  137.29    3.60
   1 -13  -4  143.59    3.50
   1 -13  -4  139.09    3.20
   1 -13  -4  138.09    3.60
  -1  13   4  135.99    3.50
  -1  13   4  137.19    4.00
  -1  13   4  137.99    3.30
   0 -13  -4    5.20    0.40
   0 -13  -4    4.40    0.40
   0  13   4    5.50    0.40
   0  13   4    4.80    0.30
   0  13   4    4.60    0.60
  -1 -13  -4    9.90    0.50
  -1 -13  -4   10.30    0.50
  -1 -13  -4   10.00    0.50
   1  13   4   10.50    0.60
   1  13   4   10.50    0.40
   1  13   4   10.60    0.80
   1  13   4   10.60    0.60
  -2 -13  -4   17.90    0.60
  -2 -13  -4   18.60    0.70
  -2 -13  -4   17.60    0.60
   2  13   4   16.20    1.00
   2  13   4   18.10    0.80
   2  13   4   17.30    0.60
   2  13   4   18.10    0.80
  -3 -13  -4   12.50    0.60
   3  13   4   12.10    0.90
   3  13   4   11.70    0.50
   3  13   4   12.00    0.60
   3  13   4   11.80    0.60
  -4 -13  -4    3.60    0.30
  -4 -13  -4    4.10    0.40
   4  13   4    3.40    0.40
   4  13   4    3.30    0.30
   4  13   4    4.00    0.60
   4  13   4    3.20    0.40
  -5 -13  -4    0.50    0.20
  -5 -13  -4    0.50    0.20
   5  13   4    0.50    0.30
   5  13   4    0.60    0.20
   3 -14  -4   -0.30    0.20
   3 -14  -4    0.30    0.20
   3 -14  -4    0.00    0.20
   3 -14  -4   -0.10    0.10
  -3  14   4    0.10    0.30
  -3  14   4    0.10    0.20
   2 -14  -4   10.00    0.70
   2 -14  -4   10.70    0.70
   2 -14  -4   11.70    0.60
  -2  14   4   10.90    0.40
  -2  14   4   10.80    0.60
  -2  14   4   11.00    0.90
   1 -14  -4    4.50    0.20
   1 -14  -4    4.60    0.50
   1 -14  -4    5.00    0.40
  -1  14   4    4.70    0.70
  -1  14   4    4.70    0.40
  -1  14   4    4.50    0.30
   0 -14  -4    1.90    0.30
   0 -14  -4    2.40    0.30
   0  14   4    2.10    0.20
   0  14   4    1.70    0.50
   0  14   4    2.00    0.30
  -1 -14  -4    6.30    0.40
  -1 -14  -4    6.90    0.40
  -1 -14  -4    6.60    0.40
   1  14   4    6.90    0.50
   1  14   4    5.80    0.50
   1  14   4    5.70    0.70
   1  14   4    6.90    0.40
  -2 -14  -4    3.30    0.30
  -2 -14  -4    2.50    0.30
   2  14   4    3.10    0.40
   2  14   4    2.60    0.30
   2  14   4    3.20    0.40
   2  14   4    3.20    0.60
  -3 -14  -4   -0.20    0.10
   3  14   4   -0.10    0.20
   3  14   4    0.10    0.10
   3  14   4    0.00    0.20
   3  14   4    0.10    0.30
  -4 -14  -4    0.30    0.20
   4  14   4   -0.10    0.10
   4  14   4    0.10    0.20
   4  14   4    0.20    0.30
   4  14   4    0.40    0.20
   2 -15  -4    7.70    0.30
   2 -15  -4    5.90    0.60
   2 -15  -4    6.70    0.50
  -2  15   4    5.70    0.50
  -2  15   4    8.70    0.90
   1 -15  -4    1.70    0.30
   1 -15  -4    1.50    0.30
  -1  15   4    1.30    0.40
  -1  15   4    1.50    0.30
  -1  15   4    1.40    0.20
   0 -15  -4    4.70    0.50
   0 -15  -4    3.70    0.40
   0  15   4    3.80    0.70
   0  15   4    4.00    0.30
   0  15   4    3.80    0.40
  -1 -15  -4    0.50    0.20
  -1 -15  -4    0.60    0.20
   1  15   4    0.40    0.20
   1  15   4    0.80    0.30
   1  15   4    0.20    0.20
   1  15   4    0.50    0.30
  -2 -15  -4    3.70    0.30
  -2 -15  -4    4.30    0.40
   2  15   4    4.50    0.70
   2  15   4    3.80    0.30
   2  15   4    4.30    0.50
   2  15   4    3.30    0.40
  -3 -15  -4    0.20    0.10
   3  15   4    0.30    0.20
   3  15   4    0.50    0.20
   3  15   4    0.30    0.30
   3  15   4    0.30    0.10
  -4 -15  -4    1.20    0.30
   4  15   4    1.00    0.20
   0 -16  -4    2.80    0.40
   0 -16  -4    3.00    0.40
   0 -16  -4    3.00    0.40
   0  16   4    2.70    0.30
   0  16   4    3.70    0.50
   0  16   4    1.80    0.50
  -1 -16  -4    0.20    0.20
   1  16   4    0.10    0.30
   1  16   4    0.50    0.20
   1  16   4    0.30    0.20
  -2 -16  -4    1.00    0.20
   2  16   4    0.50    0.20
   2  16   4    0.90    0.30
   2  16   4    0.40    0.30
   2  16   4    0.50    0.20
   1  13  -5    5.20    0.40
   1  13  -5    5.10    0.70
   1  13  -5    6.20    0.50
  -1 -13   5    5.00    0.50
   0  13  -5    0.50    0.20
   3  12  -5    0.60    0.30
  -3 -12   5    0.60    0.30
  -3 -12   5    0.50    0.20
   2  12  -5   39.20    1.10
   2  12  -5   38.70    1.60
   2  12  -5   40.50    1.30
  -2 -12   5   38.60    1.30
   1  12  -5   11.40    0.50
   1  12  -5   11.30    0.90
   1  12  -5   12.00    0.70
  -1 -12   5   11.90    0.60
   0  12  -5    3.80    0.40
   0  12  -5    3.30    0.60
   0  12  -5    3.90    0.30
   0 -12   5    3.80    0.30
   0 -12   5    3.90    0.40
  -1  12  -5    1.50    0.30
  -1  12  -5    0.40    0.20
  -1  12  -5    0.10    0.30
   1 -12   5    0.50    0.20
   1 -12   5    0.30    0.20
  -2  12  -5   24.70    1.10
  -2  12  -5   28.10    1.40
  -2  12  -5   26.40    0.90
   2 -12   5   28.10    1.10
   2 -12   5   27.10    1.00
   4  11  -5    0.40    0.30
  -4 -11   5    0.90    0.20
  -4 -11   5    0.80    0.20
  -4 -11   5    0.80    0.20
   3  11  -5    3.70    0.50
  -3 -11   5    2.60    0.30
  -3 -11   5    2.70    0.30
   2  11  -5   54.79    1.60
   2  11  -5   50.89    1.90
   2  11  -5   54.39    1.40
  -2 -11   5   57.89    2.10
  -2 -11   5   53.99    1.60
   1  11  -5   26.00    1.00
   1  11  -5   25.30    1.20
   1  11  -5   25.30    0.80
  -1 -11   5   26.50    1.00
   0  11  -5    0.30    0.20
   0  11  -5    0.50    0.30
   0  11  -5    0.30    0.20
   0 -11   5    0.30    0.10
   0 -11   5    0.10    0.20
  -1  11  -5    0.50    0.20
  -1  11  -5    1.00    0.30
  -1  11  -5    0.80    0.30
   1 -11   5    0.70    0.20
   1 -11   5    0.80    0.20
  -2  11  -5    7.20    0.50
  -2  11  -5    7.40    0.80
  -2  11  -5    8.50    0.40
   2 -11   5    7.50    0.50
   2 -11   5    8.50    0.50
  -3  11  -5    2.00    0.50
  -3  11  -5    2.40    0.40
  -3  11  -5    2.40    0.20
   3 -11   5    2.10    0.30
   3 -11   5    2.10    0.40
   5  10  -5    0.10    0.10
  -5 -10   5    0.30    0.10
  -5 -10   5    0.30    0.10
  -5 -10   5    0.10    0.10
   4  10  -5    0.60    0.20
   4  10  -5    0.60    0.30
  -4 -10   5    0.70    0.20
  -4 -10   5    0.80    0.20
  -4 -10   5    0.80    0.20
   3  10  -5    0.20    0.30
  -3 -10   5    0.50    0.20
  -3 -10   5    0.50    0.20
  -3 -10   5    0.40    0.20
   2  10  -5    0.60    0.10
   2  10  -5    0.60    0.20
   2  10  -5    0.70    0.30
  -2 -10   5    0.60    0.20
  -2 -10   5    0.50    0.20
   1  10  -5    2.50    0.40
   1  10  -5    1.40    0.30
   1  10  -5    1.90    0.20
  -1 -10   5    1.70    0.10
  -1 -10   5    1.70    0.30
   0  10  -5    0.20    0.20
   0  10  -5    0.60    0.30
   0  10  -5    0.40    0.20
   0 -10   5    1.00    0.20
   0 -10   5    0.80    0.20
   0 -10   5    0.80    0.20
  -1  10  -5   18.70    0.70
  -1  10  -5   19.80    1.00
  -1  10  -5   16.90    0.80
   1 -10   5   19.40    0.80
   1 -10   5   19.00    0.80
   1 -10   5   17.20    0.70
  -2  10  -5    0.10    0.10
  -2  10  -5    0.10    0.30
  -2  10  -5    0.10    0.20
   2 -10   5    0.10    0.20
   2 -10   5    0.20    0.10
  -3  10  -5   12.40    0.50
  -3  10  -5   11.80    0.80
  -3  10  -5   12.20    0.70
   3 -10   5   12.60    0.70
   3 -10   5   12.50    0.40
   3 -10   5   11.80    0.60
   3 -10   5   11.90    0.60
  -4  10  -5    5.10    0.40
  -4  10  -5    5.90    0.60
   4 -10   5    5.90    0.50
   4 -10   5    5.90    0.30
   4 -10   5    5.70    0.50
   4 -10   5    5.70    0.50
   5   9  -5    0.00    0.10
  -5  -9   5    0.10    0.20
  -5  -9   5    0.00    0.10
  -5  -9   5    0.10    0.10
  -5  -9   5    0.10    0.10
   4   9  -5    1.10    0.30
   4   9  -5    1.00    0.20
  -4  -9   5    1.00    0.20
  -4  -9   5    1.10    0.20
  -4  -9   5    1.10    0.20
   3   9  -5   83.39    2.50
   3   9  -5   80.89    2.20
  -3  -9   5   82.99    2.20
  -3  -9   5   83.39    2.10
  -3  -9   5   83.89    2.10
   2   9  -5    0.70    0.30
   2   9  -5    0.30    0.20
  -2  -9   5    0.90    0.20
  -2  -9   5    0.60    0.20
  -2  -9   5    0.70    0.20
   1   9  -5    0.90    0.10
   1   9  -5    1.00    0.30
   1   9  -5    0.30    0.20
  -1  -9   5    0.70    0.20
  -1  -9   5    0.60    0.10
  -1  -9   5    0.60    0.20
   0   9  -5    0.60    0.30
   0   9  -5    0.40    0.10
   0   9  -5    0.60    0.20
   0  -9   5    0.70    0.20
   0  -9   5    0.80    0.20
   0  -9   5    0.70    0.10
  -1   9  -5    0.80    0.30
  -1   9  -5    0.90    0.20
  -1   9  -5    0.90    0.20
   1  -9   5    0.50    0.20
   1  -9   5    0.70    0.20
   1  -9   5    1.10    0.20
  -2   9  -5    1.10    0.20
  -2   9  -5    0.70    0.30
  -2   9  -5    1.70    0.30
   2  -9   5    1.20    0.10
   2  -9   5    1.10    0.20
   2  -9   5    1.10    0.20
   2  -9   5    1.50    0.20
  -3   9  -5    3.90    0.30
  -3   9  -5    3.50    0.40
  -3   9  -5    3.40    0.50
   3  -9   5    3.40    0.20
   3  -9   5    3.20    0.40
   3  -9   5    3.50    0.40
  -4   9  -5    5.80    0.60
  -4   9  -5    5.00    0.40
   4  -9   5    5.60    0.30
   4  -9   5    6.10    0.40
   4  -9   5    5.60    0.50
  -6  -8   5    1.50    0.30
  -6  -8   5    1.60    0.10
  -6  -8   5    1.70    0.10
  -6  -8   5    1.70    0.20
  -5  -8   5   28.50    1.10
  -5  -8   5   27.10    0.80
  -5  -8   5   28.60    0.80
  -5  -8   5   28.00    0.80
   4   8  -5    1.10    0.30
   4   8  -5    1.10    0.20
  -4  -8   5    1.00    0.10
  -4  -8   5    1.20    0.20
  -4  -8   5    1.20    0.30
  -4  -8   5    1.00    0.10
   3   8  -5    2.40    0.30
   3   8  -5    3.10    0.40
  -3  -8   5    2.80    0.30
  -3  -8   5    2.40    0.20
  -3  -8   5    2.60    0.20
  -3  -8   5    2.40    0.20
   2   8  -5    0.30    0.20
   2   8  -5    0.30    0.10
  -2  -8   5    0.60    0.20
  -2  -8   5    0.50    0.10
  -2  -8   5    0.50    0.10
   1   8  -5    2.00    0.40
   1   8  -5    1.80    0.20
   1   8  -5    2.10    0.20
  -1  -8   5    2.00    0.10
  -1  -8   5    2.30    0.20
  -1  -8   5    1.60    0.20
  -1  -8   5    1.90    0.20
   0   8  -5   39.80    1.20
   0   8  -5   35.90    1.40
   0   8  -5   35.40    1.00
   0  -8   5   36.90    1.10
   0  -8   5   37.30    1.10
   0  -8   5   34.70    1.00
  -1   8  -5    3.70    0.30
  -1   8  -5    3.80    0.50
  -1   8  -5    4.20    0.40
   1  -8   5    4.00    0.30
   1  -8   5    4.60    0.30
   1  -8   5    4.00    0.30
  -2   8  -5    1.20    0.30
  -2   8  -5    1.00    0.20
  -2   8  -5    0.90    0.20
   2  -8   5    1.20    0.10
   2  -8   5    1.30    0.20
   2  -8   5    1.20    0.20
   2  -8   5    1.40    0.20
  -3   8  -5    5.80    0.30
  -3   8  -5    4.90    0.40
  -3   8  -5    5.00    0.50
   3  -8   5    5.80    0.40
   3  -8   5    5.50    0.30
   3  -8   5    5.30    0.40
  -4   8  -5   -0.20    0.20
  -4   8  -5    0.30    0.20
   4  -8   5    0.20    0.10
   4  -8   5    0.30    0.20
   4  -8   5    0.10    0.20
   4  -8   5    0.20    0.10
  -5   8  -5    1.10    0.30
  -5   8  -5    1.20    0.20
   5  -8   5    1.20    0.30
   5  -8   5    1.30    0.30
   5  -8   5    0.70    0.20
   5  -8   5    0.80    0.20
  -6  -7   5    0.00    0.10
  -6  -7   5    0.10    0.20
  -6  -7   5    0.00    0.10
   5   7  -5    3.30    0.90
  -5  -7   5    3.10    0.20
  -5  -7   5    3.10    0.10
  -5  -7   5    3.30    0.20
  -5  -7   5    3.60    0.40
  -5  -7   5    3.10    0.10
   4   7  -5   10.40    1.00
   4   7  -5    9.70    0.40
   4   7  -5   10.80    0.60
  -4  -7   5    9.70    0.40
  -4  -7   5   10.20    0.30
  -4  -7   5   10.30    0.40
  -4  -7   5    9.50    0.40
  -4  -7   5   10.30    0.60
   3   7  -5   -0.10    0.10
   3   7  -5    0.00    0.10
  -3  -7   5    0.00    0.10
  -3  -7   5   -0.10    0.10
  -3  -7   5   -0.40    0.10
  -3  -7   5   -0.10    0.10
   2   7  -5   17.90    0.80
   2   7  -5   18.50    0.60
  -2  -7   5   17.80    0.70
  -2  -7   5   18.20    0.60
  -2  -7   5   19.50    0.60
  -2  -7   5   18.40    0.60
   1   7  -5   14.80    0.40
   1   7  -5   13.60    0.70
   1   7  -5   14.80    0.60
  -1  -7   5   14.60    0.40
  -1  -7   5   14.80    0.50
  -1  -7   5   14.20    0.50
  -1  -7   5   15.20    0.60
  -1  -7   5   14.00    0.60
   0   7  -5    0.20    0.20
   0   7  -5    0.30    0.10
   0   7  -5    0.50    0.10
   0  -7   5    0.70    0.20
   0  -7   5    0.70    0.20
   0  -7   5    0.80    0.20
   0  -7   5    0.50    0.10
  -1   7  -5    1.20    0.30
  -1   7  -5    0.60    0.20
  -1   7  -5    1.00    0.20
   1  -7   5    0.90    0.20
   1  -7   5    0.90    0.20
   1  -7   5    0.60    0.20
   1  -7   5    1.00    0.20
  -2   7  -5   15.40    0.50
  -2   7  -5   16.10    0.80
  -2   7  -5   16.40    0.70
   2  -7   5   16.00    0.50
   2  -7   5   14.80    0.60
   2  -7   5   15.60    0.60
   2  -7   5   16.20    0.60
   2  -7   5   16.00    0.60
  -3   7  -5    0.20    0.20
  -3   7  -5    0.30    0.20
  -3   7  -5    0.20    0.10
   3  -7   5    0.30    0.10
   3  -7   5    0.40    0.20
   3  -7   5    0.00    0.20
   3  -7   5    0.30    0.10
  -4   7  -5    5.80    0.50
  -4   7  -5    6.50    0.40
   4  -7   5    5.90    0.40
   4  -7   5    5.70    0.50
   4  -7   5    7.40    0.50
   4  -7   5    6.40    0.40
  -5   7  -5    4.60    0.40
  -5   7  -5    4.40    0.50
   5  -7   5    3.80    0.40
   5  -7   5    4.50    0.40
   5  -7   5    4.60    0.50
   5  -7   5    4.10    0.30
  -6   7  -5    2.70    0.30
   6  -7   5    2.30    0.40
   6  -7   5    2.60    0.40
   6  -7   5    2.60    0.30
  -6  -6   5    0.20    0.20
   5   6  -5    0.70    0.50
  -5  -6   5    0.50    0.20
  -5  -6   5    0.70    0.10
  -5  -6   5    0.60    0.10
   4   6  -5   17.50    1.30
   4   6  -5   16.50    0.70
  -4  -6   5   16.10    0.40
  -4  -6   5   16.00    0.50
  -4  -6   5   17.50    0.50
  -4  -6   5   16.70    0.70
  -4  -6   5   16.50    0.50
  -4  -6   5   16.70    0.40
   3   6  -5    2.20    0.20
   3   6  -5    2.70    0.30
  -3  -6   5    2.10    0.20
  -3  -6   5    2.30    0.10
  -3  -6   5    3.10    0.30
  -3  -6   5    2.00    0.20
  -3  -6   5    2.20    0.20
   2   6  -5   33.30    1.10
   2   6  -5   33.80    0.90
  -2  -6   5   31.80    0.90
  -2  -6   5   34.30    1.00
  -2  -6   5   32.40    0.90
  -2  -6   5   32.10    1.00
  -2  -6   5   34.60    0.90
   1   6  -5    9.00    0.50
   1   6  -5    9.00    0.40
   1   6  -5    8.60    0.30
  -1  -6   5    8.30    0.40
  -1  -6   5    9.10    0.40
  -1  -6   5    8.50    0.40
  -1  -6   5    8.80    0.30
  -1  -6   5    8.30    0.40
  -1  -6   5    8.70    0.30
   0   6  -5    0.30    0.10
   0   6  -5    0.50    0.20
   0   6  -5    0.70    0.10
   0  -6   5    0.60    0.10
   0  -6   5    0.40    0.10
   0  -6   5    0.50    0.10
   0  -6   5    0.70    0.10
  -1   6  -5   11.80    0.40
  -1   6  -5   12.40    0.50
   1  -6   5   12.30    0.50
   1  -6   5   11.60    0.50
   1  -6   5   12.50    0.30
   1  -6   5   12.20    0.50
   1  -6   5   11.90    0.50
   1  -6   5   11.50    0.50
  -2   6  -5    3.20    0.20
  -2   6  -5    2.90    0.30
  -2   6  -5    4.10    0.50
   2  -6   5    3.30    0.30
   2  -6   5    3.20    0.30
   2  -6   5    3.00    0.20
   2  -6   5    3.80    0.30
   2  -6   5    3.50    0.30
  -3   6  -5   37.00    1.20
  -3   6  -5   35.50    1.10
  -3   6  -5   34.90    0.90
  -3   6  -5   36.90    1.30
   3  -6   5   36.10    1.00
   3  -6   5   37.30    1.10
   3  -6   5   35.00    1.20
  -4   6  -5    4.30    0.40
  -4   6  -5    4.80    0.40
  -4   6  -5    4.70    0.50
   4  -6   5    4.50    0.40
   4  -6   5    4.70    0.40
   4  -6   5    4.60    0.40
   4  -6   5    4.50    0.30
  -5   6  -5    1.50    0.20
  -5   6  -5    1.30    0.30
  -5   6  -5    1.40    0.30
   5  -6   5    1.00    0.20
   5  -6   5    1.00    0.30
   5  -6   5    1.10    0.20
   5  -6   5    0.80    0.20
  -6   6  -5   19.20    0.90
  -6   6  -5   19.10    0.70
   6  -6   5   19.80    0.90
   6  -6   5   19.50    0.70
   6  -6   5   18.00    0.80
   6  -6   5   17.80    0.90
  -7  -5   5    0.40    0.20
  -6  -5   5    7.70    0.50
   5   5  -5    0.90    0.40
  -5  -5   5    0.20    0.20
   4   5  -5    2.40    0.50
   4   5  -5    3.00    0.30
  -4  -5   5    2.50    0.10
  -4  -5   5    2.40    0.10
  -4  -5   5    2.30    0.30
   3   5  -5    1.90    0.20
   3   5  -5    1.70    0.10
   3   5  -5    1.30    0.40
  -3  -5   5    1.50    0.20
  -3  -5   5    1.60    0.10
  -3  -5   5    1.80    0.10
  -3  -5   5    1.70    0.10
  -3  -5   5    1.80    0.10
   2   5  -5   43.10    1.20
   2   5  -5   43.60    1.30
   2   5  -5   46.30    1.20
  -2  -5   5   44.70    1.20
  -2  -5   5   43.90    1.10
  -2  -5   5   45.90    1.20
  -2  -5   5   45.30    1.30
   1   5  -5  138.89    3.20
   1   5  -5  138.69    3.50
   1   5  -5  138.39    3.30
  -1  -5   5  137.59    3.30
  -1  -5   5  140.59    3.20
  -1  -5   5  138.99    3.30
  -1  -5   5  139.49    3.30
  -1  -5   5  138.89    3.30
   0   5  -5    2.20    0.20
   0   5  -5    1.90    0.10
   0   5  -5    1.90    0.30
   0  -5   5    2.40    0.20
   0  -5   5    1.70    0.20
   0  -5   5    1.90    0.20
   0  -5   5    1.90    0.20
   0  -5   5    2.10    0.20
  -1   5  -5    8.80    0.30
  -1   5  -5    8.60    0.40
   1  -5   5    9.00    0.30
   1  -5   5    9.60    0.40
   1  -5   5    8.70    0.40
   1  -5   5    9.10    0.40
   1  -5   5    9.20    0.40
   1  -5   5    8.90    0.40
   1  -5   5    8.90    0.40
  -2   5  -5   38.80    1.10
  -2   5  -5   40.60    1.30
  -2   5  -5   40.60    1.20
  -2   5  -5   40.90    1.20
   2  -5   5   40.90    1.20
   2  -5   5   40.00    1.20
   2  -5   5   41.60    1.00
   2  -5   5   42.00    1.20
  -3   5  -5    1.80    0.20
  -3   5  -5    1.50    0.30
  -3   5  -5    1.80    0.20
  -3   5  -5    2.00    0.30
   3  -5   5    1.80    0.20
   3  -5   5    1.40    0.20
   3  -5   5    1.50    0.20
   3  -5   5    1.40    0.20
  -4   5  -5    1.30    0.30
  -4   5  -5    1.30    0.20
  -4   5  -5    1.10    0.20
   4  -5   5    1.10    0.20
   4  -5   5    1.30    0.20
   4  -5   5    0.90    0.20
   4  -5   5    1.40    0.20
  -5   5  -5    1.00    0.20
  -5   5  -5    1.00    0.30
  -5   5  -5    1.40    0.20
   5  -5   5    1.30    0.20
   5  -5   5    1.10    0.20
   5  -5   5    1.30    0.30
   5  -5   5    1.30    0.20
  -6   5  -5    3.80    0.30
  -6   5  -5    3.80    0.40
   6  -5   5    3.40    0.30
   6  -5   5    3.40    0.40
   6  -5   5    3.30    0.40
   6  -5   5    2.50    0.30
  -7  -4   5    3.40    0.40
  -6  -4   5    0.60    0.20
   5   4  -5    3.60    0.70
  -5  -4   5    2.40    0.30
   4   4  -5   65.19    2.60
   4   4  -5   71.39    1.70
  -4  -4   5   65.19    1.90
   3   4  -5    1.20    0.20
   3   4  -5    1.00    0.40
  -3  -4   5    1.00    0.10
  -3  -4   5    1.00    0.10
  -3  -4   5    0.90    0.20
   2   4  -5   20.00    0.70
   2   4  -5   19.20    0.60
   2   4  -5   19.40    0.60
  -2  -4   5   20.30    0.60
  -2  -4   5   19.20    0.50
  -2  -4   5   19.20    0.70
  -2  -4   5   18.70    0.50
   1   4  -5  211.38    4.70
   1   4  -5  202.78    4.90
  -1  -4   5  204.88    4.70
  -1  -4   5  199.78    4.70
  -1  -4   5  200.28    4.70
  -1  -4   5  199.98    4.70
   0   4  -5   19.30    0.50
   0   4  -5   19.70    0.70
   0   4  -5   20.20    0.60
   0  -4   5   18.80    0.60
   0  -4   5   18.90    0.60
   0  -4   5   18.30    0.50
   0  -4   5   19.20    0.60
   0  -4   5   18.90    0.60
   0  -4   5   19.40    0.60
  -1   4  -5   35.60    1.20
  -1   4  -5   42.80    1.20
  -1   4  -5   41.80    1.10
   1  -4   5   43.60    1.20
   1  -4   5   43.40    1.10
   1  -4   5   45.80    1.20
   1  -4   5   42.20    1.00
   1  -4   5   42.10    1.20
   1  -4   5   43.40    1.20
   1  -4   5   36.10    1.10
  -2   4  -5   32.00    1.10
  -2   4  -5   33.00    1.00
  -2   4  -5   31.80    0.90
  -2   4  -5   33.90    1.00
   2  -4   5   32.40    0.90
   2  -4   5   31.70    1.00
   2  -4   5   32.40    1.00
   2  -4   5   32.80    1.00
   2  -4   5   32.00    0.90
  -3   4  -5    4.40    0.30
  -3   4  -5    4.50    0.30
  -3   4  -5    4.90    0.20
  -3   4  -5    4.80    0.40
   3  -4   5    4.40    0.20
   3  -4   5    4.30    0.30
   3  -4   5    4.50    0.30
   3  -4   5    4.20    0.30
  -4   4  -5    0.10    0.10
  -4   4  -5    0.20    0.10
  -4   4  -5    0.20    0.20
   4  -4   5    0.20    0.10
   4  -4   5    0.20    0.10
   4  -4   5    0.30    0.10
   4  -4   5    0.20    0.10
  -5   4  -5    0.10    0.10
  -5   4  -5    0.60    0.20
  -5   4  -5    0.20    0.10
   5  -4   5    0.10    0.20
   5  -4   5    0.20    0.10
   5  -4   5    0.10    0.10
   5  -4   5    0.30    0.10
  -6   4  -5   23.20    0.70
  -6   4  -5   23.40    0.90
   6  -4   5   22.60    0.90
   6  -4   5   22.50    0.90
   6  -4   5   21.80    0.90
   6  -4   5   22.90    0.80
  -7   4  -5    0.20    0.20
   7  -4   5    0.50    0.20
   7  -4   5    0.50    0.20
   7  -4   5    0.10    0.20
   7  -4   5    0.60    0.20
  -7  -3   5    0.40    0.20
  -6  -3   5    3.30    0.40
   5   3  -5    0.60    0.40
  -5  -3   5    0.60    0.20
   4   3  -5    9.10    0.80
  -4  -3   5    8.30    0.50
   3   3  -5    1.40    0.20
  -3  -3   5    1.10    0.10
  -3  -3   5    1.10    0.20
  -3  -3   5    1.10    0.10
   2   3  -5   83.89    1.90
   2   3  -5   85.39    2.00
   2   3  -5   85.79    2.10
   2   3  -5   82.49    2.70
  -2  -3   5   83.79    1.90
  -2  -3   5   83.49    2.60
  -2  -3   5   85.39    2.00
  -2  -3   5   84.89    2.00
  -2  -3   5   84.79    2.10
  -2  -3   5   82.49    2.00
   1   3  -5    5.80    0.30
   1   3  -5    6.10    0.30
  -1  -3   5    5.80    0.60
  -1  -3   5    6.00    0.20
  -1  -3   5    6.50    0.20
  -1  -3   5    6.10    0.30
  -1  -3   5    5.80    0.30
  -1  -3   5    6.20    0.20
  -1  -3   5    6.00    0.30
   0   3  -5    0.00    0.10
   0   3  -5    0.10    0.10
   0   3  -5    0.30    0.10
   0  -3   5    0.20    0.10
   0  -3   5    0.10    0.10
   0  -3   5    0.00    0.10
   0  -3   5    0.10    0.10
   0  -3   5    0.00    0.10
   0  -3   5    0.00    0.10
  -1   3  -5  793.42   18.00
  -1   3  -5  778.52   18.20
  -1   3  -5  759.22   18.00
   1  -3   5  786.42   17.90
   1  -3   5  813.02   17.90
   1  -3   5  801.62   17.90
   1  -3   5  814.22   17.90
   1  -3   5  808.02   17.90
   1  -3   5  809.42   18.10
  -2   3  -5   14.50    0.40
  -2   3  -5   13.90    0.50
  -2   3  -5   14.90    0.60
  -2   3  -5   15.40    0.50
   2  -3   5   13.80    0.50
   2  -3   5   13.90    0.40
   2  -3   5   14.70    0.50
   2  -3   5   15.50    0.50
   2  -3   5   14.00    0.50
  -3   3  -5    2.20    0.20
  -3   3  -5    2.20    0.20
  -3   3  -5    2.40    0.30
  -3   3  -5    2.20    0.10
  -3   3  -5    1.80    0.20
   3  -3   5    2.20    0.20
   3  -3   5    2.40    0.20
   3  -3   5    2.20    0.20
  -4   3  -5   22.80    0.80
  -4   3  -5   22.70    0.80
  -4   3  -5   22.60    0.80
  -4   3  -5   21.40    0.70
   4  -3   5   22.80    0.80
   4  -3   5   22.70    0.80
   4  -3   5   21.60    0.80
   4  -3   5   22.80    0.70
  -5   3  -5    0.20    0.20
  -5   3  -5    0.50    0.10
  -5   3  -5    0.50    0.20
   5  -3   5    0.70    0.20
   5  -3   5    0.60    0.20
   5  -3   5    0.60    0.10
   5  -3   5    0.40    0.20
  -6   3  -5    5.70    0.40
  -6   3  -5    6.00    0.40
   6  -3   5    6.40    0.40
   6  -3   5    6.20    0.40
   6  -3   5    6.00    0.50
   6  -3   5    6.20    0.30
  -7   3  -5    0.10    0.20
   7  -3   5    0.10    0.20
   7  -3   5    0.10    0.20
   7  -3   5   -0.10    0.20
   7  -3   5    0.30    0.10
  -7  -2   5   10.80    0.60
   6   2  -5   15.70    1.20
  -6  -2   5   16.10    0.80
   5   2  -5   72.29    2.70
  -5  -2   5   70.99    2.00
   4   2  -5   10.00    0.80
  -4  -2   5    9.60    0.50
   3   2  -5   19.00    0.50
  -3  -2   5   18.20    0.70
   2   2  -5   18.70    0.60
   2   2  -5   18.60    1.00
  -2  -2   5   17.60    0.60
  -2  -2   5   14.30    0.40
  -2  -2   5   17.90    0.50
  -2  -2   5   17.90    0.90
  -2  -2   5   17.40    0.40
  -2  -2   5   16.80    0.40
   1   2  -5    4.10    0.20
   1   2  -5    4.20    0.30
  -1  -2   5    3.90    0.20
  -1  -2   5    3.90    0.10
  -1  -2   5    3.50    0.50
  -1  -2   5    4.00    0.20
  -1  -2   5    4.00    0.20
  -1  -2   5    3.80    0.20
  -1  -2   5    3.80    0.20
   0   2  -5    4.10    0.20
   0   2  -5    4.10    0.30
   0   2  -5    4.00    0.20
   0  -2   5    4.60    0.20
   0  -2   5    4.10    0.20
   0  -2   5    4.40    0.20
   0  -2   5    4.10    0.20
   0  -2   5    3.90    0.20
   0  -2   5    3.90    0.20
  -1   2  -5   38.10    1.00
  -1   2  -5   37.90    1.10
  -1   2  -5   38.40    1.00
  -1   2  -5   37.70    1.00
   1  -2   5   39.90    1.10
   1  -2   5   39.30    0.90
   1  -2   5   37.30    1.10
   1  -2   5   37.40    1.20
   1  -2   5   43.50    1.00
  -2   2  -5  494.65   11.10
  -2   2  -5  487.75   11.00
  -2   2  -5  479.15   11.00
  -2   2  -5  490.35   11.00
  -2   2  -5  494.35   11.00
  -2   2  -5  481.65   10.90
   2  -2   5  470.45   11.00
   2  -2   5  483.75   10.90
   2  -2   5  494.05   11.00
   2  -2   5  498.25   11.00
   2  -2   5  469.25   11.00
  -3   2  -5   25.40    0.60
  -3   2  -5   26.40    0.80
  -3   2  -5   24.70    0.80
  -3   2  -5   25.60    0.80
  -3   2  -5   26.00    0.80
  -3   2  -5   25.60    0.90
   3  -2   5   26.70    0.80
   3  -2   5   24.70    0.80
   3  -2   5   24.60    0.70
  -4   2  -5   10.80    0.50
  -4   2  -5   11.10    0.50
  -4   2  -5   10.40    0.40
  -4   2  -5   10.60    0.50
  -4   2  -5   10.60    0.50
   4  -2   5   10.90    0.50
   4  -2   5   10.60    0.50
   4  -2   5   10.50    0.50
   4  -2   5   11.00    0.40
  -5   2  -5   -0.30    0.10
  -5   2  -5    0.00    0.10
  -5   2  -5    0.20    0.10
  -5   2  -5    0.10    0.10
   5  -2   5    0.20    0.10
   5  -2   5    0.20    0.10
   5  -2   5    0.20    0.10
   5  -2   5    0.10    0.10
  -6   2  -5   11.40    0.60
   6  -2   5   10.30    0.50
   6  -2   5   11.70    0.60
   6  -2   5   11.10    0.50
   6  -2   5   11.30    0.40
  -7   2  -5    0.60    0.20
   7  -2   5    0.60    0.20
   7  -2   5    0.50    0.10
   7  -2   5    0.70    0.20
   7  -2   5    0.90    0.20
  -7  -1   5    1.20    0.10
  -7  -1   5    1.20    0.10
  -7  -1   5    1.20    0.30
   6   1  -5    0.20    0.30
  -6  -1   5    0.00    0.20
   5   1  -5   64.39    2.50
  -5  -1   5   60.19    1.80
   4   1  -5   72.49    2.60
   4   1  -5   72.19    1.70
   3   1  -5   13.40    0.40
   3   1  -5   14.70    0.90
  -3  -1   5   13.40    0.50
   2   1  -5   18.50    1.00
   2   1  -5   25.30    0.70
  -2  -1   5   23.50    0.70
  -2  -1   5   23.40    0.60
  -2  -1   5   24.80    0.60
  -2  -1   5   23.90    1.10
   1   1  -5   32.60    0.80
   1   1  -5   32.40    0.90
  -1  -1   5   32.40    0.80
  -1  -1   5   31.70    0.70
  -1  -1   5   30.80    1.20
  -1  -1   5   32.20    0.80
  -1  -1   5   30.90    0.80
  -1  -1   5   30.00    0.80
   0   1  -5   48.10    1.20
   0   1  -5   51.09    1.20
   0   1  -5   48.90    1.30
   0  -1   5   49.80    1.20
   0  -1   5   48.50    1.20
   0  -1   5   49.99    1.20
   0  -1   5   49.00    1.20
   0  -1   5   49.70    1.30
  -1   1  -5    6.70    0.30
  -1   1  -5    7.30    0.40
  -1   1  -5    7.40    0.30
  -1   1  -5    7.50    0.30
   1  -1   5    7.80    0.20
   1  -1   5    7.20    0.30
   1  -1   5    7.70    0.30
   1  -1   5    7.40    0.30
  -2   1  -5   -0.10    0.10
  -2   1  -5    0.00    0.10
  -2   1  -5    0.00    0.10
  -2   1  -5    0.00    0.10
  -2   1  -5    0.20    0.10
   2  -1   5    0.00    0.10
   2  -1   5    0.00    0.10
   2  -1   5   -0.10    0.10
   2  -1   5    0.00    0.10
   2  -1   5    0.10    0.10
  -3   1  -5   13.70    0.50
  -3   1  -5   12.90    0.50
  -3   1  -5   12.60    0.50
  -3   1  -5   11.20    0.50
  -3   1  -5   12.60    0.50
   3  -1   5   11.80    0.40
   3  -1   5   11.70    0.50
   3  -1   5   11.80    0.50
   3  -1   5   12.00    0.50
  -4   1  -5    0.30    0.10
  -4   1  -5    0.00    0.10
  -4   1  -5    0.50    0.10
  -4   1  -5    0.40    0.10
  -4   1  -5    0.50    0.10
   4  -1   5    0.30    0.10
   4  -1   5    0.30    0.10
   4  -1   5    0.20    0.10
  -5   1  -5   -0.10    0.10
  -5   1  -5   -0.10    0.10
  -5   1  -5   -0.10    0.10
  -5   1  -5    0.00    0.10
   5  -1   5   -0.30    0.10
   5  -1   5   -0.10    0.10
   5  -1   5   -0.20    0.10
   5  -1   5   -0.10    0.10
  -6   1  -5    1.50    0.20
  -6   1  -5    1.10    0.20
   6  -1   5    0.90    0.20
   6  -1   5    1.70    0.20
   6  -1   5    1.40    0.20
   6  -1   5    1.60    0.20
  -7   1  -5    3.10    0.40
   7  -1   5    3.50    0.40
   7  -1   5    3.30    0.30
   7  -1   5    3.40    0.40
   7  -1   5    4.10    0.40
  -7   0   5    2.50    0.10
  -7   0   5    2.60    0.40
  -7   0   5    2.60    0.20
  -7   0   5    2.90    0.20
  -7   0   5    2.40    0.20
   6   0  -5    0.40    0.40
  -6   0   5    0.60    0.20
  -6   0   5    0.50    0.10
  -6   0   5    0.50    0.10
   5   0  -5    7.00    0.80
  -5   0   5    5.90    0.40
   4   0  -5    5.10    0.20
   4   0  -5    4.80    0.70
   3   0  -5   66.09    1.60
   3   0  -5   64.09    2.20
  -3   0   5   65.99    1.70
   2   0  -5    6.10    0.20
   2   0  -5    6.10    0.60
  -2   0   5    6.30    0.50
  -2   0   5    6.30    0.20
  -2   0   5    5.90    0.20
  -2   0   5    6.10    0.20
   1   0  -5    6.30    0.20
   1   0  -5    5.90    0.30
   1   0  -5    5.40    0.50
  -1   0   5    5.20    0.20
  -1   0   5    5.80    0.20
  -1   0   5    5.60    0.20
  -1   0   5    5.70    0.20
  -1   0   5    5.60    0.50
   0   0  -5   18.20    0.50
   0   0  -5   18.10    0.50
   0   0  -5   18.90    0.60
   0   0   5   17.90    0.50
   0   0   5   19.20    0.60
   0   0   5   18.60    0.50
   0   0   5   18.90    0.50
  -1   0  -5   93.89    2.10
  -1   0  -5   94.29    2.20
  -1   0  -5   90.69    2.20
  -1   0  -5   93.29    2.30
   1   0   5   94.19    2.30
   1   0   5   90.89    2.20
   1   0   5   93.49    2.10
   1   0   5   91.49    2.20
  -2   0  -5   11.50    0.40
  -2   0  -5   11.00    0.40
  -2   0  -5   10.70    0.40
  -2   0  -5   11.50    0.40
  -2   0  -5   10.60    0.30
   2   0   5   10.70    0.40
   2   0   5   10.40    0.40
   2   0   5   10.90    0.30
  -3   0  -5   14.30    0.50
  -3   0  -5   15.00    0.50
  -3   0  -5   14.20    0.50
  -3   0  -5   14.20    0.50
  -3   0  -5   14.10    0.50
  -3   0  -5   13.30    0.50
   3   0   5   14.80    0.50
   3   0   5   14.20    0.50
   3   0   5   13.50    0.40
  -4   0  -5    8.10    0.40
  -4   0  -5    7.90    0.40
  -4   0  -5    8.20    0.40
  -4   0  -5    8.60    0.40
  -4   0  -5    8.20    0.30
   4   0   5    7.90    0.40
   4   0   5    7.30    0.30
   4   0   5    8.20    0.40
  -5   0  -5   44.20    1.10
  -5   0  -5   42.90    1.30
  -5   0  -5   40.60    1.20
  -5   0  -5   43.20    1.20
   5   0   5   42.40    1.10
   5   0   5   41.80    1.30
   5   0   5   43.00    1.20
   5   0   5   44.00    1.20
  -6   0  -5    2.00    0.30
  -6   0  -5    2.10    0.30
   6   0   5    1.70    0.20
   6   0   5    2.00    0.20
   6   0   5    2.20    0.20
   6   0   5    2.20    0.30
  -7   0  -5    0.10    0.20
  -7   0  -5    0.20    0.20
   7   0   5    0.00    0.10
   7   0   5    0.00    0.10
  -7   1   5   -0.10    0.10
  -7   1   5    0.00    0.10
  -7   1   5    0.10    0.20
  -7   1   5    0.00    0.10
   6  -1  -5   14.70    1.20
  -6   1   5   14.80    0.70
  -6   1   5   13.80    0.40
  -6   1   5   14.30    0.40
  -6   1   5   14.10    0.50
  -6   1   5   14.40    0.40
   5  -1  -5   24.50    0.70
   5  -1  -5   26.80    1.50
  -5   1   5   24.50    0.60
  -5   1   5   25.40    0.90
  -5   1   5   24.70    0.70
   4  -1  -5   10.00    0.30
   4  -1  -5    9.70    0.80
  -4   1   5    9.50    0.50
  -4   1   5   10.50    0.30
  -4   1   5    9.80    0.30
   3  -1  -5   15.90    0.50
   3  -1  -5   16.30    0.90
  -3   1   5   16.20    0.40
  -3   1   5   15.50    0.40
   2  -1  -5   82.49    2.50
   2  -1  -5   84.09    2.00
  -2   1   5   81.09    1.90
  -2   1   5   85.69    2.00
  -2   1   5   82.89    1.90
  -2   1   5   85.89    1.90
   1  -1  -5   54.29    1.30
   1  -1  -5   53.69    1.70
   1  -1  -5   53.39    1.30
  -1   1   5   51.99    1.30
  -1   1   5   53.49    1.20
  -1   1   5   52.09    1.60
  -1   1   5   52.59    1.30
   0  -1  -5    6.20    0.30
   0  -1  -5    6.20    0.20
   0  -1  -5    6.30    0.30
   0   1   5    5.30    0.40
   0   1   5    6.90    0.30
   0   1   5    6.30    0.20
   0   1   5    6.20    0.30
   0   1   5    6.40    0.20
   0   1   5    6.60    0.30
   0   1   5    6.50    0.30
  -1  -1  -5   52.29    1.30
  -1  -1  -5   50.89    1.20
  -1  -1  -5   51.99    1.30
   1   1   5   53.09    1.30
   1   1   5   51.69    1.20
   1   1   5   52.39    1.30
   1   1   5   52.89    1.30
  -2  -1  -5   82.69    2.10
  -2  -1  -5   87.79    2.10
  -2  -1  -5   83.39    2.00
  -2  -1  -5   87.39    2.10
  -2  -1  -5   86.99    2.10
  -2  -1  -5   84.99    2.10
   2   1   5   83.19    2.10
   2   1   5   86.19    2.10
   2   1   5   88.69    2.00
  -3  -1  -5   12.40    0.50
  -3  -1  -5   12.40    0.40
  -3  -1  -5   12.30    0.50
  -3  -1  -5   12.70    0.50
  -3  -1  -5   12.70    0.40
  -3  -1  -5   12.30    0.50
   3   1   5   12.00    0.50
   3   1   5   11.60    0.40
   3   1   5   11.90    0.40
   3   1   5   13.10    0.50
  -4  -1  -5   14.80    0.50
  -4  -1  -5   14.90    0.50
  -4  -1  -5   16.40    0.50
  -4  -1  -5   14.70    0.50
   4   1   5   14.00    0.60
   4   1   5   14.60    0.50
   4   1   5   15.10    0.50
   4   1   5   14.70    0.40
  -5  -1  -5    0.50    0.10
  -5  -1  -5    0.60    0.10
  -5  -1  -5    0.30    0.10
   5   1   5    0.40    0.10
   5   1   5    0.40    0.10
   5   1   5    0.50    0.10
   5   1   5    0.40    0.10
  -6  -1  -5    3.10    0.30
  -6  -1  -5    2.70    0.30
  -6  -1  -5    2.80    0.20
   6   1   5    3.00    0.30
   6   1   5    2.70    0.30
   6   1   5    2.40    0.30
  -7  -1  -5   20.60    0.80
  -7  -1  -5   19.40    0.80
   7   1   5   18.80    0.70
   7   1   5   20.70    0.80
  -7   2   5    1.50    0.20
  -7   2   5    2.50    0.40
  -7   2   5    1.80    0.20
  -7   2   5    1.80    0.20
   6  -2  -5    0.00    0.10
   6  -2  -5    0.10    0.30
  -6   2   5    0.00    0.10
  -6   2   5    0.10    0.10
  -6   2   5    0.00    0.10
  -6   2   5   -0.10    0.10
   5  -2  -5   96.79    3.30
   5  -2  -5  101.49    2.40
  -5   2   5   98.69    2.30
  -5   2   5   97.79    2.30
  -5   2   5   99.89    2.60
  -5   2   5   96.99    2.40
  -5   2   5   98.09    2.30
   4  -2  -5    3.50    0.60
   4  -2  -5    3.40    0.20
  -4   2   5    3.30    0.20
  -4   2   5    3.60    0.20
  -4   2   5    4.10    0.30
  -4   2   5    3.40    0.20
  -4   2   5    3.00    0.20
   3  -2  -5    6.70    0.30
   3  -2  -5    6.70    0.30
   3  -2  -5    6.60    0.60
  -3   2   5    6.70    0.20
  -3   2   5    7.00    0.20
  -3   2   5    6.70    0.30
  -3   2   5    6.90    0.20
   2  -2  -5    0.40    0.10
   2  -2  -5    0.50    0.20
   2  -2  -5    0.50    0.10
  -2   2   5    0.60    0.10
  -2   2   5    0.60    0.10
  -2   2   5    0.30    0.10
  -2   2   5    0.40    0.10
   1  -2  -5    6.00    0.20
   1  -2  -5    5.60    0.30
   1  -2  -5    6.10    0.50
  -1   2   5    5.40    0.40
  -1   2   5    5.40    0.20
  -1   2   5    5.30    0.20
  -1   2   5    5.80    0.20
  -1   2   5    5.60    0.20
   0  -2  -5  362.96    8.40
   0  -2  -5  368.66    8.40
   0  -2  -5  378.46    8.40
   0   2   5  362.16    8.40
   0   2   5  378.76    8.30
   0   2   5  379.26    8.30
   0   2   5  362.86    8.40
   0   2   5  371.66    8.40
   0   2   5  361.16    8.60
   0   2   5  368.26    8.30
  -1  -2  -5    6.40    0.30
  -1  -2  -5    6.20    0.30
  -1  -2  -5    6.20    0.30
  -1  -2  -5    6.00    0.20
   1   2   5    6.00    0.20
   1   2   5    6.20    0.30
   1   2   5    6.60    0.30
  -2  -2  -5   72.19    1.80
  -2  -2  -5   73.79    1.80
  -2  -2  -5   75.49    1.80
  -2  -2  -5   71.49    1.80
  -2  -2  -5   73.29    1.70
   2   2   5   72.99    1.80
   2   2   5   73.99    1.70
   2   2   5   75.49    1.80
   2   2   5   72.39    1.80
  -3  -2  -5  315.37    7.20
  -3  -2  -5  320.47    7.20
  -3  -2  -5  323.77    7.20
  -3  -2  -5  311.97    7.20
   3   2   5  301.97    7.20
   3   2   5  309.57    7.20
   3   2   5  311.47    7.20
   3   2   5  317.57    7.10
  -4  -2  -5    3.30    0.20
  -4  -2  -5    3.40    0.20
  -4  -2  -5    3.20    0.20
  -4  -2  -5    3.10    0.20
  -4  -2  -5    3.30    0.20
  -4  -2  -5    3.70    0.20
   4   2   5    3.40    0.20
   4   2   5    3.10    0.20
   4   2   5    3.30    0.20
   4   2   5    3.40    0.20
  -5  -2  -5   -0.10    0.10
  -5  -2  -5    0.00    0.10
  -5  -2  -5    0.10    0.10
  -5  -2  -5    0.00    0.10
   5   2   5    0.10    0.10
   5   2   5    0.00    0.10
   5   2   5    0.10    0.10
   5   2   5    0.00    0.10
  -6  -2  -5   38.60    1.20
  -6  -2  -5   39.80    1.20
  -6  -2  -5   38.60    1.20
  -6  -2  -5   38.40    1.10
   6   2   5   37.40    1.20
   6   2   5   38.20    1.10
   6   2   5   38.20    1.10
  -7  -2  -5   35.90    1.10
  -7  -2  -5   34.70    1.10
  -7  -2  -5   36.70    1.10
  -7  -2  -5   34.80    1.10
   7   2   5   33.40    1.10
   7   2   5   33.80    1.10
  -8  -2  -5    0.30    0.20
  -8  -2  -5    0.10    0.20
  -8  -2  -5    0.10    0.20
   8   2   5   -0.10    0.10
   8   2   5    0.20    0.10
   7  -3  -5    2.20    0.30
  -7   3   5    1.40    0.20
  -7   3   5    1.90    0.20
  -7   3   5    2.30    0.40
  -7   3   5    1.80    0.30
   6  -3  -5    7.50    0.40
   6  -3  -5    6.30    0.90
  -6   3   5    7.10    0.40
  -6   3   5    6.80    0.50
  -6   3   5    7.60    0.40
  -6   3   5    7.30    0.30
   5  -3  -5   69.29    1.80
   5  -3  -5   73.49    1.80
  -5   3   5   70.09    1.70
  -5   3   5   68.19    1.80
  -5   3   5   69.79    1.80
  -5   3   5   67.69    1.90
  -5   3   5   69.49    1.70
   4  -3  -5  139.39    3.30
   4  -3  -5  139.99    3.30
  -4   3   5  137.99    3.30
  -4   3   5  141.19    3.30
   3  -3  -5    1.10    0.30
   3  -3  -5    0.70    0.10
   3  -3  -5    0.80    0.10
  -3   3   5    0.40    0.10
  -3   3   5    0.70    0.10
  -3   3   5    0.60    0.10
  -3   3   5    0.80    0.10
   2  -3  -5   74.89    1.80
   2  -3  -5   74.19    1.80
   2  -3  -5   72.29    2.20
  -2   3   5   75.59    1.70
  -2   3   5   72.69    1.80
  -2   3   5   72.69    1.80
  -2   3   5   72.79    1.70
  -2   3   5   68.69    1.80
   1  -3  -5   34.50    1.10
   1  -3  -5   35.50    0.90
   1  -3  -5   35.00    0.80
   1  -3  -5   36.30    1.00
  -1   3   5   34.40    0.90
  -1   3   5   35.30    0.90
  -1   3   5   34.70    0.90
  -1   3   5   31.30    0.90
  -1   3   5   35.10    1.00
   0  -3  -5   51.19    1.20
   0  -3  -5   52.59    1.30
   0   3   5   51.29    1.40
   0   3   5   52.49    1.20
   0   3   5   51.49    1.30
   0   3   5   52.09    1.30
   0   3   5   52.59    1.30
   0   3   5   55.29    1.30
  -1  -3  -5    5.20    0.20
  -1  -3  -5    4.80    0.20
  -1  -3  -5    5.00    0.20
  -1  -3  -5    3.70    0.20
  -1  -3  -5    4.70    0.20
   1   3   5    3.70    0.20
   1   3   5    5.00    0.20
   1   3   5    4.70    0.20
   1   3   5    5.00    0.20
   1   3   5    4.00    0.30
  -2  -3  -5  108.09    2.60
  -2  -3  -5  108.09    2.50
  -2  -3  -5  108.59    2.60
  -2  -3  -5  104.99    2.60
   2   3   5  109.39    2.50
   2   3   5  110.79    2.60
   2   3   5  105.59    2.50
  -3  -3  -5   21.70    0.70
  -3  -3  -5   21.50    0.60
  -3  -3  -5   21.90    0.70
  -3  -3  -5   20.30    0.60
   3   3   5   21.60    0.60
   3   3   5   21.60    0.60
   3   3   5   21.10    0.70
   3   3   5   21.70    0.60
  -4  -3  -5    9.30    0.30
  -4  -3  -5    8.70    0.40
  -4  -3  -5    8.70    0.40
  -4  -3  -5    8.80    0.40
  -4  -3  -5    9.10    0.40
   4   3   5    8.50    0.40
   4   3   5    9.10    0.40
   4   3   5    8.70    0.30
   4   3   5    9.10    0.40
  -5  -3  -5   25.50    0.80
  -5  -3  -5   25.10    0.80
  -5  -3  -5   25.70    0.80
  -5  -3  -5   25.90    0.80
   5   3   5   26.10    0.80
   5   3   5   26.50    0.80
   5   3   5   26.50    0.80
  -6  -3  -5   36.40    1.10
  -6  -3  -5   38.70    1.10
  -6  -3  -5   36.80    1.10
  -6  -3  -5   37.10    1.10
   6   3   5   37.90    1.20
   6   3   5   37.50    1.10
  -7  -3  -5   35.50    1.10
  -7  -3  -5   35.90    1.10
  -7  -3  -5   35.30    1.10
  -7  -3  -5   34.70    1.10
   7   3   5   34.80    1.10
   7   3   5   35.00    1.10
  -8  -3  -5    7.20    0.50
  -8  -3  -5    8.20    0.50
   8   3   5    6.70    0.40
   8   3   5    6.90    0.50
   7  -4  -5   11.90    0.60
  -7   4   5   12.00    0.70
  -7   4   5   11.90    0.60
  -7   4   5   11.80    0.50
  -7   4   5   12.60    0.60
   6  -4  -5    0.00    0.10
  -6   4   5    0.20    0.10
  -6   4   5    0.00    0.10
  -6   4   5    0.00    0.20
  -6   4   5    0.00    0.10
   5  -4  -5  101.99    2.50
  -5   4   5  101.19    2.60
  -5   4   5  102.19    2.50
  -5   4   5  100.19    2.50
  -5   4   5   96.09    2.60
   4  -4  -5   19.80    0.70
   4  -4  -5   20.20    0.70
   4  -4  -5   21.00    0.70
  -4   4   5   20.00    0.70
  -4   4   5   21.30    0.60
  -4   4   5   21.90    0.60
  -4   4   5   20.70    0.70
   3  -4  -5    1.10    0.20
   3  -4  -5    1.40    0.20
  -3   4   5    1.20    0.20
  -3   4   5    1.40    0.10
  -3   4   5    1.40    0.10
  -3   4   5    1.40    0.20
   2  -4  -5   17.20    0.80
   2  -4  -5   19.80    0.60
   2  -4  -5   18.60    0.60
   2  -4  -5   18.90    0.50
  -2   4   5   18.70    0.60
  -2   4   5   19.20    0.70
  -2   4   5   19.20    0.60
  -2   4   5   18.80    0.50
  -2   4   5   18.40    0.60
   1  -4  -5   72.59    2.00
   1  -4  -5   76.99    1.90
   1  -4  -5   77.79    1.90
   1  -4  -5   76.99    1.80
  -1   4   5   76.49    1.90
  -1   4   5   78.29    1.90
  -1   4   5   75.09    1.80
  -1   4   5   77.09    2.00
  -1   4   5   74.49    1.90
   0  -4  -5   26.30    0.80
   0  -4  -5   26.40    0.70
   0  -4  -5   26.00    0.70
   0   4   5   27.60    0.80
   0   4   5   27.60    0.80
   0   4   5   26.60    0.90
   0   4   5   26.00    0.70
   0   4   5   27.10    0.80
   0   4   5   24.20    0.80
   0   4   5   26.70    0.70
  -1  -4  -5  156.38    3.60
  -1  -4  -5  158.08    3.70
  -1  -4  -5  162.88    3.70
  -1  -4  -5  163.28    3.90
  -1  -4  -5  157.08    3.70
   1   4   5  159.78    3.70
   1   4   5  155.68    3.80
   1   4   5  157.28    3.70
   1   4   5  153.58    3.70
   1   4   5  157.68    3.60
  -2  -4  -5   97.69    2.40
  -2  -4  -5  100.09    2.40
  -2  -4  -5  100.49    2.30
  -2  -4  -5   95.49    2.30
   2   4   5   98.29    2.30
   2   4   5   97.19    2.50
   2   4   5   99.79    2.30
  -3  -4  -5    1.20    0.10
  -3  -4  -5    1.30    0.10
  -3  -4  -5    1.20    0.10
  -3  -4  -5    1.30    0.10
  -3  -4  -5    1.40    0.20
   3   4   5    1.00    0.10
   3   4   5    1.10    0.10
   3   4   5    1.10    0.20
   3   4   5    1.20    0.10
  -4  -4  -5   10.70    0.40
  -4  -4  -5    8.30    0.30
  -4  -4  -5   10.10    0.40
  -4  -4  -5   10.40    0.40
   4   4   5   10.30    0.30
   4   4   5    9.70    0.40
   4   4   5   10.40    0.40
   4   4   5   10.10    0.40
  -5  -4  -5    0.10    0.10
  -5  -4  -5    0.10    0.10
  -5  -4  -5    0.10    0.10
   5   4   5    0.10    0.10
   5   4   5    0.30    0.10
   5   4   5    0.10    0.10
  -6  -4  -5  146.09    3.50
  -6  -4  -5  137.99    3.40
  -6  -4  -5  143.19    3.40
   6   4   5  139.49    3.50
   6   4   5  138.89    3.40
  -7  -4  -5    0.50    0.20
  -7  -4  -5    0.40    0.10
  -7  -4  -5    0.30    0.10
   7   4   5    0.50    0.10
   7   4   5    0.60    0.20
  -8  -4  -5    1.00    0.20
  -8  -4  -5    1.30    0.20
   8   4   5    1.60    0.30
   8   4   5    0.80    0.20
   7  -5  -5   -0.10    0.10
  -7   5   5   -0.10    0.20
  -7   5   5    0.10    0.10
  -7   5   5   -0.30    0.10
  -7   5   5   -0.10    0.10
   6  -5  -5    4.10    0.40
  -6   5   5    3.90    0.40
  -6   5   5    4.10    0.30
  -6   5   5    4.20    0.40
  -6   5   5    3.80    0.30
   5  -5  -5  303.97    7.00
  -5   5   5  298.87    6.90
  -5   5   5  293.67    7.00
  -5   5   5  300.07    7.00
   4  -5  -5    0.20    0.10
   4  -5  -5    0.00    0.10
  -4   5   5    0.10    0.10
  -4   5   5    0.10    0.10
  -4   5   5    0.00    0.10
   3  -5  -5    1.00    0.20
   3  -5  -5    1.10    0.10
   3  -5  -5    0.70    0.10
   3  -5  -5    1.30    0.20
  -3   5   5    0.80    0.20
  -3   5   5    0.90    0.10
  -3   5   5    0.90    0.10
  -3   5   5    0.90    0.10
   2  -5  -5    1.70    0.20
   2  -5  -5    1.40    0.10
   2  -5  -5    1.90    0.20
  -2   5   5    1.70    0.20
  -2   5   5    1.70    0.10
  -2   5   5    1.90    0.20
  -2   5   5    1.50    0.20
   1  -5  -5  231.28    5.40
   1  -5  -5  233.68    5.20
   1  -5  -5  219.08    5.40
   1  -5  -5  236.68    5.40
  -1   5   5  226.98    5.30
  -1   5   5  234.58    5.30
  -1   5   5  232.58    5.30
  -1   5   5  223.08    5.40
  -1   5   5  235.88    5.30
  -1   5   5  235.78    5.50
   0  -5  -5   32.10    0.90
   0  -5  -5   30.00    0.80
   0  -5  -5   29.90    0.80
   0  -5  -5   30.20    0.90
   0   5   5   31.60    1.00
   0   5   5   30.40    0.80
   0   5   5   31.00    0.80
   0   5   5   29.30    0.80
   0   5   5   34.80    0.90
  -1  -5  -5    0.30    0.10
  -1  -5  -5    0.20    0.10
  -1  -5  -5    0.30    0.10
  -1  -5  -5    0.10    0.10
  -1  -5  -5    0.30    0.10
  -1  -5  -5    0.30    0.10
   1   5   5    0.40    0.10
   1   5   5    0.20    0.10
   1   5   5    0.30    0.10
   1   5   5    0.00    0.10
  -2  -5  -5  239.78    5.40
  -2  -5  -5  238.98    5.50
  -2  -5  -5  241.28    5.40
  -2  -5  -5  225.88    5.40
   2   5   5  241.68    5.30
   2   5   5  236.28    5.40
   2   5   5  232.48    5.60
  -3  -5  -5   53.69    1.30
  -3  -5  -5   53.29    1.30
  -3  -5  -5   52.89    1.40
  -3  -5  -5   51.29    1.30
  -3  -5  -5   51.99    1.40
   3   5   5   53.09    1.40
   3   5   5   53.49    1.30
   3   5   5   53.09    1.30
   3   5   5   50.59    1.40
  -4  -5  -5    0.10    0.10
  -4  -5  -5    0.00    0.10
  -4  -5  -5    0.00    0.10
  -4  -5  -5    0.00    0.10
   4   5   5    0.00    0.10
   4   5   5    0.00    0.10
   4   5   5    0.00    0.10
   4   5   5    0.00    0.10
  -5  -5  -5    2.00    0.20
  -5  -5  -5    1.70    0.20
  -5  -5  -5    2.00    0.20
   5   5   5    1.60    0.20
   5   5   5    1.70    0.20
   5   5   5    1.70    0.20
  -6  -5  -5    8.20    0.40
  -6  -5  -5    8.00    0.40
  -6  -5  -5    7.30    0.40
   6   5   5    7.50    0.40
   6   5   5    7.90    0.40
  -7  -5  -5    0.20    0.10
  -7  -5  -5   -0.10    0.10
  -7  -5  -5    0.00    0.10
   7   5   5    0.00    0.10
   7   5   5    0.00    0.10
  -8  -5  -5    1.80    0.30
   7  -6  -5    0.30    0.20
  -7   6   5    0.30    0.20
  -7   6   5    0.60    0.20
  -7   6   5    0.50    0.20
   6  -6  -5    0.50    0.20
  -6   6   5    0.70    0.20
  -6   6   5    0.50    0.20
  -6   6   5    0.60    0.20
  -6   6   5    0.40    0.20
   5  -6  -5   20.60    0.80
   5  -6  -5   20.10    0.80
  -5   6   5   20.20    0.80
  -5   6   5   21.50    0.70
  -5   6   5   19.90    0.80
   4  -6  -5   15.80    0.60
   4  -6  -5   14.30    0.60
   4  -6  -5   14.90    0.50
  -4   6   5   15.00    0.60
  -4   6   5   14.60    0.60
  -4   6   5   14.70    0.60
   3  -6  -5    8.90    0.40
   3  -6  -5    8.40    0.40
   3  -6  -5    8.50    0.30
  -3   6   5    8.70    0.40
  -3   6   5    8.40    0.40
  -3   6   5    7.60    0.40
  -3   6   5    8.50    0.40
  -3   6   5    8.40    0.30
   2  -6  -5    3.20    0.30
   2  -6  -5    3.30    0.30
   2  -6  -5    2.90    0.30
   2  -6  -5    3.10    0.20
  -2   6   5    3.10    0.20
  -2   6   5    2.90    0.20
  -2   6   5    3.10    0.30
  -2   6   5    3.50    0.30
  -2   6   5    2.90    0.20
   1  -6  -5    2.90    0.20
   1  -6  -5    2.70    0.30
   1  -6  -5    2.80    0.20
  -1   6   5    2.90    0.10
  -1   6   5    2.40    0.20
  -1   6   5    2.80    0.20
  -1   6   5    2.70    0.30
  -1   6   5    2.80    0.20
  -1   6   5    2.80    0.20
  -1   6   5    3.00    0.20
   0  -6  -5   37.80    1.00
   0  -6  -5   38.90    1.10
   0  -6  -5   39.90    1.00
   0  -6  -5   39.10    1.10
   0   6   5   41.30    1.30
   0   6   5   40.00    1.10
   0   6   5   39.40    1.10
   0   6   5   39.30    1.00
   0   6   5   39.00    1.10
  -1  -6  -5   10.80    0.40
  -1  -6  -5   11.80    0.40
  -1  -6  -5   11.40    0.40
  -1  -6  -5   11.80    0.40
  -1  -6  -5   11.40    0.30
   1   6   5   11.60    0.40
   1   6   5   11.40    0.40
   1   6   5   11.20    0.40
  -2  -6  -5    7.30    0.30
  -2  -6  -5    7.60    0.30
  -2  -6  -5    7.40    0.30
  -2  -6  -5    7.40    0.30
  -2  -6  -5    6.70    0.30
   2   6   5    6.10    0.30
   2   6   5    7.00    0.20
   2   6   5    7.00    0.30
   2   6   5    6.60    0.40
  -3  -6  -5    0.10    0.10
  -3  -6  -5    0.10    0.10
  -3  -6  -5    0.00    0.10
  -3  -6  -5    0.00    0.10
  -3  -6  -5    0.00    0.10
  -3  -6  -5    0.00    0.10
   3   6   5    0.00    0.10
   3   6   5    0.00    0.10
   3   6   5    0.10    0.10
   3   6   5    0.10    0.10
  -4  -6  -5    8.10    0.40
  -4  -6  -5    8.20    0.40
  -4  -6  -5    8.30    0.30
   4   6   5    8.20    0.30
   4   6   5    7.90    0.40
   4   6   5    8.30    0.40
   4   6   5    8.10    0.30
  -5  -6  -5    1.80    0.20
  -5  -6  -5    1.90    0.20
  -5  -6  -5    1.90    0.20
   5   6   5    2.50    0.30
   5   6   5    1.80    0.20
   5   6   5    1.80    0.20
  -6  -6  -5    0.10    0.10
  -6  -6  -5    0.10    0.10
  -6  -6  -5    0.10    0.10
   6   6   5    0.10    0.10
   6   6   5    0.30    0.10
  -7  -6  -5    6.70    0.40
  -7  -6  -5    6.30    0.40
  -7  -6  -5    6.40    0.40
   7   6   5    5.40    0.40
   7   6   5    6.50    0.40
   6  -7  -5    0.40    0.20
  -6   7   5    0.40    0.20
  -6   7   5    0.20    0.20
  -6   7   5    0.30    0.20
   5  -7  -5    7.50    0.30
   5  -7  -5    7.20    0.50
   5  -7  -5    8.00    0.50
  -5   7   5    6.60    0.50
  -5   7   5    8.20    0.40
   4  -7  -5    1.60    0.30
   4  -7  -5    1.00    0.10
   4  -7  -5    1.90    0.30
  -4   7   5    1.30    0.10
  -4   7   5    1.20    0.20
  -4   7   5    0.70    0.20
  -4   7   5    1.50    0.20
   3  -7  -5   23.00    0.70
   3  -7  -5   22.60    0.80
   3  -7  -5   22.80    0.80
  -3   7   5   22.90    0.90
  -3   7   5   22.20    0.80
  -3   7   5   22.50    0.70
  -3   7   5   23.00    0.80
  -3   7   5   23.10    0.80
   2  -7  -5    0.90    0.10
   2  -7  -5    0.40    0.10
   2  -7  -5    0.30    0.10
  -2   7   5    0.60    0.10
  -2   7   5    0.50    0.10
  -2   7   5    0.50    0.10
  -2   7   5    0.40    0.20
  -2   7   5    0.50    0.20
   1  -7  -5   12.70    0.40
   1  -7  -5   13.10    0.50
   1  -7  -5   12.90    0.50
   1  -7  -5   12.00    0.50
  -1   7   5   12.30    0.50
  -1   7   5   11.40    0.50
  -1   7   5   12.70    0.70
  -1   7   5   14.20    0.60
  -1   7   5   12.90    0.40
  -1   7   5   13.20    0.50
  -1   7   5   13.10    0.50
   0  -7  -5   11.90    0.40
   0  -7  -5   11.60    0.50
   0  -7  -5   11.00    0.30
   0  -7  -5   10.20    0.40
   0  -7  -5   10.80    0.50
   0   7   5    9.90    0.60
   0   7   5   10.70    0.30
   0   7   5   11.00    0.50
   0   7   5   10.30    0.40
   0   7   5   10.50    0.50
  -1  -7  -5    0.10    0.10
  -1  -7  -5    0.10    0.10
  -1  -7  -5    0.20    0.10
  -1  -7  -5    0.20    0.10
  -1  -7  -5    0.20    0.10
  -1  -7  -5    0.30    0.10
  -1  -7  -5    0.00    0.10
   1   7   5    0.00    0.10
   1   7   5    0.20    0.10
   1   7   5    0.20    0.10
   1   7   5    0.10    0.10
  -2  -7  -5    9.80    0.40
  -2  -7  -5    9.60    0.40
  -2  -7  -5    9.50    0.40
  -2  -7  -5    9.50    0.40
  -2  -7  -5    9.80    0.40
   2   7   5    9.40    0.30
   2   7   5    9.50    0.40
   2   7   5    8.90    0.50
   2   7   5   10.00    0.40
  -3  -7  -5    0.00    0.10
  -3  -7  -5   -0.10    0.10
  -3  -7  -5    0.10    0.10
  -3  -7  -5    0.00    0.10
  -3  -7  -5    0.10    0.10
   3   7   5    0.10    0.10
   3   7   5    0.00    0.10
   3   7   5    0.20    0.10
   3   7   5    0.00    0.10
  -4  -7  -5    2.40    0.20
  -4  -7  -5    2.60    0.20
  -4  -7  -5    2.20    0.20
   4   7   5    2.60    0.30
   4   7   5    2.50    0.10
   4   7   5    2.70    0.20
   4   7   5    2.60    0.20
  -5  -7  -5   23.60    0.70
  -5  -7  -5   23.30    0.80
  -5  -7  -5   22.80    0.70
   5   7   5   22.20    0.70
   5   7   5   21.40    0.80
   5   7   5   23.00    0.70
  -6  -7  -5    5.00    0.30
  -6  -7  -5    5.10    0.30
  -6  -7  -5    5.10    0.40
   6   7   5    5.60    0.40
   6   7   5    5.00    0.30
  -7  -7  -5   -0.10    0.10
  -7  -7  -5    0.10    0.10
  -7  -7  -5    0.20    0.10
   7   7   5    0.00    0.10
   7   7   5   -0.10    0.10
   6  -8  -5    4.40    0.40
   6  -8  -5    4.40    0.30
  -6   8   5    4.40    0.50
  -6   8   5    4.80    0.40
   5  -8  -5    5.50    0.40
   5  -8  -5    5.90    0.40
   5  -8  -5    5.40    0.30
  -5   8   5    5.20    0.50
  -5   8   5    5.30    0.40
   4  -8  -5    3.90    0.40
   4  -8  -5    3.70    0.20
   4  -8  -5    3.20    0.40
  -4   8   5    3.70    0.30
  -4   8   5    3.00    0.40
  -4   8   5    3.90    0.20
   3  -8  -5    3.40    0.30
   3  -8  -5    2.70    0.20
   3  -8  -5    3.10    0.30
  -3   8   5    2.30    0.30
  -3   8   5    3.00    0.40
  -3   8   5    2.80    0.20
  -3   8   5    2.20    0.30
   2  -8  -5   67.09    1.90
   2  -8  -5   67.79    1.70
  -2   8   5   68.49    1.80
  -2   8   5   67.89    2.00
  -2   8   5   68.59    1.90
  -2   8   5   66.99    1.80
   1  -8  -5    2.80    0.30
   1  -8  -5    3.10    0.30
   1  -8  -5    2.60    0.20
   1  -8  -5    2.80    0.20
  -1   8   5    2.80    0.30
  -1   8   5    3.10    0.40
  -1   8   5    2.80    0.20
  -1   8   5    2.90    0.20
   0  -8  -5   10.80    0.40
   0  -8  -5   10.50    0.30
   0  -8  -5   11.20    0.50
   0   8   5   10.50    0.40
   0   8   5   11.90    0.50
   0   8   5   10.40    0.50
   0   8   5   11.00    0.50
   0   8   5   10.20    0.60
  -1  -8  -5   76.39    2.00
  -1  -8  -5   73.09    1.90
  -1  -8  -5   74.49    1.90
  -1  -8  -5   76.59    1.90
  -1  -8  -5   73.99    1.70
  -1  -8  -5   76.89    1.90
   1   8   5   74.99    2.00
   1   8   5   75.29    1.90
   1   8   5   75.69    1.80
  -2  -8  -5  112.49    2.80
  -2  -8  -5  111.39    2.70
  -2  -8  -5  113.19    2.80
  -2  -8  -5  110.59    2.80
  -2  -8  -5  113.79    2.80
   2   8   5  113.89    2.80
   2   8   5  113.89    2.70
   2   8   5  116.29    3.10
   2   8   5  117.19    2.80
  -3  -8  -5    6.00    0.30
  -3  -8  -5    6.70    0.30
  -3  -8  -5    6.30    0.30
  -3  -8  -5    6.00    0.30
  -3  -8  -5    6.40    0.30
   3   8   5    6.10    0.20
   3   8   5    6.20    0.30
   3   8   5    6.40    0.30
   3   8   5    5.60    0.40
  -4  -8  -5   69.69    1.80
  -4  -8  -5   66.69    1.80
  -4  -8  -5   68.09    1.80
   4   8   5   70.59    2.20
   4   8   5   70.09    2.00
   4   8   5   69.19    1.80
   4   8   5   67.19    1.80
   4   8   5   72.09    1.70
  -5  -8  -5    1.40    0.20
  -5  -8  -5    1.10    0.20
  -5  -8  -5    1.20    0.20
   5   8   5    1.10    0.20
   5   8   5    1.20    0.40
   5   8   5    0.90    0.20
  -6  -8  -5   27.20    0.90
  -6  -8  -5   28.30    0.90
  -6  -8  -5   27.30    0.90
   6   8   5   27.80    1.50
   6   8   5   26.60    1.00
   6   8   5   27.80    0.90
  -7  -8  -5    7.90    0.40
  -7  -8  -5    8.50    0.40
  -7  -8  -5    7.30    0.50
   7   8   5    7.20    1.00
   7   8   5    8.00    0.40
   7   8   5    8.40    0.50
   6  -9  -5    1.00    0.20
   6  -9  -5    1.30    0.30
   6  -9  -5    1.30    0.30
  -6   9   5    1.20    0.30
   5  -9  -5    1.90    0.20
   5  -9  -5    2.30    0.30
   5  -9  -5    1.60    0.30
  -5   9   5    1.40    0.30
   4  -9  -5    1.70    0.30
   4  -9  -5    1.10    0.20
   4  -9  -5    1.60    0.30
  -4   9   5    1.50    0.20
  -4   9   5    1.60    0.30
   3  -9  -5    0.00    0.10
   3  -9  -5   -0.10    0.10
   3  -9  -5   -0.10    0.10
  -3   9   5   -0.10    0.10
  -3   9   5   -0.20    0.10
  -3   9   5   -0.10    0.10
   2  -9  -5   15.00    0.50
   2  -9  -5   14.50    0.60
   2  -9  -5   14.20    0.60
  -2   9   5   13.90    0.70
  -2   9   5   15.80    0.80
  -2   9   5   14.20    0.60
   1  -9  -5   11.60    0.60
   1  -9  -5   12.40    0.60
   1  -9  -5   12.80    0.50
   1  -9  -5   12.50    0.40
  -1   9   5   12.90    0.40
  -1   9   5   15.10    0.60
  -1   9   5   11.60    0.70
   0  -9  -5  140.29    3.20
   0  -9  -5  145.19    3.40
   0  -9  -5  139.29    3.50
   0   9   5  138.49    3.30
   0   9   5  140.39    3.80
   0   9   5  141.89    3.50
   0   9   5  140.59    3.50
   0   9   5  141.69    3.40
  -1  -9  -5   17.70    0.70
  -1  -9  -5   18.10    0.60
  -1  -9  -5   18.20    0.40
  -1  -9  -5   18.30    0.70
  -1  -9  -5   18.30    0.60
  -1  -9  -5   17.80    0.70
   1   9   5   17.70    0.70
   1   9   5   18.20    0.50
   1   9   5   17.90    0.60
  -2  -9  -5    3.10    0.20
  -2  -9  -5    3.50    0.20
  -2  -9  -5    3.70    0.30
  -2  -9  -5    3.20    0.20
   2   9   5    3.20    0.20
   2   9   5    3.50    0.20
   2   9   5    2.50    0.40
  -3  -9  -5    7.30    0.40
  -3  -9  -5    8.20    0.40
  -3  -9  -5    7.10    0.40
  -3  -9  -5    7.90    0.30
   3   9   5    7.90    0.40
   3   9   5    8.30    0.40
   3   9   5    7.60    0.30
   3   9   5    8.40    0.50
   3   9   5    7.10    0.50
  -4  -9  -5    7.30    0.40
  -4  -9  -5    7.40    0.40
  -4  -9  -5    7.80    0.40
   4   9   5    7.80    0.60
   4   9   5    7.70    0.40
   4   9   5    7.30    0.40
   4   9   5    7.30    0.30
   4   9   5    6.60    0.50
  -5  -9  -5    0.30    0.10
  -5  -9  -5    0.40    0.10
  -5  -9  -5    0.20    0.10
   5   9   5    0.00    0.20
   5   9   5    0.40    0.20
   5   9   5    0.20    0.10
  -6  -9  -5   12.60    0.50
  -6  -9  -5   13.30    0.60
  -6  -9  -5   12.30    0.50
   6   9   5   12.60    0.70
   6   9   5   11.40    1.00
   6   9   5   13.60    0.50
  -7  -9  -5   19.70    0.70
  -7  -9  -5   20.40    0.70
  -7  -9  -5   20.20    0.80
   7   9   5   20.30    0.70
   7   9   5   19.40    0.90
   5 -10  -5    5.20    0.50
   5 -10  -5    6.10    0.50
   5 -10  -5    5.80    0.40
  -5  10   5    6.40    0.50
   4 -10  -5    0.50    0.20
   4 -10  -5    0.80    0.20
   4 -10  -5    0.80    0.20
  -4  10   5    0.80    0.30
  -4  10   5    1.00    0.20
   3 -10  -5    1.10    0.20
   3 -10  -5    1.10    0.20
   3 -10  -5    0.50    0.20
  -3  10   5    1.50    0.30
  -3  10   5    1.10    0.20
  -3  10   5    0.90    0.20
   2 -10  -5  107.49    2.80
   2 -10  -5  104.69    2.80
   2 -10  -5  108.79    2.60
  -2  10   5  106.99    3.10
  -2  10   5  107.89    2.90
  -2  10   5  108.29    2.70
   1 -10  -5    1.50    0.20
   1 -10  -5    2.00    0.20
   1 -10  -5    1.70    0.30
  -1  10   5    2.00    0.40
  -1  10   5    1.70    0.20
  -1  10   5    1.90    0.20
  -1  10   5    1.60    0.30
   0 -10  -5   14.60    0.60
   0 -10  -5   14.60    0.60
   0 -10  -5   15.70    0.50
   0 -10  -5   15.00    0.60
   0  10   5   15.00    0.90
   0  10   5   15.00    0.60
   0  10   5   15.10    0.50
   0  10   5   15.30    0.70
  -1 -10  -5   23.60    0.80
  -1 -10  -5   23.90    0.80
  -1 -10  -5   24.50    0.80
  -1 -10  -5   22.90    0.80
   1  10   5   23.70    0.90
   1  10   5   22.40    0.70
   1  10   5   22.90    1.10
   1  10   5   24.00    0.80
  -2 -10  -5    1.30    0.20
  -2 -10  -5    1.50    0.20
  -2 -10  -5    1.60    0.20
   2  10   5    1.50    0.20
   2  10   5    1.30    0.20
   2  10   5    1.30    0.20
   2  10   5    1.10    0.30
  -3 -10  -5    0.80    0.20
  -3 -10  -5    0.90    0.20
  -3 -10  -5    0.90    0.20
   3  10   5    1.30    0.20
   3  10   5    1.10    0.30
   3  10   5    1.00    0.10
   3  10   5    0.80    0.20
   3  10   5    1.10    0.30
  -4 -10  -5   49.60    1.40
  -4 -10  -5   50.29    1.50
  -4 -10  -5   48.30    1.40
   4  10   5   48.80    1.20
   4  10   5   50.99    1.80
   4  10   5   47.20    1.70
   4  10   5   49.50    1.40
   4  10   5   48.00    1.40
  -5 -10  -5   37.70    1.10
  -5 -10  -5   35.60    1.10
  -5 -10  -5   37.30    1.20
   5  10   5   34.50    2.00
   5  10   5   36.40    1.40
   5  10   5   35.50    1.10
  -6 -10  -5    3.20    0.30
  -6 -10  -5    2.90    0.30
  -6 -10  -5    3.90    0.40
   6  10   5    3.20    0.30
   6  10   5    3.00    0.40
  -7 -10  -5   30.30    1.10
  -7 -10  -5   28.30    1.00
  -7 -10  -5   30.40    1.00
   7  10   5   29.90    1.20
   7  10   5   28.70    1.00
   5 -11  -5    9.60    0.60
   5 -11  -5    9.80    0.60
   5 -11  -5    9.00    0.50
  -5  11   5   10.20    0.70
   4 -11  -5    3.00    0.30
   4 -11  -5    3.40    0.40
   4 -11  -5    2.90    0.40
  -4  11   5    2.80    0.30
  -4  11   5    2.90    0.40
   3 -11  -5    0.00    0.20
   3 -11  -5    0.00    0.10
   3 -11  -5    0.10    0.10
  -3  11   5    0.10    0.10
  -3  11   5    0.10    0.20
  -3  11   5    0.00    0.20
   2 -11  -5   41.20    1.30
   2 -11  -5   40.40    1.30
   2 -11  -5   41.60    1.10
  -2  11   5   40.80    1.40
  -2  11   5   40.80    1.30
  -2  11   5   41.50    1.60
  -2  11   5   40.90    1.00
   1 -11  -5   87.79    2.40
   1 -11  -5   89.19    2.10
   1 -11  -5   87.49    2.40
  -1  11   5   86.29    2.70
  -1  11   5   85.09    2.30
  -1  11   5   85.69    2.10
   0 -11  -5    4.90    0.40
   0 -11  -5    5.40    0.20
   0 -11  -5    5.50    0.40
   0  11   5    6.00    0.60
   0  11   5    5.00    0.40
   0  11   5    4.60    0.30
   0  11   5    4.90    0.40
  -1 -11  -5    0.00    0.10
  -1 -11  -5    0.30    0.10
  -1 -11  -5    0.10    0.10
   1  11   5    0.10    0.10
   1  11   5    0.30    0.20
   1  11   5    0.10    0.10
   1  11   5    0.30    0.20
  -2 -11  -5    0.00    0.10
  -2 -11  -5    0.10    0.10
  -2 -11  -5    0.10    0.10
  -2 -11  -5   -0.10    0.10
   2  11   5    0.10    0.10
   2  11   5    0.10    0.10
   2  11   5    0.10    0.10
   2  11   5   -0.10    0.20
  -3 -11  -5   15.90    0.70
  -3 -11  -5   15.50    0.50
  -3 -11  -5   15.60    0.60
   3  11   5   15.80    0.70
   3  11   5   16.10    0.60
   3  11   5   16.80    0.50
   3  11   5   14.90    0.90
  -4 -11  -5    1.10    0.20
  -4 -11  -5    1.10    0.20
   4  11   5    0.80    0.10
   4  11   5    1.00    0.30
   4  11   5    1.20    0.20
   4  11   5    0.80    0.20
  -5 -11  -5    0.80    0.20
  -5 -11  -5    1.30    0.20
  -5 -11  -5    0.90    0.20
   5  11   5    0.90    0.30
   5  11   5    1.20    0.20
  -6 -11  -5  121.09    3.10
  -6 -11  -5  121.69    3.00
   6  11   5  115.89    3.00
   6  11   5  118.39    3.40
   4 -12  -5    4.00    0.30
   4 -12  -5    4.20    0.50
   4 -12  -5    3.50    0.40
  -4  12   5    5.30    0.40
   3 -12  -5   -0.10    0.10
   3 -12  -5    0.10    0.20
   3 -12  -5    0.10    0.10
  -3  12   5   -0.20    0.10
  -3  12   5    0.00    0.20
   2 -12  -5   24.10    1.00
   2 -12  -5   25.00    0.80
   2 -12  -5   24.80    1.00
  -2  12   5   27.70    1.30
  -2  12   5   25.20    0.70
  -2  12   5   24.80    0.90
   1 -12  -5   44.70    1.20
   1 -12  -5   45.30    1.40
   1 -12  -5   45.50    1.40
  -1  12   5   44.20    1.80
  -1  12   5   43.80    1.40
  -1  12   5   45.20    1.20
   0 -12  -5   34.90    1.20
   0 -12  -5   34.90    0.90
   0 -12  -5   33.20    1.10
   0  12   5   36.40    1.30
   0  12   5   35.60    1.00
   0  12   5   35.30    1.20
   0  12   5   33.60    1.50
  -1 -12  -5   12.80    0.60
  -1 -12  -5   13.30    0.60
  -1 -12  -5   13.30    0.60
   1  12   5   13.40    0.60
   1  12   5   14.30    0.70
   1  12   5   13.90    0.50
   1  12   5   13.20    0.90
  -2 -12  -5    2.10    0.20
  -2 -12  -5    2.50    0.30
  -2 -12  -5    2.60    0.30
   2  12   5    2.70    0.20
   2  12   5    2.90    0.30
   2  12   5    2.20    0.30
   2  12   5    2.90    0.50
  -3 -12  -5   11.60    0.40
  -3 -12  -5   12.20    0.50
  -3 -12  -5   11.30    0.40
  -3 -12  -5   11.80    0.60
   3  12   5   11.90    0.40
   3  12   5   12.80    0.60
   3  12   5   10.50    0.60
   3  12   5   10.30    0.80
  -4 -12  -5   14.60    0.70
  -4 -12  -5   13.20    0.60
   4  12   5   13.70    0.60
   4  12   5   14.20    0.50
   4  12   5   14.00    0.70
   4  12   5   14.10    0.90
  -5 -12  -5    2.70    0.30
  -5 -12  -5    2.90    0.30
   5  12   5    2.50    0.50
   5  12   5    2.60    0.30
  -6 -12  -5    1.90    0.30
  -6 -12  -5    1.80    0.30
   6  12   5    2.80    0.50
   6  12   5    1.80    0.30
   4 -13  -5    5.50    0.40
   4 -13  -5    5.60    0.60
   4 -13  -5    4.90    0.50
  -4  13   5    6.10    0.40
   3 -13  -5    9.50    0.40
   3 -13  -5    9.00    0.60
   3 -13  -5   10.50    0.70
  -3  13   5   10.10    0.60
  -3  13   5   11.10    0.80
   2 -13  -5   40.80    1.40
   2 -13  -5   40.20    1.40
   2 -13  -5   39.70    1.10
  -2  13   5   36.70    1.10
  -2  13   5   39.90    1.30
  -2  13   5   41.20    1.70
   1 -13  -5    0.20    0.20
   1 -13  -5    0.10    0.10
   1 -13  -5    0.00    0.20
  -1  13   5    0.10    0.30
  -1  13   5    0.10    0.20
  -1  13   5    0.10    0.10
   0 -13  -5   16.60    0.70
   0 -13  -5   16.10    0.70
   0  13   5   16.60    0.70
   0  13   5   17.60    1.10
   0  13   5   16.50    0.60
  -1 -13  -5    6.80    0.40
  -1 -13  -5    7.90    0.40
  -1 -13  -5    7.80    0.50
   1  13   5    7.40    0.80
   1  13   5    6.90    0.40
   1  13   5    6.30    0.50
   1  13   5    7.50    0.50
  -2 -13  -5    7.70    0.40
  -2 -13  -5    7.90    0.50
  -2 -13  -5    7.90    0.40
   2  13   5    7.40    0.80
   2  13   5    8.20    0.40
   2  13   5    6.60    0.50
   2  13   5    7.50    0.50
  -3 -13  -5    5.40    0.40
  -3 -13  -5    5.10    0.30
   3  13   5    5.30    0.40
   3  13   5    5.80    0.50
   3  13   5    4.70    0.60
   3  13   5    5.50    0.30
  -4 -13  -5    2.20    0.30
   4  13   5    2.80    0.30
   4  13   5    2.30    0.30
   4  13   5    2.30    0.50
   4  13   5    2.30    0.20
  -5 -13  -5   12.80    0.70
  -5 -13  -5   13.80    0.60
   5  13   5   12.30    0.90
   5  13   5   13.80    0.70
   3 -14  -5   13.30    0.80
   3 -14  -5   12.80    0.50
   3 -14  -5   12.80    0.70
  -3  14   5   11.30    0.60
  -3  14   5   13.40    0.90
   2 -14  -5    6.50    0.30
   2 -14  -5    6.00    0.50
   2 -14  -5    6.00    0.50
  -2  14   5    5.50    0.70
  -2  14   5    6.10    0.50
   1 -14  -5    0.20    0.20
   1 -14  -5    0.50    0.20
   1 -14  -5    0.20    0.10
   1 -14  -5    0.30    0.20
  -1  14   5    0.40    0.20
  -1  14   5   -0.40    0.20
  -1  14   5    0.10    0.10
   0 -14  -5    2.10    0.30
   0 -14  -5    2.50    0.40
   0  14   5    1.80    0.50
   0  14   5    3.00    0.40
   0  14   5    2.30    0.20
  -1 -14  -5    1.60    0.30
  -1 -14  -5    1.60    0.30
  -1 -14  -5    2.10    0.30
   1  14   5    1.80    0.30
   1  14   5    2.40    0.20
   1  14   5    1.90    0.30
   1  14   5    1.80    0.40
  -2 -14  -5    9.20    0.50
  -2 -14  -5   10.00    0.50
   2  14   5    9.70    0.60
   2  14   5   10.10    0.90
   2  14   5    9.90    0.60
   2  14   5   10.30    0.50
  -3 -14  -5    3.90    0.30
   3  14   5    3.00    0.40
   3  14   5    3.40    0.40
   3  14   5    3.60    0.30
   3  14   5    3.80    0.60
  -4 -14  -5    2.10    0.30
   4  14   5    2.00    0.20
   4  14   5    1.90    0.40
   4  14   5    1.60    0.30
   4  14   5    1.80    0.30
  -5 -14  -5    0.50    0.20
   5  14   5    0.60    0.20
   5  14   5    1.10    0.40
   2 -15  -5    5.50    0.60
   2 -15  -5    5.50    0.30
   2 -15  -5    5.20    0.50
   2 -15  -5    6.00    0.60
  -2  15   5    5.50    0.50
  -2  15   5    5.80    0.80
   1 -15  -5    0.30    0.20
   1 -15  -5    0.20    0.20
  -1  15   5    0.00    0.30
  -1  15   5    0.00    0.10
  -1  15   5    0.20    0.20
   0 -15  -5    1.40    0.30
   0 -15  -5    0.60    0.20
   0  15   5    1.40    0.40
   0  15   5    1.10    0.20
   0  15   5    0.90    0.30
  -1 -15  -5   -0.20    0.10
  -1 -15  -5    0.00    0.10
   1  15   5    0.20    0.20
   1  15   5    0.00    0.10
   1  15   5   -0.20    0.30
   1  15   5    0.20    0.20
  -2 -15  -5    3.80    0.30
  -2 -15  -5    3.30    0.30
  -2 -15  -5    3.70    0.40
   2  15   5    3.50    0.60
   2  15   5    3.60    0.30
   2  15   5    3.20    0.40
   2  15   5    3.80    0.50
  -3 -15  -5    3.60    0.40
   3  15   5    3.50    0.30
   3  15   5    3.80    0.70
   3  15   5    4.60    0.50
   3  15   5    4.00    0.50
  -4 -15  -5   11.80    0.60
   4  15   5   13.60    0.70
   4  15   5   11.00    0.70
   4  15   5   12.70    1.00
   4  15   5   12.60    0.50
   0 -16  -5   10.70    0.60
   0 -16  -5   11.60    0.70
   0  16   5   11.30    0.70
   0  16   5   11.60    0.50
   0  16   5   11.10    1.10
  -1 -16  -5    8.20    0.50
  -1 -16  -5    7.90    0.50
   1  16   5    5.70    0.80
   1  16   5    8.10    0.60
   1  16   5    7.80    0.40
  -2 -16  -5    2.00    0.20
  -2 -16  -5    1.60    0.40
   2  16   5    2.30    0.40
   2  16   5    2.90    0.60
   2  16   5    1.60    0.30
   2  16   5    2.30    0.30
   2  12  -6   13.50    0.60
   2  12  -6   14.20    1.00
  -2 -12   6   14.20    0.70
   1  12  -6   37.50    1.10
   1  12  -6   37.80    1.30
   1  12  -6   34.90    1.60
  -1 -12   6   37.30    1.30
   0  12  -6    6.90    0.40
   0  12  -6    5.80    0.70
   0  12  -6    7.20    0.50
   0 -12   6    6.70    0.50
   0 -12   6    7.20    0.40
  -1  12  -6    5.60    0.50
  -1  12  -6    5.60    0.40
  -1  12  -6    4.80    0.60
   1 -12   6    5.20    0.40
   3  11  -6    2.10    0.40
  -3 -11   6    1.90    0.30
  -3 -11   6    2.20    0.30
   2  11  -6    3.60    0.40
   2  11  -6    3.80    0.60
   2  11  -6    2.80    0.30
  -2 -11   6    2.90    0.30
   1  11  -6    2.00    0.40
   1  11  -6    2.10    0.20
   1  11  -6    2.10    0.30
  -1 -11   6    1.40    0.30
   0  11  -6    5.90    0.40
   0  11  -6    7.00    0.50
   0  11  -6    6.10    0.70
   0 -11   6    7.10    0.40
   0 -11   6    6.70    0.50
  -1  11  -6    7.20    0.50
  -1  11  -6    8.20    0.50
  -1  11  -6    6.50    0.70
   1 -11   6    7.80    0.50
   1 -11   6    7.90    0.40
  -2  11  -6    5.20    0.40
  -2  11  -6    6.40    0.50
  -2  11  -6    5.00    0.60
   2 -11   6    5.70    0.50
   2 -11   6    5.20    0.40
   4  10  -6    0.50    0.30
  -4 -10   6    0.10    0.10
  -4 -10   6    0.30    0.10
  -4 -10   6    0.10    0.10
   3  10  -6    3.10    0.50
  -3 -10   6    2.40    0.30
  -3 -10   6    2.60    0.30
   2  10  -6   70.79    1.90
   2  10  -6   66.19    2.20
   2  10  -6   70.49    1.80
  -2 -10   6   70.29    2.00
  -2 -10   6   69.19    1.90
   1  10  -6   -0.20    0.10
   1  10  -6   -0.20    0.20
   1  10  -6   -0.10    0.10
  -1 -10   6    0.00    0.10
   0  10  -6    3.20    0.40
   0  10  -6    3.60    0.50
   0  10  -6    3.00    0.30
   0 -10   6    3.10    0.30
   0 -10   6    3.20    0.20
  -1  10  -6    0.10    0.10
  -1  10  -6    0.50    0.30
  -1  10  -6    0.40    0.20
   1 -10   6    0.20    0.20
   1 -10   6    0.20    0.10
  -2  10  -6    0.10    0.30
  -2  10  -6    0.60    0.20
  -2  10  -6    0.40    0.20
   2 -10   6    0.70    0.20
   2 -10   6    0.40    0.20
  -3  10  -6    0.50    0.20
  -3  10  -6    0.70    0.20
  -3  10  -6    0.40    0.30
   3 -10   6    0.30    0.20
   3 -10   6    0.30    0.20
   3 -10   6    0.70    0.20
   5   9  -6    5.80    0.40
  -5  -9   6    6.00    0.50
  -5  -9   6    6.30    0.30
  -5  -9   6    6.20    0.30
  -5  -9   6    6.20    0.40
   4   9  -6   20.80    0.80
   4   9  -6   20.70    0.90
  -4  -9   6   21.30    0.70
  -4  -9   6   21.50    0.80
  -4  -9   6   20.20    0.70
   3   9  -6   25.00    1.10
  -3  -9   6   24.60    0.80
  -3  -9   6   26.30    0.90
  -3  -9   6   25.70    0.90
   2   9  -6    1.90    0.30
   2   9  -6    1.80    0.40
  -2  -9   6    2.40    0.30
  -2  -9   6    2.20    0.30
   1   9  -6    1.20    0.20
   1   9  -6    1.00    0.30
   1   9  -6    1.10    0.20
  -1  -9   6    1.50    0.20
  -1  -9   6    1.70    0.20
  -1  -9   6    1.60    0.20
   0   9  -6    0.50    0.30
   0   9  -6    0.70    0.20
   0   9  -6    0.60    0.10
   0  -9   6    0.60    0.20
   0  -9   6    0.90    0.20
   0  -9   6    0.60    0.10
  -1   9  -6    1.60    0.20
  -1   9  -6    1.20    0.30
  -1   9  -6    2.00    0.30
   1  -9   6    1.60    0.20
   1  -9   6    1.80    0.30
   1  -9   6    1.70    0.30
  -2   9  -6   -0.10    0.20
  -2   9  -6    0.10    0.20
  -2   9  -6   -0.10    0.10
   2  -9   6   -0.20    0.10
   2  -9   6   -0.10    0.10
  -3   9  -6    3.20    0.50
  -3   9  -6    2.70    0.40
   3  -9   6    3.00    0.40
   3  -9   6    2.30    0.30
   3  -9   6    3.00    0.20
   3  -9   6    3.20    0.30
  -4   9  -6    8.40    0.70
  -4   9  -6    8.90    0.50
   4  -9   6    8.30    0.50
   4  -9   6    6.80    0.50
   4  -9   6    7.80    0.40
   4  -9   6    7.90    0.50
   5   8  -6   11.50    0.50
  -5  -8   6   12.40    0.40
  -5  -8   6   11.20    0.70
  -5  -8   6   11.30    0.40
  -5  -8   6   12.10    0.50
   4   8  -6   40.30    1.20
   4   8  -6   40.50    1.40
  -4  -8   6   40.50    1.10
  -4  -8   6   39.80    1.10
  -4  -8   6   39.30    1.30
  -4  -8   6   40.10    1.10
   3   8  -6   23.00    1.00
  -3  -8   6   22.80    0.90
  -3  -8   6   24.00    0.80
  -3  -8   6   22.40    0.80
  -3  -8   6   22.30    0.80
   2   8  -6   17.00    0.90
   2   8  -6   18.20    0.70
  -2  -8   6   19.00    0.70
  -2  -8   6   17.90    0.70
  -2  -8   6   17.60    0.70
   1   8  -6    9.40    0.40
   1   8  -6    8.50    0.60
   1   8  -6    9.40    0.50
  -1  -8   6    9.10    0.30
  -1  -8   6    9.80    0.50
  -1  -8   6   10.00    0.50
   0   8  -6    1.30    0.30
   0   8  -6    1.10    0.20
   0   8  -6    1.10    0.20
   0  -8   6    1.20    0.20
   0  -8   6    1.10    0.20
   0  -8   6    1.30    0.20
  -1   8  -6   23.30    0.90
  -1   8  -6   23.40    1.10
  -1   8  -6   23.30    0.80
   1  -8   6   23.40    0.80
   1  -8   6   23.50    0.90
   1  -8   6   24.80    0.90
  -2   8  -6    0.20    0.10
  -2   8  -6    0.00    0.20
  -2   8  -6    0.30    0.20
   2  -8   6    0.20    0.10
   2  -8   6    0.20    0.10
   2  -8   6    0.50    0.20
   2  -8   6    0.00    0.10
  -3   8  -6   -0.10    0.20
  -3   8  -6   -0.10    0.20
  -3   8  -6    0.00    0.10
   3  -8   6    0.00    0.10
   3  -8   6    0.00    0.10
   3  -8   6    0.00    0.10
   3  -8   6    0.00    0.10
  -4   8  -6    3.30    0.50
  -4   8  -6    3.70    0.40
   4  -8   6    3.00    0.40
   4  -8   6    3.80    0.30
   4  -8   6    3.80    0.40
   4  -8   6    3.10    0.40
  -5   8  -6    3.80    0.50
  -5   8  -6    2.80    0.40
   5  -8   6    2.80    0.30
   5  -8   6    3.20    0.40
   5  -8   6    2.60    0.40
   5  -8   6    2.00    0.30
  -6  -7   6    7.50    0.60
  -6  -7   6    8.00    0.30
  -6  -7   6    8.20    0.30
  -5  -7   6    1.90    0.20
  -5  -7   6    1.50    0.10
  -5  -7   6    2.10    0.30
  -5  -7   6    1.90    0.20
   4   7  -6   13.00    0.50
   4   7  -6   14.00    0.70
  -4  -7   6   12.90    0.60
  -4  -7   6   13.60    0.50
  -4  -7   6   13.30    0.50
  -4  -7   6   12.80    0.50
   3   7  -6    0.10    0.20
  -3  -7   6    0.10    0.10
  -3  -7   6    0.10    0.10
  -3  -7   6    0.10    0.10
  -3  -7   6    0.00    0.10
   2   7  -6    6.10    0.50
   2   7  -6    6.00    0.30
  -2  -7   6    6.00    0.30
  -2  -7   6    5.70    0.30
  -2  -7   6    5.70    0.30
  -2  -7   6    6.00    0.40
   1   7  -6    0.40    0.10
   1   7  -6    0.40    0.20
   1   7  -6    0.30    0.20
  -1  -7   6    0.50    0.10
  -1  -7   6    0.20    0.10
  -1  -7   6    0.40    0.10
  -1  -7   6    0.50    0.10
   0   7  -6   34.30    1.10
   0   7  -6   33.80    0.90
   0   7  -6   31.50    1.20
   0  -7   6   35.50    1.00
   0  -7   6   33.80    1.00
   0  -7   6   33.60    1.10
   0  -7   6   32.80    0.90
  -1   7  -6    4.90    0.30
  -1   7  -6    4.60    0.50
  -1   7  -6    5.40    0.40
   1  -7   6    3.80    0.30
   1  -7   6    5.10    0.30
   1  -7   6    4.70    0.40
  -2   7  -6    0.10    0.20
  -2   7  -6    0.50    0.20
  -2   7  -6    0.60    0.10
   2  -7   6    0.50    0.10
   2  -7   6    0.50    0.20
   2  -7   6    0.70    0.20
   2  -7   6    0.70    0.20
  -3   7  -6    0.50    0.10
  -3   7  -6    0.60    0.20
  -3   7  -6    0.60    0.30
   3  -7   6    0.50    0.10
   3  -7   6    0.70    0.20
   3  -7   6    0.50    0.20
   3  -7   6    0.60    0.20
  -4   7  -6    2.60    0.30
  -4   7  -6    1.90    0.40
   4  -7   6    1.80    0.30
   4  -7   6    2.40    0.30
   4  -7   6    1.90    0.20
   4  -7   6    2.50    0.30
  -5   7  -6    3.40    0.40
  -5   7  -6    3.90    0.50
   5  -7   6    3.40    0.30
   5  -7   6    2.70    0.40
   5  -7   6    3.50    0.40
   5  -7   6    4.70    0.40
  -6  -6   6    0.80    0.30
  -6  -6   6    0.90    0.10
  -6  -6   6    0.90    0.10
  -5  -6   6    0.20    0.10
  -5  -6   6    0.10    0.20
  -5  -6   6    0.10    0.10
   4   6  -6    9.80    0.30
   4   6  -6    9.90    0.50
   4   6  -6    9.90    1.00
  -4  -6   6    9.50    0.30
  -4  -6   6   10.50    0.60
  -4  -6   6    9.50    0.40
  -4  -6   6    9.50    0.40
  -4  -6   6    9.30    0.30
  -4  -6   6    9.60    0.40
   3   6  -6    7.30    0.50
   3   6  -6    6.20    0.30
  -3  -6   6    6.60    0.30
  -3  -6   6    6.20    0.30
  -3  -6   6    6.90    0.30
  -3  -6   6    7.00    0.30
  -3  -6   6    6.20    0.40
   2   6  -6   14.30    0.70
   2   6  -6   14.80    0.50
  -2  -6   6   14.60    0.50
  -2  -6   6   14.20    0.50
  -2  -6   6   15.20    0.60
  -2  -6   6   14.30    0.50
   1   6  -6   41.90    1.40
   1   6  -6   43.60    1.20
   1   6  -6   41.30    1.00
  -1  -6   6   41.30    1.20
  -1  -6   6   41.30    1.20
  -1  -6   6   40.00    1.20
  -1  -6   6   40.90    1.00
  -1  -6   6   41.20    1.20
   0   6  -6   43.40    1.10
   0   6  -6   39.20    1.40
   0   6  -6   43.10    1.20
   0  -6   6   41.10    1.20
   0  -6   6   43.30    1.10
   0  -6   6   42.70    1.20
   0  -6   6   42.80    1.20
  -1   6  -6    9.30    0.40
  -1   6  -6    9.40    0.50
  -1   6  -6    8.80    0.60
   1  -6   6    9.50    0.50
   1  -6   6    9.30    0.50
   1  -6   6    8.80    0.40
   1  -6   6    7.90    0.40
  -2   6  -6    3.00    0.20
  -2   6  -6    2.90    0.40
  -2   6  -6    2.40    0.30
   2  -6   6    2.90    0.20
   2  -6   6    3.50    0.30
   2  -6   6    2.90    0.30
   2  -6   6    2.90    0.30
   2  -6   6    3.30    0.30
  -3   6  -6  251.47    6.20
  -3   6  -6  268.17    6.00
  -3   6  -6  253.77    6.40
   3  -6   6  274.47    6.20
   3  -6   6  261.17    6.30
   3  -6   6  261.57    6.00
  -4   6  -6    0.20    0.20
  -4   6  -6    0.10    0.10
   4  -6   6    0.00    0.10
   4  -6   6    0.10    0.10
   4  -6   6    0.10    0.10
   4  -6   6    0.00    0.10
  -5   6  -6    3.40    0.30
  -5   6  -6    3.60    0.40
   5  -6   6    3.10    0.40
   5  -6   6    3.60    0.40
   5  -6   6    2.90    0.40
   5  -6   6    3.10    0.30
  -6   6  -6    6.60    0.40
   6  -6   6    6.80    0.50
   6  -6   6    6.60    0.40
   6  -6   6    6.80    0.50
   6  -6   6    5.90    0.50
  -6  -5   6    1.50    0.30
   5   5  -6    0.00    0.30
  -5  -5   6    0.00    0.10
  -5  -5   6    0.00    0.10
  -5  -5   6   -0.10    0.10
   4   5  -6   26.10    0.90
   4   5  -6   26.10    1.60
  -4  -5   6   25.60    0.90
  -4  -5   6   27.00    0.70
  -4  -5   6   27.20    0.70
  -4  -5   6   25.60    0.60
  -4  -5   6   26.60    0.60
   3   5  -6    0.20    0.10
   3   5  -6    0.10    0.10
  -3  -5   6    0.40    0.10
  -3  -5   6    0.30    0.10
  -3  -5   6    0.20    0.10
  -3  -5   6    0.30    0.10
  -3  -5   6    0.20    0.10
   2   5  -6    1.70    0.30
   2   5  -6    1.90    0.20
  -2  -5   6    2.00    0.20
  -2  -5   6    1.40    0.20
  -2  -5   6    1.40    0.10
  -2  -5   6    1.50    0.20
  -2  -5   6    1.50    0.20
   1   5  -6    9.60    0.40
   1   5  -6    9.00    0.50
   1   5  -6    9.90    0.30
  -1  -5   6    9.10    0.40
  -1  -5   6    9.80    0.30
  -1  -5   6   10.00    0.40
  -1  -5   6    9.90    0.40
  -1  -5   6    9.50    0.40
  -1  -5   6    9.40    0.40
   0   5  -6    7.40    0.30
   0   5  -6    6.70    0.50
   0   5  -6    7.10    0.40
   0  -5   6    6.70    0.40
   0  -5   6    6.80    0.40
   0  -5   6    6.50    0.30
   0  -5   6    6.90    0.30
  -1   5  -6    3.10    0.30
  -1   5  -6    3.30    0.20
   1  -5   6    2.90    0.20
   1  -5   6    3.00    0.20
   1  -5   6    3.40    0.30
   1  -5   6    3.70    0.30
   1  -5   6    3.10    0.30
  -2   5  -6    0.10    0.10
  -2   5  -6   -0.10    0.10
  -2   5  -6    0.40    0.10
   2  -5   6    0.10    0.10
   2  -5   6    0.20    0.10
   2  -5   6    0.00    0.10
   2  -5   6    0.20    0.10
   2  -5   6    0.10    0.10
  -3   5  -6  315.67    7.20
  -3   5  -6  310.27    7.40
  -3   5  -6  306.87    7.40
  -3   5  -6  328.67    7.60
   3  -5   6  323.57    7.40
   3  -5   6  316.97    7.40
   3  -5   6  312.77    7.40
   3  -5   6  314.57    7.20
  -4   5  -6    0.30    0.20
  -4   5  -6    0.50    0.20
  -4   5  -6    0.50    0.20
   4  -5   6    0.60    0.20
   4  -5   6    0.60    0.20
   4  -5   6    0.40    0.10
   4  -5   6    0.60    0.20
  -5   5  -6    2.40    0.30
  -5   5  -6    2.50    0.40
  -5   5  -6    3.20    0.40
   5  -5   6    2.40    0.30
   5  -5   6    2.60    0.30
   5  -5   6    1.90    0.30
   5  -5   6    1.60    0.30
  -6   5  -6    6.50    0.40
  -6   5  -6    6.30    0.50
   6  -5   6    6.10    0.50
   6  -5   6    5.50    0.50
   6  -5   6    6.00    0.50
   6  -5   6    5.30    0.40
  -7  -4   6   18.10    0.90
  -6  -4   6    7.50    0.50
   5   4  -6    3.90    0.70
  -5  -4   6    4.90    0.40
   4   4  -6   32.50    1.00
   4   4  -6   34.90    1.80
  -4  -4   6   34.60    1.10
  -4  -4   6   33.60    0.80
  -4  -4   6   33.20    0.80
   3   4  -6    0.10    0.10
   3   4  -6    0.10    0.30
   3   4  -6    0.20    0.10
  -3  -4   6    0.10    0.10
  -3  -4   6    0.10    0.10
  -3  -4   6    0.10    0.10
  -3  -4   6    0.10    0.10
  -3  -4   6    0.10    0.10
   2   4  -6    2.30    0.20
   2   4  -6    2.20    0.30
  -2  -4   6    2.40    0.20
  -2  -4   6    2.40    0.20
  -2  -4   6    2.40    0.20
  -2  -4   6    2.40    0.20
   1   4  -6   31.40    0.90
   1   4  -6   32.00    0.80
   1   4  -6   30.80    1.00
  -1  -4   6   30.70    0.90
  -1  -4   6   31.90    0.90
  -1  -4   6   32.00    0.90
  -1  -4   6   31.60    0.80
  -1  -4   6   31.90    0.90
   0   4  -6    0.50    0.20
   0   4  -6    0.70    0.10
   0   4  -6    0.70    0.10
   0  -4   6    0.90    0.10
   0  -4   6    0.70    0.10
   0  -4   6    0.90    0.10
   0  -4   6    0.90    0.10
   0  -4   6    0.70    0.10
  -1   4  -6   14.00    0.50
  -1   4  -6   13.90    0.50
   1  -4   6   14.90    0.40
   1  -4   6   14.00    0.50
   1  -4   6   14.40    0.50
   1  -4   6   14.30    0.50
   1  -4   6   14.20    0.50
   1  -4   6   14.20    0.50
  -2   4  -6   24.20    0.80
  -2   4  -6   24.20    0.70
  -2   4  -6   24.10    0.80
  -2   4  -6   24.80    0.90
  -2   4  -6   24.50    0.80
   2  -4   6   24.00    0.80
   2  -4   6   23.50    0.70
   2  -4   6   25.10    0.80
   2  -4   6   25.60    0.80
  -3   4  -6   46.60    1.30
  -3   4  -6   47.30    1.20
  -3   4  -6   46.10    1.40
  -3   4  -6   44.90    1.30
   3  -4   6   44.40    1.30
   3  -4   6   46.90    1.40
   3  -4   6   45.80    1.30
   3  -4   6   45.80    1.20
  -4   4  -6   10.80    0.60
  -4   4  -6    9.70    0.50
  -4   4  -6   11.20    0.50
   4  -4   6   10.20    0.50
   4  -4   6   10.50    0.50
   4  -4   6   10.40    0.50
   4  -4   6    9.90    0.40
  -5   4  -6    0.00    0.10
  -5   4  -6    0.00    0.10
  -5   4  -6    0.00    0.10
   5  -4   6   -0.10    0.10
   5  -4   6    0.10    0.10
   5  -4   6   -0.10    0.10
   5  -4   6    0.20    0.20
  -6   4  -6   39.80    1.20
  -6   4  -6   40.80    1.40
   6  -4   6   39.60    1.40
   6  -4   6   40.70    1.40
   6  -4   6   40.40    1.30
   6  -4   6   37.80    1.10
  -7  -3   6    2.40    0.40
  -6  -3   6   -0.10    0.10
   5   3  -6  150.68    4.70
  -5  -3   6  146.19    3.80
   4   3  -6   20.40    1.30
   4   3  -6   19.90    0.60
  -4  -3   6   19.80    0.80
   3   3  -6   25.40    0.80
  -3  -3   6   25.60    0.90
  -3  -3   6   26.30    0.70
  -3  -3   6   26.40    0.70
   2   3  -6  163.68    4.00
   2   3  -6  169.38    3.80
  -2  -3   6  164.58    3.90
  -2  -3   6  171.58    3.80
  -2  -3   6  162.88    3.80
  -2  -3   6  162.28    3.80
   1   3  -6    1.40    0.20
   1   3  -6    1.50    0.20
  -1  -3   6    1.50    0.20
  -1  -3   6    1.50    0.30
  -1  -3   6    1.50    0.10
  -1  -3   6    1.50    0.20
  -1  -3   6    1.70    0.20
   0   3  -6    4.20    0.20
   0   3  -6    4.00    0.20
   0   3  -6    4.20    0.30
   0  -3   6    3.80    0.20
   0  -3   6    3.60    0.20
   0  -3   6    3.90    0.20
   0  -3   6    4.20    0.20
   0  -3   6    4.20    0.20
   0  -3   6    3.90    0.20
  -1   3  -6   24.10    0.70
  -1   3  -6   23.70    0.60
   1  -3   6   22.60    0.70
   1  -3   6   22.10    0.70
   1  -3   6   22.90    0.70
   1  -3   6   23.20    0.70
   1  -3   6   24.20    0.70
   1  -3   6   23.10    0.60
   1  -3   6   23.90    0.60
  -2   3  -6    2.90    0.20
  -2   3  -6    2.80    0.20
  -2   3  -6    2.40    0.20
  -2   3  -6    3.40    0.30
   2  -3   6    3.00    0.20
   2  -3   6    2.70    0.20
   2  -3   6    2.90    0.20
   2  -3   6    2.80    0.20
   2  -3   6    2.30    0.20
  -3   3  -6    5.60    0.30
  -3   3  -6    5.70    0.30
   3  -3   6    6.30    0.40
  -4   3  -6    1.80    0.20
  -4   3  -6    2.20    0.30
  -4   3  -6    1.00    0.20
   4  -3   6    1.30    0.20
   4  -3   6    1.60    0.20
   4  -3   6    1.30    0.20
   4  -3   6    1.30    0.20
  -5   3  -6   -0.10    0.10
  -5   3  -6    0.10    0.10
  -5   3  -6    0.00    0.10
   5  -3   6   -0.10    0.10
   5  -3   6    0.00    0.10
   5  -3   6    0.20    0.10
   5  -3   6    0.00    0.10
  -6   3  -6    6.60    0.50
  -6   3  -6    6.90    0.40
   6  -3   6    6.30    0.40
   6  -3   6    7.20    0.50
   6  -3   6    6.80    0.40
   6  -3   6    6.50    0.50
  -7   3  -6    4.80    0.50
   7  -3   6    4.40    0.40
   7  -3   6    4.00    0.40
   7  -3   6    4.50    0.40
   7  -3   6    4.00    0.40
  -7  -2   6    0.70    0.20
  -6  -2   6    1.70    0.30
   5   2  -6    0.10    0.30
  -5  -2   6    0.30    0.20
   4   2  -6   23.10    1.30
   4   2  -6   23.20    0.60
  -4  -2   6   21.90    0.80
   3   2  -6  105.49    2.50
  -3  -2   6  102.99    2.40
  -3  -2   6  102.59    2.60
  -3  -2   6  105.19    2.40
   2   2  -6   12.60    0.90
   2   2  -6   13.30    0.40
   2   2  -6   12.50    0.50
  -2  -2   6   12.80    0.50
  -2  -2   6   13.00    0.40
  -2  -2   6   12.00    0.80
  -2  -2   6   13.00    0.40
  -2  -2   6   13.80    0.40
   1   2  -6    0.10    0.10
   1   2  -6    0.10    0.10
  -1  -2   6    0.10    0.10
  -1  -2   6    0.10    0.10
  -1  -2   6    0.10    0.10
  -1  -2   6    0.00    0.10
  -1  -2   6    0.10    0.20
  -1  -2   6    0.10    0.10
  -1  -2   6    0.10    0.10
   0   2  -6    5.30    0.30
   0   2  -6    5.40    0.20
   0   2  -6    5.60    0.30
   0  -2   6    5.20    0.30
   0  -2   6    5.30    0.20
   0  -2   6    5.30    0.20
   0  -2   6    5.20    0.30
   0  -2   6    5.20    0.20
  -1   2  -6  122.79    2.90
  -1   2  -6  121.99    2.80
  -1   2  -6  107.89    3.00
   1  -2   6  123.69    2.80
   1  -2   6  119.89    2.90
   1  -2   6  120.59    2.90
   1  -2   6  121.29    2.80
   1  -2   6  124.59    2.90
   1  -2   6  122.89    2.90
   1  -2   6  124.39    2.90
  -2   2  -6   59.79    1.50
  -2   2  -6   60.49    1.60
  -2   2  -6   60.29    1.60
  -2   2  -6   61.59    1.70
   2  -2   6   60.59    1.60
   2  -2   6   60.69    1.50
   2  -2   6   59.09    1.60
   2  -2   6   61.19    1.60
   2  -2   6   59.79    1.60
  -3   2  -6   17.90    0.70
  -3   2  -6   18.30    0.60
  -3   2  -6   18.20    0.70
  -3   2  -6   17.70    0.50
  -3   2  -6   17.90    0.70
  -3   2  -6   17.40    0.60
   3  -2   6   18.70    0.70
   3  -2   6   17.50    0.50
   3  -2   6   17.80    0.60
  -4   2  -6    7.00    0.40
  -4   2  -6    7.30    0.40
  -4   2  -6    7.20    0.40
  -4   2  -6    7.10    0.40
   4  -2   6    7.10    0.40
   4  -2   6    6.70    0.30
   4  -2   6    6.60    0.40
   4  -2   6    7.30    0.40
  -5   2  -6    1.80    0.30
  -5   2  -6    1.30    0.20
  -5   2  -6    2.20    0.20
   5  -2   6    1.70    0.20
   5  -2   6    1.80    0.20
   5  -2   6    1.80    0.30
   5  -2   6    1.30    0.20
  -6   2  -6    0.10    0.10
  -6   2  -6    0.20    0.20
   6  -2   6    0.50    0.20
   6  -2   6    0.10    0.10
   6  -2   6    0.10    0.10
   6  -2   6    0.00    0.10
  -7   2  -6    0.10    0.20
   7  -2   6    0.30    0.20
   7  -2   6    0.20    0.20
   7  -2   6    0.40    0.20
   7  -2   6    0.50    0.20
  -7  -1   6   26.20    0.70
  -7  -1   6   25.10    0.70
  -7  -1   6   24.00    1.00
  -6  -1   6    3.80    0.40
   5   1  -6    8.10    0.90
  -5  -1   6    8.20    0.50
   4   1  -6   51.19    2.10
   4   1  -6   49.00    1.20
  -4  -1   6   50.59    1.50
   3   1  -6    6.70    0.30
   3   1  -6    5.90    0.60
  -3  -1   6    5.90    0.20
  -3  -1   6    5.90    0.20
  -3  -1   6    5.80    0.30
   2   1  -6    8.20    0.30
   2   1  -6    7.90    0.30
   2   1  -6    8.20    0.70
  -2  -1   6    8.40    0.40
  -2  -1   6    7.80    0.30
  -2  -1   6    8.20    0.30
  -2  -1   6    7.80    0.30
  -2  -1   6    8.00    0.60
  -2  -1   6    8.00    0.30
   1   1  -6    0.10    0.10
   1   1  -6    0.10    0.10
  -1  -1   6    0.00    0.10
  -1  -1   6    0.10    0.10
  -1  -1   6    0.10    0.10
  -1  -1   6   -0.20    0.20
  -1  -1   6    0.20    0.10
  -1  -1   6    0.10    0.10
  -1  -1   6    0.10    0.10
   0   1  -6  168.38    3.80
   0   1  -6  163.78    4.00
   0   1  -6  170.28    3.90
   0  -1   6  167.48    3.90
   0  -1   6  165.88    3.90
   0  -1   6  169.78    3.80
   0  -1   6  165.88    3.90
  -1   1  -6  435.36    9.60
  -1   1  -6  426.66    9.60
  -1   1  -6  421.26    9.60
  -1   1  -6  424.36    9.70
   1  -1   6  424.56    9.60
   1  -1   6  411.86    9.70
   1  -1   6  420.56    9.50
   1  -1   6  430.96    9.60
   1  -1   6  417.36    9.60
  -2   1  -6   47.70    1.30
  -2   1  -6   46.80    1.10
  -2   1  -6   46.50    1.30
  -2   1  -6   46.10    1.30
   2  -1   6   45.00    1.10
   2  -1   6   46.20    1.20
   2  -1   6   47.50    1.30
   2  -1   6   47.90    1.30
  -3   1  -6    6.60    0.30
  -3   1  -6    6.20    0.40
  -3   1  -6    6.50    0.20
  -3   1  -6    6.50    0.30
  -3   1  -6    6.00    0.30
  -3   1  -6    6.20    0.30
  -3   1  -6    6.30    0.30
   3  -1   6    6.30    0.30
   3  -1   6    6.10    0.30
   3  -1   6    6.20    0.30
  -4   1  -6    1.30    0.20
  -4   1  -6    1.30    0.20
  -4   1  -6    0.80    0.20
  -4   1  -6    0.80    0.20
   4  -1   6    0.90    0.20
   4  -1   6    0.70    0.20
   4  -1   6    1.10    0.20
   4  -1   6    1.30    0.10
  -5   1  -6   24.10    0.90
  -5   1  -6   23.90    0.80
  -5   1  -6   23.80    0.80
  -5   1  -6   24.80    0.90
   5  -1   6   24.30    0.70
   5  -1   6   22.50    0.90
   5  -1   6   23.80    0.80
   5  -1   6   22.80    0.80
  -6   1  -6    0.40    0.20
   6  -1   6    0.30    0.20
   6  -1   6    0.30    0.10
   6  -1   6    0.20    0.10
   6  -1   6    0.40    0.20
  -7   1  -6    0.30    0.20
   7  -1   6    0.60    0.20
   7  -1   6    0.50    0.20
   7  -1   6    0.40    0.10
   7  -1   6    0.40    0.20
  -7   0   6    3.40    0.20
  -7   0   6    3.50    0.50
  -7   0   6    3.10    0.20
  -7   0   6    3.20    0.20
  -7   0   6    2.80    0.10
   6   0  -6   31.20    1.80
  -6   0   6   32.70    1.20
  -6   0   6   31.80    0.80
  -6   0   6   31.80    0.80
   5   0  -6    0.30    0.30
  -5   0   6    0.40    0.10
  -5   0   6    0.30    0.20
  -5   0   6    0.40    0.10
   4   0  -6   41.10    1.80
   4   0  -6   41.00    1.00
  -4   0   6   42.50    1.00
  -4   0   6   40.90    1.20
  -4   0   6   39.40    1.00
   3   0  -6   19.70    0.60
   3   0  -6   19.50    1.10
  -3   0   6   19.60    0.50
  -3   0   6   19.80    0.50
  -3   0   6   19.10    0.70
   2   0  -6   77.39    2.50
   2   0  -6   76.09    1.80
   2   0  -6   76.59    1.80
  -2   0   6   77.19    1.80
  -2   0   6   76.59    1.80
  -2   0   6   71.49    2.40
  -2   0   6   72.19    1.80
   1   0  -6   33.40    0.90
   1   0  -6   32.50    0.90
  -1   0   6   32.40    0.80
  -1   0   6   33.50    1.30
  -1   0   6   33.20    0.90
  -1   0   6   32.60    0.90
  -1   0   6   32.90    0.80
   0   0  -6   31.20    0.90
   0   0  -6   32.90    0.80
   0   0  -6   29.80    0.80
   0   0   6   27.30    0.90
   0   0   6   30.80    0.80
   0   0   6   30.70    0.80
   0   0   6   30.70    0.80
   0   0   6   29.70    0.80
  -1   0  -6   15.20    0.50
  -1   0  -6   15.30    0.40
  -1   0  -6   15.00    0.50
  -1   0  -6   15.00    0.60
   1   0   6   15.80    0.50
   1   0   6   15.80    0.50
   1   0   6   14.80    0.50
   1   0   6   15.20    0.40
  -2   0  -6   76.39    1.90
  -2   0  -6   72.29    1.90
  -2   0  -6   75.59    1.90
  -2   0  -6   73.59    1.70
   2   0   6   74.29    1.80
   2   0   6   70.89    1.80
   2   0   6   73.89    1.70
   2   0   6   74.09    1.90
   2   0   6   75.29    1.90
  -3   0  -6   21.60    0.70
  -3   0  -6   23.70    0.70
  -3   0  -6   21.20    0.70
  -3   0  -6   22.90    0.70
  -3   0  -6   21.20    0.70
   3   0   6   21.80    0.70
   3   0   6   21.90    0.70
   3   0   6   21.90    0.60
  -4   0  -6    3.10    0.20
  -4   0  -6    2.80    0.30
  -4   0  -6    3.00    0.30
  -4   0  -6    3.00    0.20
  -4   0  -6    3.20    0.30
   4   0   6    1.80    0.20
   4   0   6    2.80    0.20
   4   0   6    3.40    0.30
   4   0   6    3.20    0.20
  -5   0  -6    0.50    0.20
  -5   0  -6    0.70    0.20
  -5   0  -6    0.60    0.10
  -5   0  -6    0.70    0.20
  -5   0  -6    0.80    0.20
   5   0   6    0.70    0.20
   5   0   6    0.40    0.10
   5   0   6    0.50    0.10
   5   0   6    0.60    0.20
  -6   0  -6    0.30    0.20
  -6   0  -6    0.30    0.20
   6   0   6    0.40    0.20
   6   0   6    0.40    0.10
   6   0   6    0.30    0.10
   6   0   6    0.40    0.10
  -7   0  -6    3.10    0.40
  -7   0  -6    2.70    0.40
   7   0   6    2.50    0.30
   7   0   6    2.50    0.30
   7   0   6    2.20    0.30
   7   0   6    3.00    0.30
  -7   1   6   10.00    0.50
  -7   1   6   10.70    0.40
  -7   1   6   10.40    0.60
  -7   1   6   10.40    0.40
   6  -1  -6    0.00    0.30
  -6   1   6    0.10    0.10
  -6   1   6   -0.20    0.10
  -6   1   6    0.10    0.10
  -6   1   6    0.00    0.10
  -6   1   6   -0.10    0.10
   5  -1  -6    1.80    0.20
   5  -1  -6    1.50    0.50
  -5   1   6    2.10    0.30
  -5   1   6    1.70    0.20
  -5   1   6    1.60    0.10
   4  -1  -6  152.88    3.60
   4  -1  -6  151.28    4.40
  -4   1   6  152.48    3.50
  -4   1   6  152.68    3.50
  -4   1   6  155.68    3.70
   3  -1  -6   20.50    0.60
   3  -1  -6   21.40    1.10
  -3   1   6   21.70    0.60
  -3   1   6   20.90    0.60
  -3   1   6   21.30    0.50
  -3   1   6   20.80    0.50
   2  -1  -6   46.40    1.20
   2  -1  -6   46.80    1.20
   2  -1  -6   46.30    1.70
  -2   1   6   47.60    1.70
  -2   1   6   46.50    1.10
  -2   1   6   46.10    1.10
  -2   1   6   44.90    1.10
   1  -1  -6  288.67    6.60
   1  -1  -6  288.77    6.50
  -1   1   6  285.17    6.50
  -1   1   6  289.17    6.50
  -1   1   6  282.67    7.00
   0  -1  -6   20.30    0.50
   0  -1  -6   19.90    0.60
   0  -1  -6   20.30    0.60
   0   1   6   20.30    0.60
   0   1   6   19.50    0.60
   0   1   6   20.50    0.60
   0   1   6   20.30    0.60
   0   1   6   20.50    0.90
   0   1   6   20.40    0.60
  -1  -1  -6   65.49    1.50
  -1  -1  -6   68.09    1.70
  -1  -1  -6   65.59    1.60
  -1  -1  -6   65.99    1.70
   1   1   6   63.89    1.60
   1   1   6   65.49    1.50
   1   1   6   64.99    1.70
   1   1   6   65.69    1.60
  -2  -1  -6   56.59    1.40
  -2  -1  -6   55.79    1.50
  -2  -1  -6   55.39    1.40
  -2  -1  -6   55.49    1.30
   2   1   6   53.29    1.30
   2   1   6   54.49    1.40
   2   1   6   55.19    1.40
   2   1   6   53.49    1.40
   2   1   6   55.89    1.50
  -3  -1  -6   49.00    1.30
  -3  -1  -6   45.10    1.20
  -3  -1  -6   45.40    1.20
  -3  -1  -6   47.20    1.30
  -3  -1  -6   44.60    1.20
   3   1   6   45.90    1.10
   3   1   6   45.30    1.20
   3   1   6   44.10    1.20
   3   1   6   45.00    1.30
  -4  -1  -6   89.49    2.20
  -4  -1  -6   92.59    2.20
  -4  -1  -6   89.49    2.30
  -4  -1  -6   91.99    2.30
  -4  -1  -6   93.49    2.30
  -4  -1  -6   88.29    2.30
   4   1   6   90.29    2.30
   4   1   6   87.49    2.30
   4   1   6   89.49    2.10
  -5  -1  -6    0.00    0.10
  -5  -1  -6    0.00    0.10
  -5  -1  -6    0.10    0.10
  -5  -1  -6   -0.10    0.10
  -5  -1  -6    0.00    0.10
   5   1   6    0.00    0.10
   5   1   6    0.00    0.10
   5   1   6    0.00    0.10
   5   1   6   -0.10    0.10
  -6  -1  -6    1.40    0.20
  -6  -1  -6    1.40    0.20
  -6  -1  -6    1.00    0.20
   6   1   6    1.40    0.20
   6   1   6    1.20    0.20
   6   1   6    1.00    0.20
   6   1   6    1.70    0.20
  -7  -1  -6   13.00    0.60
  -7  -1  -6   12.90    0.60
  -7  -1  -6   11.70    0.60
   7   1   6   11.40    0.60
   7   1   6   12.80    0.60
  -7   2   6    2.50    0.20
  -7   2   6    2.50    0.40
  -7   2   6    2.30    0.20
  -7   2   6    2.20    0.30
   6  -2  -6    5.30    0.30
   6  -2  -6    5.00    0.30
   6  -2  -6    5.10    0.80
  -6   2   6    5.00    0.30
  -6   2   6    4.60    0.40
  -6   2   6    4.70    0.30
  -6   2   6    4.50    0.30
   5  -2  -6   10.20    0.90
   5  -2  -6    9.00    0.40
  -5   2   6    9.70    0.40
  -5   2   6    9.20    0.30
  -5   2   6    9.50    0.30
  -5   2   6    9.60    0.30
  -5   2   6    9.60    0.50
   4  -2  -6    5.00    0.70
   4  -2  -6    4.80    0.30
  -4   2   6    4.70    0.20
  -4   2   6    5.20    0.30
  -4   2   6    4.90    0.20
  -4   2   6    4.70    0.20
  -4   2   6    4.90    0.30
   3  -2  -6  346.97    8.70
   3  -2  -6  351.76    8.00
   3  -2  -6  362.36    8.00
  -3   2   6  359.86    8.00
  -3   2   6  352.36    8.00
  -3   2   6  346.37    8.00
   2  -2  -6   11.80    0.40
   2  -2  -6   12.50    0.40
   2  -2  -6   11.60    0.70
  -2   2   6   12.50    0.40
  -2   2   6   11.80    0.40
  -2   2   6   11.90    0.40
  -2   2   6   12.20    0.40
   1  -2  -6  106.49    3.00
   1  -2  -6  109.59    2.60
   1  -2  -6  108.19    2.60
   1  -2  -6  108.49    2.50
  -1   2   6  106.19    2.60
  -1   2   6  112.59    2.70
  -1   2   6  112.49    2.60
  -1   2   6  106.99    2.90
  -1   2   6  109.69    2.50
   0  -2  -6  323.27    7.30
   0  -2  -6  317.57    7.40
   0  -2  -6  323.67    7.20
   0   2   6  331.07    7.30
   0   2   6  322.77    7.20
   0   2   6  324.47    7.30
   0   2   6  314.67    7.60
   0   2   6  321.47    7.30
   0   2   6  330.07    7.30
   0   2   6  313.77    7.30
  -1  -2  -6   59.69    1.50
  -1  -2  -6   61.39    1.40
  -1  -2  -6   61.19    1.60
  -1  -2  -6   59.29    1.50
   1   2   6   57.89    1.60
   1   2   6   60.49    1.50
   1   2   6   59.49    1.40
   1   2   6   61.59    1.60
   1   2   6   65.79    1.50
  -2  -2  -6    0.10    0.10
  -2  -2  -6    0.10    0.10
  -2  -2  -6    0.10    0.10
  -2  -2  -6    0.10    0.10
  -2  -2  -6    0.20    0.10
  -2  -2  -6    0.00    0.10
   2   2   6    0.10    0.10
   2   2   6    0.20    0.10
   2   2   6    0.10    0.10
   2   2   6    0.00    0.10
  -3  -2  -6  180.58    4.30
  -3  -2  -6  182.88    4.30
  -3  -2  -6  181.98    4.30
  -3  -2  -6  185.98    4.30
  -3  -2  -6  184.98    4.30
   3   2   6  186.48    4.20
   3   2   6  190.98    4.30
   3   2   6  179.88    4.40
  -4  -2  -6    0.50    0.10
  -4  -2  -6    0.20    0.10
  -4  -2  -6    0.20    0.10
  -4  -2  -6    0.50    0.10
  -4  -2  -6    0.20    0.10
   4   2   6    0.20    0.10
   4   2   6    0.20    0.10
   4   2   6    0.40    0.10
   4   2   6    0.20    0.10
  -5  -2  -6    8.90    0.40
  -5  -2  -6    8.00    0.40
  -5  -2  -6    8.20    0.30
  -5  -2  -6    8.90    0.40
  -5  -2  -6    8.50    0.40
   5   2   6    8.10    0.30
   5   2   6    7.80    0.40
   5   2   6    8.20    0.40
   5   2   6    8.80    0.50
  -6  -2  -6    0.50    0.20
  -6  -2  -6    0.50    0.10
  -6  -2  -6    0.50    0.20
  -6  -2  -6    0.30    0.10
   6   2   6    0.30    0.10
   6   2   6    0.40    0.20
   6   2   6    0.40    0.10
   6   2   6    0.60    0.20
  -7  -2  -6   19.50    0.80
  -7  -2  -6   20.30    0.80
  -7  -2  -6   20.10    0.80
   7   2   6   18.80    0.80
   7   2   6   22.20    0.80
  -7   3   6    0.40    0.20
  -7   3   6    0.50    0.10
  -7   3   6    0.40    0.20
  -7   3   6    0.70    0.20
   6  -3  -6    0.10    0.10
   6  -3  -6    0.10    0.30
  -6   3   6    0.00    0.10
  -6   3   6    0.20    0.10
  -6   3   6    0.10    0.10
  -6   3   6    0.00    0.20
   5  -3  -6   11.20    0.50
   5  -3  -6   11.00    1.00
  -5   3   6   11.50    0.50
  -5   3   6   11.30    0.60
  -5   3   6   11.80    0.40
  -5   3   6   12.20    0.50
  -5   3   6   11.50    0.40
   4  -3  -6   66.79    1.70
   4  -3  -6   64.09    2.40
  -4   3   6   65.59    1.60
  -4   3   6   65.59    1.60
  -4   3   6   65.19    1.70
   3  -3  -6   16.80    0.60
   3  -3  -6   16.90    0.90
   3  -3  -6   15.70    0.50
  -3   3   6   16.10    0.50
  -3   3   6   15.80    0.50
  -3   3   6   15.90    0.50
   2  -3  -6   16.00    0.50
   2  -3  -6   16.50    0.80
   2  -3  -6   16.90    0.50
  -2   3   6   16.10    0.50
  -2   3   6   16.10    0.50
  -2   3   6   15.60    0.50
  -2   3   6   16.00    0.50
  -2   3   6   15.90    0.40
   1  -3  -6  395.26    8.80
   1  -3  -6  376.96    9.10
   1  -3  -6  392.26    8.80
   1  -3  -6  391.76    8.60
  -1   3   6  392.26    8.90
  -1   3   6  385.36    8.70
  -1   3   6  377.86    8.80
  -1   3   6  390.46    8.70
  -1   3   6  389.46    8.80
  -1   3   6  372.56    9.10
   0  -3  -6   27.80    0.80
   0  -3  -6   27.30    0.70
   0  -3  -6   27.00    0.80
   0   3   6   27.90    0.80
   0   3   6   27.20    0.80
   0   3   6   24.00    0.90
   0   3   6   27.30    1.00
   0   3   6   27.20    0.70
   0   3   6   27.30    0.70
   0   3   6   27.00    0.80
   0   3   6   27.10    0.70
  -1  -3  -6    5.20    0.30
  -1  -3  -6    5.30    0.20
  -1  -3  -6    5.10    0.20
  -1  -3  -6    5.20    0.30
   1   3   6    5.00    0.30
   1   3   6    5.10    0.20
   1   3   6    5.30    0.20
   1   3   6    5.50    0.30
  -2  -3  -6  332.37    7.60
  -2  -3  -6  325.77    7.70
  -2  -3  -6  331.67    7.50
  -2  -3  -6  334.87    7.60
  -2  -3  -6  338.77    7.60
  -2  -3  -6  346.97    7.70
   2   3   6  333.37    7.60
   2   3   6  332.77    7.60
   2   3   6  335.67    7.50
  -3  -3  -6   12.30    0.50
  -3  -3  -6   13.10    0.50
  -3  -3  -6   13.30    0.50
  -3  -3  -6   13.40    0.50
  -3  -3  -6   13.90    0.50
   3   3   6   13.60    0.40
   3   3   6   13.10    0.50
   3   3   6   12.00    0.50
  -4  -3  -6   10.00    0.40
  -4  -3  -6   10.10    0.40
  -4  -3  -6   10.60    0.40
  -4  -3  -6    9.90    0.40
   4   3   6   10.40    0.40
   4   3   6    9.70    0.50
   4   3   6   10.40    0.40
   4   3   6   10.40    0.30
  -5  -3  -6    3.60    0.30
  -5  -3  -6    3.40    0.30
  -5  -3  -6    3.60    0.30
   5   3   6    3.50    0.30
   5   3   6    4.00    0.20
   5   3   6    3.80    0.30
   5   3   6    3.60    0.30
  -6  -3  -6  222.98    5.30
  -6  -3  -6  221.88    5.30
  -6  -3  -6  218.98    5.20
   6   3   6  224.08    5.20
   6   3   6  222.58    5.20
   6   3   6  214.48    5.30
  -7  -3  -6    4.30    0.40
  -7  -3  -6    3.80    0.40
   7   3   6    3.90    0.40
   7   3   6    4.20    0.30
   7  -4  -6    7.40    0.50
  -7   4   6    6.30    0.50
  -7   4   6    7.50    0.40
  -7   4   6    7.30    0.50
  -7   4   6    7.70    0.50
   6  -4  -6    2.00    0.60
   6  -4  -6    2.90    0.30
  -6   4   6    3.70    0.40
  -6   4   6    2.80    0.30
  -6   4   6    2.40    0.20
  -6   4   6    2.30    0.30
   5  -4  -6   97.79    3.30
   5  -4  -6   95.79    2.50
   5  -4  -6   97.99    2.50
  -5   4   6   99.29    2.40
  -5   4   6   97.79    2.60
  -5   4   6   95.09    2.50
  -5   4   6   98.39    2.40
   4  -4  -6   37.50    1.10
   4  -4  -6   37.50    1.10
   4  -4  -6   38.90    1.70
  -4   4   6   38.50    1.00
  -4   4   6   38.50    1.10
  -4   4   6   37.40    1.10
  -4   4   6   38.60    1.00
   3  -4  -6   10.70    0.40
   3  -4  -6   11.60    0.50
   3  -4  -6   10.60    0.70
  -3   4   6   10.70    0.40
  -3   4   6   10.60    0.50
  -3   4   6   10.20    0.40
  -3   4   6   11.10    0.40
   2  -4  -6   70.09    1.80
   2  -4  -6   67.89    2.10
   2  -4  -6   71.69    1.60
   2  -4  -6   67.89    1.80
  -2   4   6   67.89    1.80
  -2   4   6   70.99    1.70
  -2   4   6   68.09    1.80
  -2   4   6   64.99    1.70
  -2   4   6   67.49    1.60
   1  -4  -6   55.89    1.70
   1  -4  -6   52.99    1.40
   1  -4  -6   56.59    1.30
   1  -4  -6   55.99    1.50
  -1   4   6   55.09    1.50
  -1   4   6   57.59    1.40
  -1   4   6   55.29    1.40
  -1   4   6   55.49    1.40
   0  -4  -6  518.25   11.80
   0  -4  -6  524.65   11.90
   0   4   6  536.35   11.90
   0   4   6  525.95   11.80
   0   4   6  529.65   11.90
   0   4   6  497.75   11.80
   0   4   6  531.15   11.90
   0   4   6  540.35   11.90
   0   4   6  522.35   12.00
   0   4   6  539.05   12.10
  -1  -4  -6    0.50    0.10
  -1  -4  -6    0.60    0.10
  -1  -4  -6    0.70    0.10
  -1  -4  -6    0.80    0.10
  -1  -4  -6    0.50    0.10
   1   4   6    0.60    0.10
   1   4   6    0.80    0.10
   1   4   6    0.50    0.10
   1   4   6    0.50    0.10
   1   4   6    0.50    0.10
  -2  -4  -6    0.70    0.10
  -2  -4  -6    0.40    0.10
  -2  -4  -6    0.50    0.10
  -2  -4  -6    0.60    0.10
  -2  -4  -6    0.40    0.10
  -2  -4  -6    0.60    0.10
   2   4   6    0.70    0.10
   2   4   6    0.50    0.10
   2   4   6    0.50    0.10
   2   4   6    0.50    0.10
  -3  -4  -6   19.60    0.60
  -3  -4  -6   18.10    0.60
  -3  -4  -6   19.40    0.60
  -3  -4  -6   20.40    0.60
   3   4   6   19.00    0.50
   3   4   6   20.10    0.60
   3   4   6   18.60    0.60
   3   4   6   17.30    0.70
  -4  -4  -6    4.40    0.20
  -4  -4  -6    4.00    0.30
  -4  -4  -6    4.40    0.30
  -4  -4  -6    4.50    0.30
  -4  -4  -6    4.40    0.30
   4   4   6    4.40    0.30
   4   4   6    4.30    0.20
   4   4   6    5.10    0.30
   4   4   6    4.20    0.30
  -5  -4  -6   10.70    0.50
  -5  -4  -6   11.50    0.50
  -5  -4  -6   10.80    0.50
   5   4   6   10.20    0.40
   5   4   6   10.90    0.50
   5   4   6   10.80    0.40
   5   4   6   11.00    0.50
  -6  -4  -6  153.38    3.80
  -6  -4  -6  157.68    3.80
  -6  -4  -6  157.18    3.80
   6   4   6  150.88    3.90
   6   4   6  162.08    3.80
   6   4   6  154.08    3.80
  -7  -4  -6    8.00    0.50
  -7  -4  -6    9.20    0.50
   7   4   6    8.10    0.50
   7   4   6    9.40    0.50
   7  -5  -6   14.60    0.70
  -7   5   6   15.00    0.70
  -7   5   6   15.10    0.80
  -7   5   6   14.70    0.80
  -7   5   6   14.60    0.70
   6  -5  -6   15.90    1.30
   6  -5  -6   15.40    0.70
  -6   5   6   15.40    0.70
  -6   5   6   15.90    0.70
  -6   5   6   15.40    0.60
  -6   5   6   13.40    0.70
   5  -5  -6    0.60    0.20
   5  -5  -6    0.20    0.30
  -5   5   6    0.20    0.10
  -5   5   6    0.40    0.10
  -5   5   6    0.30    0.10
   4  -5  -6    0.00    0.10
   4  -5  -6    0.10    0.10
   4  -5  -6    0.20    0.10
   4  -5  -6    0.00    0.20
  -4   5   6    0.00    0.10
  -4   5   6    0.20    0.10
  -4   5   6    0.20    0.10
   3  -5  -6   25.20    1.20
   3  -5  -6   24.50    0.80
   3  -5  -6   23.90    0.80
   3  -5  -6   23.50    0.60
  -3   5   6   24.00    0.70
  -3   5   6   24.70    0.80
  -3   5   6   24.50    0.80
   2  -5  -6    2.70    0.40
   2  -5  -6    2.80    0.10
   2  -5  -6    3.00    0.20
   2  -5  -6    2.80    0.20
  -2   5   6    2.80    0.20
  -2   5   6    3.10    0.20
  -2   5   6    2.80    0.30
  -2   5   6    2.80    0.20
  -2   5   6    2.80    0.20
   1  -5  -6   22.70    0.60
   1  -5  -6   22.80    0.70
   1  -5  -6   22.40    0.80
   1  -5  -6   22.90    0.70
  -1   5   6   24.00    0.90
  -1   5   6   22.30    0.70
  -1   5   6   23.20    0.70
  -1   5   6   23.30    0.70
  -1   5   6   22.70    0.70
  -1   5   6   23.50    0.80
   0  -5  -6  129.79    3.10
   0  -5  -6  127.89    3.00
   0  -5  -6  128.89    3.10
   0  -5  -6  129.09    3.10
   0   5   6  130.49    3.30
   0   5   6  131.09    3.00
   0   5   6  131.39    3.20
   0   5   6  133.09    3.10
  -1  -5  -6   19.90    0.70
  -1  -5  -6   21.20    0.60
  -1  -5  -6   22.20    0.70
  -1  -5  -6   21.60    0.60
  -1  -5  -6   21.10    0.70
   1   5   6   21.80    0.70
   1   5   6   22.70    0.80
   1   5   6   20.70    0.70
   1   5   6   21.90    0.60
   1   5   6   21.40    0.70
  -2  -5  -6  171.68    4.00
  -2  -5  -6  176.08    4.00
  -2  -5  -6  167.58    4.00
  -2  -5  -6  168.18    3.90
  -2  -5  -6  175.68    3.90
   2   5   6  163.98    4.10
   2   5   6  160.58    3.90
   2   5   6  165.48    3.90
   2   5   6  165.58    3.80
  -3  -5  -6    0.30    0.10
  -3  -5  -6    0.20    0.10
  -3  -5  -6    0.20    0.10
  -3  -5  -6    0.20    0.10
  -3  -5  -6    0.10    0.10
   3   5   6    0.20    0.10
   3   5   6    0.30    0.10
   3   5   6    0.40    0.10
   3   5   6    0.30    0.10
  -4  -5  -6    1.30    0.20
  -4  -5  -6    1.30    0.20
  -4  -5  -6    1.20    0.20
  -4  -5  -6    1.60    0.10
  -4  -5  -6    1.60    0.20
   4   5   6    1.50    0.10
   4   5   6    1.20    0.20
   4   5   6    1.30    0.20
   4   5   6    1.20    0.20
  -5  -5  -6    8.10    0.40
  -5  -5  -6    9.10    0.40
  -5  -5  -6    8.20    0.40
   5   5   6    7.70    0.40
   5   5   6    7.80    0.30
   5   5   6    8.00    0.40
   5   5   6    8.90    0.40
  -6  -5  -6   29.30    1.00
  -6  -5  -6   30.50    0.90
  -6  -5  -6   31.90    1.00
   6   5   6   28.80    0.90
   6   5   6   27.60    1.00
  -7  -5  -6    0.10    0.10
  -7  -5  -6    0.00    0.10
  -7  -5  -6    0.10    0.10
   7   5   6    0.10    0.10
   7   5   6    0.00    0.10
   6  -6  -6   11.40    0.60
  -6   6   6   11.50    0.60
  -6   6   6   12.40    0.70
  -6   6   6   12.30    0.60
  -6   6   6   12.30    0.60
   5  -6  -6    1.40    0.20
  -5   6   6    1.10    0.20
  -5   6   6    1.40    0.30
  -5   6   6    1.70    0.20
   4  -6  -6    5.70    0.40
   4  -6  -6    5.80    0.20
   4  -6  -6    5.50    0.40
  -4   6   6    5.50    0.40
  -4   6   6    5.90    0.30
  -4   6   6    5.50    0.40
   3  -6  -6    4.50    0.20
   3  -6  -6    4.10    0.30
   3  -6  -6    4.50    0.30
   3  -6  -6    4.80    0.30
  -3   6   6    4.50    0.30
  -3   6   6    4.40    0.30
  -3   6   6    4.30    0.30
  -3   6   6    4.20    0.20
  -3   6   6    4.50    0.30
   2  -6  -6   92.99    2.30
   2  -6  -6   93.19    2.30
   2  -6  -6   92.39    2.20
   2  -6  -6   87.29    2.60
  -2   6   6   93.59    2.30
  -2   6   6   93.09    2.40
  -2   6   6   93.69    2.50
  -2   6   6   91.49    2.20
   1  -6  -6   48.80    1.30
   1  -6  -6   43.40    1.30
   1  -6  -6   48.10    1.20
   1  -6  -6   47.00    1.30
  -1   6   6   48.70    1.30
  -1   6   6   48.10    1.30
  -1   6   6   48.90    1.40
  -1   6   6   48.40    1.50
  -1   6   6   46.60    1.30
  -1   6   6   49.40    1.30
   0  -6  -6   17.70    0.60
   0  -6  -6   18.20    0.50
   0  -6  -6   18.30    0.60
   0  -6  -6   17.90    0.60
   0   6   6   17.90    0.80
   0   6   6   19.60    0.70
   0   6   6   17.60    0.60
   0   6   6   18.40    0.60
   0   6   6   18.50    0.50
   0   6   6   17.70    0.60
  -1  -6  -6   30.90    0.80
  -1  -6  -6   30.60    0.90
  -1  -6  -6   30.90    0.90
   1   6   6   32.30    0.90
   1   6   6   29.00    0.90
   1   6   6   31.40    0.90
   1   6   6   30.40    1.10
   1   6   6   30.60    0.80
  -2  -6  -6   10.50    0.40
  -2  -6  -6   10.10    0.40
  -2  -6  -6   10.10    0.40
  -2  -6  -6   10.40    0.40
  -2  -6  -6   10.60    0.40
   2   6   6   10.60    0.40
   2   6   6   10.50    0.30
   2   6   6   10.40    0.50
   2   6   6   10.60    0.40
  -3  -6  -6    2.00    0.20
  -3  -6  -6    1.40    0.20
  -3  -6  -6    1.50    0.20
  -3  -6  -6    1.70    0.20
  -3  -6  -6    1.50    0.20
   3   6   6    1.50    0.20
   3   6   6    1.50    0.20
   3   6   6    1.40    0.20
   3   6   6    1.60    0.10
  -4  -6  -6    1.40    0.20
  -4  -6  -6    1.40    0.20
  -4  -6  -6    1.40    0.20
  -4  -6  -6    1.30    0.10
   4   6   6    1.00    0.20
   4   6   6    1.40    0.20
   4   6   6    1.60    0.10
   4   6   6    1.50    0.20
  -5  -6  -6  130.59    3.20
  -5  -6  -6  129.69    3.10
  -5  -6  -6  128.09    3.10
   5   6   6  126.99    3.10
   5   6   6  127.39    3.10
   5   6   6  127.39    3.20
  -6  -6  -6   16.80    0.60
  -6  -6  -6   15.90    0.60
  -6  -6  -6   16.40    0.70
   6   6   6   16.60    0.70
   6   6   6   16.40    0.60
  -7  -6  -6    4.20    0.30
  -7  -6  -6    3.50    0.30
  -7  -6  -6    3.80    0.30
   7   6   6    4.10    0.30
   7   6   6    4.30    0.40
   6  -7  -6   11.40    0.60
  -6   7   6   11.70    0.70
  -6   7   6   11.60    0.60
  -6   7   6   11.20    0.60
   5  -7  -6    1.10    0.20
   5  -7  -6    0.80    0.20
  -5   7   6    0.80    0.20
  -5   7   6    1.10    0.20
   4  -7  -6    0.20    0.10
   4  -7  -6    0.10    0.10
   4  -7  -6    0.20    0.10
  -4   7   6    0.00    0.10
  -4   7   6   -0.10    0.10
  -4   7   6   -0.10    0.10
   3  -7  -6    0.10    0.10
   3  -7  -6    0.30    0.10
   3  -7  -6    0.20    0.10
  -3   7   6    0.30    0.10
  -3   7   6    0.10    0.10
  -3   7   6    0.20    0.10
  -3   7   6    0.10    0.10
  -3   7   6    0.20    0.10
   2  -7  -6   17.80    0.70
   2  -7  -6   17.10    0.50
   2  -7  -6   16.60    0.70
   2  -7  -6   17.80    0.70
  -2   7   6   17.10    0.70
  -2   7   6   18.30    0.60
  -2   7   6   17.20    0.80
  -2   7   6   17.40    0.60
  -2   7   6   17.30    0.60
   1  -7  -6   13.90    0.60
   1  -7  -6   15.10    0.60
   1  -7  -6   14.50    0.40
  -1   7   6   14.60    0.50
  -1   7   6   15.30    0.50
  -1   7   6   14.70    0.60
  -1   7   6   15.10    0.40
  -1   7   6   15.10    0.60
  -1   7   6   14.70    0.70
   0  -7  -6    0.70    0.10
   0  -7  -6    0.70    0.20
   0  -7  -6    0.80    0.10
   0  -7  -6    0.70    0.10
   0   7   6    0.50    0.10
   0   7   6    0.70    0.20
   0   7   6    0.60    0.10
   0   7   6    0.50    0.10
   0   7   6    0.70    0.10
  -1  -7  -6   10.60    0.30
  -1  -7  -6   10.70    0.50
  -1  -7  -6   10.80    0.40
  -1  -7  -6    9.30    0.40
   1   7   6   10.00    0.60
   1   7   6   10.60    0.30
   1   7   6   10.60    0.50
   1   7   6   10.10    0.40
   1   7   6    9.00    0.40
  -2  -7  -6   16.70    0.60
  -2  -7  -6   15.80    0.60
  -2  -7  -6   16.20    0.60
  -2  -7  -6   16.90    0.60
  -2  -7  -6   16.90    0.60
  -2  -7  -6   16.20    0.60
   2   7   6   16.20    0.50
   2   7   6   15.70    0.60
   2   7   6   16.60    0.60
   2   7   6   15.20    0.70
  -3  -7  -6  113.29    2.80
  -3  -7  -6  118.99    2.90
  -3  -7  -6  117.09    2.80
  -3  -7  -6  117.39    2.80
  -3  -7  -6  115.69    2.80
  -3  -7  -6  120.19    2.80
   3   7   6  118.39    2.70
   3   7   6  115.49    2.80
   3   7   6  113.69    2.80
   3   7   6  115.19    3.00
  -4  -7  -6   12.10    0.30
  -4  -7  -6   12.80    0.50
  -4  -7  -6   13.40    0.50
  -4  -7  -6   11.70    0.50
   4   7   6   11.90    0.40
   4   7   6   12.10    0.50
   4   7   6   11.80    0.50
   4   7   6   11.40    0.60
  -5  -7  -6   80.79    2.00
  -5  -7  -6   82.49    2.10
  -5  -7  -6   78.29    2.00
   5   7   6   78.99    2.00
   5   7   6   78.39    2.20
   5   7   6   77.29    2.00
  -6  -7  -6    0.10    0.10
  -6  -7  -6    0.20    0.10
  -6  -7  -6    0.10    0.10
   6   7   6    0.00    0.10
   6   7   6    0.20    0.20
  -7  -7  -6    0.50    0.10
  -7  -7  -6    0.40    0.10
  -7  -7  -6    0.20    0.10
   7   7   6    0.20    0.10
   7   7   6    0.30    0.20
   6  -8  -6    0.90    0.30
  -6   8   6    0.70    0.30
   5  -8  -6    5.00    0.40
   5  -8  -6    4.50    0.40
   5  -8  -6    4.70    0.30
  -5   8   6    4.10    0.50
  -5   8   6    5.00    0.40
   4  -8  -6    0.80    0.20
   4  -8  -6    1.50    0.30
   4  -8  -6    1.80    0.20
  -4   8   6    1.60    0.10
  -4   8   6    1.60    0.30
  -4   8   6    1.40    0.20
   3  -8  -6   40.50    1.10
   3  -8  -6   40.00    1.30
   3  -8  -6   41.60    1.30
  -3   8   6   40.00    1.10
  -3   8   6   40.00    1.30
  -3   8   6   40.40    1.40
  -3   8   6   41.80    1.20
   2  -8  -6    2.50    0.20
   2  -8  -6    2.10    0.30
   2  -8  -6    2.10    0.30
  -2   8   6    3.20    0.40
  -2   8   6    2.30    0.20
  -2   8   6    2.40    0.20
  -2   8   6    2.00    0.30
   1  -8  -6   58.29    1.60
   1  -8  -6   61.29    1.50
   1  -8  -6   61.19    1.70
  -1   8   6   62.19    1.60
  -1   8   6   61.49    1.40
  -1   8   6   61.09    1.70
  -1   8   6   58.69    1.60
  -1   8   6   61.09    1.70
  -1   8   6   61.59    1.90
   0  -8  -6   78.89    1.90
   0  -8  -6   83.99    2.00
   0  -8  -6   81.49    2.10
   0  -8  -6   78.79    2.10
   0  -8  -6   78.19    2.10
   0   8   6   82.09    2.10
   0   8   6   82.49    2.10
   0   8   6   80.39    2.40
   0   8   6   82.49    2.10
   0   8   6   80.89    1.90
  -1  -8  -6  171.78    4.10
  -1  -8  -6  173.78    4.00
  -1  -8  -6  168.68    4.10
  -1  -8  -6  170.38    4.10
  -1  -8  -6  170.28    3.90
  -1  -8  -6  174.48    4.10
   1   8   6  169.68    3.90
   1   8   6  164.58    4.10
   1   8   6  169.58    4.00
  -2  -8  -6    1.50    0.20
  -2  -8  -6    1.70    0.20
  -2  -8  -6    1.60    0.20
  -2  -8  -6    1.50    0.20
   2   8   6    1.90    0.30
   2   8   6    1.10    0.20
   2   8   6    1.20    0.20
   2   8   6    1.50    0.10
   2   8   6    1.50    0.20
  -3  -8  -6    8.80    0.40
  -3  -8  -6    8.30    0.40
  -3  -8  -6    7.70    0.40
  -3  -8  -6    8.90    0.40
  -3  -8  -6    8.30    0.40
   3   8   6    8.40    0.50
   3   8   6    7.90    0.40
   3   8   6    9.30    0.50
   3   8   6    8.30    0.40
   3   8   6    8.70    0.30
  -4  -8  -6   17.70    0.60
  -4  -8  -6   18.30    0.70
  -4  -8  -6   17.30    0.60
   4   8   6   18.20    0.50
   4   8   6   17.80    0.80
   4   8   6   17.50    0.60
   4   8   6   18.30    0.60
  -5  -8  -6    0.10    0.10
  -5  -8  -6    0.20    0.10
  -5  -8  -6    0.20    0.10
   5   8   6    0.10    0.10
   5   8   6    0.00    0.10
   5   8   6    0.00    0.20
  -6  -8  -6    0.40    0.20
  -6  -8  -6    0.30    0.10
  -6  -8  -6    0.10    0.10
   6   8   6    0.30    0.10
   6   8   6    0.30    0.20
  -7  -8  -6    3.40    0.30
  -7  -8  -6    2.50    0.30
  -7  -8  -6    2.70    0.30
   7   8   6    3.00    0.40
   7   8   6    3.20    0.30
   6  -9  -6    5.70    0.50
   6  -9  -6    5.30    0.30
  -6   9   6    5.50    0.60
   5  -9  -6   19.20    0.90
   5  -9  -6   19.10    0.70
   5  -9  -6   18.90    0.80
  -5   9   6   19.20    0.90
   4  -9  -6    0.90    0.20
   4  -9  -6    0.90    0.20
   4  -9  -6    0.80    0.20
  -4   9   6    1.20    0.30
  -4   9   6    1.00    0.10
   3  -9  -6    6.30    0.30
   3  -9  -6    6.20    0.40
   3  -9  -6    6.70    0.50
  -3   9   6    6.40    0.30
  -3   9   6    5.80    0.50
  -3   9   6    6.70    0.50
   2  -9  -6    0.40    0.10
   2  -9  -6    0.00    0.10
   2  -9  -6    0.10    0.10
  -2   9   6    0.20    0.20
  -2   9   6    0.10    0.10
  -2   9   6    0.20    0.20
   1  -9  -6    6.00    0.30
   1  -9  -6    6.80    0.40
   1  -9  -6    6.90    0.30
   1  -9  -6    7.20    0.40
  -1   9   6    7.10    0.40
  -1   9   6    7.20    0.30
  -1   9   6    7.10    0.40
  -1   9   6    6.50    0.50
   0  -9  -6   25.80    0.70
   0  -9  -6   25.80    0.80
   0  -9  -6   24.40    0.90
   0   9   6   26.50    0.90
   0   9   6   26.20    1.10
   0   9   6   25.80    0.90
   0   9   6   27.30    0.90
   0   9   6   25.80    0.70
  -1  -9  -6   22.30    0.70
  -1  -9  -6   22.10    0.80
  -1  -9  -6   21.90    0.80
  -1  -9  -6   21.90    0.60
  -1  -9  -6   22.50    0.80
   1   9   6   22.10    0.60
   1   9   6   21.70    0.80
   1   9   6   22.30    0.80
  -2  -9  -6   25.00    0.80
  -2  -9  -6   24.80    0.80
  -2  -9  -6   25.70    0.90
  -2  -9  -6   25.20    0.80
   2   9   6   25.20    0.80
   2   9   6   23.30    1.00
   2   9   6   25.20    0.70
   2   9   6   24.40    0.90
  -3  -9  -6    0.80    0.20
  -3  -9  -6    0.90    0.10
  -3  -9  -6    0.50    0.10
  -3  -9  -6    0.50    0.10
  -3  -9  -6    0.60    0.20
   3   9   6    0.70    0.20
   3   9   6    0.60    0.10
   3   9   6    0.80    0.20
   3   9   6    0.60    0.10
   3   9   6    0.60    0.20
  -4  -9  -6    1.60    0.20
  -4  -9  -6    2.00    0.20
  -4  -9  -6    1.60    0.20
   4   9   6    1.90    0.30
   4   9   6    1.70    0.20
   4   9   6    1.60    0.20
   4   9   6    1.70    0.30
   4   9   6    1.70    0.20
  -5  -9  -6    1.60    0.20
  -5  -9  -6    1.20    0.20
  -5  -9  -6    1.30    0.20
   5   9   6    1.40    0.30
   5   9   6    1.50    0.40
   5   9   6    1.20    0.20
   5   9   6    1.30    0.20
  -6  -9  -6    4.90    0.40
  -6  -9  -6    5.20    0.40
  -6  -9  -6    4.60    0.30
   6   9   6    5.10    0.30
   6   9   6    4.60    0.50
  -7  -9  -6    0.80    0.20
  -7  -9  -6    1.10    0.30
   7   9   6    0.70    0.20
   7   9   6    1.20    0.30
   5 -10  -6   19.80    0.90
   5 -10  -6   22.00    0.70
   5 -10  -6   24.00    1.00
  -5  10   6   23.00    1.00
   4 -10  -6   20.60    0.90
   4 -10  -6   20.70    0.70
   4 -10  -6   21.30    0.90
  -4  10   6   20.90    0.70
  -4  10   6   20.50    0.90
   3 -10  -6    0.40    0.10
   3 -10  -6    0.40    0.20
   3 -10  -6    0.80    0.20
  -3  10   6    0.50    0.10
  -3  10   6    0.80    0.30
  -3  10   6    0.90    0.20
   2 -10  -6    2.30    0.20
   2 -10  -6    2.00    0.30
   2 -10  -6    2.60    0.30
  -2  10   6    2.80    0.40
  -2  10   6    2.30    0.40
  -2  10   6    2.90    0.30
   1 -10  -6  121.99    2.90
   1 -10  -6  125.59    3.20
   1 -10  -6  123.99    3.20
  -1  10   6  121.49    3.10
  -1  10   6  123.19    3.50
  -1  10   6  120.09    3.20
  -1  10   6  125.69    2.90
   0 -10  -6    1.00    0.20
   0 -10  -6    0.80    0.10
   0 -10  -6    0.70    0.20
   0 -10  -6    0.70    0.20
   0  10   6    0.40    0.20
   0  10   6    0.60    0.20
   0  10   6    0.70    0.10
   0  10   6    0.70    0.20
  -1 -10  -6    3.10    0.30
  -1 -10  -6    2.80    0.10
  -1 -10  -6    2.60    0.30
  -1 -10  -6    2.60    0.30
   1  10   6    2.90    0.30
   1  10   6    2.20    0.40
   1  10   6    3.00    0.20
   1  10   6    3.20    0.30
  -2 -10  -6    7.20    0.40
  -2 -10  -6    7.20    0.40
  -2 -10  -6    6.70    0.40
  -2 -10  -6    7.50    0.40
   2  10   6    7.90    0.40
   2  10   6    7.10    0.30
   2  10   6    7.00    0.60
   2  10   6    7.40    0.40
  -3 -10  -6    1.50    0.20
  -3 -10  -6    1.30    0.20
  -3 -10  -6    1.60    0.20
  -3 -10  -6    1.60    0.20
   3  10   6    1.40    0.20
   3  10   6    1.40    0.20
   3  10   6    1.20    0.20
   3  10   6    1.30    0.30
   3  10   6    1.80    0.30
  -4 -10  -6   21.20    0.70
  -4 -10  -6   20.50    0.80
  -4 -10  -6   21.20    0.80
   4  10   6   20.60    0.70
   4  10   6   21.20    0.80
   4  10   6   20.30    1.30
   4  10   6   19.30    1.00
   4  10   6   20.40    0.60
  -5 -10  -6    0.60    0.20
  -5 -10  -6    0.70    0.20
  -5 -10  -6    0.40    0.10
   5  10   6    0.40    0.20
   5  10   6    0.60    0.20
   5  10   6    0.80    0.20
  -6 -10  -6   20.90    0.80
  -6 -10  -6   18.90    0.70
   6  10   6   19.70    1.00
   6  10   6   19.30    0.80
  -7 -10  -6   43.60    1.40
   5 -11  -6    0.20    0.10
   5 -11  -6    0.10    0.20
   5 -11  -6    0.00    0.20
  -5  11   6    0.10    0.20
   4 -11  -6   33.00    1.00
   4 -11  -6   32.60    1.20
   4 -11  -6   32.30    1.20
  -4  11   6   32.50    1.00
  -4  11   6   35.50    1.30
   3 -11  -6    6.20    0.50
   3 -11  -6    5.60    0.50
   3 -11  -6    6.10    0.30
  -3  11   6    5.60    0.50
  -3  11   6    6.70    0.70
  -3  11   6    5.90    0.40
   2 -11  -6   32.20    1.20
   2 -11  -6   32.20    0.90
   2 -11  -6   32.60    1.20
  -2  11   6   33.80    1.40
  -2  11   6   33.00    1.10
  -2  11   6   32.80    1.20
   1 -11  -6    3.00    0.30
   1 -11  -6    2.90    0.40
   1 -11  -6    3.10    0.20
  -1  11   6    3.10    0.20
  -1  11   6    3.10    0.50
  -1  11   6    3.20    0.30
   0 -11  -6  376.06    8.40
   0 -11  -6  368.36    8.20
   0 -11  -6  358.36    8.50
   0 -11  -6  356.76    8.50
   0  11   6  354.86    8.50
   0  11   6  360.26    8.20
   0  11   6  365.26    8.90
   0  11   6  366.86    8.50
  -1 -11  -6    5.60    0.40
  -1 -11  -6    5.70    0.40
   1  11   6    5.30    0.40
   1  11   6    5.20    0.60
   1  11   6    4.80    0.40
   1  11   6    5.30    0.30
  -2 -11  -6   13.20    0.60
  -2 -11  -6   13.90    0.60
  -2 -11  -6   14.20    0.60
   2  11   6   15.10    0.60
   2  11   6   14.30    0.50
   2  11   6   13.90    0.90
   2  11   6   14.30    0.70
  -3 -11  -6   48.40    1.30
  -3 -11  -6   49.40    1.50
  -3 -11  -6   48.30    1.40
   3  11   6   48.80    1.50
   3  11   6   49.30    1.40
   3  11   6   45.80    1.80
   3  11   6   48.50    1.30
  -4 -11  -6   13.20    0.60
  -4 -11  -6   13.20    0.60
   4  11   6   13.20    0.60
   4  11   6   12.70    0.50
   4  11   6   12.60    0.60
   4  11   6   12.50    0.80
  -5 -11  -6    5.20    0.40
  -5 -11  -6    4.20    0.40
   5  11   6    4.30    0.40
   5  11   6    3.60    0.50
  -6 -11  -6    3.70    0.30
  -6 -11  -6    3.70    0.40
   6  11   6    3.50    0.50
   6  11   6    3.90    0.30
   4 -12  -6    1.90    0.40
   4 -12  -6    2.10    0.20
   4 -12  -6    3.00    0.40
  -4  12   6    2.30    0.30
  -4  12   6    2.30    0.40
   3 -12  -6    4.30    0.50
   3 -12  -6    3.60    0.30
   3 -12  -6    4.00    0.40
  -3  12   6    3.70    0.60
  -3  12   6    3.30    0.30
   2 -12  -6    5.30    0.40
   2 -12  -6    4.50    0.30
   2 -12  -6    5.30    0.50
  -2  12   6    5.50    0.70
  -2  12   6    5.10    0.40
   1 -12  -6   18.10    0.60
   1 -12  -6   17.70    0.80
   1 -12  -6   19.20    0.80
  -1  12   6   18.30    0.60
  -1  12   6   17.70    1.00
  -1  12   6   17.30    0.70
   0 -12  -6    8.80    0.50
   0 -12  -6    9.60    0.50
   0 -12  -6    8.90    0.30
   0  12   6    9.00    0.40
   0  12   6    8.50    0.70
   0  12   6    8.70    0.60
   0  12   6    8.20    0.50
  -1 -12  -6    0.40    0.20
  -1 -12  -6    0.10    0.10
  -1 -12  -6    0.30    0.10
   1  12   6    0.40    0.20
   1  12   6    0.20    0.20
   1  12   6    0.40    0.10
   1  12   6    0.50    0.30
  -2 -12  -6   22.20    0.80
  -2 -12  -6   21.20    0.80
  -2 -12  -6   21.30    0.80
   2  12   6   20.00    1.10
   2  12   6   21.80    0.90
   2  12   6   22.90    0.70
   2  12   6   22.20    0.80
  -3 -12  -6    1.10    0.20
  -3 -12  -6    1.00    0.20
   3  12   6    1.10    0.20
   3  12   6    1.30    0.40
  -4 -12  -6    0.10    0.10
  -4 -12  -6   -0.10    0.10
   4  12   6    0.00    0.10
   4  12   6    0.00    0.10
   4  12   6    0.00    0.20
   4  12   6    0.30    0.20
  -5 -12  -6    0.40    0.20
  -5 -12  -6    0.60    0.20
   5  12   6    0.70    0.30
   5  12   6    0.30    0.20
  -6 -12  -6    5.90    0.40
  -6 -12  -6    6.80    0.50
   6  12   6    6.20    0.70
   6  12   6    6.60    0.50
   4 -13  -6   10.40    0.50
  -4  13   6    9.70    0.50
   3 -13  -6    0.70    0.20
   3 -13  -6    0.70    0.20
   3 -13  -6    0.50    0.30
  -3  13   6    0.60    0.20
  -3  13   6    0.70    0.30
   2 -13  -6    1.90    0.30
   2 -13  -6    1.90    0.20
   2 -13  -6    1.50    0.30
  -2  13   6    1.80    0.40
  -2  13   6    2.30    0.30
   1 -13  -6   18.10    0.80
   1 -13  -6   18.40    0.80
   1 -13  -6   19.50    0.60
  -1  13   6   19.30    0.60
  -1  13   6   19.70    1.10
  -1  13   6   17.60    0.80
   0 -13  -6    4.50    0.40
   0 -13  -6    5.00    0.40
   0 -13  -6    4.50    0.20
   0  13   6    3.70    0.40
   0  13   6    4.80    0.50
   0  13   6    4.60    0.60
   0  13   6    4.10    0.30
  -1 -13  -6    9.60    0.50
  -1 -13  -6   10.00    0.50
  -1 -13  -6    9.90    0.50
   1  13   6    9.90    0.80
   1  13   6    9.50    0.60
   1  13   6    9.90    0.40
   1  13   6   10.80    0.60
  -2 -13  -6   -0.10    0.10
  -2 -13  -6    0.00    0.10
  -2 -13  -6    0.00    0.10
   2  13   6    0.10    0.20
   2  13   6   -0.10    0.20
   2  13   6    0.20    0.20
   2  13   6    0.00    0.10
  -3 -13  -6   23.80    0.90
  -3 -13  -6   22.80    0.70
   3  13   6   23.20    0.70
   3  13   6   23.80    0.90
   3  13   6   21.20    1.20
   3  13   6   22.50    0.90
  -4 -13  -6    0.60    0.20
   4  13   6    1.20    0.20
   4  13   6    0.90    0.20
   4  13   6    0.80    0.20
   4  13   6    1.10    0.40
  -5 -13  -6    0.00    0.10
   5  13   6    0.20    0.20
   5  13   6    0.00    0.20
   3 -14  -6    2.40    0.20
   3 -14  -6    2.10    0.40
   3 -14  -6    3.50    0.50
  -3  14   6    2.00    0.30
  -3  14   6    2.40    0.50
   2 -14  -6    1.30    0.30
   2 -14  -6    1.80    0.30
  -2  14   6    1.30    0.50
  -2  14   6    1.80    0.30
   1 -14  -6   28.30    1.10
   1 -14  -6   28.70    1.10
   1 -14  -6   28.10    0.80
  -1  14   6   28.90    0.80
  -1  14   6   25.70    1.40
  -1  14   6   28.20    1.10
   0 -14  -6    9.80    0.60
   0 -14  -6   10.80    0.60
   0  14   6    9.70    0.90
   0  14   6    9.50    0.60
   0  14   6   11.10    0.40
  -1 -14  -6   11.80    0.60
  -1 -14  -6   11.40    0.60
   1  14   6   12.40    0.70
   1  14   6   11.50    0.50
   1  14   6   11.20    0.90
   1  14   6   11.20    0.60
  -2 -14  -6    2.50    0.30
  -2 -14  -6    1.90    0.30
   2  14   6    2.00    0.50
   2  14   6    2.10    0.20
   2  14   6    2.10    0.30
   2  14   6    2.80    0.40
  -3 -14  -6    4.30    0.30
  -3 -14  -6    4.60    0.40
  -3 -14  -6    3.70    0.30
   3  14   6    3.70    0.40
   3  14   6    3.90    0.60
   3  14   6    4.30    0.40
   3  14   6    4.30    0.30
  -4 -14  -6    0.90    0.20
   4  14   6    1.00    0.30
   4  14   6    1.20    0.40
   4  14   6    1.20    0.30
   4  14   6    0.70    0.20
  -5 -14  -6    4.80    0.40
   5  14   6    4.40    0.30
   2 -15  -6   25.60    1.10
   2 -15  -6   26.60    0.80
   2 -15  -6   23.50    1.10
  -2  15   6   24.30    1.00
  -2  15   6   25.10    1.40
   1 -15  -6    2.20    0.40
   1 -15  -6    1.90    0.20
   1 -15  -6    1.80    0.30
  -1  15   6    1.30    0.50
  -1  15   6    1.60    0.20
  -1  15   6    1.60    0.30
   0 -15  -6    6.30    0.50
   0 -15  -6    5.70    0.50
   0  15   6    5.40    0.80
   0  15   6    5.90    0.40
   0  15   6    5.90    0.50
  -1 -15  -6    3.60    0.40
  -1 -15  -6    3.80    0.40
   1  15   6    2.80    0.60
   1  15   6    3.20    0.50
   1  15   6    3.00    0.30
   1  15   6    3.50    0.40
  -2 -15  -6    2.80    0.30
  -2 -15  -6    2.30    0.30
   2  15   6    2.20    0.50
   2  15   6    2.30    0.30
   2  15   6    2.30    0.40
   2  15   6    2.40    0.40
  -3 -15  -6    4.40    0.40
   3  15   6    4.50    0.70
  -4 -15  -6    0.10    0.10
   4  15   6    0.20    0.10
   4  15   6    0.00    0.20
   4  15   6   -0.10    0.30
   4  15   6   -0.10    0.20
   0 -16  -6    2.20    0.40
   0 -16  -6    2.10    0.30
   0  16   6    1.70    0.20
   0  16   6    1.30    0.30
   0  16   6    1.10    0.40
  -1 -16  -6    0.00    0.20
  -1 -16  -6    0.00    0.20
   1  16   6    0.00    0.10
   1  16   6    0.00    0.20
   1  16   6    0.80    0.40
   1  16   6    0.30    0.20
  -2 -16  -6    4.40    0.30
  -2 -16  -6    4.10    0.30
   2  16   6    3.50    0.70
   2  16   6    4.00    0.50
   2  16   6    4.50    0.50
   2  16   6    4.70    0.40
   2  11  -7   41.20    1.20
   2  11  -7   40.80    1.70
  -2 -11   7   40.70    1.30
   1  11  -7    0.70    0.30
   1  11  -7    0.10    0.30
   1  11  -7    0.70    0.20
  -1 -11   7    0.60    0.20
   0  11  -7    0.30    0.20
   0  11  -7    0.90    0.40
   0  11  -7    0.40    0.20
   0 -11   7    0.90    0.30
   0 -11   7    0.50    0.10
  -1  11  -7    0.20    0.30
  -1  11  -7    0.50    0.20
  -1  11  -7    0.40    0.20
   1 -11   7    0.30    0.10
  -4 -10   7    5.70    0.40
  -4 -10   7    4.90    0.40
  -4 -10   7    5.60    0.40
   3  10  -7    3.20    0.50
  -3 -10   7    3.20    0.30
  -3 -10   7    3.10    0.30
   2  10  -7    6.90    0.70
   2  10  -7    8.60    0.40
  -2 -10   7    8.30    0.50
   1  10  -7    0.30    0.30
   1  10  -7    0.40    0.20
   1  10  -7    0.30    0.10
  -1 -10   7    0.40    0.20
   0  10  -7   -0.10    0.10
   0  10  -7    0.00    0.20
   0  10  -7    0.20    0.30
   0 -10   7    0.00    0.10
   0 -10   7    0.10    0.20
  -1  10  -7   12.40    0.70
  -1  10  -7   12.00    0.80
  -1  10  -7   12.20    0.50
   1 -10   7   13.30    0.60
   1 -10   7   12.00    0.60
  -2  10  -7    0.80    0.30
  -2  10  -7    0.60    0.20
  -2  10  -7    0.90    0.20
   2 -10   7    0.70    0.20
   2 -10   7    0.80    0.20
  -3  10  -7    1.40    0.20
  -3  10  -7    1.00    0.30
  -3  10  -7    0.60    0.20
   3 -10   7    1.00    0.30
   3 -10   7    1.30    0.30
   4   9  -7    5.60    0.60
  -4  -9   7    5.80    0.40
  -4  -9   7    5.50    0.40
  -4  -9   7    5.60    0.40
   3   9  -7   13.60    0.80
  -3  -9   7   14.40    0.60
  -3  -9   7   14.90    0.60
  -3  -9   7   14.90    0.60
   2   9  -7   -0.40    0.20
   2   9  -7   -0.30    0.10
  -2  -9   7    0.20    0.10
  -2  -9   7    0.00    0.10
   1   9  -7    3.80    0.40
   1   9  -7    3.60    0.30
   1   9  -7    4.00    0.50
  -1  -9   7    3.70    0.40
   0   9  -7    1.40    0.30
   0   9  -7    1.50    0.40
   0   9  -7    1.50    0.20
   0  -9   7    1.30    0.30
   0  -9   7    1.50    0.20
  -1   9  -7    0.80    0.20
  -1   9  -7    1.00    0.20
  -1   9  -7    0.80    0.30
   1  -9   7    1.20    0.20
   1  -9   7    0.70    0.20
   1  -9   7    1.30    0.30
  -2   9  -7    0.60    0.20
  -2   9  -7    0.70    0.20
  -2   9  -7    0.50    0.30
   2  -9   7    0.80    0.20
   2  -9   7    0.30    0.20
  -3   9  -7    5.80    0.60
  -3   9  -7    6.10    0.40
  -3   9  -7    6.30    0.50
   3  -9   7    4.80    0.40
   3  -9   7    5.80    0.50
   3  -9   7    5.60    0.30
  -4   9  -7   -0.20    0.20
  -4   9  -7    0.00    0.20
   4  -9   7   -0.20    0.10
   4  -9   7    0.00    0.20
   4  -9   7   -0.10    0.10
   5   8  -7    2.20    0.20
  -5  -8   7    1.60    0.20
  -5  -8   7    1.80    0.20
  -5  -8   7    2.10    0.40
  -5  -8   7    2.30    0.20
   4   8  -7    3.00    0.40
  -4  -8   7    2.30    0.40
  -4  -8   7    2.40    0.20
  -4  -8   7    2.60    0.20
  -4  -8   7    2.20    0.20
   3   8  -7   11.80    0.70
  -3  -8   7   11.80    0.50
  -3  -8   7   12.10    0.60
  -3  -8   7   11.10    0.50
  -3  -8   7   11.00    0.50
   2   8  -7   -0.10    0.10
   2   8  -7    0.00    0.20
  -2  -8   7    0.00    0.10
  -2  -8   7    0.10    0.10
  -2  -8   7    0.10    0.10
   1   8  -7    1.00    0.30
   1   8  -7    0.50    0.20
   1   8  -7    1.10    0.20
  -1  -8   7    1.10    0.20
  -1  -8   7    0.90    0.20
   0   8  -7    0.80    0.20
   0   8  -7    0.70    0.30
   0   8  -7    1.00    0.20
   0  -8   7    0.60    0.10
   0  -8   7    0.70    0.20
   0  -8   7    0.80    0.20
  -1   8  -7    0.40    0.20
  -1   8  -7    1.40    0.30
  -1   8  -7    0.90    0.20
   1  -8   7    1.00    0.20
   1  -8   7    1.10    0.20
   1  -8   7    0.70    0.20
  -2   8  -7    0.80    0.30
  -2   8  -7    1.00    0.20
  -2   8  -7    1.00    0.20
   2  -8   7    0.50    0.20
   2  -8   7    0.90    0.20
  -3   8  -7    0.90    0.20
  -3   8  -7    0.90    0.20
  -3   8  -7    0.90    0.30
   3  -8   7    0.80    0.20
   3  -8   7    0.70    0.10
   3  -8   7    0.80    0.20
   3  -8   7    1.40    0.30
  -4   8  -7   11.50    0.60
  -4   8  -7   12.40    0.80
   4  -8   7   11.40    0.70
   4  -8   7   12.00    0.50
   4  -8   7   11.30    0.60
   4  -8   7   12.80    0.70
  -5  -7   7    7.90    0.50
  -5  -7   7    6.70    0.30
  -5  -7   7    6.30    0.30
  -5  -7   7    6.60    0.30
   4   7  -7    7.30    0.50
  -4  -7   7    7.40    0.40
  -4  -7   7    8.20    0.50
  -4  -7   7    7.80    0.30
  -4  -7   7    7.50    0.40
   3   7  -7   18.00    0.80
  -3  -7   7   20.20    0.70
  -3  -7   7   19.00    0.70
  -3  -7   7   20.00    0.80
  -3  -7   7   19.30    0.70
   2   7  -7    2.60    0.30
   2   7  -7    2.80    0.40
  -2  -7   7    3.10    0.30
  -2  -7   7    2.90    0.20
  -2  -7   7    3.50    0.30
  -2  -7   7    3.10    0.30
   1   7  -7    0.10    0.20
   1   7  -7    0.30    0.10
   1   7  -7    0.40    0.10
  -1  -7   7    0.60    0.20
  -1  -7   7    0.60    0.20
  -1  -7   7    0.40    0.10
  -1  -7   7    0.70    0.10
   0   7  -7   57.29    1.50
   0   7  -7   58.89    1.60
   0   7  -7   55.09    1.80
   0  -7   7   56.59    1.60
   0  -7   7   55.39    1.50
   0  -7   7   59.59    1.60
  -1   7  -7    0.00    0.10
  -1   7  -7    0.40    0.10
  -1   7  -7    0.30    0.20
   1  -7   7    0.00    0.10
   1  -7   7    0.00    0.10
   1  -7   7    0.20    0.10
  -2   7  -7    4.60    0.40
  -2   7  -7    4.60    0.50
  -2   7  -7    4.80    0.30
   2  -7   7    5.20    0.40
   2  -7   7    4.90    0.20
   2  -7   7    4.90    0.40
   2  -7   7    5.30    0.30
  -3   7  -7   15.30    0.50
  -3   7  -7   15.40    0.70
  -3   7  -7   15.60    0.80
   3  -7   7   14.40    0.70
   3  -7   7   14.60    0.50
   3  -7   7   14.40    0.60
   3  -7   7   15.00    0.70
  -4   7  -7    3.60    0.50
  -4   7  -7    3.50    0.40
   4  -7   7    3.30    0.30
   4  -7   7    2.90    0.40
   4  -7   7    3.20    0.40
   4  -7   7    3.10    0.40
  -5   7  -7    0.10    0.20
  -5   7  -7    0.50    0.20
   5  -7   7    0.10    0.20
   5  -7   7    0.20    0.20
   5  -7   7    0.10    0.20
   5  -7   7   -0.20    0.10
  -6  -6   7    4.20    0.20
  -6  -6   7    3.90    0.50
  -6  -6   7    4.30    0.20
  -5  -6   7    1.20    0.10
  -5  -6   7    1.50    0.30
  -5  -6   7    1.10    0.10
  -5  -6   7    1.20    0.10
   4   6  -7    0.40    0.10
   4   6  -7    0.30    0.20
  -4  -6   7    0.20    0.10
  -4  -6   7    0.40    0.20
  -4  -6   7    0.10    0.10
  -4  -6   7    0.10    0.10
   3   6  -7   56.09    1.70
  -3  -6   7   53.99    1.40
  -3  -6   7   53.99    1.60
  -3  -6   7   55.29    1.40
  -3  -6   7   55.89    1.50
   2   6  -7   -0.10    0.10
   2   6  -7    0.10    0.10
  -2  -6   7   -0.10    0.10
  -2  -6   7    0.10    0.10
  -2  -6   7    0.00    0.10
  -2  -6   7    0.10    0.10
   1   6  -7   13.90    0.70
   1   6  -7   13.20    0.60
   1   6  -7   14.30    0.40
  -1  -6   7   12.50    0.50
  -1  -6   7   13.60    0.50
  -1  -6   7   14.10    0.50
  -1  -6   7   14.00    0.40
  -1  -6   7   13.70    0.60
   0   6  -7   51.09    1.30
   0   6  -7   52.39    1.50
   0   6  -7   49.99    1.60
   0  -6   7   50.89    1.40
   0  -6   7   50.89    1.40
   0  -6   7   50.99    1.40
   0  -6   7   49.70    1.30
  -1   6  -7    0.00    0.10
  -1   6  -7    0.00    0.10
  -1   6  -7    0.20    0.20
   1  -6   7    0.10    0.10
   1  -6   7    0.10    0.10
   1  -6   7    0.10    0.10
  -2   6  -7    9.60    0.60
  -2   6  -7    9.70    0.40
  -2   6  -7   10.20    0.50
   2  -6   7    9.70    0.30
   2  -6   7    9.90    0.50
   2  -6   7    9.90    0.50
   2  -6   7    9.70    0.60
   2  -6   7    9.00    0.50
  -3   6  -7   17.00    0.90
  -3   6  -7   17.10    0.60
  -3   6  -7   15.90    0.70
   3  -6   7   16.90    0.60
   3  -6   7   16.80    0.70
   3  -6   7   15.90    0.70
   3  -6   7   16.50    0.70
  -4   6  -7    5.10    0.40
  -4   6  -7    6.90    0.60
   4  -6   7    5.20    0.40
   4  -6   7    4.90    0.40
   4  -6   7    5.50    0.30
   4  -6   7    4.90    0.40
  -5   6  -7    0.50    0.20
  -5   6  -7    0.30    0.20
   5  -6   7    0.00    0.20
   5  -6   7    0.10    0.20
   5  -6   7   -0.20    0.10
   5  -6   7   -0.10    0.10
  -6  -5   7    0.70    0.20
  -6  -5   7    0.80    0.10
  -6  -5   7    0.70    0.10
  -5  -5   7    3.60    0.40
  -5  -5   7    3.30    0.20
  -5  -5   7    3.40    0.20
   4   5  -7    0.00    0.10
   4   5  -7    0.20    0.40
   4   5  -7    0.10    0.10
  -4  -5   7    0.00    0.10
  -4  -5   7    0.10    0.10
  -4  -5   7    0.00    0.10
  -4  -5   7    0.00    0.10
  -4  -5   7    0.00    0.10
   3   5  -7    5.20    0.40
  -3  -5   7    5.40    0.30
  -3  -5   7    5.70    0.30
  -3  -5   7    5.60    0.30
  -3  -5   7    5.80    0.30
  -3  -5   7    5.80    0.40
  -3  -5   7    6.10    0.30
   2   5  -7    0.60    0.10
   2   5  -7    0.40    0.20
  -2  -5   7    0.30    0.10
  -2  -5   7    0.50    0.10
  -2  -5   7    0.30    0.10
  -2  -5   7    0.60    0.20
   1   5  -7    4.60    0.40
   1   5  -7    4.10    0.20
   1   5  -7    3.90    0.30
  -1  -5   7    4.00    0.30
  -1  -5   7    3.80    0.30
  -1  -5   7    3.90    0.20
  -1  -5   7    3.60    0.30
  -1  -5   7    4.20    0.30
   0   5  -7    5.00    0.40
   0   5  -7    4.30    0.20
   0   5  -7    5.30    0.30
   0  -5   7    4.70    0.30
   0  -5   7    4.20    0.30
   0  -5   7    5.10    0.30
   0  -5   7    4.70    0.20
   0  -5   7    4.60    0.30
  -1   5  -7    1.40    0.30
  -1   5  -7    1.30    0.20
  -1   5  -7    1.60    0.20
   1  -5   7    1.80    0.20
   1  -5   7    1.70    0.20
   1  -5   7    1.30    0.20
  -2   5  -7  149.49    3.50
  -2   5  -7  148.79    3.80
  -2   5  -7  144.39    3.60
   2  -5   7  147.59    3.60
   2  -5   7  148.69    3.60
   2  -5   7  149.59    3.60
   2  -5   7  146.49    3.70
   2  -5   7  147.29    3.40
  -3   5  -7    3.60    0.50
  -3   5  -7    2.90    0.20
  -3   5  -7    2.30    0.30
   3  -5   7    2.70    0.30
   3  -5   7    2.90    0.30
   3  -5   7    3.00    0.20
   3  -5   7    2.40    0.30
  -4   5  -7    0.80    0.20
  -4   5  -7    0.70    0.20
   4  -5   7    0.70    0.20
   4  -5   7    0.70    0.20
   4  -5   7    0.80    0.20
   4  -5   7    0.90    0.20
  -5   5  -7    3.70    0.40
  -5   5  -7    3.80    0.40
   5  -5   7    4.00    0.40
   5  -5   7    4.00    0.40
   5  -5   7    3.10    0.30
   5  -5   7    3.90    0.40
  -6   5  -7    0.90    0.20
   6  -5   7    1.50    0.30
   6  -5   7    0.90    0.30
   6  -5   7    0.90    0.30
   6  -5   7    0.70    0.20
  -6  -4   7    8.40    0.60
   5   4  -7   10.00    1.10
  -5  -4   7   11.20    0.30
  -5  -4   7   10.60    0.60
  -5  -4   7   11.30    0.30
   4   4  -7   71.79    2.80
   4   4  -7   67.39    1.80
  -4  -4   7   64.79    1.60
  -4  -4   7   65.59    1.90
  -4  -4   7   69.09    1.60
  -4  -4   7   69.09    1.60
  -4  -4   7   67.89    1.60
   3   4  -7    0.20    0.10
  -3  -4   7    0.10    0.10
  -3  -4   7    0.00    0.10
  -3  -4   7    0.10    0.10
  -3  -4   7    0.00    0.10
  -3  -4   7    0.00    0.10
   2   4  -7   12.60    0.60
   2   4  -7   13.20    0.50
  -2  -4   7   12.90    0.50
  -2  -4   7   13.20    0.50
  -2  -4   7   13.20    0.50
  -2  -4   7   13.30    0.40
  -2  -4   7   13.20    0.50
   1   4  -7    1.30    0.10
   1   4  -7    1.40    0.20
   1   4  -7    1.20    0.20
  -1  -4   7    1.20    0.10
  -1  -4   7    1.30    0.20
  -1  -4   7    1.20    0.20
  -1  -4   7    1.30    0.10
  -1  -4   7    1.20    0.20
  -1  -4   7    1.60    0.20
   0   4  -7    0.80    0.20
   0   4  -7    0.90    0.10
   0   4  -7    0.80    0.20
   0  -4   7    0.90    0.20
   0  -4   7    1.20    0.10
   0  -4   7    0.80    0.10
   0  -4   7    1.00    0.20
  -1   4  -7    0.60    0.10
  -1   4  -7    0.40    0.10
   1  -4   7    0.40    0.10
   1  -4   7    0.50    0.10
   1  -4   7    0.50    0.10
   1  -4   7    0.20    0.10
  -2   4  -7   55.99    1.70
  -2   4  -7   58.79    1.40
  -2   4  -7   54.79    1.60
   2  -4   7   56.19    1.60
   2  -4   7   55.99    1.60
   2  -4   7   57.09    1.50
   2  -4   7   56.49    1.40
  -3   4  -7  142.09    3.50
  -3   4  -7  139.29    3.50
  -3   4  -7  141.09    3.60
  -3   4  -7  140.69    3.20
  -3   4  -7  139.39    3.40
   3  -4   7  137.89    3.30
   3  -4   7  139.49    3.50
   3  -4   7  135.49    3.40
   3  -4   7  136.19    3.40
  -4   4  -7    2.30    0.30
  -4   4  -7    1.80    0.30
  -4   4  -7    1.80    0.30
  -4   4  -7    1.70    0.20
   4  -4   7    1.80    0.30
   4  -4   7    1.60    0.20
   4  -4   7    1.60    0.20
   4  -4   7    1.70    0.30
  -5   4  -7   10.50    0.60
  -5   4  -7   10.80    0.60
  -5   4  -7   10.80    0.50
   5  -4   7   11.20    0.60
   5  -4   7    9.60    0.60
   5  -4   7   10.50    0.50
   5  -4   7    9.50    0.60
  -6   4  -7   -0.10    0.10
  -6   4  -7   -0.10    0.10
   6  -4   7    0.00    0.10
   6  -4   7    0.20    0.20
   6  -4   7    0.00    0.10
   6  -4   7   -0.10    0.10
  -6  -3   7    7.20    0.50
   5   3  -7    2.50    0.70
  -5  -3   7    2.20    0.30
  -5  -3   7    2.20    0.10
  -5  -3   7    2.20    0.10
   4   3  -7   27.80    1.60
   4   3  -7   26.10    0.80
  -4  -3   7   25.90    0.90
  -4  -3   7   27.50    0.70
  -4  -3   7   25.70    0.70
   3   3  -7   79.99    2.00
   3   3  -7   82.99    2.90
  -3  -3   7   80.29    1.90
  -3  -3   7   78.09    2.10
  -3  -3   7   79.69    1.90
  -3  -3   7   78.69    1.90
  -3  -3   7   80.69    1.90
   2   3  -7    4.30    0.20
   2   3  -7    4.60    0.30
  -2  -3   7    3.70    0.20
  -2  -3   7    4.60    0.20
  -2  -3   7    4.30    0.20
  -2  -3   7    4.80    0.30
  -2  -3   7    4.40    0.20
   1   3  -7   13.40    0.40
   1   3  -7   13.20    0.50
   1   3  -7   13.00    0.60
  -1  -3   7   14.10    0.50
  -1  -3   7   12.90    0.50
  -1  -3   7   12.80    0.40
  -1  -3   7   13.10    0.50
  -1  -3   7   13.30    0.50
   0   3  -7   11.20    0.40
   0   3  -7   11.30    0.50
   0   3  -7   11.00    0.50
   0  -3   7   11.10    0.40
   0  -3   7   11.00    0.40
   0  -3   7   11.30    0.50
   0  -3   7   11.10    0.50
  -1   3  -7    4.40    0.30
  -1   3  -7    4.40    0.20
   1  -3   7    4.60    0.30
   1  -3   7    4.70    0.30
   1  -3   7    5.30    0.30
   1  -3   7    4.50    0.30
   1  -3   7    5.10    0.30
   1  -3   7    4.80    0.20
   1  -3   7    4.50    0.20
  -2   3  -7   -0.10    0.10
  -2   3  -7   -0.10    0.10
  -2   3  -7    0.00    0.10
  -2   3  -7   -0.10    0.10
   2  -3   7   -0.10    0.10
   2  -3   7    0.00    0.10
   2  -3   7    0.00    0.10
   2  -3   7    0.10    0.10
   2  -3   7   -0.10    0.10
  -3   3  -7    9.60    0.50
  -3   3  -7   10.60    0.50
  -3   3  -7   10.80    0.40
  -3   3  -7   10.50    0.50
  -3   3  -7    9.70    0.60
   3  -3   7    9.80    0.50
   3  -3   7   11.20    0.50
   3  -3   7   10.50    0.40
   3  -3   7   11.10    0.50
  -4   3  -7    0.10    0.10
  -4   3  -7    0.50    0.20
  -4   3  -7    0.20    0.10
  -4   3  -7    0.00    0.10
   4  -3   7    0.30    0.10
   4  -3   7   -0.10    0.10
   4  -3   7    0.10    0.10
   4  -3   7    0.00    0.10
  -5   3  -7    2.10    0.30
  -5   3  -7    2.00    0.30
  -5   3  -7    1.50    0.30
  -5   3  -7    2.20    0.30
   5  -3   7    1.50    0.30
   5  -3   7    1.70    0.30
   5  -3   7    1.90    0.30
   5  -3   7    1.70    0.20
  -6   3  -7    0.20    0.10
  -6   3  -7    0.00    0.20
  -6   3  -7    0.30    0.20
   6  -3   7    0.10    0.10
   6  -3   7    0.30    0.20
   6  -3   7    0.20    0.20
   6  -3   7    0.30    0.20
  -7  -2   7   14.90    0.80
  -7  -2   7   15.50    0.50
  -7  -2   7   15.40    0.40
  -6  -2   7    6.70    0.50
   5   2  -7    0.70    0.40
  -5  -2   7    0.80    0.10
  -5  -2   7    0.80    0.10
  -5  -2   7    0.80    0.20
   4   2  -7    8.50    1.00
   4   2  -7   10.80    0.40
  -4  -2   7   10.60    0.30
  -4  -2   7   11.60    0.30
  -4  -2   7   11.00    0.50
   3   2  -7    3.40    0.60
   3   2  -7    3.30    0.20
  -3  -2   7    3.30    0.10
  -3  -2   7    3.10    0.20
  -3  -2   7    3.40    0.30
  -3  -2   7    3.60    0.20
  -3  -2   7    3.20    0.20
   2   2  -7    9.00    0.40
   2   2  -7    9.60    0.40
  -2  -2   7    9.20    0.30
  -2  -2   7    9.40    0.30
  -2  -2   7    9.10    0.40
  -2  -2   7    8.90    0.30
   1   2  -7    1.80    0.10
   1   2  -7    1.60    0.20
   1   2  -7    1.70    0.20
  -1  -2   7    1.90    0.10
  -1  -2   7    1.50    0.20
  -1  -2   7    1.70    0.20
  -1  -2   7    1.70    0.10
  -1  -2   7    1.80    0.20
  -1  -2   7    1.60    0.40
   0   2  -7   12.20    0.40
   0   2  -7   11.90    0.50
   0   2  -7   12.00    0.50
   0  -2   7   12.40    0.40
   0  -2   7   11.80    0.50
   0  -2   7   11.50    0.40
   0  -2   7   10.80    0.40
   0  -2   7   12.40    0.50
  -1   2  -7    2.00    0.20
  -1   2  -7    2.30    0.20
   1  -2   7    2.50    0.20
   1  -2   7    2.60    0.10
   1  -2   7    2.30    0.10
   1  -2   7    2.30    0.20
   1  -2   7    2.60    0.20
   1  -2   7    2.40    0.20
   1  -2   7    2.00    0.20
  -2   2  -7    3.80    0.30
  -2   2  -7    3.80    0.30
  -2   2  -7    3.60    0.20
  -2   2  -7    3.60    0.30
   2  -2   7    3.40    0.20
   2  -2   7    4.00    0.30
   2  -2   7    3.80    0.30
   2  -2   7    3.80    0.20
  -3   2  -7    0.40    0.10
  -3   2  -7    0.00    0.10
  -3   2  -7    0.40    0.10
  -3   2  -7    0.40    0.10
   3  -2   7    0.40    0.10
   3  -2   7    0.30    0.10
   3  -2   7    0.30    0.10
   3  -2   7    0.30    0.10
  -4   2  -7    4.00    0.30
  -4   2  -7    3.90    0.30
  -4   2  -7    4.20    0.40
  -4   2  -7    4.00    0.30
   4  -2   7    4.00    0.30
   4  -2   7    4.20    0.30
   4  -2   7    3.70    0.30
   4  -2   7    3.70    0.30
  -5   2  -7    2.10    0.30
  -5   2  -7    1.90    0.20
  -5   2  -7    2.30    0.30
  -5   2  -7    1.90    0.30
   5  -2   7    1.90    0.30
   5  -2   7    2.10    0.20
   5  -2   7    1.90    0.30
   5  -2   7    2.20    0.30
  -6   2  -7   12.70    0.50
  -6   2  -7   13.60    0.70
  -6   2  -7   12.40    0.60
   6  -2   7   12.30    0.60
   6  -2   7   13.50    0.50
   6  -2   7   13.10    0.60
   6  -2   7   11.90    0.70
  -7   2  -7    1.80    0.30
  -7   2  -7    1.50    0.30
   7  -2   7    1.00    0.30
   7  -2   7    1.20    0.30
   7  -2   7    1.30    0.20
   7  -2   7    1.00    0.20
  -7  -1   7   15.90    0.50
  -7  -1   7   16.20    0.80
  -7  -1   7   15.50    0.50
  -6  -1   7    0.10    0.20
  -6  -1   7    0.00    0.10
  -6  -1   7    0.10    0.10
   5   1  -7    7.70    0.90
  -5  -1   7    7.50    0.50
  -5  -1   7    8.00    0.30
  -5  -1   7    7.50    0.20
   4   1  -7    5.50    0.30
   4   1  -7    6.00    0.80
  -4  -1   7    5.50    0.20
  -4  -1   7    5.50    0.20
  -4  -1   7    6.10    0.40
   3   1  -7    7.90    0.30
   3   1  -7    8.10    0.80
  -3  -1   7    7.90    0.40
  -3  -1   7    8.80    0.30
  -3  -1   7    8.40    0.30
  -3  -1   7    7.60    0.30
  -3  -1   7    8.40    0.30
   2   1  -7    5.40    0.20
   2   1  -7    5.40    0.30
   2   1  -7    5.00    0.60
  -2  -1   7    5.40    0.30
  -2  -1   7    5.10    0.20
  -2  -1   7    5.30    0.20
  -2  -1   7    5.70    0.20
   1   1  -7   33.40    0.90
   1   1  -7   31.20    1.00
   1   1  -7   33.40    0.80
  -1  -1   7   32.00    0.90
  -1  -1   7   30.60    0.90
  -1  -1   7   32.40    0.90
  -1  -1   7   32.10    0.90
  -1  -1   7   31.30    0.80
  -1  -1   7   32.00    1.40
   0   1  -7   79.99    2.10
   0   1  -7   82.89    2.00
   0   1  -7   81.09    1.90
   0  -1   7   80.69    2.00
   0  -1   7   83.89    2.00
   0  -1   7   84.09    2.00
   0  -1   7   81.79    2.10
   0  -1   7   81.59    2.00
  -1   1  -7    4.90    0.30
  -1   1  -7    5.40    0.30
  -1   1  -7    5.50    0.20
   1  -1   7    3.90    0.20
   1  -1   7    5.70    0.30
   1  -1   7    5.30    0.30
   1  -1   7    5.30    0.30
   1  -1   7    5.30    0.20
   1  -1   7    5.10    0.30
  -2   1  -7   46.40    1.30
  -2   1  -7   46.30    1.20
  -2   1  -7   46.90    1.30
  -2   1  -7   47.30    1.40
   2  -1   7   47.10    1.30
   2  -1   7   45.00    1.30
   2  -1   7   47.00    1.30
   2  -1   7   47.30    1.20
   2  -1   7   47.40    1.30
  -3   1  -7   22.20    0.80
  -3   1  -7   23.20    0.60
  -3   1  -7   22.70    0.80
  -3   1  -7   23.20    0.80
  -3   1  -7   22.80    0.80
   3  -1   7   23.10    0.80
   3  -1   7   23.30    0.70
   3  -1   7   22.30    0.70
   3  -1   7   21.50    0.80
  -4   1  -7    0.70    0.20
  -4   1  -7    0.80    0.20
  -4   1  -7    1.00    0.20
  -4   1  -7    0.90    0.20
   4  -1   7    0.50    0.10
   4  -1   7    0.80    0.20
   4  -1   7    0.70    0.20
   4  -1   7    0.60    0.20
  -5   1  -7    2.40    0.30
  -5   1  -7    2.30    0.30
  -5   1  -7    2.00    0.20
  -5   1  -7    2.00    0.30
   5  -1   7    2.00    0.30
   5  -1   7    1.80    0.20
   5  -1   7    2.00    0.20
   5  -1   7    1.90    0.30
  -6   1  -7    6.20    0.50
  -6   1  -7    5.40    0.40
  -6   1  -7    6.20    0.30
   6  -1   7    5.80    0.30
   6  -1   7    6.00    0.40
   6  -1   7    5.80    0.40
   6  -1   7    5.00    0.40
  -7   1  -7    4.00    0.40
  -7   1  -7    3.90    0.40
   7  -1   7    4.50    0.30
   7  -1   7    4.10    0.50
   7  -1   7    3.70    0.40
   7  -1   7    3.20    0.40
  -7   0   7    0.10    0.10
  -7   0   7    0.10    0.10
  -7   0   7    0.00    0.20
  -7   0   7    0.10    0.10
  -6   0   7    1.30    0.30
  -6   0   7    1.10    0.10
  -6   0   7    0.90    0.10
   5   0  -7    0.30    0.30
  -5   0   7    0.20    0.10
  -5   0   7    0.50    0.10
  -5   0   7    0.60    0.10
   4   0  -7  134.39    3.20
   4   0  -7  132.29    4.10
  -4   0   7  134.89    3.10
  -4   0   7  136.49    3.10
  -4   0   7  136.49    3.40
   3   0  -7    2.20    0.20
   3   0  -7    2.40    0.50
  -3   0   7    1.60    0.10
  -3   0   7    1.60    0.20
  -3   0   7    1.70    0.10
  -3   0   7    1.90    0.10
  -3   0   7    1.80    0.10
   2   0  -7    4.60    0.30
   2   0  -7    4.60    0.60
   2   0  -7    5.00    0.20
  -2   0   7    4.90    0.50
  -2   0   7    4.50    0.20
  -2   0   7    4.10    0.20
  -2   0   7    4.80    0.20
   1   0  -7    3.10    0.10
   1   0  -7    2.70    0.20
   1   0  -7    2.80    0.20
  -1   0   7    2.80    0.20
  -1   0   7    3.00    0.20
  -1   0   7    2.80    0.20
  -1   0   7    4.00    0.50
  -1   0   7    2.90    0.10
   0   0  -7   16.70    0.60
   0   0  -7   17.50    0.60
   0   0  -7   17.80    0.50
   0   0   7   17.50    0.60
   0   0   7   17.60    0.60
   0   0   7   16.80    0.50
   0   0   7   17.80    0.60
   0   0   7   17.40    0.90
   0   0   7   17.30    0.50
  -1   0  -7  133.89    3.40
  -1   0  -7  136.99    3.20
  -1   0  -7  138.69    3.30
  -1   0  -7  137.39    3.30
   1   0   7  137.19    3.30
   1   0   7  136.19    3.30
   1   0   7  141.39    3.30
   1   0   7  138.69    3.30
   1   0   7  141.39    3.30
   1   0   7  140.19    3.20
  -2   0  -7    0.00    0.10
  -2   0  -7   -0.10    0.10
  -2   0  -7    0.00    0.10
  -2   0  -7    0.10    0.10
   2   0   7    0.00    0.10
   2   0   7    0.00    0.10
   2   0   7    0.10    0.10
   2   0   7    0.00    0.10
   2   0   7    0.00    0.10
  -3   0  -7   22.00    0.60
  -3   0  -7   22.10    0.70
  -3   0  -7   21.00    0.70
  -3   0  -7   22.90    0.70
  -3   0  -7   21.10    0.80
  -3   0  -7   21.50    0.70
   3   0   7   22.00    0.70
   3   0   7   21.80    0.60
   3   0   7   21.60    0.70
  -4   0  -7   21.60    0.80
  -4   0  -7   23.30    0.80
  -4   0  -7   22.40    0.80
  -4   0  -7   21.40    0.70
   4   0   7   21.10    0.80
   4   0   7   21.80    0.80
   4   0   7   21.70    0.60
   4   0   7   21.50    0.80
  -5   0  -7    1.10    0.20
  -5   0  -7    0.70    0.20
  -5   0  -7    1.00    0.20
  -5   0  -7    0.60    0.30
  -5   0  -7    1.20    0.20
   5   0   7    0.70    0.20
   5   0   7    0.60    0.20
   5   0   7    0.60    0.20
   5   0   7    0.80    0.10
  -6   0  -7    0.00    0.10
  -6   0  -7    0.00    0.10
   6   0   7    0.00    0.10
   6   0   7   -0.10    0.10
   6   0   7    0.10    0.10
   6   0   7    0.00    0.10
  -7   0  -7   12.10    0.70
  -7   0  -7   13.10    0.70
   7   0   7   12.20    0.70
   7   0   7   12.60    0.60
   7   0   7   12.70    0.60
   7   0   7   13.10    0.50
  -7   1   7   22.60    0.80
  -7   1   7   21.50    0.70
  -7   1   7   21.60    1.00
  -7   1   7   21.50    0.70
  -6   1   7    0.10    0.10
  -6   1   7   -0.10    0.20
  -6   1   7    0.10    0.10
  -6   1   7    0.00    0.10
  -6   1   7    0.10    0.10
   5  -1  -7   11.60    0.40
   5  -1  -7   13.30    1.10
  -5   1   7   12.40    0.40
  -5   1   7   11.70    0.60
  -5   1   7   11.60    0.40
  -5   1   7   11.40    0.40
  -5   1   7   12.10    0.40
   4  -1  -7  109.89    3.60
   4  -1  -7  113.49    2.70
  -4   1   7  113.89    2.60
  -4   1   7  113.59    2.70
  -4   1   7  112.29    2.60
  -4   1   7  114.59    2.90
  -4   1   7  116.89    2.60
   3  -1  -7  114.69    2.70
   3  -1  -7  116.69    3.50
   3  -1  -7  111.19    2.70
  -3   1   7  114.19    2.60
  -3   1   7  109.69    2.60
   2  -1  -7    0.30    0.20
   2  -1  -7    0.20    0.10
   2  -1  -7    0.10    0.10
  -2   1   7    0.00    0.20
  -2   1   7    0.10    0.10
  -2   1   7    0.20    0.10
  -2   1   7    0.20    0.10
  -2   1   7    0.10    0.10
   1  -1  -7   25.30    0.70
   1  -1  -7   24.80    0.80
   1  -1  -7   24.30    0.60
  -1   1   7   23.70    0.70
  -1   1   7   25.60    0.80
  -1   1   7   25.50    1.10
  -1   1   7   24.80    0.70
  -1   1   7   25.00    0.70
  -1   1   7   23.90    0.60
   0  -1  -7   26.80    0.80
   0  -1  -7   26.10    0.80
   0  -1  -7   26.60    0.70
   0   1   7   26.70    0.70
   0   1   7   28.00    0.80
   0   1   7   25.50    0.80
   0   1   7   27.80    0.90
   0   1   7   26.00    1.10
   0   1   7   26.30    0.70
   0   1   7   26.90    0.70
  -1  -1  -7   11.40    0.40
  -1  -1  -7   11.60    0.40
  -1  -1  -7   11.50    0.40
  -1  -1  -7   12.30    0.50
   1   1   7   12.10    0.40
   1   1   7   11.80    0.30
   1   1   7   12.00    0.50
   1   1   7   12.00    0.40
   1   1   7   12.00    0.50
  -2  -1  -7    0.20    0.10
  -2  -1  -7    0.40    0.10
  -2  -1  -7    0.10    0.10
  -2  -1  -7    0.20    0.10
  -2  -1  -7    0.40    0.10
   2   1   7    0.20    0.10
   2   1   7    0.20    0.10
   2   1   7    0.10    0.10
   2   1   7    0.20    0.10
   2   1   7    0.10    0.10
  -3  -1  -7   14.00    0.50
  -3  -1  -7   14.40    0.50
  -3  -1  -7   14.30    0.50
  -3  -1  -7   15.20    0.60
  -3  -1  -7   14.10    0.40
  -3  -1  -7   15.00    0.60
   3   1   7   13.70    0.40
   3   1   7   14.20    0.50
   3   1   7   14.80    0.50
  -4  -1  -7   24.90    0.80
  -4  -1  -7   26.20    0.90
  -4  -1  -7   25.20    0.80
  -4  -1  -7   27.60    1.00
  -4  -1  -7   26.60    0.90
   4   1   7   26.90    0.80
   4   1   7   25.80    0.90
   4   1   7   26.60    0.80
   4   1   7   25.70    0.70
  -5  -1  -7    0.70    0.20
  -5  -1  -7    0.80    0.20
  -5  -1  -7    0.80    0.20
  -5  -1  -7    1.20    0.20
   5   1   7    0.80    0.10
   5   1   7    0.80    0.20
   5   1   7    0.50    0.20
   5   1   7    0.60    0.10
  -6  -1  -7    9.50    0.50
  -6  -1  -7    9.10    0.80
   6   1   7    9.10    0.50
   6   1   7    9.60    0.40
   6   1   7   10.50    0.50
   6   1   7    9.10    0.50
  -7  -1  -7   27.40    1.10
   7   1   7   28.50    1.10
   7   1   7   29.20    0.90
   7   1   7   29.00    1.00
   7   1   7   28.20    1.00
  -7   2   7    0.10    0.20
  -7   2   7    0.00    0.10
  -7   2   7    0.00    0.10
  -7   2   7   -0.10    0.10
   6  -2  -7   11.90    0.60
  -6   2   7   11.60    0.60
  -6   2   7   11.80    0.50
  -6   2   7   11.80    0.40
  -6   2   7   11.10    0.40
   5  -2  -7    0.40    0.30
   5  -2  -7    0.00    0.10
  -5   2   7    0.10    0.10
  -5   2   7    0.00    0.10
  -5   2   7    0.00    0.10
  -5   2   7    0.10    0.10
  -5   2   7    0.00    0.10
   4  -2  -7   57.49    2.20
   4  -2  -7   54.89    1.50
  -4   2   7   57.39    1.40
  -4   2   7   54.39    1.40
  -4   2   7   56.99    1.40
  -4   2   7   55.09    1.60
  -4   2   7   54.89    1.40
   3  -2  -7   54.29    1.50
   3  -2  -7   54.39    2.00
   3  -2  -7   58.49    1.40
  -3   2   7   57.39    1.40
  -3   2   7   55.49    1.40
  -3   2   7   56.29    1.40
   2  -2  -7    0.10    0.10
   2  -2  -7    0.00    0.10
   2  -2  -7    0.10    0.20
  -2   2   7    0.10    0.10
  -2   2   7    0.10    0.10
  -2   2   7    0.10    0.10
  -2   2   7    0.10    0.10
   1  -2  -7   64.19    1.60
   1  -2  -7   61.89    1.60
   1  -2  -7   63.49    1.50
  -1   2   7   60.99    1.60
  -1   2   7   59.19    1.50
  -1   2   7   63.89    2.00
  -1   2   7   65.59    1.70
  -1   2   7   61.89    1.50
  -1   2   7   63.29    1.60
   0  -2  -7   12.60    0.40
   0  -2  -7   13.00    0.50
   0  -2  -7   12.80    0.50
   0   2   7   12.30    0.40
   0   2   7   12.70    0.40
   0   2   7   12.80    0.50
   0   2   7   13.50    0.50
   0   2   7   12.80    0.40
   0   2   7   13.20    0.50
   0   2   7   12.50    0.70
  -1  -2  -7   18.70    0.50
  -1  -2  -7   19.40    0.60
  -1  -2  -7   19.30    0.60
  -1  -2  -7   19.30    0.70
   1   2   7   19.10    0.60
   1   2   7   18.80    0.70
   1   2   7   18.50    0.50
   1   2   7   19.20    0.60
   1   2   7   19.30    0.60
   1   2   7   20.90    0.60
  -2  -2  -7   43.10    1.20
  -2  -2  -7   41.00    1.10
  -2  -2  -7   45.10    1.20
  -2  -2  -7   46.20    1.20
   2   2   7   44.10    1.20
   2   2   7   43.00    1.10
   2   2   7   42.70    1.20
   2   2   7   43.50    1.20
   2   2   7   42.10    1.20
  -3  -2  -7   57.69    1.50
  -3  -2  -7   54.29    1.50
  -3  -2  -7   54.69    1.50
  -3  -2  -7   55.79    1.50
   3   2   7   53.89    1.40
   3   2   7   54.19    1.50
   3   2   7   56.69    1.50
  -4  -2  -7    1.00    0.20
  -4  -2  -7    1.30    0.20
  -4  -2  -7    1.20    0.20
  -4  -2  -7    1.40    0.20
   4   2   7    1.30    0.20
   4   2   7    1.20    0.10
   4   2   7    1.20    0.20
   4   2   7    1.20    0.20
  -5  -2  -7    3.50    0.20
  -5  -2  -7    3.00    0.30
  -5  -2  -7    3.30    0.30
   5   2   7    3.30    0.30
   5   2   7    3.20    0.30
   5   2   7    3.60    0.30
   5   2   7    3.40    0.20
  -6  -2  -7    2.30    0.30
  -6  -2  -7    2.00    0.30
   6   2   7    1.90    0.20
   6   2   7    2.00    0.30
   6   2   7    2.20    0.30
   6   2   7    2.40    0.30
  -7  -2  -7   35.40    1.20
   7   2   7   33.90    1.20
   7   2   7   34.40    1.00
   7   2   7   34.30    1.20
  -7   3   7   15.70    0.60
  -7   3   7   14.70    0.80
  -7   3   7   14.70    0.60
  -7   3   7   15.20    0.70
   6  -3  -7    1.00    0.20
   6  -3  -7    0.90    0.20
  -6   3   7    0.90    0.20
  -6   3   7    1.00    0.20
  -6   3   7    0.70    0.10
   5  -3  -7    6.80    0.80
   5  -3  -7    6.40    0.40
  -5   3   7    6.40    0.40
  -5   3   7    6.90    0.40
  -5   3   7    6.30    0.30
  -5   3   7    6.90    0.30
   4  -3  -7  679.03   16.40
   4  -3  -7  692.53   15.50
  -4   3   7  683.63   15.40
  -4   3   7  693.63   15.40
  -4   3   7  679.83   15.50
   3  -3  -7    5.00    0.60
   3  -3  -7    5.20    0.30
   3  -3  -7    5.80    0.30
  -3   3   7    5.30    0.30
  -3   3   7    5.30    0.30
  -3   3   7    6.10    0.30
  -3   3   7    5.80    0.30
   2  -3  -7    0.10    0.10
   2  -3  -7    0.30    0.20
   2  -3  -7    0.00    0.10
  -2   3   7    0.00    0.10
  -2   3   7    0.20    0.10
  -2   3   7    0.10    0.10
  -2   3   7    0.10    0.10
  -2   3   7    0.00    0.10
   1  -3  -7    9.20    0.60
   1  -3  -7    8.60    0.30
   1  -3  -7    8.70    0.40
   1  -3  -7    9.00    0.40
  -1   3   7    9.80    0.50
  -1   3   7    8.10    0.50
  -1   3   7    8.30    0.40
  -1   3   7    9.10    0.30
  -1   3   7    8.50    0.40
   0  -3  -7  146.39    3.40
   0  -3  -7  139.69    3.20
   0  -3  -7  140.49    3.40
   0   3   7  145.39    3.20
   0   3   7  141.89    3.30
   0   3   7  141.39    3.40
   0   3   7  128.19    3.60
   0   3   7  147.39    3.40
   0   3   7  143.59    3.30
   0   3   7  138.99    3.30
   0   3   7  142.69    3.50
  -1  -3  -7    6.50    0.30
  -1  -3  -7    6.70    0.30
  -1  -3  -7    6.80    0.20
  -1  -3  -7    6.40    0.30
   1   3   7    6.30    0.20
   1   3   7    6.50    0.30
   1   3   7    6.60    0.30
   1   3   7    6.60    0.40
   1   3   7    6.30    0.30
  -2  -3  -7    3.00    0.10
  -2  -3  -7    3.10    0.20
  -2  -3  -7    3.40    0.20
  -2  -3  -7    2.90    0.20
  -2  -3  -7    3.10    0.20
   2   3   7    2.80    0.30
   2   3   7    3.80    0.20
   2   3   7    3.20    0.20
   2   3   7    2.70    0.20
   2   3   7    2.90    0.20
  -3  -3  -7  160.78    3.80
  -3  -3  -7  154.28    3.70
  -3  -3  -7  159.28    3.80
  -3  -3  -7  155.18    3.80
  -3  -3  -7  156.38    3.70
   3   3   7  154.38    3.70
   3   3   7  160.88    3.70
   3   3   7  157.88    3.60
   3   3   7  150.08    3.80
  -4  -3  -7    6.30    0.30
  -4  -3  -7    6.10    0.30
  -4  -3  -7    6.80    0.40
  -4  -3  -7    6.40    0.30
  -4  -3  -7    6.20    0.30
   4   3   7    6.10    0.30
   4   3   7    5.60    0.40
   4   3   7    5.90    0.30
   4   3   7    6.10    0.30
  -5  -3  -7    0.80    0.10
  -5  -3  -7    0.40    0.10
  -5  -3  -7    0.50    0.20
  -5  -3  -7    0.50    0.10
   5   3   7    0.70    0.20
   5   3   7    0.40    0.10
   5   3   7    0.40    0.10
   5   3   7    0.50    0.10
  -6  -3  -7    0.30    0.10
  -6  -3  -7    0.20    0.10
   6   3   7    0.00    0.10
   6   3   7    0.30    0.10
   6   3   7    0.30    0.10
   6   3   7    0.20    0.10
  -7  -3  -7    0.90    0.20
  -7  -3  -7    1.10    0.20
   7   3   7    1.00    0.20
   7   3   7    0.70    0.20
   7  -4  -7    1.20    0.20
  -7   4   7    1.40    0.20
  -7   4   7    1.30    0.30
  -7   4   7    1.60    0.30
  -7   4   7    1.40    0.20
   6  -4  -7    0.20    0.10
  -6   4   7    0.10    0.10
  -6   4   7    0.30    0.10
  -6   4   7    0.10    0.10
  -6   4   7    0.00    0.20
   5  -4  -7    1.30    0.40
   5  -4  -7    0.50    0.20
  -5   4   7    1.10    0.20
  -5   4   7    1.10    0.20
  -5   4   7    1.20    0.20
   4  -4  -7    5.10    0.30
   4  -4  -7    5.40    0.70
   4  -4  -7    5.80    0.40
  -4   4   7    5.40    0.30
  -4   4   7    5.50    0.30
  -4   4   7    5.20    0.30
   3  -4  -7   29.40    0.90
   3  -4  -7   29.60    0.90
   3  -4  -7   29.90    1.30
  -3   4   7   30.20    0.80
  -3   4   7   29.10    0.90
  -3   4   7   30.20    0.90
  -3   4   7   30.60    0.90
   2  -4  -7   40.30    1.20
   2  -4  -7   40.40    1.20
   2  -4  -7   41.30    1.00
   2  -4  -7   40.20    1.50
  -2   4   7   39.60    1.00
  -2   4   7   43.00    1.20
  -2   4   7   42.50    1.20
  -2   4   7   42.00    1.10
  -2   4   7   39.90    1.10
   1  -4  -7    1.50    0.20
   1  -4  -7    1.60    0.10
   1  -4  -7    1.60    0.30
   1  -4  -7    1.50    0.20
  -1   4   7    1.40    0.20
  -1   4   7    1.90    0.20
  -1   4   7    1.70    0.20
  -1   4   7    1.70    0.20
   0  -4  -7   43.80    1.10
   0  -4  -7   43.70    1.20
   0   4   7   43.80    1.20
   0   4   7   46.30    1.20
   0   4   7   44.60    1.20
   0   4   7   43.60    1.30
   0   4   7   43.40    1.20
   0   4   7   44.00    1.00
   0   4   7   43.70    1.20
   0   4   7   42.60    1.30
  -1  -4  -7  103.09    2.50
  -1  -4  -7  103.59    2.60
  -1  -4  -7  106.89    2.50
  -1  -4  -7  102.09    2.40
   1   4   7  100.29    2.50
   1   4   7  100.39    2.60
   1   4   7  104.79    2.50
   1   4   7  101.89    2.40
   1   4   7  101.19    2.50
  -2  -4  -7    5.50    0.20
  -2  -4  -7    5.70    0.30
  -2  -4  -7    5.90    0.30
  -2  -4  -7    4.90    0.30
  -2  -4  -7    5.20    0.30
  -2  -4  -7    4.80    0.30
   2   4   7    5.40    0.30
   2   4   7    5.40    0.30
   2   4   7    5.10    0.20
  -3  -4  -7    9.40    0.40
  -3  -4  -7    9.80    0.40
  -3  -4  -7    9.40    0.40
  -3  -4  -7    9.60    0.40
  -3  -4  -7    9.30    0.40
   3   4   7    9.80    0.50
   3   4   7    9.10    0.40
   3   4   7    9.80    0.30
  -4  -4  -7    1.90    0.20
  -4  -4  -7    2.00    0.20
  -4  -4  -7    2.10    0.20
  -4  -4  -7    2.20    0.20
  -4  -4  -7    2.30    0.20
   4   4   7    2.00    0.20
   4   4   7    1.80    0.20
   4   4   7    2.10    0.20
   4   4   7    1.90    0.20
  -5  -4  -7   10.90    0.50
  -5  -4  -7    9.90    0.40
  -5  -4  -7    9.90    0.30
  -5  -4  -7   11.00    0.50
   5   4   7   10.20    0.50
   5   4   7    9.90    0.50
   5   4   7   10.50    0.50
   5   4   7   10.60    0.40
  -6  -4  -7    0.80    0.20
  -6  -4  -7    1.10    0.20
   6   4   7    0.70    0.20
   6   4   7    1.00    0.20
   6   4   7    1.30    0.20
   6   4   7    1.00    0.20
  -7  -4  -7    0.30    0.20
  -7  -4  -7    0.30    0.20
   7   4   7    0.20    0.10
   7   4   7   -0.10    0.10
   6  -5  -7   25.10    0.90
  -6   5   7   25.80    0.90
  -6   5   7   22.30    0.90
  -6   5   7   24.90    1.00
  -6   5   7   24.60    0.90
   5  -5  -7    0.60    0.20
   5  -5  -7    0.20    0.30
   5  -5  -7    0.60    0.20
  -5   5   7    0.70    0.20
  -5   5   7    0.80    0.20
  -5   5   7    0.60    0.20
   4  -5  -7   27.50    0.90
   4  -5  -7   28.70    1.40
   4  -5  -7   27.80    0.90
  -4   5   7   28.80    0.90
  -4   5   7   28.10    0.90
  -4   5   7   27.20    0.90
   3  -5  -7    2.10    0.40
   3  -5  -7    2.00    0.20
   3  -5  -7    1.80    0.20
   3  -5  -7    1.80    0.10
  -3   5   7    1.80    0.20
  -3   5   7    2.10    0.20
  -3   5   7    1.90    0.20
   2  -5  -7   12.50    0.50
   2  -5  -7   12.90    0.70
   2  -5  -7   12.40    0.50
   2  -5  -7   12.50    0.40
  -2   5   7   12.00    0.50
  -2   5   7   11.50    0.50
  -2   5   7   13.30    0.50
  -2   5   7   12.30    0.40
  -2   5   7   12.40    0.50
   1  -5  -7  132.59    3.20
   1  -5  -7  130.09    3.00
   1  -5  -7  121.69    3.30
   1  -5  -7  124.49    3.20
  -1   5   7  132.59    3.10
  -1   5   7  130.79    3.20
  -1   5   7  132.99    3.10
  -1   5   7  132.59    3.30
  -1   5   7  129.69    3.10
  -1   5   7  128.89    3.10
   0  -5  -7   12.00    0.50
   0  -5  -7   11.60    0.50
   0  -5  -7   12.20    0.40
   0   5   7   12.80    0.60
   0   5   7   12.10    0.40
   0   5   7   13.10    0.40
   0   5   7   12.50    0.50
   0   5   7   11.60    0.50
   0   5   7   12.60    0.50
   0   5   7   12.40    0.40
  -1  -5  -7   14.80    0.60
  -1  -5  -7   14.90    0.60
  -1  -5  -7   14.80    0.40
  -1  -5  -7   15.10    0.50
   1   5   7   15.20    0.50
   1   5   7   15.30    0.40
   1   5   7   15.20    0.70
   1   5   7   14.60    0.50
   1   5   7   15.10    0.60
  -2  -5  -7    0.10    0.10
  -2  -5  -7    0.00    0.10
  -2  -5  -7    0.10    0.10
  -2  -5  -7    0.10    0.10
  -2  -5  -7    0.10    0.10
  -2  -5  -7    0.20    0.10
   2   5   7   -0.10    0.10
   2   5   7    0.00    0.10
   2   5   7    0.00    0.10
   2   5   7    0.10    0.10
  -3  -5  -7    4.20    0.30
  -3  -5  -7    3.80    0.20
  -3  -5  -7    4.10    0.30
  -3  -5  -7    4.10    0.30
  -3  -5  -7    4.30    0.30
   3   5   7    3.90    0.30
   3   5   7    3.80    0.20
   3   5   7    3.80    0.20
  -4  -5  -7    0.10    0.10
  -4  -5  -7    0.00    0.10
  -4  -5  -7    0.00    0.10
  -4  -5  -7    0.00    0.10
  -4  -5  -7    0.10    0.10
   4   5   7   -0.20    0.10
   4   5   7    0.10    0.10
   4   5   7    0.10    0.10
   4   5   7    0.10    0.10
  -5  -5  -7    1.10    0.20
  -5  -5  -7    0.90    0.20
  -5  -5  -7    1.00    0.20
   5   5   7    1.00    0.10
   5   5   7    0.80    0.20
   5   5   7    1.30    0.20
   5   5   7    0.70    0.20
  -6  -5  -7   28.70    1.00
  -6  -5  -7   29.90    1.00
   6   5   7   29.40    0.90
   6   5   7   28.40    1.00
   6   5   7   29.10    1.00
  -7  -5  -7    2.90    0.30
  -7  -5  -7    2.20    0.30
   7   5   7    2.20    0.30
   7   5   7    2.20    0.30
   6  -6  -7    0.20    0.20
  -6   6   7    0.40    0.20
  -6   6   7    0.70    0.20
  -6   6   7    0.30    0.20
  -6   6   7    0.20    0.20
   5  -6  -7    5.10    0.40
   5  -6  -7    4.40    0.70
  -5   6   7    5.70    0.40
  -5   6   7    6.10    0.40
  -5   6   7    5.00    0.40
   4  -6  -7    0.00    0.10
   4  -6  -7    0.00    0.10
   4  -6  -7    0.30    0.30
   4  -6  -7    0.30    0.10
  -4   6   7    0.10    0.10
  -4   6   7    0.20    0.10
  -4   6   7    0.10    0.10
   3  -6  -7   12.70    0.60
   3  -6  -7   12.90    0.40
   3  -6  -7   12.20    0.60
   3  -6  -7   13.40    0.80
  -3   6   7   13.00    0.60
  -3   6   7   13.40    0.40
  -3   6   7   13.40    0.50
  -3   6   7   13.50    0.50
   2  -6  -7    9.70    0.50
   2  -6  -7   10.50    0.60
   2  -6  -7    9.70    0.30
   2  -6  -7    9.30    0.50
  -2   6   7   10.20    0.40
  -2   6   7   10.40    0.50
  -2   6   7   10.30    0.50
  -2   6   7   11.20    0.40
  -2   6   7    9.30    0.40
   1  -6  -7  212.78    5.20
   1  -6  -7  223.28    5.10
   1  -6  -7  212.08    5.10
   1  -6  -7  215.98    4.90
  -1   6   7  210.78    5.10
  -1   6   7  221.58    5.10
  -1   6   7  214.58    5.30
  -1   6   7  220.58    5.00
  -1   6   7  215.58    5.00
  -1   6   7  218.68    5.10
   0  -6  -7    0.30    0.10
   0  -6  -7    0.20    0.10
   0  -6  -7    0.30    0.10
   0  -6  -7    0.20    0.10
   0   6   7    0.40    0.10
   0   6   7    0.30    0.10
   0   6   7    0.10    0.10
   0   6   7    0.10    0.10
   0   6   7    0.30    0.10
  -1  -6  -7    6.90    0.40
  -1  -6  -7    6.50    0.40
  -1  -6  -7    6.40    0.20
  -1  -6  -7    6.80    0.30
   1   6   7    6.20    0.30
   1   6   7    8.30    0.30
   1   6   7    7.00    0.30
   1   6   7    6.40    0.50
   1   6   7    6.30    0.30
   1   6   7    6.80    0.40
  -2  -6  -7   48.70    1.10
  -2  -6  -7   47.60    1.40
  -2  -6  -7   48.50    1.30
  -2  -6  -7   52.59    1.40
  -2  -6  -7   47.90    1.30
  -2  -6  -7   50.09    1.40
   2   6   7   49.99    1.40
   2   6   7   48.90    1.30
   2   6   7   49.40    1.20
  -3  -6  -7   44.60    1.20
  -3  -6  -7   46.00    1.30
  -3  -6  -7   43.90    1.20
  -3  -6  -7   45.80    1.20
   3   6   7   43.30    1.40
   3   6   7   43.10    1.20
   3   6   7   44.90    1.10
  -4  -6  -7    7.70    0.40
  -4  -6  -7    7.30    0.30
  -4  -6  -7    7.60    0.40
  -4  -6  -7    7.50    0.40
   4   6   7    7.10    0.40
   4   6   7    7.60    0.40
   4   6   7    7.70    0.50
   4   6   7    7.50    0.30
  -5  -6  -7   62.19    1.60
  -5  -6  -7   58.49    1.70
  -5  -6  -7   59.79    1.60
   5   6   7   60.09    1.60
   5   6   7   58.59    1.80
   5   6   7   63.59    1.60
   5   6   7   60.49    1.50
  -6  -6  -7    0.30    0.20
  -6  -6  -7    0.30    0.20
  -6  -6  -7    0.40    0.20
   6   6   7    0.40    0.20
   6   6   7    0.10    0.10
   6   6   7    0.40    0.10
  -7  -6  -7    7.00    0.50
  -7  -6  -7    6.00    0.40
   7   6   7    6.20    0.50
   7   6   7    7.40    0.40
   6  -7  -7   13.00    0.70
  -6   7   7   13.20    0.60
  -6   7   7   14.10    0.70
  -6   7   7   13.50    0.70
   5  -7  -7    0.40    0.20
   5  -7  -7    0.60    0.40
  -5   7   7    0.50    0.20
  -5   7   7    0.40    0.20
   4  -7  -7    9.30    0.40
   4  -7  -7    9.00    0.50
   4  -7  -7    8.50    0.80
   4  -7  -7    9.20    0.50
  -4   7   7    9.40    0.50
  -4   7   7    8.20    0.50
  -4   7   7    9.10    0.50
   3  -7  -7    1.00    0.20
   3  -7  -7    0.80    0.20
   3  -7  -7    0.70    0.20
   3  -7  -7    0.60    0.30
   3  -7  -7    0.80    0.10
  -3   7   7    0.80    0.20
  -3   7   7    0.40    0.10
  -3   7   7    0.70    0.20
  -3   7   7    0.50    0.10
  -3   7   7    0.60    0.10
   2  -7  -7    5.90    0.30
   2  -7  -7    5.90    0.40
   2  -7  -7    6.20    0.40
   2  -7  -7    5.70    0.50
  -2   7   7    6.60    0.40
  -2   7   7    6.10    0.30
  -2   7   7    6.30    0.40
  -2   7   7    6.60    0.50
   1  -7  -7   21.00    0.80
   1  -7  -7   20.20    0.60
   1  -7  -7   19.70    0.70
  -1   7   7   19.40    0.70
  -1   7   7   20.80    0.90
  -1   7   7   20.80    0.70
  -1   7   7   20.40    0.80
  -1   7   7   20.60    0.70
   0  -7  -7    7.30    0.30
   0  -7  -7    8.00    0.40
   0  -7  -7    8.10    0.40
   0  -7  -7    7.50    0.30
   0   7   7    7.70    0.40
   0   7   7    7.90    0.40
   0   7   7    8.20    0.50
   0   7   7    8.40    0.30
   0   7   7    8.60    0.40
  -1  -7  -7   41.90    1.00
  -1  -7  -7   43.30    1.20
  -1  -7  -7   41.60    1.20
  -1  -7  -7   41.50    1.20
   1   7   7   42.90    1.20
   1   7   7   42.50    1.10
   1   7   7   41.60    1.40
   1   7   7   41.90    1.20
   1   7   7   41.70    1.20
  -2  -7  -7   23.30    0.80
  -2  -7  -7   24.30    0.80
  -2  -7  -7   23.40    0.70
  -2  -7  -7   24.30    0.80
  -2  -7  -7   23.90    0.80
   2   7   7   23.70    0.80
   2   7   7   23.30    0.80
   2   7   7   23.70    0.70
  -3  -7  -7   17.60    0.60
  -3  -7  -7   17.10    0.60
  -3  -7  -7   16.40    0.60
  -3  -7  -7   17.10    0.60
   3   7   7   17.30    0.80
   3   7   7   17.70    0.60
   3   7   7   17.20    0.50
  -4  -7  -7    3.30    0.30
  -4  -7  -7    3.50    0.30
  -4  -7  -7    3.40    0.30
  -4  -7  -7    3.30    0.20
   4   7   7    3.70    0.30
   4   7   7    3.40    0.30
   4   7   7    3.40    0.20
   4   7   7    3.50    0.40
  -5  -7  -7    2.70    0.30
  -5  -7  -7    2.20    0.30
  -5  -7  -7    2.30    0.30
   5   7   7    2.40    0.20
   5   7   7    2.10    0.20
   5   7   7    2.30    0.30
   5   7   7    2.50    0.30
  -6  -7  -7    0.10    0.10
  -6  -7  -7    0.30    0.10
   6   7   7    0.30    0.20
   6   7   7    0.20    0.10
  -7  -7  -7   10.90    0.50
  -7  -7  -7   11.50    0.60
   7   7   7   10.80    0.50
   7   7   7   10.80    0.60
   6  -8  -7    3.90    0.40
  -6   8   7    2.70    0.40
   5  -8  -7    5.80    0.80
   5  -8  -7    5.00    0.30
   5  -8  -7    5.70    0.50
   5  -8  -7    5.80    0.50
  -5   8   7    5.00    0.50
  -5   8   7    5.80    0.40
   4  -8  -7   13.70    1.00
   4  -8  -7   14.20    0.70
   4  -8  -7   14.40    0.70
   4  -8  -7   13.50    0.50
  -4   8   7   14.30    0.70
  -4   8   7   13.70    0.60
   3  -8  -7    0.80    0.30
   3  -8  -7    0.90    0.20
   3  -8  -7    0.90    0.20
   3  -8  -7    0.90    0.10
  -3   8   7    0.80    0.20
  -3   8   7    1.20    0.30
  -3   8   7    0.80    0.10
  -3   8   7    0.80    0.20
   2  -8  -7    0.40    0.20
   2  -8  -7    0.10    0.20
   2  -8  -7    0.20    0.10
   2  -8  -7    0.50    0.20
   2  -8  -7    0.20    0.10
  -2   8   7    0.50    0.20
  -2   8   7    0.40    0.20
  -2   8   7    0.30    0.10
  -2   8   7    0.30    0.10
   1  -8  -7   79.59    2.00
   1  -8  -7   76.19    2.10
   1  -8  -7   74.39    1.90
  -1   8   7   78.19    2.00
  -1   8   7   79.29    2.00
  -1   8   7   78.29    2.10
  -1   8   7   75.89    1.80
  -1   8   7   78.49    2.30
  -1   8   7   77.09    2.00
   0  -8  -7    6.30    0.40
   0  -8  -7    5.80    0.20
   0  -8  -7    5.70    0.40
   0  -8  -7    6.20    0.30
   0   8   7    6.10    0.40
   0   8   7    6.00    0.20
   0   8   7    6.10    0.40
   0   8   7    5.50    0.50
  -1  -8  -7   55.89    1.50
  -1  -8  -7   55.79    1.30
  -1  -8  -7   53.59    1.50
  -1  -8  -7   54.99    1.60
   1   8   7   55.09    1.60
   1   8   7   56.99    1.80
   1   8   7   56.89    1.40
   1   8   7   53.99    1.50
   1   8   7   57.59    1.50
  -2  -8  -7    0.40    0.10
  -2  -8  -7    0.10    0.10
  -2  -8  -7    0.10    0.10
  -2  -8  -7    0.20    0.10
  -2  -8  -7    0.40    0.20
  -2  -8  -7    0.40    0.10
   2   8   7    0.40    0.10
   2   8   7    0.20    0.10
   2   8   7    0.10    0.10
   2   8   7    0.60    0.10
  -3  -8  -7    0.20    0.10
  -3  -8  -7    0.20    0.10
  -3  -8  -7    0.20    0.10
  -3  -8  -7    0.30    0.10
  -3  -8  -7    0.20    0.10
  -3  -8  -7    0.10    0.10
   3   8   7    0.40    0.10
   3   8   7    0.00    0.10
   3   8   7    0.20    0.10
   3   8   7    0.10    0.10
  -4  -8  -7    3.00    0.30
  -4  -8  -7    2.80    0.20
  -4  -8  -7    2.80    0.20
  -4  -8  -7    2.80    0.20
   4   8   7    3.10    0.30
   4   8   7    2.60    0.20
   4   8   7    2.30    0.30
   4   8   7    2.70    0.30
  -5  -8  -7   42.80    1.20
  -5  -8  -7   42.50    1.30
  -5  -8  -7   40.50    1.20
   5   8   7   40.50    1.10
   5   8   7   42.90    1.20
   5   8   7   41.80    1.20
   5   8   7   40.30    1.40
  -6  -8  -7   19.00    0.70
  -6  -8  -7   20.60    0.80
   6   8   7   19.10    0.70
   6   8   7   18.40    0.90
  -7  -8  -7    0.60    0.20
  -7  -8  -7    0.50    0.20
   7   8   7    0.60    0.20
   7   8   7    0.60    0.20
   5  -9  -7   12.90    0.70
   5  -9  -7   13.00    0.70
   5  -9  -7   12.20    0.50
  -5   9   7   12.70    0.70
   4  -9  -7   10.00    0.40
   4  -9  -7    9.20    0.60
   4  -9  -7    9.10    0.60
  -4   9   7    9.40    0.60
  -4   9   7    9.30    0.40
   3  -9  -7    1.20    0.30
   3  -9  -7    1.10    0.30
   3  -9  -7    1.30    0.30
   3  -9  -7    1.00    0.20
  -3   9   7    2.00    0.30
  -3   9   7    1.40    0.20
  -3   9   7    1.60    0.30
   2  -9  -7    0.50    0.10
   2  -9  -7    0.20    0.20
   2  -9  -7    0.10    0.10
   2  -9  -7    0.10    0.10
  -2   9   7    0.60    0.20
  -2   9   7    0.20    0.10
  -2   9   7    0.50    0.20
   1  -9  -7  122.29    3.20
   1  -9  -7  125.49    3.00
   1  -9  -7  124.89    2.90
   1  -9  -7  126.59    3.20
  -1   9   7  126.79    2.90
  -1   9   7  119.19    3.10
  -1   9   7  131.59    3.50
  -1   9   7  125.09    3.20
   0  -9  -7  133.59    3.40
   0  -9  -7  133.89    3.40
   0  -9  -7  128.79    3.30
   0  -9  -7  131.19    3.10
   0   9   7  136.39    3.70
   0   9   7  137.29    3.40
   0   9   7  134.49    3.10
   0   9   7  133.99    3.30
   0   9   7  136.19    3.40
  -1  -9  -7   -0.10    0.10
  -1  -9  -7    0.00    0.10
  -1  -9  -7    0.00    0.10
  -1  -9  -7    0.00    0.10
  -1  -9  -7   -0.10    0.10
   1   9   7   -0.10    0.10
   1   9   7    0.10    0.10
   1   9   7    0.10    0.10
   1   9   7   -0.40    0.10
  -2  -9  -7    7.40    0.40
  -2  -9  -7    7.40    0.40
  -2  -9  -7    7.70    0.40
  -2  -9  -7    7.40    0.40
   2   9   7    7.10    0.40
   2   9   7    7.50    0.60
   2   9   7    7.80    0.40
   2   9   7    7.60    0.30
  -3  -9  -7    1.20    0.20
  -3  -9  -7    1.00    0.20
  -3  -9  -7    1.30    0.20
  -3  -9  -7    1.30    0.20
   3   9   7    1.10    0.20
   3   9   7    1.30    0.20
   3   9   7    0.90    0.30
   3   9   7    1.20    0.20
   3   9   7    1.40    0.20
  -4  -9  -7    4.30    0.30
  -4  -9  -7    5.30    0.40
  -4  -9  -7    4.40    0.20
   4   9   7    4.30    0.20
   4   9   7    4.20    0.30
   4   9   7    4.10    0.50
   4   9   7    5.40    0.50
   4   9   7    4.50    0.30
  -5  -9  -7   12.20    0.60
  -5  -9  -7   11.80    0.50
   5   9   7   11.40    0.70
   5   9   7   10.60    0.40
   5   9   7   11.60    0.50
   5   9   7   12.10    0.50
  -6  -9  -7    5.00    0.40
  -6  -9  -7    4.40    0.40
   6   9   7    4.20    0.30
   6   9   7    4.50    0.50
  -7  -9  -7   84.99    2.30
  -7  -9  -7   88.79    2.40
   7   9   7   83.29    2.50
   7   9   7   82.49    2.30
   5 -10  -7    0.00    0.10
   5 -10  -7   -0.10    0.20
   5 -10  -7    0.30    0.20
  -5  10   7   -0.30    0.20
   4 -10  -7   24.10    0.80
   4 -10  -7   24.90    1.00
   4 -10  -7   24.70    1.00
  -4  10   7   25.20    1.10
  -4  10   7   24.60    0.80
   3 -10  -7    1.80    0.30
   3 -10  -7    2.20    0.30
   3 -10  -7    2.30    0.20
  -3  10   7    2.90    0.40
  -3  10   7    3.20    0.40
  -3  10   7    2.50    0.30
   2 -10  -7    0.80    0.20
   2 -10  -7    0.90    0.10
   2 -10  -7    0.90    0.20
  -2  10   7    0.80    0.20
  -2  10   7    0.60    0.30
  -2  10   7    1.00    0.30
   1 -10  -7   48.10    1.50
   1 -10  -7   46.50    1.40
   1 -10  -7   46.10    1.20
  -1  10   7   48.40    1.70
  -1  10   7   45.40    1.50
  -1  10   7   47.00    1.40
  -1  10   7   47.30    1.10
   0 -10  -7   85.99    2.20
   0 -10  -7   85.69    2.30
   0 -10  -7   86.29    2.30
   0 -10  -7   87.09    2.10
   0  10   7   86.09    2.30
   0  10   7   82.79    2.30
   0  10   7   86.69    2.60
   0  10   7   86.29    2.10
  -1 -10  -7  102.39    2.30
  -1 -10  -7  101.99    2.60
  -1 -10  -7   98.79    2.60
  -1 -10  -7  102.59    2.60
   1  10   7  102.29    3.00
   1  10   7   99.19    2.60
   1  10   7   99.69    2.40
   1  10   7  104.49    2.70
  -2 -10  -7    7.70    0.40
  -2 -10  -7    6.90    0.40
  -2 -10  -7    7.40    0.40
   2  10   7    7.50    0.40
   2  10   7    7.50    0.60
   2  10   7    7.40    0.30
   2  10   7    7.10    0.40
  -3 -10  -7    0.90    0.20
  -3 -10  -7    1.40    0.20
  -3 -10  -7    1.10    0.20
  -3 -10  -7    1.00    0.20
   3  10   7    1.00    0.20
   3  10   7    1.00    0.20
   3  10   7    1.20    0.20
   3  10   7    0.90    0.30
  -4 -10  -7   29.00    1.00
  -4 -10  -7   28.80    0.80
  -4 -10  -7   28.40    1.00
   4  10   7   31.00    1.00
   4  10   7   28.90    0.80
   4  10   7   29.30    1.20
   4  10   7   31.30    1.00
  -5 -10  -7    6.90    0.40
  -5 -10  -7    7.40    0.50
   5  10   7    6.20    0.40
   5  10   7    6.20    0.30
   5  10   7    5.40    0.60
   5  10   7    6.40    0.40
  -6 -10  -7    1.10    0.20
  -6 -10  -7    0.70    0.20
   6  10   7    0.70    0.30
   6  10   7    1.30    0.20
   5 -11  -7    0.70    0.30
   5 -11  -7    0.20    0.20
   5 -11  -7    0.20    0.10
  -5  11   7    0.30    0.30
   4 -11  -7    3.30    0.40
   4 -11  -7    3.80    0.50
   4 -11  -7    3.40    0.30
  -4  11   7    3.10    0.30
  -4  11   7    3.10    0.40
   3 -11  -7    8.00    0.60
   3 -11  -7    8.30    0.40
   3 -11  -7    8.00    0.50
  -3  11   7    7.70    0.40
  -3  11   7    7.90    0.60
  -3  11   7    7.80    0.70
   2 -11  -7   16.90    0.80
   2 -11  -7   14.80    0.70
   2 -11  -7   15.90    0.50
  -2  11   7   16.70    0.70
  -2  11   7   14.80    0.80
  -2  11   7   16.40    0.90
   1 -11  -7   52.69    1.60
   1 -11  -7   52.59    1.60
  -1  11   7   53.19    1.60
  -1  11   7   55.19    1.30
  -1  11   7   55.09    1.90
   0 -11  -7    2.80    0.30
   0 -11  -7    2.90    0.20
   0 -11  -7    3.00    0.40
   0  11   7    2.70    0.30
   0  11   7    2.20    0.30
   0  11   7    2.30    0.20
   0  11   7    2.00    0.40
  -1 -11  -7   48.60    1.50
  -1 -11  -7   50.79    1.20
  -1 -11  -7   49.30    1.50
  -1 -11  -7   49.50    1.40
   1  11   7   48.90    1.80
   1  11   7   50.39    1.30
   1  11   7   51.99    1.50
   1  11   7   51.49    1.60
  -2 -11  -7   27.50    0.90
  -2 -11  -7   26.60    0.90
  -2 -11  -7   26.50    0.90
   2  11   7   27.40    1.00
   2  11   7   27.00    0.80
   2  11   7   28.00    0.90
   2  11   7   26.70    1.20
  -3 -11  -7   17.00    0.70
  -3 -11  -7   18.00    0.60
  -3 -11  -7   18.30    0.70
   3  11   7   17.40    0.60
   3  11   7   17.80    0.80
   3  11   7   17.10    0.70
   3  11   7   18.20    1.00
  -4 -11  -7    5.60    0.40
  -4 -11  -7    4.20    0.30
   4  11   7    5.00    0.40
   4  11   7    4.50    0.60
   4  11   7    4.90    0.40
   4  11   7    4.80    0.30
  -5 -11  -7    9.00    0.50
  -5 -11  -7    9.90    0.60
   5  11   7    9.90    0.70
   5  11   7    9.80    0.50
   5  11   7    8.90    0.40
   5  11   7    8.90    0.50
  -6 -11  -7    5.90    0.40
  -6 -11  -7    7.80    0.50
   6  11   7    5.90    0.40
   6  11   7    7.30    0.60
   4 -12  -7    0.20    0.20
   4 -12  -7    0.00    0.10
   4 -12  -7    0.00    0.20
  -4  12   7   -0.10    0.20
  -4  12   7   -0.10    0.10
   3 -12  -7    2.10    0.30
   3 -12  -7    2.70    0.40
   3 -12  -7    2.20    0.20
  -3  12   7    2.80    0.50
  -3  12   7    2.10    0.30
   2 -12  -7   23.80    0.70
   2 -12  -7   23.80    1.00
   2 -12  -7   22.40    1.00
  -2  12   7   22.60    0.90
  -2  12   7   24.70    1.20
   1 -12  -7   68.39    2.00
   1 -12  -7   70.29    1.70
   1 -12  -7   69.29    2.00
  -1  12   7   69.49    2.00
  -1  12   7   72.39    1.70
  -1  12   7   66.59    2.30
   0 -12  -7    4.90    0.40
   0 -12  -7    4.50    0.20
   0 -12  -7    4.60    0.40
   0  12   7    4.00    0.40
   0  12   7    4.40    0.40
   0  12   7    3.70    0.60
   0  12   7    4.70    0.30
  -1 -12  -7    0.60    0.20
  -1 -12  -7    0.80    0.20
  -1 -12  -7    0.70    0.20
   1  12   7    1.10    0.30
   1  12   7    0.70    0.20
   1  12   7    0.80    0.10
   1  12   7    1.00    0.20
  -2 -12  -7    0.60    0.20
  -2 -12  -7    0.50    0.20
  -2 -12  -7    0.50    0.20
   2  12   7    0.40    0.10
   2  12   7    0.60    0.20
   2  12   7    0.50    0.20
   2  12   7    0.60    0.30
  -3 -12  -7    3.60    0.30
  -3 -12  -7    3.30    0.30
   3  12   7    3.60    0.30
   3  12   7    4.00    0.30
   3  12   7    3.80    0.60
   3  12   7    3.40    0.40
  -4 -12  -7   -0.10    0.10
   4  12   7    0.00    0.10
   4  12   7    0.00    0.10
   4  12   7    0.00    0.10
   4  12   7   -0.10    0.20
  -5 -12  -7    0.10    0.10
   5  12   7    1.00    0.20
   5  12   7    0.80    0.20
   5  12   7    0.80    0.20
   5  12   7    0.90    0.30
  -6 -12  -7    2.40    0.30
   6  12   7    2.30    0.50
   6  12   7    2.60    0.30
   3 -13  -7    1.20    0.20
   3 -13  -7    1.10    0.30
   3 -13  -7    0.90    0.30
  -3  13   7    1.90    0.50
  -3  13   7    1.50    0.30
   2 -13  -7   16.70    0.80
   2 -13  -7   16.70    0.60
   2 -13  -7   15.70    0.80
  -2  13   7   16.00    0.70
  -2  13   7   17.00    1.00
   1 -13  -7   12.20    0.70
   1 -13  -7   11.70    0.70
   1 -13  -7   12.10    0.40
  -1  13   7   12.90    0.60
  -1  13   7   12.30    0.40
  -1  13   7   12.40    0.90
   0 -13  -7    1.60    0.30
   0 -13  -7    1.90    0.30
   0 -13  -7    2.10    0.20
   0  13   7    1.90    0.20
   0  13   7    1.50    0.40
   0  13   7    1.90    0.30
   0  13   7    2.20    0.40
  -1 -13  -7    6.30    0.40
  -1 -13  -7    7.90    0.50
   1  13   7    6.10    0.70
   1  13   7    7.50    0.50
   1  13   7    6.90    0.40
   1  13   7    7.00    0.50
  -2 -13  -7    0.20    0.10
  -2 -13  -7   -0.10    0.10
  -2 -13  -7    0.10    0.10
   2  13   7   -0.10    0.20
   2  13   7   -0.10    0.10
   2  13   7   -0.10    0.20
   2  13   7    0.10    0.10
  -3 -13  -7    0.20    0.10
  -3 -13  -7    0.10    0.10
   3  13   7   -0.20    0.10
   3  13   7    0.10    0.10
   3  13   7    0.20    0.20
   3  13   7    0.10    0.30
  -4 -13  -7   31.70    1.10
   4  13   7   31.90    1.10
   4  13   7   30.00    1.50
   4  13   7   31.80    1.20
   4  13   7   31.40    0.90
  -5 -13  -7    7.60    0.50
   5  13   7    6.70    0.80
   5  13   7    7.40    0.50
   5  13   7    7.50    0.40
   3 -14  -7    6.30    0.60
   3 -14  -7    5.00    0.50
   3 -14  -7    6.30    0.40
  -3  14   7    6.10    0.50
  -3  14   7    6.50    0.80
   2 -14  -7    2.30    0.40
   2 -14  -7    2.50    0.40
  -2  14   7    2.70    0.30
  -2  14   7    3.00    0.60
   1 -14  -7    0.10    0.20
   1 -14  -7    0.20    0.20
   1 -14  -7    0.20    0.10
  -1  14   7    0.20    0.30
  -1  14   7    0.40    0.10
  -1  14   7    0.30    0.20
   0 -14  -7   11.10    0.60
   0 -14  -7   12.90    0.70
   0  14   7   12.60    0.90
   0  14   7   12.80    0.50
   0  14   7   12.10    0.70
   0  14   7   13.00    0.70
  -1 -14  -7    6.10    0.50
  -1 -14  -7    7.00    0.50
   1  14   7    7.50    0.80
   1  14   7    6.70    0.50
   1  14   7    6.70    0.50
   1  14   7    7.20    0.40
  -2 -14  -7    4.20    0.40
  -2 -14  -7    4.10    0.40
  -2 -14  -7    4.40    0.40
   2  14   7    3.40    0.40
   2  14   7    3.70    0.40
   2  14   7    4.20    0.60
   2  14   7    4.10    0.30
  -3 -14  -7    1.30    0.20
  -3 -14  -7    1.20    0.20
   3  14   7    1.00    0.20
   3  14   7    1.30    0.40
   3  14   7    1.60    0.30
   3  14   7    1.10    0.20
  -4 -14  -7    2.00    0.30
   4  14   7    2.50    0.40
   4  14   7    2.60    0.30
   4  14   7    2.30    0.30
   4  14   7    1.70    0.40
   2 -15  -7    9.10    0.60
   2 -15  -7   10.20    0.40
  -2  15   7    9.30    0.60
  -2  15   7    9.80    1.00
   1 -15  -7   15.70    0.50
   1 -15  -7   15.40    0.80
   1 -15  -7   15.10    0.80
  -1  15   7   15.40    0.50
  -1  15   7   17.40    1.20
  -1  15   7   14.20    0.70
   0 -15  -7    2.00    0.30
   0 -15  -7    1.60    0.30
   0  15   7    2.00    0.50
   0  15   7    1.60    0.30
   0  15   7    1.40    0.20
  -1 -15  -7    3.20    0.40
  -1 -15  -7    3.10    0.40
   1  15   7    2.20    0.30
   1  15   7    2.30    0.30
   1  15   7    2.00    0.50
   1  15   7    3.40    0.50
  -2 -15  -7    4.90    0.40
   2  15   7    4.90    0.50
   2  15   7    4.80    0.30
   2  15   7    4.30    0.50
   2  15   7    5.00    0.70
  -3 -15  -7    6.40    0.40
  -3 -15  -7    6.60    0.50
  -3 -15  -7    5.80    0.40
   3  15   7    5.20    0.40
   3  15   7    6.00    0.50
   3  15   7    5.70    0.80
   3  15   7    6.10    0.50
   4  15   7    0.40    0.20
   0 -16  -7   10.10    0.60
   0 -16  -7    8.90    0.60
   0  16   7    9.30    0.60
   0  16   7    8.70    0.40
   0  16   7    8.50    1.00
  -1 -16  -7    1.90    0.30
  -1 -16  -7    1.80    0.30
   1  16   7    1.90    0.50
   1  16   7    2.00    0.30
   1  16   7    2.10    0.40
   1  16   7    1.60    0.20
  -2 -16  -7    3.20    0.30
   2  16   7    2.80    0.40
   2  16   7    2.60    0.30
   2  16   7    2.80    0.60
   2  16   7    3.40    0.50
   3  10  -8   14.00    0.90
  -3 -10   8   13.60    0.70
  -3 -10   8   13.90    0.70
   2  10  -8    1.30    0.40
   2  10  -8    0.90    0.20
  -2 -10   8    1.00    0.20
   1  10  -8    5.90    0.50
   1  10  -8    5.90    0.40
   1  10  -8    5.30    0.60
  -1 -10   8    5.50    0.40
   0  10  -8    3.00    0.30
   0  10  -8    2.80    0.40
   0  10  -8    3.00    0.50
   0 -10   8    3.10    0.20
   0 -10   8    2.60    0.30
  -1  10  -8    0.00    0.20
  -1  10  -8    0.10    0.20
  -1  10  -8    0.20    0.20
   1 -10   8    0.00    0.10
  -2  10  -8    5.40    0.50
  -2  10  -8    5.00    0.60
  -2  10  -8    6.50    0.40
   2 -10   8    6.40    0.50
   2 -10   8    5.90    0.40
   4   9  -8    0.10    0.20
  -4  -9   8    0.60    0.20
  -4  -9   8    0.30    0.10
  -4  -9   8    0.30    0.20
  -4  -9   8    0.70    0.20
   3   9  -8   13.20    0.80
  -3  -9   8   12.70    0.60
  -3  -9   8   12.70    0.60
   2   9  -8   -0.20    0.20
  -2  -9   8    0.10    0.20
  -2  -9   8    0.30    0.10
   1   9  -8    1.70    0.30
   1   9  -8    1.50    0.20
   1   9  -8    1.20    0.30
  -1  -9   8    1.60    0.30
   0   9  -8    0.00    0.20
   0   9  -8   -0.20    0.10
   0   9  -8   -0.10    0.20
   0  -9   8    0.00    0.20
   0  -9   8   -0.10    0.10
  -1   9  -8    3.90    0.50
  -1   9  -8    4.80    0.40
  -1   9  -8    5.10    0.50
   1  -9   8    4.20    0.30
   1  -9   8    4.80    0.40
  -2   9  -8    0.00    0.20
  -2   9  -8    0.10    0.20
  -2   9  -8    0.10    0.20
   2  -9   8   -0.20    0.10
   2  -9   8    0.20    0.20
  -3   9  -8    1.30    0.20
  -3   9  -8    1.30    0.40
  -3   9  -8    1.60    0.30
   3  -9   8    1.40    0.30
   3  -9   8    1.30    0.30
   4   8  -8    0.40    0.20
  -4  -8   8    0.40    0.10
  -4  -8   8    0.30    0.10
  -4  -8   8    0.10    0.20
  -4  -8   8    0.20    0.10
   3   8  -8    2.90    0.40
  -3  -8   8    4.00    0.30
  -3  -8   8    3.40    0.30
  -3  -8   8    4.40    0.40
  -3  -8   8    3.90    0.30
   2   8  -8    2.10    0.40
  -2  -8   8    2.40    0.30
  -2  -8   8    1.80    0.30
   1   8  -8    4.90    0.40
   1   8  -8    4.80    0.50
   1   8  -8    5.10    0.30
  -1  -8   8    5.40    0.40
   0   8  -8    5.90    0.40
   0   8  -8    5.70    0.60
   0   8  -8    6.00    0.30
   0  -8   8    6.00    0.40
   0  -8   8    6.30    0.30
  -1   8  -8   18.90    0.70
  -1   8  -8   17.90    1.00
  -1   8  -8   20.20    0.80
   1  -8   8   19.30    0.80
   1  -8   8   20.40    0.80
   1  -8   8   19.20    0.70
  -2   8  -8    2.20    0.30
  -2   8  -8    2.30    0.30
  -2   8  -8    2.10    0.40
   2  -8   8    1.80    0.30
   2  -8   8    2.40    0.30
  -3   8  -8    0.30    0.30
  -3   8  -8    0.40    0.20
  -3   8  -8    0.30    0.20
   3  -8   8    0.40    0.20
   3  -8   8    0.70    0.20
   3  -8   8    0.60    0.10
  -4   8  -8   46.00    1.50
  -4   8  -8   49.60    1.80
   4  -8   8   46.10    1.60
   4  -8   8   48.30    1.50
   4  -8   8   48.80    1.30
   4  -8   8   44.60    1.50
  -5  -7   8    0.10    0.10
  -5  -7   8    0.00    0.10
  -5  -7   8    0.40    0.20
  -5  -7   8    0.10    0.10
   4   7  -8    0.20    0.20
  -4  -7   8    0.10    0.20
  -4  -7   8    0.00    0.10
  -4  -7   8    0.00    0.10
  -4  -7   8    0.00    0.10
   3   7  -8   17.70    0.80
  -3  -7   8   19.40    0.80
  -3  -7   8   18.20    0.70
  -3  -7   8   19.10    0.70
  -3  -7   8   18.20    0.70
   2   7  -8    0.30    0.20
   2   7  -8    0.40    0.20
  -2  -7   8    0.00    0.10
  -2  -7   8    0.20    0.10
  -2  -7   8    0.40    0.10
  -2  -7   8    0.30    0.10
   1   7  -8    2.30    0.30
   1   7  -8    1.90    0.20
   1   7  -8    1.70    0.30
  -1  -7   8    2.10    0.30
  -1  -7   8    2.40    0.30
   0   7  -8    4.80    0.40
   0   7  -8    5.40    0.30
   0   7  -8    5.90    0.60
   0  -7   8    5.60    0.40
   0  -7   8    5.90    0.30
  -1   7  -8    0.50    0.20
  -1   7  -8    0.60    0.20
  -1   7  -8    0.70    0.20
   1  -7   8    0.60    0.10
   1  -7   8    0.50    0.20
   1  -7   8    0.90    0.20
  -2   7  -8    1.80    0.20
  -2   7  -8    1.20    0.30
  -2   7  -8    1.40    0.30
   2  -7   8    1.80    0.20
   2  -7   8    1.50    0.30
  -3   7  -8    0.10    0.10
  -3   7  -8    0.30    0.20
  -3   7  -8    0.00    0.20
   3  -7   8    0.10    0.10
   3  -7   8    0.00    0.10
   3  -7   8    0.10    0.20
   3  -7   8   -0.10    0.10
  -4   7  -8   98.29    2.80
  -4   7  -8   90.49    2.60
   4  -7   8   97.89    2.60
   4  -7   8   95.59    2.60
   4  -7   8   93.09    2.70
   4  -7   8   95.19    2.40
  -5  -6   8    6.20    0.50
  -5  -6   8    5.40    0.30
  -5  -6   8    5.00    0.30
  -5  -6   8    5.20    0.30
   4   6  -8   -0.30    0.20
  -4  -6   8    0.00    0.10
  -4  -6   8    0.00    0.10
  -4  -6   8    0.00    0.10
  -4  -6   8   -0.10    0.10
   3   6  -8   34.50    1.20
  -3  -6   8   34.80    1.10
  -3  -6   8   36.00    1.00
  -3  -6   8   34.70    1.00
  -3  -6   8   34.60    1.00
   2   6  -8    0.80    0.20
   2   6  -8    0.60    0.20
  -2  -6   8    1.00    0.20
  -2  -6   8    0.80    0.20
  -2  -6   8    0.60    0.20
  -2  -6   8    0.70    0.10
   1   6  -8    0.50    0.20
   1   6  -8    1.00    0.20
   1   6  -8    0.70    0.10
  -1  -6   8    0.70    0.20
  -1  -6   8    0.70    0.20
  -1  -6   8    0.80    0.20
  -1  -6   8    0.60    0.20
  -1  -6   8    0.80    0.10
   0   6  -8    3.60    0.50
   0   6  -8    4.30    0.30
   0   6  -8    3.90    0.30
   0  -6   8    3.70    0.30
   0  -6   8    3.90    0.20
   0  -6   8    3.40    0.30
   0  -6   8    3.50    0.40
  -1   6  -8    1.20    0.30
  -1   6  -8    2.00    0.30
  -1   6  -8    1.40    0.20
   1  -6   8    1.90    0.20
   1  -6   8    1.70    0.30
   1  -6   8    1.70    0.30
  -2   6  -8    4.80    0.50
  -2   6  -8    3.20    0.30
  -2   6  -8    3.90    0.30
   2  -6   8    4.50    0.30
   2  -6   8    3.40    0.40
   2  -6   8    3.80    0.20
   2  -6   8    3.50    0.30
  -3   6  -8    1.80    0.20
  -3   6  -8    1.50    0.30
  -3   6  -8    2.20    0.30
   3  -6   8    2.00    0.20
   3  -6   8    2.30    0.30
   3  -6   8    1.50    0.20
   3  -6   8    1.80    0.30
  -4   6  -8   33.80    1.30
  -4   6  -8   30.80    1.10
   4  -6   8   32.00    1.10
   4  -6   8   32.30    1.00
   4  -6   8   32.30    1.10
   4  -6   8   30.00    1.20
  -5   6  -8    3.60    0.40
  -5   6  -8    3.60    0.50
   5  -6   8    3.80    0.40
   5  -6   8    4.30    0.50
   5  -6   8    3.30    0.40
   5  -6   8    3.50    0.30
  -6  -5   8    1.30    0.10
  -6  -5   8    1.50    0.30
  -6  -5   8    1.20    0.10
  -6  -5   8    1.20    0.10
  -5  -5   8    0.80    0.30
  -5  -5   8    0.80    0.10
  -5  -5   8    0.60    0.10
  -5  -5   8    0.70    0.10
   4   5  -8  119.79    3.00
  -4  -5   8  117.49    2.90
  -4  -5   8  118.39    2.80
  -4  -5   8  116.89    3.10
  -4  -5   8  122.19    2.80
   3   5  -8   10.20    0.50
  -3  -5   8    9.70    0.40
  -3  -5   8   10.30    0.40
  -3  -5   8   10.00    0.50
  -3  -5   8    9.90    0.40
   2   5  -8    7.90    0.50
   2   5  -8    7.70    0.40
  -2  -5   8    8.50    0.40
  -2  -5   8    8.70    0.40
  -2  -5   8    7.80    0.40
  -2  -5   8    8.00    0.40
   1   5  -8   72.49    1.90
   1   5  -8   69.29    2.00
   1   5  -8   70.49    1.70
  -1  -5   8   69.79    1.60
  -1  -5   8   71.49    1.90
  -1  -5   8   71.89    1.80
  -1  -5   8   68.49    1.90
  -1  -5   8   71.59    1.90
   0   5  -8    5.40    0.40
   0   5  -8    5.20    0.30
   0   5  -8    5.40    0.50
   0  -5   8    5.30    0.30
   0  -5   8    5.20    0.40
   0  -5   8    5.20    0.30
   0  -5   8    5.50    0.30
   0  -5   8    5.90    0.30
  -1   5  -8    3.20    0.30
  -1   5  -8    3.10    0.40
  -1   5  -8    2.80    0.20
   1  -5   8    3.50    0.30
   1  -5   8    2.70    0.30
   1  -5   8    2.60    0.30
  -2   5  -8    8.00    0.60
  -2   5  -8    8.90    0.40
  -2   5  -8    8.80    0.50
   2  -5   8    8.90    0.40
   2  -5   8    9.20    0.50
   2  -5   8    9.10    0.50
   2  -5   8    9.10    0.30
   2  -5   8    8.70    0.50
  -3   5  -8    2.00    0.20
  -3   5  -8    2.20    0.30
  -3   5  -8    1.70    0.30
   3  -5   8    1.80    0.20
   3  -5   8    1.70    0.20
   3  -5   8    1.90    0.30
   3  -5   8    2.00    0.30
  -4   5  -8    1.00    0.20
  -4   5  -8    1.40    0.30
   4  -5   8    1.20    0.20
   4  -5   8    0.90    0.20
   4  -5   8    1.30    0.20
   4  -5   8    1.20    0.20
  -5   5  -8    0.00    0.20
  -5   5  -8    0.30    0.20
   5  -5   8   -0.20    0.10
   5  -5   8   -0.10    0.10
   5  -5   8    0.00    0.10
   5  -5   8   -0.20    0.10
  -6  -4   8    2.00    0.20
  -6  -4   8    2.00    0.10
  -6  -4   8    2.10    0.30
  -5  -4   8    3.40    0.20
  -5  -4   8    3.50    0.20
  -5  -4   8    3.50    0.20
  -5  -4   8    3.30    0.20
  -5  -4   8    2.90    0.40
   4   4  -8   11.60    1.10
   4   4  -8   11.60    0.50
  -4  -4   8   11.20    0.40
  -4  -4   8   11.40    0.60
  -4  -4   8   11.70    0.40
  -4  -4   8   11.50    0.40
  -4  -4   8   11.00    0.40
   3   4  -8   25.00    0.90
  -3  -4   8   23.20    0.70
  -3  -4   8   24.20    0.90
  -3  -4   8   24.10    0.70
  -3  -4   8   25.00    0.70
   2   4  -8   70.59    1.80
   2   4  -8   68.19    1.90
  -2  -4   8   68.59    1.80
  -2  -4   8   66.29    1.70
  -2  -4   8   66.99    1.80
  -2  -4   8   67.29    1.70
   1   4  -8   15.30    0.70
   1   4  -8   15.60    0.50
   1   4  -8   15.10    0.60
  -1  -4   8   16.40    0.60
  -1  -4   8   15.50    0.60
  -1  -4   8   15.80    0.40
  -1  -4   8   15.70    0.60
  -1  -4   8   15.80    0.60
   0   4  -8    1.50    0.20
   0   4  -8    1.30    0.10
   0   4  -8    1.10    0.20
   0  -4   8    1.30    0.20
   0  -4   8    1.00    0.20
   0  -4   8    1.60    0.20
   0  -4   8    1.40    0.20
   0  -4   8    1.30    0.10
   0  -4   8    1.50    0.20
  -1   4  -8    3.90    0.40
  -1   4  -8    4.50    0.30
  -1   4  -8    3.70    0.20
   1  -4   8    2.90    0.20
   1  -4   8    3.50    0.30
   1  -4   8    3.50    0.30
  -2   4  -8   43.80    1.20
  -2   4  -8   42.80    1.40
  -2   4  -8   42.00    1.30
   2  -4   8   46.20    1.30
   2  -4   8   43.80    1.30
   2  -4   8   44.10    1.30
   2  -4   8   46.60    1.40
   2  -4   8   43.70    1.10
  -3   4  -8    6.90    0.50
  -3   4  -8    7.60    0.30
  -3   4  -8    6.80    0.40
   3  -4   8    6.70    0.30
   3  -4   8    7.70    0.40
   3  -4   8    8.10    0.40
   3  -4   8    8.10    0.50
  -4   4  -8    6.20    0.50
  -4   4  -8    5.90    0.40
   4  -4   8    6.40    0.50
   4  -4   8    5.40    0.30
   4  -4   8    6.30    0.40
   4  -4   8    6.10    0.40
  -5   4  -8    1.20    0.20
  -5   4  -8    1.30    0.30
   5  -4   8    0.70    0.20
   5  -4   8    1.20    0.30
   5  -4   8    1.00    0.20
   5  -4   8    1.00    0.20
  -6   4  -8    0.30    0.20
   6  -4   8    0.40    0.20
   6  -4   8    0.40    0.20
   6  -4   8    0.50    0.20
   6  -4   8    0.30    0.20
  -6  -3   8   17.90    0.50
  -6  -3   8   17.60    0.90
  -6  -3   8   17.90    0.50
  -5  -3   8    1.40    0.30
  -5  -3   8    1.50    0.10
  -5  -3   8    1.30    0.10
   4   3  -8    9.50    0.40
   4   3  -8    8.90    1.00
  -4  -3   8    9.30    0.30
  -4  -3   8   10.00    0.50
  -4  -3   8    9.30    0.40
  -4  -3   8    9.30    0.30
  -4  -3   8    8.90    0.30
   3   3  -8   17.40    0.70
  -3  -3   8   17.70    0.70
  -3  -3   8   18.00    0.60
  -3  -3   8   18.00    0.60
  -3  -3   8   17.10    0.50
  -3  -3   8   16.70    0.50
   2   3  -8    9.30    0.40
   2   3  -8    8.80    0.50
  -2  -3   8    8.30    0.40
  -2  -3   8    8.50    0.30
  -2  -3   8    8.60    0.40
  -2  -3   8    8.70    0.40
   1   3  -8    3.70    0.30
   1   3  -8    3.30    0.20
   1   3  -8    3.30    0.30
  -1  -3   8    3.50    0.20
  -1  -3   8    3.60    0.20
  -1  -3   8    3.40    0.10
  -1  -3   8    3.60    0.30
  -1  -3   8    3.60    0.20
  -1  -3   8    2.90    0.20
   0   3  -8    0.10    0.10
   0   3  -8    0.10    0.10
   0   3  -8    0.20    0.20
   0  -3   8    0.00    0.10
   0  -3   8    0.20    0.10
   0  -3   8    0.10    0.10
   0  -3   8    0.10    0.10
   0  -3   8    0.00    0.10
   0  -3   8    0.40    0.10
  -1   3  -8   41.50    1.20
  -1   3  -8   41.00    1.10
   1  -3   8   41.30    1.20
   1  -3   8   41.60    1.10
   1  -3   8   41.00    1.00
   1  -3   8   41.50    1.20
  -2   3  -8  151.78    3.70
  -2   3  -8  150.48    3.50
  -2   3  -8  153.48    3.90
   2  -3   8  152.08    3.80
   2  -3   8  151.88    3.50
   2  -3   8  155.38    3.70
   2  -3   8  151.48    3.70
   2  -3   8  146.49    3.70
  -3   3  -8    0.30    0.20
  -3   3  -8    0.20    0.20
  -3   3  -8    0.30    0.10
   3  -3   8    0.20    0.20
   3  -3   8    0.10    0.10
   3  -3   8    0.20    0.10
   3  -3   8    0.30    0.10
  -4   3  -8    0.20    0.20
  -4   3  -8    0.10    0.10
  -4   3  -8    0.30    0.20
   4  -3   8    0.40    0.10
   4  -3   8    0.10    0.10
   4  -3   8    0.10    0.10
   4  -3   8    0.10    0.10
  -5   3  -8    0.50    0.20
  -5   3  -8    0.40    0.20
  -5   3  -8    0.40    0.20
  -5   3  -8    0.30    0.20
   5  -3   8    0.30    0.20
   5  -3   8    0.50    0.20
   5  -3   8    0.40    0.20
   5  -3   8    0.50    0.20
  -6   3  -8    6.60    0.50
  -6   3  -8    6.30    0.40
  -6   3  -8    7.20    0.50
   6  -3   8    5.80    0.50
   6  -3   8    5.30    0.40
   6  -3   8    5.90    0.50
   6  -3   8    5.40    0.40
  -6  -2   8    9.70    0.60
  -6  -2   8    9.60    0.30
  -6  -2   8   10.10    0.40
  -5  -2   8   55.19    1.70
  -5  -2   8   56.79    1.40
  -5  -2   8   55.39    1.40
   4   2  -8    2.60    0.60
   4   2  -8    2.90    0.20
  -4  -2   8    2.90    0.10
  -4  -2   8    2.90    0.20
  -4  -2   8    2.90    0.20
  -4  -2   8    3.30    0.40
  -4  -2   8    3.00    0.20
   3   2  -8   43.20    1.20
   3   2  -8   47.20    2.10
  -3  -2   8   43.90    1.30
  -3  -2   8   44.10    1.10
  -3  -2   8   43.90    1.20
  -3  -2   8   44.50    1.10
  -3  -2   8   44.70    1.10
   2   2  -8    4.00    0.20
   2   2  -8    3.80    0.30
  -2  -2   8    4.00    0.20
  -2  -2   8    3.70    0.20
  -2  -2   8    3.60    0.30
  -2  -2   8    3.60    0.20
  -2  -2   8    3.60    0.20
   1   2  -8   10.90    0.50
   1   2  -8   11.60    0.30
   1   2  -8   12.20    0.50
  -1  -2   8   11.80    0.50
  -1  -2   8   11.00    0.40
  -1  -2   8   11.30    0.40
  -1  -2   8   11.80    0.50
  -1  -2   8   11.50    0.30
  -1  -2   8   11.00    0.40
   0   2  -8   30.90    0.90
   0   2  -8   32.20    0.80
   0   2  -8   32.50    1.10
   0  -2   8   32.50    0.90
   0  -2   8   31.60    1.00
   0  -2   8   31.90    0.90
   0  -2   8   33.20    1.00
   0  -2   8   33.40    1.00
  -1   2  -8   27.60    0.80
  -1   2  -8   28.90    0.90
   1  -2   8   27.90    0.80
   1  -2   8   27.50    0.70
   1  -2   8   28.30    0.70
   1  -2   8   28.20    0.90
   1  -2   8   27.50    0.90
   1  -2   8   27.50    0.90
   1  -2   8   28.70    0.90
  -2   2  -8    0.40    0.20
  -2   2  -8    0.40    0.10
  -2   2  -8    0.30    0.10
  -2   2  -8    0.30    0.10
   2  -2   8    0.40    0.10
   2  -2   8    0.30    0.10
   2  -2   8    0.40    0.10
   2  -2   8    0.20    0.10
   2  -2   8    0.80    0.20
  -3   2  -8   20.20    0.70
  -3   2  -8   20.40    0.60
  -3   2  -8   21.30    0.70
  -3   2  -8   20.10    0.80
   3  -2   8   20.30    0.70
   3  -2   8   20.00    0.60
   3  -2   8   19.90    0.70
   3  -2   8   18.10    0.80
  -4   2  -8    0.50    0.20
  -4   2  -8    0.30    0.20
  -4   2  -8    0.30    0.20
   4  -2   8    0.40    0.10
   4  -2   8    0.10    0.10
   4  -2   8    0.30    0.20
   4  -2   8    0.30    0.10
  -5   2  -8    4.90    0.40
  -5   2  -8    5.70    0.40
  -5   2  -8    5.70    0.40
  -5   2  -8    5.50    0.40
   5  -2   8    6.00    0.30
   5  -2   8    5.80    0.40
   5  -2   8    4.80    0.40
   5  -2   8    5.40    0.40
  -6   2  -8    0.10    0.20
  -6   2  -8    0.00    0.10
  -6   2  -8   -0.10    0.20
   6  -2   8   -0.20    0.10
   6  -2   8    0.00    0.10
   6  -2   8    0.00    0.10
   6  -2   8    0.00    0.10
  -6  -1   8    2.20    0.20
  -6  -1   8    2.00    0.10
  -6  -1   8    2.00    0.30
   5   1  -8    4.70    0.80
  -5  -1   8    3.70    0.40
  -5  -1   8    3.90    0.20
  -5  -1   8    3.50    0.20
   4   1  -8    0.00    0.40
   4   1  -8    0.70    0.10
  -4  -1   8    0.30    0.10
  -4  -1   8    0.30    0.10
  -4  -1   8    0.40    0.20
  -4  -1   8    0.40    0.10
  -4  -1   8    0.30    0.10
   3   1  -8  104.19    2.60
   3   1  -8  106.39    3.50
  -3  -1   8  105.79    2.50
  -3  -1   8  107.89    2.50
  -3  -1   8  106.89    2.70
  -3  -1   8  104.69    2.50
  -3  -1   8  106.09    2.50
   2   1  -8   12.70    0.50
   2   1  -8   12.40    0.50
  -2  -1   8   13.10    0.50
  -2  -1   8   12.90    0.50
  -2  -1   8   14.00    0.50
  -2  -1   8   12.70    0.40
  -2  -1   8   13.30    0.40
   1   1  -8   37.40    0.90
   1   1  -8   37.70    1.00
   1   1  -8   35.50    1.10
  -1  -1   8   36.80    1.00
  -1  -1   8   36.80    1.00
  -1  -1   8   36.90    1.00
  -1  -1   8   36.90    1.00
  -1  -1   8   36.60    0.90
  -1  -1   8   35.70    1.10
   0   1  -8   74.19    2.00
   0   1  -8   77.79    1.80
   0   1  -8   77.39    1.90
   0  -1   8   76.39    1.90
   0  -1   8   78.49    2.00
   0  -1   8   76.09    1.90
   0  -1   8   72.19    2.50
   0  -1   8   75.69    1.90
   0  -1   8   77.39    1.90
  -1   1  -8   10.00    0.40
  -1   1  -8   10.50    0.40
   1  -1   8   10.20    0.40
   1  -1   8   10.70    0.40
   1  -1   8    9.70    0.30
   1  -1   8   10.20    0.40
   1  -1   8    9.50    0.40
   1  -1   8   11.30    0.50
  -2   1  -8   28.90    0.90
  -2   1  -8   30.30    0.90
  -2   1  -8   30.70    1.00
  -2   1  -8   29.80    0.80
   2  -1   8   31.50    1.00
   2  -1   8   30.50    0.90
   2  -1   8   30.30    1.00
   2  -1   8   30.70    0.80
  -3   1  -8   17.90    0.50
  -3   1  -8   17.50    0.70
  -3   1  -8   17.70    0.70
  -3   1  -8   18.10    0.70
   3  -1   8   18.00    0.70
   3  -1   8   17.10    0.70
   3  -1   8   17.60    0.70
   3  -1   8   18.20    0.60
  -4   1  -8    0.50    0.20
  -4   1  -8    0.60    0.20
  -4   1  -8    0.20    0.10
   4  -1   8    0.40    0.10
   4  -1   8    0.50    0.10
   4  -1   8    0.40    0.20
   4  -1   8    0.60    0.20
  -5   1  -8   32.40    1.00
  -5   1  -8   29.60    1.00
  -5   1  -8   29.60    1.10
   5  -1   8   30.20    0.90
   5  -1   8   30.70    1.00
   5  -1   8   29.10    1.00
   5  -1   8   28.70    1.10
  -6   1  -8    0.20    0.10
  -6   1  -8    0.40    0.20
   6  -1   8    0.00    0.10
   6  -1   8    0.10    0.20
   6  -1   8    0.10    0.10
   6  -1   8   -0.10    0.10
  -7   1  -8    0.10    0.20
   7  -1   8    0.30    0.20
   7  -1   8    0.00    0.10
   7  -1   8    0.10    0.20
   7  -1   8   -0.10    0.10
  -6   0   8    9.90    0.40
  -6   0   8    9.70    0.60
  -6   0   8   10.20    0.30
  -6   0   8   10.00    0.40
  -6   0   8   10.10    0.30
   5   0  -8    0.40    0.40
  -5   0   8    0.20    0.20
  -5   0   8    0.10    0.10
  -5   0   8    0.10    0.10
  -5   0   8    0.10    0.10
  -5   0   8    0.10    0.10
   4   0  -8    4.20    0.30
   4   0  -8    4.30    0.70
  -4   0   8    3.90    0.20
  -4   0   8    3.90    0.30
  -4   0   8    3.80    0.20
  -4   0   8    3.70    0.20
  -4   0   8    3.40    0.20
   3   0  -8   25.70    0.80
   3   0  -8   26.60    1.40
  -3   0   8   25.90    0.90
  -3   0   8   26.10    0.70
  -3   0   8   25.20    0.70
  -3   0   8   25.20    0.70
  -3   0   8   26.50    0.70
   2   0  -8  125.49    2.90
   2   0  -8  122.99    3.00
  -2   0   8  120.99    2.90
  -2   0   8  120.19    2.90
  -2   0   8  128.79    2.90
  -2   0   8  122.89    2.90
   1   0  -8   24.00    0.70
   1   0  -8   23.80    0.80
   1   0  -8   23.70    0.60
  -1   0   8   22.60    0.80
  -1   0   8   23.30    0.70
  -1   0   8   24.00    0.70
  -1   0   8   23.30    1.10
  -1   0   8   22.50    0.60
  -1   0   8   22.40    0.70
   0   0  -8   66.59    1.70
   0   0  -8   64.29    1.60
   0   0  -8   61.89    1.70
   0   0   8   66.29    1.70
   0   0   8   64.69    2.20
   0   0   8   66.89    1.70
   0   0   8   64.59    1.70
   0   0   8   65.49    1.60
   0   0   8   65.49    1.70
  -1   0  -8   87.19    2.10
  -1   0  -8   87.49    2.20
  -1   0  -8   78.19    2.20
   1   0   8   86.29    2.20
   1   0   8   87.69    2.10
   1   0   8   86.69    2.20
   1   0   8   87.19    2.10
   1   0   8   90.19    2.20
   1   0   8   87.89    2.20
   1   0   8   86.99    2.00
  -2   0  -8    5.80    0.30
  -2   0  -8    5.40    0.30
  -2   0  -8    5.20    0.20
  -2   0  -8    5.20    0.40
   2   0   8    5.60    0.40
   2   0   8    5.20    0.20
   2   0   8    5.20    0.30
   2   0   8    5.20    0.30
   2   0   8    5.60    0.30
  -3   0  -8    0.00    0.10
  -3   0  -8    0.10    0.10
  -3   0  -8    0.00    0.10
  -3   0  -8    0.20    0.10
   3   0   8    0.10    0.10
   3   0   8    0.00    0.10
   3   0   8    0.00    0.10
   3   0   8    0.00    0.10
  -4   0  -8   64.49    1.80
  -4   0  -8   63.99    1.80
  -4   0  -8   64.49    1.80
   4   0   8   63.49    1.60
   4   0   8   62.99    1.70
   4   0   8   65.09    1.80
   4   0   8   64.99    1.80
  -5   0  -8    2.50    0.30
  -5   0  -8    2.20    0.30
  -5   0  -8    2.10    0.30
   5   0   8    2.10    0.30
   5   0   8    2.70    0.20
   5   0   8    2.20    0.30
   5   0   8    1.80    0.30
  -6   0  -8    3.90    0.30
  -6   0  -8    3.90    0.40
   6   0   8    4.20    0.40
   6   0   8    3.70    0.40
   6   0   8    4.00    0.30
   6   0   8    3.80    0.40
  -7   0  -8    2.40    0.40
   7   0   8    2.70    0.30
   7   0   8    2.00    0.30
   7   0   8    2.70    0.40
   7   0   8    2.60    0.30
  -6   1   8    1.90    0.20
  -6   1   8    2.10    0.20
  -6   1   8    2.10    0.30
  -6   1   8    2.00    0.20
   5  -1  -8    4.80    0.30
   5  -1  -8    4.60    0.80
  -5   1   8    4.60    0.30
  -5   1   8    4.60    0.40
  -5   1   8    5.00    0.20
  -5   1   8    5.00    0.20
  -5   1   8    4.80    0.20
   4  -1  -8   21.70    1.30
   4  -1  -8   21.40    0.70
  -4   1   8   20.50    0.60
  -4   1   8   21.10    0.70
  -4   1   8   20.50    0.80
  -4   1   8   21.40    0.60
  -4   1   8   20.80    0.60
   3  -1  -8   14.10    0.50
   3  -1  -8   13.60    1.00
   3  -1  -8   15.50    0.50
  -3   1   8   14.60    0.50
  -3   1   8   14.40    0.50
  -3   1   8   14.70    0.50
   2  -1  -8   47.50    1.30
   2  -1  -8   48.10    1.90
   2  -1  -8   48.80    1.30
  -2   1   8   48.40    1.20
  -2   1   8   47.20    1.80
  -2   1   8   48.30    1.20
  -2   1   8   48.00    1.30
  -2   1   8   48.80    1.30
   1  -1  -8    4.30    0.30
   1  -1  -8    4.00    0.20
   1  -1  -8    4.30    0.20
  -1   1   8    4.30    0.30
  -1   1   8    4.30    0.20
  -1   1   8    4.50    0.30
  -1   1   8    4.10    0.20
  -1   1   8    4.50    0.50
  -1   1   8    4.40    0.20
   0  -1  -8  184.28    4.20
   0  -1  -8  189.28    4.30
   0  -1  -8  180.28    4.30
   0   1   8  185.38    4.40
   0   1   8  168.48    4.80
   0   1   8  182.28    4.20
   0   1   8  180.98    4.20
   0   1   8  179.38    4.20
   0   1   8  188.08    4.30
   0   1   8  181.08    4.30
  -1  -1  -8   47.60    1.30
  -1  -1  -8   47.70    1.40
  -1  -1  -8   47.40    1.20
  -1  -1  -8   47.70    1.30
   1   1   8   49.00    1.20
   1   1   8   49.40    1.30
   1   1   8   48.40    1.30
   1   1   8   49.50    1.30
   1   1   8   46.70    1.30
   1   1   8   44.10    1.30
  -2  -1  -8    8.50    0.50
  -2  -1  -8    8.90    0.30
  -2  -1  -8    9.40    0.40
   2   1   8    9.10    0.40
   2   1   8    8.80    0.40
   2   1   8    9.40    0.30
   2   1   8    9.90    0.40
   2   1   8    9.10    0.50
  -3  -1  -8   98.09    2.50
  -3  -1  -8   99.59    2.50
  -3  -1  -8   98.99    2.50
  -3  -1  -8  105.29    2.50
  -3  -1  -8   99.19    2.30
   3   1   8   99.69    2.50
   3   1   8   98.19    2.50
   3   1   8   93.49    2.50
   3   1   8   97.69    2.30
  -4  -1  -8    9.70    0.50
  -4  -1  -8    9.40    0.50
  -4  -1  -8    9.10    0.50
   4   1   8    8.80    0.40
   4   1   8    9.60    0.50
   4   1   8    8.90    0.40
   4   1   8    8.40    0.50
  -5  -1  -8    3.50    0.30
  -5  -1  -8    3.40    0.30
  -5  -1  -8    3.30    0.30
   5   1   8    2.50    0.30
   5   1   8    2.90    0.20
   5   1   8    3.20    0.30
   5   1   8    2.70    0.30
  -6  -1  -8    2.40    0.30
  -6  -1  -8    2.20    0.30
   6   1   8    2.00    0.20
   6   1   8    2.00    0.30
   6   1   8    1.90    0.30
   6   1   8    2.30    0.30
  -7  -1  -8   72.09    2.10
   7   1   8   70.89    2.10
   7   1   8   71.39    2.00
   7   1   8   71.29    2.10
   7   1   8   72.39    1.90
  -6   2   8    5.60    0.30
  -6   2   8    5.30    0.30
  -6   2   8    5.40    0.30
  -6   2   8    5.40    0.50
   5  -2  -8    7.80    0.40
   5  -2  -8    7.90    0.90
  -5   2   8    7.60    0.40
  -5   2   8    7.30    0.30
  -5   2   8    7.90    0.50
  -5   2   8    7.00    0.30
   4  -2  -8   96.29    2.40
   4  -2  -8   96.49    3.20
  -4   2   8   94.99    2.50
  -4   2   8   95.79    2.30
  -4   2   8   95.79    2.30
  -4   2   8   95.69    2.30
  -4   2   8   95.99    2.40
   3  -2  -8   91.99    3.00
   3  -2  -8   91.99    2.20
   3  -2  -8   88.19    2.20
  -3   2   8   90.09    2.20
  -3   2   8   90.99    2.20
  -3   2   8   89.39    2.20
  -3   2   8   87.29    2.20
   2  -2  -8    1.70    0.20
   2  -2  -8    1.40    0.20
   2  -2  -8    1.50    0.40
  -2   2   8    1.50    0.20
  -2   2   8    1.40    0.10
  -2   2   8    1.40    0.30
  -2   2   8    1.60    0.20
  -2   2   8    1.40    0.20
   1  -2  -8   36.40    1.00
   1  -2  -8   35.40    1.10
   1  -2  -8   36.70    0.90
  -1   2   8   35.90    1.00
  -1   2   8   35.20    1.00
  -1   2   8   36.00    1.40
  -1   2   8   36.10    0.90
  -1   2   8   37.70    1.00
  -1   2   8   36.40    1.10
   0  -2  -8   98.69    2.30
   0  -2  -8  102.09    2.50
   0  -2  -8   97.09    2.50
   0   2   8  100.39    2.50
   0   2   8  102.69    2.90
   0   2   8   98.09    2.60
   0   2   8  103.59    2.50
   0   2   8  101.19    2.40
   0   2   8  100.59    2.40
   0   2   8  101.39    2.40
  -1  -2  -8  183.78    4.20
  -1  -2  -8  188.98    4.30
  -1  -2  -8  181.38    4.40
  -1  -2  -8  184.48    4.40
   1   2   8  188.18    4.30
   1   2   8  185.58    4.30
   1   2   8  184.48    4.20
   1   2   8  183.38    4.40
   1   2   8  182.28    4.50
  -2  -2  -8    6.80    0.40
  -2  -2  -8    5.90    0.30
  -2  -2  -8    5.70    0.20
   2   2   8    6.00    0.30
   2   2   8    5.90    0.30
   2   2   8    6.50    0.30
   2   2   8    6.00    0.20
   2   2   8    6.00    0.40
  -3  -2  -8    3.20    0.30
  -3  -2  -8    3.20    0.30
  -3  -2  -8    3.60    0.20
  -3  -2  -8    3.70    0.30
  -3  -2  -8    3.50    0.30
   3   2   8    3.30    0.20
   3   2   8    3.70    0.30
   3   2   8    3.30    0.20
  -4  -2  -8   16.30    0.60
  -4  -2  -8   17.00    0.60
  -4  -2  -8   16.70    0.60
  -4  -2  -8   16.20    0.60
   4   2   8   15.70    0.70
   4   2   8   15.80    0.50
   4   2   8   16.90    0.60
   4   2   8   15.70    0.60
  -5  -2  -8    2.30    0.30
  -5  -2  -8    2.40    0.20
  -5  -2  -8    2.70    0.30
  -5  -2  -8    2.20    0.40
   5   2   8    2.40    0.30
   5   2   8    2.30    0.20
   5   2   8    2.30    0.30
   5   2   8    2.00    0.20
  -6  -2  -8    8.50    0.50
   6   2   8    8.70    0.50
   6   2   8    9.60    0.40
   6   2   8    8.50    0.50
   6   2   8    8.80    0.50
  -7  -2  -8  108.89    2.90
   7   2   8  113.49    2.90
   7   2   8  106.79    2.90
   7   2   8  106.99    2.70
   7   2   8  106.29    3.00
   6  -3  -8   21.90    0.80
  -6   3   8   23.40    0.80
  -6   3   8   22.90    0.80
  -6   3   8   21.50    0.90
  -6   3   8   24.40    0.80
   5  -3  -8    9.40    0.50
   5  -3  -8   10.70    1.00
  -5   3   8    9.30    0.50
  -5   3   8    9.00    0.50
  -5   3   8    9.50    0.40
  -5   3   8    9.70    0.40
   4  -3  -8    6.50    0.40
   4  -3  -8    6.80    0.80
  -4   3   8    6.40    0.40
  -4   3   8    7.00    0.30
  -4   3   8    6.60    0.30
   3  -3  -8    0.00    0.10
   3  -3  -8    0.20    0.30
   3  -3  -8    0.10    0.10
  -3   3   8    0.10    0.10
  -3   3   8    0.00    0.10
  -3   3   8    0.00    0.10
  -3   3   8    0.10    0.10
   2  -3  -8    9.00    0.30
   2  -3  -8    9.50    0.70
   2  -3  -8    8.40    0.40
   2  -3  -8    9.50    0.40
  -2   3   8    9.20    0.40
  -2   3   8    8.30    0.20
  -2   3   8    9.50    0.40
  -2   3   8    9.00    0.40
   1  -3  -8    6.50    0.30
   1  -3  -8    6.70    0.20
   1  -3  -8    5.80    0.30
  -1   3   8    6.60    0.30
  -1   3   8    6.60    0.30
  -1   3   8    6.50    0.30
  -1   3   8    5.60    0.30
  -1   3   8    6.50    0.50
   0  -3  -8   40.30    1.20
   0  -3  -8   39.90    1.10
   0  -3  -8   39.40    1.00
   0   3   8   42.00    1.10
   0   3   8   38.20    1.40
   0   3   8   39.60    1.20
   0   3   8   41.70    1.10
   0   3   8   39.80    1.10
   0   3   8   39.30    1.10
   0   3   8   40.90    1.10
  -1  -3  -8    3.00    0.30
  -1  -3  -8    3.00    0.20
  -1  -3  -8    3.10    0.20
  -1  -3  -8    2.80    0.30
   1   3   8    2.60    0.20
   1   3   8    3.00    0.30
   1   3   8    3.40    0.20
   1   3   8    2.70    0.20
   1   3   8    2.90    0.20
   1   3   8    1.80    0.20
  -2  -3  -8   35.90    1.00
  -2  -3  -8   36.30    1.00
  -2  -3  -8   33.90    1.10
  -2  -3  -8   34.50    0.90
   2   3   8   35.40    1.00
   2   3   8   36.20    0.90
   2   3   8   33.10    1.10
   2   3   8   34.80    1.00
   2   3   8   34.90    1.00
  -3  -3  -8   78.09    2.00
  -3  -3  -8   76.39    2.00
  -3  -3  -8   76.29    2.00
  -3  -3  -8   78.69    2.00
  -3  -3  -8   75.79    2.00
   3   3   8   75.39    2.00
   3   3   8   75.39    1.90
   3   3   8   75.89    1.80
  -4  -3  -8    2.40    0.30
  -4  -3  -8    2.50    0.30
  -4  -3  -8    2.10    0.20
   4   3   8    2.10    0.20
   4   3   8    2.40    0.30
   4   3   8    2.10    0.20
   4   3   8    2.50    0.30
  -5  -3  -8    1.30    0.20
  -5  -3  -8    1.20    0.20
  -5  -3  -8    1.50    0.20
   5   3   8    1.20    0.20
   5   3   8    1.20    0.20
   5   3   8    1.20    0.20
   5   3   8    1.30    0.20
  -6  -3  -8   14.90    0.70
   6   3   8   15.10    0.70
   6   3   8   14.80    0.60
   6   3   8   14.60    0.60
   6   3   8   13.80    0.50
  -7  -3  -8   23.30    0.90
   7   3   8   23.90    0.90
   7   3   8   24.10    0.80
   7   3   8   24.10    0.90
   7   3   8   24.20    1.00
   6  -4  -8    4.30    0.30
   6  -4  -8    4.20    0.40
  -6   4   8    4.50    0.30
  -6   4   8    4.10    0.40
  -6   4   8    3.50    0.40
  -6   4   8    4.00    0.30
   5  -4  -8   55.99    2.30
   5  -4  -8   53.19    1.50
  -5   4   8   55.99    1.50
  -5   4   8   53.89    1.60
  -5   4   8   55.39    1.50
   4  -4  -8    2.10    0.30
   4  -4  -8    1.70    0.40
  -4   4   8    1.90    0.20
  -4   4   8    2.30    0.30
  -4   4   8    2.50    0.20
   3  -4  -8    0.80    0.20
   3  -4  -8    0.80    0.20
   3  -4  -8    0.80    0.30
  -3   4   8    0.90    0.20
  -3   4   8    0.70    0.10
  -3   4   8    0.80    0.20
   2  -4  -8    1.50    0.40
   2  -4  -8    1.60    0.20
   2  -4  -8    1.70    0.20
   2  -4  -8    1.70    0.10
  -2   4   8    1.40    0.20
  -2   4   8    1.60    0.20
  -2   4   8    1.40    0.20
  -2   4   8    1.70    0.20
  -2   4   8    1.60    0.10
   1  -4  -8   70.59    1.80
   1  -4  -8   68.49    1.70
   1  -4  -8   67.69    1.80
  -1   4   8   72.79    2.00
  -1   4   8   69.29    2.10
  -1   4   8   71.69    1.80
  -1   4   8   69.19    1.70
  -1   4   8   70.19    1.80
   0  -4  -8    4.50    0.20
   0  -4  -8    4.00    0.30
   0   4   8    5.00    0.30
   0   4   8    4.50    0.20
   0   4   8    4.50    0.40
   0   4   8    4.60    0.40
   0   4   8    4.20    0.20
   0   4   8    4.10    0.30
   0   4   8    4.50    0.30
  -1  -4  -8   29.80    0.80
  -1  -4  -8   27.80    0.80
  -1  -4  -8   28.70    0.90
  -1  -4  -8   30.00    0.90
   1   4   8   29.50    1.00
   1   4   8   28.30    0.90
   1   4   8   28.90    0.80
   1   4   8   30.10    0.80
  -2  -4  -8   60.79    1.40
  -2  -4  -8   61.79    1.60
  -2  -4  -8   62.49    1.60
  -2  -4  -8   60.79    1.60
   2   4   8   58.89    1.60
   2   4   8   58.39    1.60
   2   4   8   59.69    1.60
   2   4   8   60.99    1.50
   2   4   8   56.99    1.70
  -3  -4  -8    1.70    0.20
  -3  -4  -8    2.00    0.20
  -3  -4  -8    1.70    0.20
  -3  -4  -8    2.00    0.20
  -3  -4  -8    1.30    0.20
   3   4   8    1.60    0.20
   3   4   8    2.10    0.20
   3   4   8    1.70    0.20
  -4  -4  -8    2.90    0.30
  -4  -4  -8    2.20    0.30
  -4  -4  -8    3.20    0.30
  -4  -4  -8    2.30    0.20
   4   4   8    2.30    0.30
   4   4   8    2.80    0.20
   4   4   8    3.20    0.20
   4   4   8    2.90    0.20
  -5  -4  -8    0.80    0.20
  -5  -4  -8    1.10    0.20
  -5  -4  -8    1.00    0.20
   5   4   8    1.20    0.20
   5   4   8    1.20    0.20
   5   4   8    0.60    0.20
   5   4   8    0.80    0.10
  -6  -4  -8   61.39    1.70
  -6  -4  -8   57.09    1.70
   6   4   8   55.79    1.60
   6   4   8   56.99    1.50
   6   4   8   56.39    1.60
   6   4   8   55.89    1.70
  -7  -4  -8    9.50    0.50
   7   4   8   10.10    0.40
   7   4   8   10.10    0.60
   7   4   8    8.90    0.50
   6  -5  -8    1.60    0.30
  -6   5   8    1.40    0.30
  -6   5   8    1.90    0.20
  -6   5   8    1.40    0.20
  -6   5   8    1.10    0.30
   5  -5  -8   18.10    1.20
   5  -5  -8   18.30    0.70
  -5   5   8   17.90    0.70
  -5   5   8   17.30    0.70
  -5   5   8   18.20    0.70
   4  -5  -8    6.30    0.40
   4  -5  -8    6.10    0.40
   4  -5  -8    6.80    0.70
  -4   5   8    6.30    0.40
  -4   5   8    6.60    0.40
  -4   5   8    6.90    0.40
   3  -5  -8    1.40    0.20
   3  -5  -8    1.70    0.20
   3  -5  -8    1.60    0.10
   3  -5  -8    1.70    0.40
  -3   5   8    1.40    0.20
  -3   5   8    1.60    0.20
  -3   5   8    1.50    0.20
   2  -5  -8    0.00    0.10
   2  -5  -8    0.30    0.20
   2  -5  -8    0.20    0.10
   2  -5  -8    0.20    0.10
  -2   5   8    0.40    0.10
  -2   5   8    0.00    0.10
  -2   5   8    0.30    0.10
  -2   5   8    0.30    0.10
  -2   5   8    0.40    0.10
   1  -5  -8    3.20    0.30
   1  -5  -8    3.50    0.30
   1  -5  -8    3.30    0.20
  -1   5   8    3.70    0.30
  -1   5   8    3.80    0.20
  -1   5   8    3.40    0.20
  -1   5   8    3.90    0.40
  -1   5   8    3.20    0.20
   0  -5  -8  108.09    2.50
   0  -5  -8  108.89    2.70
   0   5   8  109.39    2.70
   0   5   8  110.59    2.90
   0   5   8  108.19    2.50
   0   5   8  103.99    2.70
   0   5   8  103.89    2.80
   0   5   8  108.49    2.60
  -1  -5  -8    2.90    0.30
  -1  -5  -8    2.90    0.20
  -1  -5  -8    2.90    0.20
  -1  -5  -8    3.00    0.30
   1   5   8    3.00    0.30
   1   5   8    2.90    0.20
   1   5   8    2.90    0.20
   1   5   8    2.90    0.20
   1   5   8    3.00    0.40
  -2  -5  -8    9.00    0.40
  -2  -5  -8    8.50    0.40
  -2  -5  -8    8.20    0.30
  -2  -5  -8    7.60    0.40
  -2  -5  -8    9.50    0.40
   2   5   8    7.50    0.50
   2   5   8    8.80    0.40
   2   5   8    8.30    0.30
   2   5   8    8.30    0.40
   2   5   8    8.00    0.50
  -3  -5  -8    1.10    0.20
  -3  -5  -8    1.10    0.20
  -3  -5  -8    1.00    0.20
  -3  -5  -8    1.40    0.20
  -3  -5  -8    1.20    0.20
   3   5   8    1.00    0.20
   3   5   8    0.90    0.10
   3   5   8    1.20    0.10
   3   5   8    0.40    0.10
  -4  -5  -8   21.30    0.70
  -4  -5  -8   20.80    0.80
  -4  -5  -8   20.50    0.70
  -4  -5  -8   21.50    0.70
   4   5   8   21.30    0.60
   4   5   8   20.90    0.80
   4   5   8   22.10    0.70
   4   5   8   22.10    0.80
  -5  -5  -8   17.70    0.70
  -5  -5  -8   18.90    0.70
  -5  -5  -8   17.00    0.50
   5   5   8   16.60    0.70
   5   5   8   16.70    0.70
   5   5   8   17.20    0.50
   5   5   8   18.50    0.70
  -6  -5  -8   59.49    1.70
  -6  -5  -8   57.19    1.70
   6   5   8   57.19    1.50
   6   5   8   58.79    1.70
   6   5   8   55.89    1.80
   6   5   8   56.69    1.60
  -7  -5  -8    0.10    0.10
   7   5   8   -0.20    0.10
   7   5   8   -0.10    0.10
   6  -6  -8    1.10    0.20
  -6   6   8    0.90    0.20
  -6   6   8    1.30    0.30
  -6   6   8    0.70    0.20
   5  -6  -8    0.20    0.30
   5  -6  -8    0.60    0.20
   5  -6  -8    0.20    0.10
  -5   6   8    0.40    0.20
  -5   6   8    0.40    0.20
  -5   6   8    0.30    0.10
   4  -6  -8    3.60    0.60
   4  -6  -8    3.70    0.30
   4  -6  -8    4.10    0.40
  -4   6   8    3.40    0.30
  -4   6   8    3.60    0.40
  -4   6   8    3.60    0.30
   3  -6  -8    6.60    0.30
   3  -6  -8    5.90    0.60
   3  -6  -8    7.20    0.40
   3  -6  -8    6.40    0.40
  -3   6   8    6.20    0.40
  -3   6   8    6.70    0.40
  -3   6   8    6.50    0.40
  -3   6   8    6.50    0.20
   2  -6  -8   37.70    1.20
   2  -6  -8   38.20    1.40
   2  -6  -8   38.70    1.20
   2  -6  -8   37.70    1.00
  -2   6   8   39.00    1.00
  -2   6   8   39.20    1.30
  -2   6   8   39.60    1.20
  -2   6   8   39.50    1.20
  -2   6   8   39.20    1.10
   1  -6  -8    1.50    0.10
   1  -6  -8    0.70    0.20
   1  -6  -8    1.10    0.20
  -1   6   8    1.60    0.20
  -1   6   8    1.10    0.20
  -1   6   8    1.30    0.20
  -1   6   8    1.40    0.20
  -1   6   8    1.30    0.20
  -1   6   8    1.40    0.30
   0  -6  -8   56.29    1.50
   0  -6  -8   54.49    1.40
   0  -6  -8   57.09    1.60
   0  -6  -8   56.09    1.40
   0   6   8   57.29    1.70
   0   6   8   48.80    1.40
   0   6   8   56.09    1.60
   0   6   8   56.19    1.30
   0   6   8   55.09    1.50
   0   6   8   57.29    1.50
  -1  -6  -8   58.39    1.40
  -1  -6  -8   59.39    1.60
  -1  -6  -8   61.09    1.50
  -1  -6  -8   56.69    1.60
   1   6   8   56.19    1.80
   1   6   8   57.69    1.50
   1   6   8   59.89    1.40
   1   6   8   59.29    1.60
   1   6   8   55.19    1.60
   1   6   8   55.89    1.60
  -2  -6  -8   76.19    1.90
  -2  -6  -8   76.19    1.90
  -2  -6  -8   72.99    2.00
  -2  -6  -8   71.59    1.70
  -2  -6  -8   74.29    2.00
   2   6   8   72.89    1.90
   2   6   8   74.39    1.80
   2   6   8   77.39    1.90
  -3  -6  -8    0.10    0.10
  -3  -6  -8    0.20    0.10
  -3  -6  -8    0.30    0.10
  -3  -6  -8    0.00    0.10
  -3  -6  -8    0.20    0.10
   3   6   8    0.10    0.10
   3   6   8    0.40    0.10
   3   6   8    0.10    0.10
   3   6   8    0.10    0.10
  -4  -6  -8   30.10    1.00
  -4  -6  -8   29.50    0.90
  -4  -6  -8   29.60    0.90
  -4  -6  -8   30.60    0.90
   4   6   8   30.40    1.00
   4   6   8   30.10    0.90
   4   6   8   28.40    1.10
   4   6   8   30.10    0.80
  -5  -6  -8   20.40    0.80
  -5  -6  -8   19.10    0.50
  -5  -6  -8   20.00    0.70
   5   6   8   19.70    0.70
   5   6   8   19.30    0.60
   5   6   8   18.90    0.80
   5   6   8   19.60    0.70
  -6  -6  -8   -0.10    0.10
  -6  -6  -8    0.00    0.10
   6   6   8   -0.10    0.10
   6   6   8    0.00    0.10
   6   6   8   -0.20    0.10
   6   6   8   -0.10    0.10
  -7  -6  -8    1.60    0.30
   7   6   8    1.70    0.30
   7   6   8    2.40    0.30
   6  -7  -8    1.40    0.30
  -6   7   8    1.70    0.30
  -6   7   8    1.20    0.30
  -6   7   8    1.50    0.20
   5  -7  -8    3.50    0.70
   5  -7  -8    4.60    0.40
  -5   7   8    4.80    0.50
  -5   7   8    4.70    0.40
   4  -7  -8   25.10    1.30
   4  -7  -8   24.20    0.70
   4  -7  -8   24.30    0.90
   4  -7  -8   24.20    0.90
   4  -7  -8   22.60    0.90
  -4   7   8   24.60    0.80
  -4   7   8   22.70    0.90
   3  -7  -8    0.10    0.20
   3  -7  -8    0.00    0.10
   3  -7  -8    0.30    0.10
   3  -7  -8    0.20    0.10
  -3   7   8    0.00    0.10
  -3   7   8    0.10    0.10
  -3   7   8    0.00    0.10
  -3   7   8    0.10    0.10
   2  -7  -8    0.00    0.10
   2  -7  -8    0.00    0.20
   2  -7  -8    0.10    0.10
   2  -7  -8    0.00    0.10
  -2   7   8    0.20    0.10
  -2   7   8    0.30    0.20
  -2   7   8   -0.10    0.10
  -2   7   8    0.00    0.10
  -2   7   8    0.10    0.10
   1  -7  -8   10.50    0.50
   1  -7  -8   10.50    0.40
  -1   7   8   10.20    0.40
  -1   7   8   10.80    0.50
  -1   7   8   10.70    0.60
  -1   7   8   10.80    0.50
  -1   7   8   10.80    0.50
  -1   7   8   11.70    0.50
   0  -7  -8   20.40    0.80
   0  -7  -8   21.50    0.80
   0  -7  -8   20.90    0.60
   0  -7  -8   21.30    0.70
   0   7   8   21.60    0.70
   0   7   8   21.10    0.90
   0   7   8   20.50    0.70
   0   7   8   21.50    0.80
   0   7   8   21.20    0.60
  -1  -7  -8   15.20    0.50
  -1  -7  -8   14.70    0.50
  -1  -7  -8   15.60    0.60
   1   7   8   15.60    0.50
   1   7   8   15.90    0.60
   1   7   8   14.60    0.80
   1   7   8   15.30    0.60
   1   7   8   15.90    0.60
  -2  -7  -8    0.20    0.10
  -2  -7  -8    0.30    0.10
  -2  -7  -8    0.30    0.10
  -2  -7  -8    0.40    0.10
  -2  -7  -8    0.30    0.10
   2   7   8    0.00    0.10
   2   7   8    0.10    0.10
   2   7   8    0.10    0.10
   2   7   8    0.40    0.10
  -3  -7  -8    0.30    0.10
  -3  -7  -8    0.20    0.10
  -3  -7  -8    0.60    0.10
  -3  -7  -8    0.50    0.10
   3   7   8    0.20    0.20
   3   7   8    0.50    0.10
   3   7   8    0.50    0.10
   3   7   8    0.40    0.10
  -4  -7  -8    0.10    0.10
  -4  -7  -8    0.20    0.10
  -4  -7  -8    0.20    0.10
  -4  -7  -8    0.00    0.10
   4   7   8    0.10    0.10
   4   7   8   -0.10    0.10
   4   7   8   -0.10    0.10
   4   7   8    0.00    0.10
  -5  -7  -8    0.30    0.10
  -5  -7  -8    0.30    0.10
   5   7   8    0.30    0.10
   5   7   8    0.10    0.20
   5   7   8    0.30    0.10
   5   7   8    0.50    0.20
  -6  -7  -8    0.60    0.20
  -6  -7  -8    0.30    0.10
   6   7   8    0.70    0.20
   6   7   8    0.60    0.20
   6   7   8    0.40    0.20
   6   7   8    0.60    0.10
  -7  -7  -8    2.00    0.30
  -7  -7  -8    1.60    0.30
   7   7   8    2.00    0.40
   7   7   8    1.40    0.20
   5  -8  -8    7.60    0.50
   5  -8  -8    7.80    0.50
   5  -8  -8    7.30    0.80
   5  -8  -8    8.20    0.40
  -5   8   8    8.30    0.50
  -5   8   8    7.70    0.60
   4  -8  -8   52.99    2.10
   4  -8  -8   56.39    1.40
   4  -8  -8   57.59    1.70
   4  -8  -8   54.29    1.70
  -4   8   8   57.09    1.60
  -4   8   8   54.69    1.70
   3  -8  -8   22.20    0.90
   3  -8  -8   22.10    0.70
   3  -8  -8   21.80    0.90
   3  -8  -8   21.30    1.10
   3  -8  -8   21.50    0.90
  -3   8   8   22.70    0.70
  -3   8   8   21.60    0.90
  -3   8   8   22.60    0.80
   2  -8  -8    1.40    0.20
   2  -8  -8    1.40    0.10
   2  -8  -8    1.70    0.20
   2  -8  -8    1.60    0.30
  -2   8   8    1.20    0.30
  -2   8   8    1.50    0.20
  -2   8   8    0.90    0.20
  -2   8   8    1.50    0.30
   1  -8  -8   10.40    0.50
   1  -8  -8   10.00    0.50
   1  -8  -8   11.20    0.40
  -1   8   8   13.20    0.50
  -1   8   8   11.00    0.50
  -1   8   8   12.40    0.70
  -1   8   8   11.40    0.60
  -1   8   8   11.60    0.50
   0  -8  -8  111.49    2.90
   0  -8  -8  113.49    2.90
   0  -8  -8  112.39    2.80
   0  -8  -8  114.49    2.70
   0   8   8  113.19    3.20
   0   8   8  116.19    2.90
   0   8   8  116.09    2.60
   0   8   8  113.79    2.90
  -1  -8  -8   10.40    0.50
  -1  -8  -8   10.40    0.30
  -1  -8  -8   10.50    0.40
   1   8   8   11.00    0.50
   1   8   8    9.70    0.50
   1   8   8   10.80    0.50
   1   8   8   10.00    0.40
   1   8   8    9.70    0.60
  -2  -8  -8    3.50    0.30
  -2  -8  -8    3.50    0.30
  -2  -8  -8    4.10    0.30
  -2  -8  -8    3.60    0.30
   2   8   8    3.30    0.40
   2   8   8    3.70    0.30
   2   8   8    4.10    0.20
   2   8   8    3.60    0.30
  -3  -8  -8   18.00    0.70
  -3  -8  -8   16.50    0.70
  -3  -8  -8   17.80    0.60
  -3  -8  -8   18.10    0.70
   3   8   8   16.60    0.80
   3   8   8   17.60    0.70
   3   8   8   17.50    0.50
   3   8   8   17.40    0.70
  -4  -8  -8    0.70    0.10
  -4  -8  -8    0.70    0.20
  -4  -8  -8    0.60    0.10
   4   8   8    0.60    0.20
   4   8   8    0.60    0.20
   4   8   8    0.60    0.10
   4   8   8    0.60    0.20
  -5  -8  -8   17.50    0.70
  -5  -8  -8   18.20    0.70
   5   8   8   17.40    0.90
   5   8   8   17.10    0.70
   5   8   8   17.50    0.70
   5   8   8   17.50    0.60
  -6  -8  -8    0.10    0.10
  -6  -8  -8    0.10    0.10
   6   8   8    0.10    0.20
   6   8   8    0.10    0.10
   6   8   8    0.00    0.10
   6   8   8   -0.10    0.10
  -7  -8  -8    3.00    0.30
   7   8   8    3.00    0.30
   7   8   8    3.00    0.40
   5  -9  -8    0.60    0.20
   5  -9  -8    0.40    0.10
   5  -9  -8    0.70    0.30
  -5   9   8    0.50    0.20
   4  -9  -8    0.10    0.20
   4  -9  -8    0.10    0.10
   4  -9  -8    0.20    0.20
  -4   9   8    0.30    0.20
   3  -9  -8   66.29    1.70
   3  -9  -8   71.19    2.00
   3  -9  -8   69.19    2.30
   3  -9  -8   65.49    2.00
  -3   9   8   67.09    1.70
  -3   9   8   67.59    2.00
   2  -9  -8    8.50    0.50
   2  -9  -8    8.30    0.40
   2  -9  -8    8.10    0.50
   2  -9  -8    7.60    0.50
   2  -9  -8    8.60    0.50
  -2   9   8    8.90    0.60
  -2   9   8    9.90    0.60
  -2   9   8    9.00    0.40
   1  -9  -8   43.40    1.40
   1  -9  -8   44.10    1.40
   1  -9  -8   43.60    1.10
   1  -9  -8   44.40    1.40
  -1   9   8   44.20    1.40
  -1   9   8   43.40    1.00
  -1   9   8   44.00    1.30
  -1   9   8   45.40    1.30
  -1   9   8   46.20    1.60
   0  -9  -8   23.40    0.90
   0  -9  -8   23.60    0.90
   0  -9  -8   23.20    0.90
   0  -9  -8   22.10    0.60
   0   9   8   24.40    1.10
   0   9   8   23.00    0.90
   0   9   8   22.40    0.60
   0   9   8   22.70    0.80
   0   9   8   21.00    0.80
  -1  -9  -8  436.96    9.80
  -1  -9  -8  427.16   10.10
  -1  -9  -8  449.26   10.00
  -1  -9  -8  439.46   10.10
  -1  -9  -8  431.66   10.10
   1   9   8  428.26   10.00
   1   9   8  431.26   10.10
   1   9   8  441.76    9.80
   1   9   8  437.46   10.50
  -2  -9  -8    0.20    0.10
  -2  -9  -8    0.10    0.10
  -2  -9  -8    0.10    0.10
   2   9   8    0.40    0.20
   2   9   8    0.30    0.10
   2   9   8    0.30    0.10
   2   9   8    0.20    0.20
  -3  -9  -8   15.90    0.60
  -3  -9  -8   15.00    0.60
  -3  -9  -8   16.10    0.60
  -3  -9  -8   16.00    0.60
   3   9   8   16.10    0.60
   3   9   8   16.20    0.90
   3   9   8   14.70    0.70
   3   9   8   17.70    0.70
   3   9   8   15.90    0.50
  -4  -9  -8   39.90    1.20
  -4  -9  -8   38.20    1.10
  -4  -9  -8   38.90    1.20
   4   9   8   38.00    1.20
   4   9   8   36.40    1.40
   4   9   8   37.80    1.20
   4   9   8   39.50    1.00
  -5  -9  -8    2.50    0.30
  -5  -9  -8    2.20    0.30
   5   9   8    2.90    0.20
   5   9   8    2.30    0.30
   5   9   8    2.10    0.30
   5   9   8    2.30    0.40
  -6  -9  -8    1.40    0.20
  -6  -9  -8    1.40    0.30
   6   9   8    1.30    0.20
   6   9   8    1.40    0.30
   5 -10  -8   19.60    0.70
   5 -10  -8   20.20    0.90
   5 -10  -8   21.20    0.90
  -5  10   8   20.40    1.00
   4 -10  -8    8.10    0.40
   4 -10  -8    7.30    0.50
   4 -10  -8    9.30    0.60
  -4  10   8    7.60    0.60
  -4  10   8    7.60    0.40
   3 -10  -8    0.00    0.10
   3 -10  -8    0.10    0.20
   3 -10  -8    0.20    0.20
  -3  10   8   -0.30    0.20
  -3  10   8    0.20    0.20
  -3  10   8    0.00    0.10
   2 -10  -8    0.30    0.10
   2 -10  -8    0.00    0.10
   2 -10  -8    0.40    0.20
  -2  10   8    0.00    0.10
  -2  10   8    0.30    0.20
  -2  10   8    0.10    0.20
   1 -10  -8   18.00    0.80
   1 -10  -8   17.60    0.80
   1 -10  -8   17.80    0.60
  -1  10   8   19.80    1.00
  -1  10   8   18.80    0.80
  -1  10   8   18.90    0.50
  -1  10   8   17.30    0.70
   0 -10  -8    9.90    0.60
   0 -10  -8    9.80    0.50
   0 -10  -8    9.90    0.40
   0  10   8    9.90    0.50
   0  10   8    9.70    0.70
   0  10   8   10.00    0.50
   0  10   8    9.30    0.40
  -1 -10  -8   30.60    1.00
  -1 -10  -8   27.70    1.00
  -1 -10  -8   30.00    0.80
  -1 -10  -8   28.70    0.90
   1  10   8   29.70    0.80
   1  10   8   30.30    1.00
   1  10   8   30.10    1.30
   1  10   8   30.30    1.00
  -2 -10  -8    3.00    0.30
  -2 -10  -8    2.80    0.30
  -2 -10  -8    3.20    0.30
   2  10   8    3.10    0.50
   2  10   8    3.20    0.30
   2  10   8    3.30    0.30
   2  10   8    3.20    0.20
  -3 -10  -8   20.00    0.70
  -3 -10  -8   19.10    0.70
  -3 -10  -8   20.30    0.70
   3  10   8   20.20    0.60
   3  10   8   21.50    0.80
   3  10   8   19.90    0.80
   3  10   8   19.00    1.00
  -4 -10  -8    4.50    0.30
  -4 -10  -8    4.10    0.30
   4  10   8    4.20    0.50
   4  10   8    4.10    0.30
   4  10   8    3.90    0.30
   4  10   8    4.30    0.30
  -5 -10  -8    1.10    0.20
  -5 -10  -8    0.60    0.30
   5  10   8    0.70    0.20
   5  10   8    0.20    0.20
   5  10   8    0.60    0.10
   5  10   8    0.70    0.20
  -6 -10  -8    6.50    0.40
   6  10   8    7.90    0.60
   6  10   8    6.10    0.40
   4 -11  -8    0.20    0.10
   4 -11  -8    0.20    0.20
   4 -11  -8   -0.10    0.20
  -4  11   8   -0.10    0.10
  -4  11   8    0.20    0.20
   3 -11  -8    7.40    0.50
   3 -11  -8    7.90    0.40
   3 -11  -8    7.70    0.50
  -3  11   8    9.00    0.70
  -3  11   8    8.90    0.40
  -3  11   8    8.80    0.60
   2 -11  -8    3.70    0.40
   2 -11  -8    4.10    0.30
   2 -11  -8    5.50    0.40
  -2  11   8    4.50    0.30
  -2  11   8    5.10    0.60
  -2  11   8    3.70    0.40
   1 -11  -8    9.90    0.40
   1 -11  -8   11.30    0.60
   1 -11  -8   10.60    0.60
  -1  11   8   10.40    0.30
  -1  11   8   10.20    0.50
  -1  11   8    9.80    0.70
   0 -11  -8   67.59    1.70
   0 -11  -8   69.39    2.00
   0 -11  -8   68.59    2.00
   0  11   8   71.99    2.00
   0  11   8   70.49    1.70
   0  11   8   69.19    1.90
   0  11   8   68.09    2.30
  -1 -11  -8   10.20    0.50
  -1 -11  -8   10.70    0.30
  -1 -11  -8   10.70    0.60
  -1 -11  -8   10.30    0.50
   1  11   8    9.60    0.40
   1  11   8   10.00    0.60
   1  11   8   10.30    0.50
   1  11   8   10.70    0.80
  -2 -11  -8   12.80    0.60
  -2 -11  -8   13.20    0.60
  -2 -11  -8   12.40    0.60
   2  11   8   11.80    0.60
   2  11   8   13.10    0.60
   2  11   8   12.70    0.50
   2  11   8   11.80    0.80
  -3 -11  -8    1.80    0.20
  -3 -11  -8    1.70    0.20
  -3 -11  -8    1.80    0.20
   3  11   8    1.70    0.40
   3  11   8    1.50    0.20
   3  11   8    2.30    0.30
   3  11   8    1.80    0.30
  -4 -11  -8   26.20    0.90
  -4 -11  -8   27.30    0.80
   4  11   8   28.60    0.80
   4  11   8   27.00    1.00
   4  11   8   29.20    1.30
   4  11   8   27.70    1.00
  -5 -11  -8    0.30    0.20
   5  11   8    0.10    0.10
   5  11   8    0.10    0.20
   5  11   8    0.30    0.20
   5  11   8    0.10    0.10
  -6 -11  -8    0.00    0.10
   6  11   8   -0.10    0.10
   6  11   8    0.00    0.20
   4 -12  -8    0.20    0.20
   4 -12  -8    0.20    0.10
   4 -12  -8    0.30    0.20
  -4  12   8    0.10    0.10
  -4  12   8   -0.10    0.20
   3 -12  -8    4.90    0.50
   3 -12  -8    3.30    0.40
   3 -12  -8    3.80    0.30
  -3  12   8    4.10    0.60
  -3  12   8    3.70    0.30
  -3  12   8    4.20    0.60
   2 -12  -8   11.50    0.70
   2 -12  -8   11.80    0.50
   2 -12  -8   10.10    0.60
  -2  12   8   11.10    0.80
  -2  12   8   11.70    0.60
   1 -12  -8    0.60    0.10
   1 -12  -8    0.30    0.20
   1 -12  -8    0.20    0.20
  -1  12   8    0.40    0.20
  -1  12   8    0.40    0.30
  -1  12   8    0.50    0.10
   0 -12  -8   43.10    1.10
   0 -12  -8   42.80    1.40
   0 -12  -8   44.70    1.40
   0  12   8   43.60    1.80
   0  12   8   42.00    1.10
   0  12   8   44.40    1.40
   0  12   8   44.20    1.40
  -1 -12  -8    4.10    0.40
  -1 -12  -8    4.00    0.40
   1  12   8    3.50    0.50
   1  12   8    3.50    0.40
   1  12   8    3.70    0.30
   1  12   8    3.70    0.40
  -2 -12  -8   13.30    0.60
  -2 -12  -8   14.10    0.60
  -2 -12  -8   13.90    0.60
   2  12   8   12.80    0.70
   2  12   8   14.20    0.70
   2  12   8   13.50    0.50
   2  12   8   15.00    0.90
  -3 -12  -8    3.60    0.30
  -3 -12  -8    3.20    0.30
   3  12   8    3.10    0.40
   3  12   8    3.70    0.30
   3  12   8    2.90    0.50
   3  12   8    3.50    0.30
  -4 -12  -8    1.50    0.20
   4  12   8    1.50    0.30
   4  12   8    1.40    0.40
   4  12   8    1.40    0.30
   4  12   8    1.00    0.20
  -5 -12  -8    0.10    0.10
   5  12   8    0.00    0.20
   5  12   8    0.20    0.20
   5  12   8    0.20    0.20
   5  12   8    0.10    0.10
   3 -13  -8    2.50    0.40
   3 -13  -8    2.00    0.40
   3 -13  -8    2.00    0.20
  -3  13   8    2.20    0.30
  -3  13   8    2.10    0.50
   2 -13  -8    2.40    0.20
   2 -13  -8    2.20    0.40
   2 -13  -8    2.30    0.40
  -2  13   8    2.40    0.30
  -2  13   8    2.90    0.50
   1 -13  -8   27.10    1.10
   1 -13  -8   27.00    0.80
   1 -13  -8   26.70    1.10
  -1  13   8   29.50    0.80
  -1  13   8   28.20    1.40
  -1  13   8   26.40    1.00
   0 -13  -8    6.20    0.30
   0 -13  -8    5.70    0.50
   0 -13  -8    6.40    0.50
   0  13   8    6.00    0.30
   0  13   8    7.10    0.50
   0  13   8    5.50    0.70
   0  13   8    6.70    0.50
  -1 -13  -8   16.00    0.70
  -1 -13  -8   15.60    0.70
   1  13   8   15.00    1.00
   1  13   8   16.10    0.80
   1  13   8   16.30    0.60
   1  13   8   16.30    0.70
  -2 -13  -8    1.10    0.20
  -2 -13  -8    1.10    0.20
  -2 -13  -8    1.40    0.20
   2  13   8    1.00    0.20
   2  13   8    1.30    0.30
   2  13   8    0.60    0.30
   2  13   8    1.00    0.30
  -3 -13  -8    1.80    0.20
  -3 -13  -8    1.50    0.20
   3  13   8    1.40    0.30
   3  13   8    1.00    0.40
   3  13   8    1.40    0.30
   3  13   8    1.40    0.20
  -4 -13  -8    1.80    0.30
   4  13   8    2.40    0.50
   4  13   8    1.90    0.30
   4  13   8    1.40    0.30
   4  13   8    2.20    0.20
  -5 -13  -8    1.50    0.30
   5  13   8    0.90    0.30
   5  13   8    1.00    0.40
   5  13   8    1.50    0.30
   5  13   8    1.30    0.20
   2 -14  -8    0.30    0.20
   2 -14  -8    0.40    0.20
   2 -14  -8    0.20    0.10
  -2  14   8    0.40    0.30
  -2  14   8    0.30    0.20
   1 -14  -8   22.80    1.00
   1 -14  -8   21.10    0.90
   1 -14  -8   20.90    0.70
  -1  14   8   20.40    0.60
  -1  14   8   20.40    0.90
  -1  14   8   22.10    1.30
   0 -14  -8    5.60    0.20
   0 -14  -8    5.50    0.50
   0 -14  -8    5.90    0.50
   0  14   8    5.20    0.70
   0  14   8    6.20    0.50
   0  14   8    6.00    0.30
   0  14   8    5.30    0.50
  -1 -14  -8    3.10    0.40
  -1 -14  -8    2.70    0.40
   1  14   8    2.90    0.30
   1  14   8    2.50    0.40
   1  14   8    3.10    0.40
   1  14   8    2.50    0.50
  -2 -14  -8    0.10    0.20
  -2 -14  -8    0.10    0.20
  -2 -14  -8    0.00    0.10
   2  14   8    0.00    0.30
   2  14   8    0.10    0.10
   2  14   8    0.20    0.20
   2  14   8    0.10    0.20
  -3 -14  -8    0.00    0.10
  -3 -14  -8    0.10    0.10
   3  14   8    0.10    0.20
   3  14   8   -0.20    0.20
   3  14   8    0.10    0.20
   3  14   8    0.10    0.10
  -4 -14  -8    0.50    0.20
   4  14   8    0.40    0.20
   4  14   8    0.60    0.40
   4  14   8    0.50    0.20
   4  14   8    0.40    0.20
   1 -15  -8    0.40    0.10
   1 -15  -8    0.70    0.30
   1 -15  -8    0.50    0.20
  -1  15   8    0.50    0.10
  -1  15   8    0.40    0.40
  -1  15   8    0.40    0.20
   0 -15  -8    0.60    0.20
   0 -15  -8    0.20    0.20
   0  15   8    0.10    0.10
   0  15   8   -0.30    0.30
   0  15   8   -0.10    0.20
  -1 -15  -8    0.40    0.20
  -1 -15  -8    0.50    0.20
   1  15   8    0.70    0.20
   1  15   8    0.40    0.10
   1  15   8    0.20    0.20
   1  15   8    0.20    0.30
  -2 -15  -8    0.50    0.20
   2  15   8    1.00    0.30
   2  15   8    0.60    0.40
   2  15   8    1.00    0.30
   2  15   8    0.90    0.20
  -3 -15  -8    0.50    0.20
  -3 -15  -8    0.50    0.20
   3  15   8    0.50    0.30
   3  15   8    0.60    0.20
   3  15   8    0.70    0.20
   3  15   8    0.60    0.30
  -1 -16  -8   27.60    1.10
  -1 -16  -8   26.00    1.00
   1  16   8   25.60    1.50
   1  16   8   25.80    0.80
   1  16   8   27.70    1.20
   1  16   8   24.50    1.10
   1  10  -9    0.40    0.30
   1  10  -9    0.50    0.30
   1  10  -9    0.60    0.20
  -1 -10   9    0.30    0.20
   0  10  -9    0.50    0.30
   0  10  -9    0.20    0.20
   0  10  -9    0.10    0.20
   0 -10   9    0.20    0.20
   3   9  -9   10.00    0.70
  -3  -9   9   11.20    0.60
  -3  -9   9   11.50    0.60
   2   9  -9   24.90    1.20
  -2  -9   9   25.30    1.00
   1   9  -9    2.00    0.30
   1   9  -9    1.90    0.20
   1   9  -9    2.00    0.40
  -1  -9   9    1.40    0.30
   0   9  -9    0.30    0.20
   0   9  -9    0.40    0.20
   0   9  -9    0.20    0.20
   0  -9   9    0.20    0.10
   0  -9   9    0.20    0.20
  -1   9  -9   19.00    0.90
  -1   9  -9   16.80    0.70
  -1   9  -9   18.50    1.00
   1  -9   9   18.20    0.70
  -2   9  -9   -0.20    0.20
  -2   9  -9    0.10    0.20
  -2   9  -9    0.10    0.20
   2  -9   9   -0.10    0.10
   2  -9   9    0.20    0.20
   4   8  -9    1.40    0.30
  -4  -8   9    1.50    0.20
  -4  -8   9    1.50    0.20
  -4  -8   9    2.20    0.30
  -4  -8   9    1.40    0.30
   3   8  -9   -0.30    0.20
  -3  -8   9   -0.10    0.10
  -3  -8   9    0.00    0.20
  -3  -8   9    0.00    0.10
   2   8  -9   23.70    1.10
  -2  -8   9   24.20    0.90
  -2  -8   9   23.60    0.90
   1   8  -9    0.20    0.10
   1   8  -9    0.00    0.20
   1   8  -9    0.10    0.20
  -1  -8   9    0.10    0.20
   0   8  -9    3.00    0.30
   0   8  -9    3.20    0.50
   0   8  -9    2.90    0.40
   0  -8   9    3.00    0.20
   0  -8   9    2.40    0.30
  -1   8  -9   12.90    0.60
  -1   8  -9   13.70    0.70
  -1   8  -9   13.00    0.80
   1  -8   9   13.40    0.70
   1  -8   9   13.30    0.60
   1  -8   9   14.20    0.70
  -2   8  -9    0.50    0.20
  -2   8  -9    0.60    0.20
  -2   8  -9    0.30    0.20
   2  -8   9    0.30    0.20
   2  -8   9    0.50    0.20
  -3   8  -9    3.30    0.50
  -3   8  -9    2.90    0.40
  -3   8  -9    2.90    0.30
   3  -8   9    2.90    0.40
   3  -8   9    2.30    0.40
   4   7  -9    1.30    0.30
  -4  -7   9    1.30    0.20
  -4  -7   9    0.70    0.20
  -4  -7   9    1.00    0.20
  -4  -7   9    1.40    0.20
   3   7  -9    0.30    0.20
  -3  -7   9    0.20    0.10
  -3  -7   9    0.20    0.10
  -3  -7   9    0.20    0.10
  -3  -7   9    0.20    0.20
   2   7  -9    3.20    0.40
  -2  -7   9    3.20    0.30
  -2  -7   9    3.00    0.30
  -2  -7   9    2.80    0.30
   1   7  -9    1.80    0.30
   1   7  -9    1.00    0.30
   1   7  -9    2.10    0.20
  -1  -7   9    1.60    0.30
   0   7  -9    2.30    0.30
   0   7  -9    1.40    0.30
   0   7  -9    2.40    0.20
   0  -7   9    2.20    0.30
   0  -7   9    2.70    0.20
  -1   7  -9    3.10    0.30
  -1   7  -9    3.80    0.40
  -1   7  -9    2.80    0.40
   1  -7   9    2.80    0.30
   1  -7   9    3.60    0.40
   1  -7   9    2.90    0.30
  -2   7  -9    1.30    0.30
  -2   7  -9    1.20    0.20
  -2   7  -9    0.80    0.20
   2  -7   9    1.10    0.30
   2  -7   9    1.20    0.20
  -3   7  -9   32.00    1.30
  -3   7  -9   33.30    1.00
  -3   7  -9   31.50    1.20
   3  -7   9   33.50    1.20
   3  -7   9   29.70    1.10
  -4   7  -9    0.20    0.30
  -4   7  -9    0.00    0.20
   4  -7   9    0.00    0.20
   4  -7   9    0.00    0.20
   4  -7   9    0.00    0.10
   4  -7   9    0.00    0.20
  -5  -6   9    4.30    0.50
  -5  -6   9    4.20    0.30
  -5  -6   9    4.00    0.20
  -5  -6   9    3.90    0.30
   4   6  -9    7.80    0.50
  -4  -6   9    9.30    0.40
  -4  -6   9    8.80    0.40
  -4  -6   9    9.30    0.60
  -4  -6   9    9.00    0.40
   3   6  -9   26.70    1.00
  -3  -6   9   27.80    1.00
  -3  -6   9   27.70    0.90
  -3  -6   9   28.10    0.90
  -3  -6   9   26.80    0.90
   2   6  -9    1.70    0.30
  -2  -6   9    1.90    0.30
  -2  -6   9    2.10    0.30
  -2  -6   9    2.30    0.30
  -2  -6   9    2.00    0.20
   1   6  -9    2.00    0.30
   1   6  -9    2.60    0.20
   1   6  -9    3.30    0.30
  -1  -6   9    3.10    0.30
  -1  -6   9    3.00    0.30
  -1  -6   9    2.20    0.30
   0   6  -9    7.70    0.40
   0   6  -9    7.80    0.60
   0   6  -9    8.50    0.50
   0  -6   9    7.70    0.30
   0  -6   9    7.60    0.50
  -1   6  -9    2.90    0.30
  -1   6  -9    3.10    0.40
  -1   6  -9    2.80    0.30
   1  -6   9    3.10    0.30
   1  -6   9    3.10    0.30
   1  -6   9    3.00    0.30
  -2   6  -9    0.10    0.10
  -2   6  -9   -0.20    0.20
  -2   6  -9    0.20    0.20
   2  -6   9    0.00    0.10
   2  -6   9   -0.10    0.10
  -3   6  -9   37.50    1.50
  -3   6  -9   40.30    1.10
  -3   6  -9   37.90    1.30
   3  -6   9   37.90    1.30
   3  -6   9   40.70    1.00
   3  -6   9   41.30    1.30
   3  -6   9   39.00    1.40
  -4   6  -9   43.80    1.50
  -4   6  -9   44.10    1.60
   4  -6   9   45.70    1.20
   4  -6   9   41.70    1.40
   4  -6   9   44.60    1.50
   4  -6   9   46.50    1.40
  -5  -5   9    7.60    0.30
  -5  -5   9    7.90    0.60
  -5  -5   9    7.20    0.40
  -5  -5   9    7.60    0.30
   4   5  -9    3.70    0.40
  -4  -5   9    3.80    0.40
  -4  -5   9    4.60    0.30
  -4  -5   9    3.80    0.20
  -4  -5   9    3.80    0.30
   3   5  -9    0.60    0.20
  -3  -5   9    0.20    0.10
  -3  -5   9    0.30    0.10
  -3  -5   9    0.20    0.10
  -3  -5   9    0.30    0.20
   2   5  -9   50.09    1.60
   2   5  -9   52.89    1.50
  -2  -5   9   52.69    1.50
  -2  -5   9   51.19    1.50
  -2  -5   9   52.59    1.50
  -2  -5   9   52.79    1.40
   1   5  -9    0.20    0.10
   1   5  -9    0.20    0.10
   1   5  -9    0.10    0.20
  -1  -5   9    0.30    0.20
  -1  -5   9    0.20    0.10
  -1  -5   9    0.40    0.10
  -1  -5   9    0.40    0.10
   0   5  -9    1.40    0.30
   0   5  -9    1.60    0.20
   0   5  -9    1.80    0.30
   0  -5   9    1.90    0.20
   0  -5   9    1.20    0.20
   0  -5   9    1.70    0.20
  -1   5  -9    4.30    0.30
  -1   5  -9    4.30    0.40
  -1   5  -9    3.30    0.40
   1  -5   9    4.40    0.40
   1  -5   9    4.50    0.40
   1  -5   9    4.40    0.30
  -2   5  -9    0.10    0.20
  -2   5  -9    0.10    0.10
  -2   5  -9    0.00    0.10
   2  -5   9   -0.10    0.10
   2  -5   9    0.20    0.10
  -3   5  -9    1.50    0.30
  -3   5  -9    2.00    0.40
  -3   5  -9    1.80    0.20
   3  -5   9    1.80    0.20
   3  -5   9    1.90    0.30
   3  -5   9    1.10    0.30
   3  -5   9    1.50    0.20
  -4   5  -9   15.90    0.90
  -4   5  -9   16.40    0.80
   4  -5   9   17.20    0.80
   4  -5   9   17.60    0.80
   4  -5   9   17.00    0.70
   4  -5   9   17.10    0.60
  -5   5  -9    0.70    0.20
  -5   5  -9    0.50    0.30
   5  -5   9    0.50    0.20
   5  -5   9    0.10    0.10
   5  -5   9    0.90    0.20
   5  -5   9    0.30    0.20
  -5  -4   9    3.90    0.20
  -5  -4   9    2.90    0.40
  -5  -4   9    4.00    0.20
  -5  -4   9    4.00    0.30
   4   4  -9    0.20    0.20
  -4  -4   9    0.20    0.20
  -4  -4   9    0.00    0.10
  -4  -4   9    0.30    0.10
  -4  -4   9    0.20    0.10
   3   4  -9    7.10    0.40
  -3  -4   9    7.20    0.40
  -3  -4   9    7.50    0.40
  -3  -4   9    7.50    0.30
  -3  -4   9    7.90    0.40
   2   4  -9    1.20    0.20
   2   4  -9    1.40    0.30
  -2  -4   9    1.50    0.20
  -2  -4   9    1.60    0.20
  -2  -4   9    1.30    0.20
  -2  -4   9    1.40    0.20
   1   4  -9    0.00    0.10
   1   4  -9    0.00    0.20
   1   4  -9   -0.10    0.10
  -1  -4   9   -0.10    0.10
  -1  -4   9    0.00    0.10
  -1  -4   9    0.10    0.10
  -1  -4   9    0.00    0.10
  -1  -4   9    0.00    0.10
   0   4  -9   -0.10    0.10
   0   4  -9    0.10    0.10
   0   4  -9    0.30    0.20
   0  -4   9    0.10    0.10
   0  -4   9    0.10    0.10
   0  -4   9    0.20    0.10
   0  -4   9   -0.20    0.10
   0  -4   9    0.20    0.10
  -1   4  -9    5.10    0.30
  -1   4  -9    5.10    0.50
  -1   4  -9    4.50    0.40
   1  -4   9    4.80    0.30
   1  -4   9    4.60    0.40
   1  -4   9    4.70    0.40
  -2   4  -9    0.10    0.10
  -2   4  -9    0.10    0.20
  -2   4  -9    0.20    0.20
   2  -4   9    0.10    0.10
   2  -4   9    0.10    0.10
   2  -4   9    0.00    0.10
   2  -4   9    0.40    0.20
   2  -4   9    0.10    0.10
  -3   4  -9    0.10    0.10
  -3   4  -9   -0.10    0.10
  -3   4  -9    0.20    0.20
   3  -4   9    0.20    0.10
   3  -4   9   -0.20    0.10
   3  -4   9    0.20    0.10
   3  -4   9    0.00    0.10
  -4   4  -9    2.30    0.40
  -4   4  -9    2.70    0.30
   4  -4   9    2.50    0.20
   4  -4   9    2.30    0.30
   4  -4   9    2.70    0.30
   4  -4   9    2.00    0.30
  -5   4  -9    0.70    0.20
  -5   4  -9    0.30    0.20
   5  -4   9    0.40    0.20
   5  -4   9    0.50    0.20
   5  -4   9    0.40    0.20
   5  -4   9    0.40    0.20
  -6  -3   9   15.20    0.50
  -6  -3   9   14.50    0.40
  -6  -3   9   14.60    0.50
  -6  -3   9   14.30    0.80
  -5  -3   9    0.20    0.10
  -5  -3   9    0.30    0.10
  -5  -3   9    0.30    0.20
  -5  -3   9    0.10    0.10
   4   3  -9    2.10    0.60
   4   3  -9    3.40    0.30
  -4  -3   9    2.70    0.40
  -4  -3   9    2.60    0.20
  -4  -3   9    2.70    0.20
  -4  -3   9    2.80    0.20
   3   3  -9    3.30    0.30
  -3  -3   9    2.80    0.20
  -3  -3   9    2.90    0.20
  -3  -3   9    2.70    0.20
  -3  -3   9    4.10    0.40
   2   3  -9    2.90    0.30
   2   3  -9    2.90    0.20
  -2  -3   9    2.80    0.20
  -2  -3   9    2.60    0.30
  -2  -3   9    2.50    0.20
  -2  -3   9    2.70    0.20
   1   3  -9    6.20    0.40
   1   3  -9    6.50    0.40
   1   3  -9    7.30    0.30
  -1  -3   9    6.20    0.40
  -1  -3   9    7.00    0.30
  -1  -3   9    6.90    0.20
  -1  -3   9    7.40    0.40
  -1  -3   9    6.90    0.40
   0   3  -9   10.20    0.50
   0  -3   9   10.70    0.50
  -1   3  -9   51.79    1.30
  -1   3  -9   51.29    1.50
  -1   3  -9   52.19    1.60
   1  -3   9   49.30    1.40
   1  -3   9   52.09    1.50
   1  -3   9   53.19    1.50
  -2   3  -9    1.90    0.30
  -2   3  -9    1.90    0.30
  -2   3  -9    1.90    0.20
   2  -3   9    2.70    0.30
   2  -3   9    2.00    0.20
   2  -3   9    1.90    0.30
   2  -3   9    2.10    0.20
   2  -3   9    2.40    0.30
  -3   3  -9   18.90    0.80
  -3   3  -9   19.70    0.90
  -3   3  -9   19.30    0.60
   3  -3   9   18.90    0.70
   3  -3   9   21.00    0.80
   3  -3   9   18.60    0.80
   3  -3   9   19.40    0.60
  -4   3  -9    5.30    0.50
  -4   3  -9    5.10    0.40
   4  -3   9    5.10    0.40
   4  -3   9    4.80    0.40
   4  -3   9    4.90    0.40
   4  -3   9    5.10    0.30
  -5   3  -9    0.10    0.10
  -5   3  -9   -0.10    0.20
   5  -3   9   -0.10    0.10
   5  -3   9    0.10    0.20
   5  -3   9    0.10    0.10
   5  -3   9    0.00    0.10
  -6   3  -9   -0.10    0.10
   6  -3   9    0.00    0.20
   6  -3   9    0.10    0.20
   6  -3   9    0.30    0.20
   6  -3   9    0.00    0.10
  -6  -2   9    0.60    0.10
  -6  -2   9    0.70    0.10
  -6  -2   9    0.60    0.10
  -6  -2   9    0.10    0.20
  -5  -2   9    0.70    0.10
  -5  -2   9    0.70    0.20
  -5  -2   9    0.70    0.10
  -5  -2   9    0.80    0.10
   4   2  -9    1.00    0.50
   4   2  -9    0.70    0.20
  -4  -2   9    0.90    0.10
  -4  -2   9    0.80    0.10
  -4  -2   9    1.00    0.10
  -4  -2   9    0.60    0.20
   3   2  -9   61.29    1.70
  -3  -2   9   62.29    1.60
  -3  -2   9   60.99    1.50
  -3  -2   9   60.59    1.60
  -3  -2   9   60.29    1.70
   2   2  -9   24.60    0.80
   2   2  -9   23.20    0.80
  -2  -2   9   23.20    0.80
  -2  -2   9   24.20    0.70
  -2  -2   9   24.00    0.80
  -2  -2   9   23.70    0.80
   1   2  -9    2.30    0.10
   1   2  -9    2.30    0.30
   1   2  -9    2.50    0.20
  -1  -2   9    1.90    0.20
  -1  -2   9    2.10    0.20
  -1  -2   9    2.40    0.20
  -1  -2   9    2.30    0.20
  -1  -2   9    2.00    0.10
   0   2  -9    6.40    0.40
   0   2  -9    6.70    0.30
   0   2  -9    5.50    0.40
   0  -2   9    6.30    0.30
   0  -2   9    5.70    0.30
   0  -2   9    5.80    0.30
   0  -2   9    6.30    0.30
   0  -2   9    4.60    0.30
   0  -2   9    6.30    0.40
  -1   2  -9   11.60    0.50
  -1   2  -9   11.80    0.40
  -1   2  -9   12.00    0.60
   1  -2   9   12.20    0.40
   1  -2   9   12.90    0.50
   1  -2   9   12.90    0.50
   1  -2   9   11.60    0.50
   1  -2   9   12.40    0.60
  -2   2  -9   43.70    1.20
  -2   2  -9   45.70    1.50
  -2   2  -9   45.40    1.30
   2  -2   9   47.20    1.30
   2  -2   9   44.30    1.40
   2  -2   9   42.20    1.30
   2  -2   9   44.70    1.10
   2  -2   9   46.90    1.30
  -3   2  -9    1.50    0.30
  -3   2  -9    1.00    0.20
  -3   2  -9    1.20    0.20
   3  -2   9    1.20    0.20
   3  -2   9    0.80    0.20
   3  -2   9    1.00    0.20
   3  -2   9    1.00    0.20
  -4   2  -9    4.40    0.40
  -4   2  -9    3.60    0.40
   4  -2   9    3.50    0.30
   4  -2   9    3.40    0.40
   4  -2   9    4.00    0.30
   4  -2   9    3.90    0.30
  -5   2  -9    0.00    0.20
  -5   2  -9    0.60    0.20
  -5   2  -9    0.10    0.10
   5  -2   9   -0.10    0.10
   5  -2   9   -0.10    0.10
   5  -2   9    0.00    0.10
   5  -2   9   -0.10    0.10
  -6   2  -9   -0.10    0.20
  -6   2  -9    0.10    0.10
   6  -2   9    0.00    0.20
   6  -2   9   -0.20    0.10
   6  -2   9    0.00    0.10
   6  -2   9   -0.10    0.10
  -6  -1   9   16.70    0.50
  -6  -1   9   16.40    0.60
  -6  -1   9   16.10    0.80
  -6  -1   9   16.90    0.50
  -5  -1   9    0.20    0.20
  -5  -1   9    0.00    0.10
  -5  -1   9    0.10    0.10
  -5  -1   9   -0.10    0.10
  -5  -1   9    0.10    0.10
   4   1  -9    7.30    0.40
   4   1  -9    7.00    1.00
  -4  -1   9    7.30    0.30
  -4  -1   9    6.70    0.30
  -4  -1   9    6.50    0.30
  -4  -1   9    6.90    0.50
  -4  -1   9    6.70    0.30
   3   1  -9  112.39    3.80
   3   1  -9  116.89    2.90
  -3  -1   9  118.99    2.80
  -3  -1   9  111.59    2.90
  -3  -1   9  115.49    2.80
  -3  -1   9  115.79    2.70
  -3  -1   9  113.39    2.80
   2   1  -9   64.59    1.80
   2   1  -9   67.99    1.70
  -2  -1   9   65.59    1.70
  -2  -1   9   66.19    1.70
  -2  -1   9   68.69    1.70
  -2  -1   9   66.29    1.80
   1   1  -9    0.50    0.10
   1   1  -9    0.80    0.20
   1   1  -9    0.60    0.10
  -1  -1   9    0.40    0.10
  -1  -1   9    0.60    0.10
  -1  -1   9    0.60    0.10
  -1  -1   9    0.60    0.10
  -1  -1   9    0.40    0.10
  -1  -1   9    0.60    0.10
   0   1  -9    8.90    0.50
   0   1  -9    9.10    0.30
   0   1  -9    8.60    0.40
   0  -1   9    8.70    0.40
   0  -1   9    8.50    0.30
   0  -1   9    9.00    0.40
   0  -1   9    8.30    0.40
  -1   1  -9   13.50    0.40
  -1   1  -9   14.10    0.60
   1  -1   9   13.00    0.60
   1  -1   9   13.50    0.60
   1  -1   9   14.00    0.50
   1  -1   9   13.90    0.50
   1  -1   9   13.80    0.50
  -2   1  -9   -0.10    0.10
  -2   1  -9    0.00    0.10
  -2   1  -9   -0.10    0.10
   2  -1   9    0.90    0.10
   2  -1   9    0.00    0.10
   2  -1   9    0.10    0.10
   2  -1   9   -0.10    0.10
   2  -1   9    0.30    0.20
  -3   1  -9    1.30    0.20
  -3   1  -9    1.00    0.20
  -3   1  -9    1.40    0.20
  -3   1  -9    1.10    0.20
   3  -1   9    0.70    0.20
   3  -1   9    1.10    0.20
   3  -1   9    1.00    0.20
   3  -1   9    1.50    0.20
  -4   1  -9    0.80    0.20
  -4   1  -9    1.00    0.20
  -4   1  -9    0.70    0.20
   4  -1   9    0.50    0.10
   4  -1   9    1.00    0.20
   4  -1   9    0.70    0.20
   4  -1   9    0.80    0.20
  -5   1  -9   12.30    0.60
  -5   1  -9   11.60    0.60
  -5   1  -9   10.70    0.60
   5  -1   9   10.70    0.60
   5  -1   9   11.60    0.60
   5  -1   9   11.70    0.60
   5  -1   9   11.50    0.50
  -6   1  -9    0.00    0.10
  -6   1  -9    0.10    0.20
   6  -1   9    0.00    0.10
   6  -1   9    0.00    0.10
   6  -1   9    0.10    0.10
   6  -1   9    0.10    0.20
  -6   0   9    3.60    0.20
  -6   0   9    3.40    0.40
  -6   0   9    3.60    0.20
  -6   0   9    3.80    0.30
   5   0  -9    3.30    0.70
  -5   0   9    3.10    0.20
  -5   0   9    2.30    0.30
  -5   0   9    2.90    0.20
  -5   0   9    2.80    0.20
   4   0  -9    0.20    0.10
   4   0  -9   -0.40    0.30
  -4   0   9    0.20    0.10
  -4   0   9    0.20    0.10
  -4   0   9    0.30    0.10
  -4   0   9    0.10    0.10
  -4   0   9    0.20    0.10
   3   0  -9   32.30    1.00
   3   0  -9   32.20    1.70
  -3   0   9   33.30    0.90
  -3   0   9   35.00    1.10
  -3   0   9   32.40    0.90
  -3   0   9   33.20    1.00
   2   0  -9   67.89    1.90
   2   0  -9   71.59    1.80
  -2   0   9   72.59    1.80
  -2   0   9   69.59    1.80
  -2   0   9   68.79    1.80
   1   0  -9    0.50    0.20
   1   0  -9    0.60    0.10
   1   0  -9    0.50    0.10
  -1   0   9    0.50    0.10
  -1   0   9    0.60    0.10
  -1   0   9    0.70    0.20
  -1   0   9    0.50    0.10
  -1   0   9    0.40    0.10
   0   0  -9    7.90    0.40
   0   0  -9    9.10    0.50
   0   0  -9    8.10    0.30
   0   0   9    8.10    0.40
   0   0   9    8.10    0.40
   0   0   9    8.00    0.40
   0   0   9    8.30    0.40
   0   0   9    7.90    0.30
  -1   0  -9    5.00    0.20
  -1   0  -9    6.20    0.30
   1   0   9    5.80    0.20
   1   0   9    6.00    0.40
   1   0   9    5.60    0.30
   1   0   9    5.40    0.30
   1   0   9    6.40    0.40
   1   0   9    5.90    0.30
  -2   0  -9    5.30    0.40
  -2   0  -9    4.90    0.30
  -2   0  -9    5.30    0.30
  -2   0  -9    5.40    0.30
   2   0   9    5.70    0.40
   2   0   9    5.20    0.30
   2   0   9    6.10    0.30
   2   0   9    5.80    0.30
   2   0   9    5.60    0.30
  -3   0  -9    7.10    0.40
  -3   0  -9    8.30    0.40
   3   0   9    8.60    0.50
   3   0   9    8.50    0.40
  -4   0  -9   27.70    1.00
  -4   0  -9   28.90    1.00
  -4   0  -9   28.90    1.00
   4   0   9   27.20    0.90
   4   0   9   28.10    0.90
   4   0   9   27.80    1.00
   4   0   9   27.70    0.80
  -5   0  -9    6.40    0.40
  -5   0  -9    6.60    0.40
  -5   0  -9    7.00    0.50
   5   0   9    6.70    0.50
   5   0   9    6.40    0.40
   5   0   9    7.20    0.40
   5   0   9    7.10    0.40
  -6   0  -9    0.60    0.20
  -6   0  -9    0.50    0.20
   6   0   9    0.70    0.20
   6   0   9    0.50    0.20
   6   0   9    0.90    0.20
   6   0   9    0.40    0.20
  -6   1   9   14.50    0.50
  -6   1   9   14.80    0.80
  -6   1   9   14.30    0.50
  -6   1   9   14.60    0.60
   5  -1  -9    4.20    0.80
   5  -1  -9    2.90    0.30
  -5   1   9    2.70    0.40
  -5   1   9    2.60    0.20
  -5   1   9    2.60    0.20
  -5   1   9    2.90    0.20
   4  -1  -9    7.40    1.00
   4  -1  -9    8.00    0.40
  -4   1   9    7.70    0.40
  -4   1   9    7.10    0.50
  -4   1   9    7.30    0.30
  -4   1   9    6.90    0.30
   3  -1  -9  719.73   16.30
   3  -1  -9  744.33   17.40
  -3   1   9  696.73   16.30
  -3   1   9  731.53   16.20
  -3   1   9  720.93   16.20
   2  -1  -9    2.30    0.20
   2  -1  -9    2.50    0.30
  -2   1   9    2.50    0.20
  -2   1   9    2.70    0.20
  -2   1   9    2.40    0.20
  -2   1   9    2.70    0.30
   1  -1  -9    1.50    0.20
   1  -1  -9    1.60    0.20
   1  -1  -9    1.60    0.10
  -1   1   9    1.50    0.20
  -1   1   9    1.40    0.20
  -1   1   9    1.70    0.10
  -1   1   9    1.90    0.20
  -1   1   9    1.50    0.40
  -1   1   9    1.40    0.20
   0  -1  -9   -0.10    0.10
   0  -1  -9    0.10    0.10
   0  -1  -9    0.00    0.10
   0   1   9    0.00    0.10
   0   1   9    0.00    0.10
   0   1   9    0.10    0.10
   0   1   9    0.00    0.10
   0   1   9    0.10    0.10
   0   1   9    0.00    0.20
  -1  -1  -9   66.69    1.60
  -1  -1  -9   65.49    1.80
   1   1   9   67.59    1.70
   1   1   9   69.19    1.90
   1   1   9   66.19    1.60
   1   1   9   67.59    1.70
   1   1   9   65.79    1.70
   1   1   9   67.59    1.80
  -2  -1  -9    9.30    0.50
  -2  -1  -9    9.30    0.40
  -2  -1  -9    8.70    0.30
  -2  -1  -9    8.60    0.40
   2   1   9    9.20    0.50
   2   1   9    9.30    0.30
   2   1   9    9.10    0.40
   2   1   9    8.90    0.40
   2   1   9    8.70    0.40
  -3  -1  -9    5.90    0.30
  -3  -1  -9    5.50    0.40
  -3  -1  -9    5.50    0.30
  -3  -1  -9    5.50    0.40
   3   1   9    5.50    0.40
   3   1   9    5.70    0.30
   3   1   9    5.70    0.30
   3   1   9    6.00    0.30
  -4  -1  -9   53.89    1.60
  -4  -1  -9   53.99    1.60
  -4  -1  -9   56.19    1.60
   4   1   9   55.79    1.50
   4   1   9   54.39    1.60
   4   1   9   54.09    1.40
   4   1   9   51.79    1.60
  -5  -1  -9    1.30    0.20
  -5  -1  -9    1.40    0.20
  -5  -1  -9    1.50    0.30
   5   1   9    1.30    0.20
   5   1   9    1.20    0.20
   5   1   9    1.10    0.20
   5   1   9    1.30    0.20
  -6  -1  -9    1.60    0.30
  -6  -1  -9    2.20    0.30
   6   1   9    1.90    0.20
   6   1   9    1.80    0.30
   6   1   9    2.40    0.30
   6   1   9    1.90    0.30
  -7  -1  -9    0.10    0.20
   7   1   9    0.30    0.20
   7   1   9    0.20    0.10
   7   1   9    0.50    0.20
   7   1   9    0.20    0.20
  -6   2   9    1.30    0.30
  -6   2   9    1.30    0.20
  -6   2   9    0.90    0.20
  -6   2   9    1.10    0.20
   5  -2  -9    3.00    0.70
   5  -2  -9    2.00    0.20
  -5   2   9    2.00    0.20
  -5   2   9    2.50    0.20
  -5   2   9    2.20    0.20
  -5   2   9    2.20    0.30
   4  -2  -9    0.10    0.10
   4  -2  -9    0.20    0.30
  -4   2   9    0.20    0.10
  -4   2   9    0.00    0.10
  -4   2   9    0.10    0.10
  -4   2   9    0.10    0.10
   3  -2  -9   10.90    0.50
   3  -2  -9   11.50    0.50
   3  -2  -9   12.40    1.00
  -3   2   9   11.50    0.50
  -3   2   9   11.40    0.40
  -3   2   9   11.50    0.50
   2  -2  -9   17.20    0.60
   2  -2  -9   15.60    1.00
   2  -2  -9   17.00    0.60
   2  -2  -9   17.20    0.40
  -2   2   9   16.40    0.60
  -2   2   9   17.10    0.60
  -2   2   9   16.40    0.60
   1  -2  -9   30.70    0.80
   1  -2  -9   30.30    0.90
   1  -2  -9   29.40    1.00
  -1   2   9   30.90    0.90
  -1   2   9   31.20    1.30
  -1   2   9   31.40    0.80
  -1   2   9   31.10    0.90
  -1   2   9   32.30    0.90
   0  -2  -9    8.40    0.30
   0  -2  -9    9.10    0.40
   0  -2  -9    8.10    0.40
   0   2   9    8.50    0.40
   0   2   9    9.10    0.40
   0   2   9    9.00    0.50
   0   2   9    9.10    0.40
   0   2   9    8.80    0.40
   0   2   9    8.60    0.70
   0   2   9    8.60    0.40
  -1  -2  -9   31.20    0.80
  -1  -2  -9   32.60    1.00
  -1  -2  -9   32.00    0.90
  -1  -2  -9   31.70    1.00
   1   2   9   30.90    0.90
   1   2   9   31.60    1.00
   1   2   9   31.00    0.80
   1   2   9   31.60    0.90
   1   2   9   30.00    1.00
  -2  -2  -9   20.60    0.70
  -2  -2  -9   19.80    0.60
  -2  -2  -9   22.00    0.80
   2   2   9   19.90    0.70
   2   2   9   19.60    0.70
   2   2   9   20.30    0.80
   2   2   9   21.00    0.70
   2   2   9   20.20    0.60
  -3  -2  -9    7.20    0.40
  -3  -2  -9    6.50    0.40
  -3  -2  -9    6.40    0.40
  -3  -2  -9    6.90    0.30
   3   2   9    7.20    0.40
   3   2   9    7.30    0.30
   3   2   9    6.90    0.40
   3   2   9    6.50    0.40
  -4  -2  -9   12.90    0.60
  -4  -2  -9   12.20    0.60
  -4  -2  -9   12.20    0.60
   4   2   9   12.70    0.50
   4   2   9   12.70    0.60
   4   2   9   12.30    0.50
   4   2   9   12.00    0.50
  -5  -2  -9    3.10    0.30
  -5  -2  -9    3.70    0.40
  -5  -2  -9    3.40    0.30
   5   2   9    3.30    0.30
   5   2   9    3.00    0.30
   5   2   9    2.80    0.30
   5   2   9    2.80    0.20
  -6  -2  -9    4.70    0.40
  -6  -2  -9    4.00    0.30
   6   2   9    4.50    0.40
   6   2   9    4.30    0.40
   6   2   9    3.80    0.30
   6   2   9    4.00    0.50
  -7  -2  -9    0.60    0.20
   7   2   9    0.30    0.20
   7   2   9    0.20    0.20
   7   2   9    0.10    0.20
   7   2   9    0.60    0.20
   6  -3  -9    2.90    0.30
  -6   3   9    2.50    0.40
  -6   3   9    2.10    0.30
  -6   3   9    3.90    0.30
  -6   3   9    3.00    0.20
   5  -3  -9   38.40    1.90
   5  -3  -9   37.40    1.10
  -5   3   9   37.10    1.30
  -5   3   9   37.90    1.10
  -5   3   9   37.20    1.10
  -5   3   9   37.10    1.20
   4  -3  -9    1.60    0.50
   4  -3  -9    2.10    0.30
  -4   3   9    2.10    0.30
  -4   3   9    1.70    0.20
  -4   3   9    2.00    0.20
   3  -3  -9   47.80    1.40
   3  -3  -9   51.09    1.40
   3  -3  -9   47.70    2.00
  -3   3   9   47.30    1.30
  -3   3   9   48.00    1.40
  -3   3   9   47.80    1.30
   2  -3  -9    2.20    0.40
   2  -3  -9    2.10    0.20
   2  -3  -9    2.00    0.20
   2  -3  -9    1.80    0.10
  -2   3   9    1.60    0.20
  -2   3   9    1.90    0.20
  -2   3   9    1.90    0.20
   1  -3  -9    7.30    0.40
   1  -3  -9    7.50    0.40
   1  -3  -9    7.50    0.30
  -1   3   9    7.70    0.40
  -1   3   9    7.20    0.60
  -1   3   9    6.70    0.40
  -1   3   9    7.50    0.30
  -1   3   9    7.10    0.40
  -1   3   9    7.50    0.30
   0  -3  -9  173.98    3.90
   0  -3  -9  170.48    4.10
   0   3   9  170.68    4.00
   0   3   9  172.98    4.00
   0   3   9  170.18    4.10
   0   3   9  173.68    4.00
   0   3   9  168.58    4.50
   0   3   9  174.08    4.10
   0   3   9  170.48    4.30
  -1  -3  -9    3.40    0.30
  -1  -3  -9    4.00    0.30
  -1  -3  -9    3.70    0.20
  -1  -3  -9    3.80    0.20
   1   3   9    3.90    0.20
   1   3   9    3.80    0.30
   1   3   9    3.70    0.40
   1   3   9    4.00    0.30
   1   3   9    4.00    0.20
  -2  -3  -9    0.50    0.10
  -2  -3  -9    0.40    0.10
  -2  -3  -9    0.50    0.20
   2   3   9    0.30    0.10
   2   3   9    0.20    0.10
   2   3   9    0.50    0.10
   2   3   9    0.50    0.10
   2   3   9    0.30    0.10
  -3  -3  -9   10.20    0.50
  -3  -3  -9   10.10    0.30
  -3  -3  -9   11.20    0.50
  -3  -3  -9    9.70    0.50
   3   3   9   10.30    0.50
   3   3   9   10.60    0.50
   3   3   9   10.30    0.40
   3   3   9   10.70    0.50
  -4  -3  -9    1.90    0.30
  -4  -3  -9    2.10    0.30
  -4  -3  -9    1.90    0.20
   4   3   9    2.30    0.20
   4   3   9    1.90    0.30
   4   3   9    2.00    0.20
   4   3   9    1.90    0.20
  -5  -3  -9    0.80    0.20
  -5  -3  -9    0.70    0.20
  -5  -3  -9    0.60    0.20
   5   3   9    0.40    0.10
   5   3   9    0.50    0.10
   5   3   9    0.40    0.20
   5   3   9    0.80    0.20
  -6  -3  -9    5.40    0.40
   6   3   9    4.60    0.40
   6   3   9    5.20    0.50
   6   3   9    5.40    0.30
   6   3   9    5.00    0.40
  -7  -3  -9   16.40    0.80
   7   3   9   14.90    0.80
   7   3   9   15.60    0.60
   7   3   9   15.10    0.70
   7   3   9   15.10    0.70
   6  -4  -9    4.50    0.40
  -6   4   9    4.70    0.40
  -6   4   9    5.00    0.40
  -6   4   9    4.60    0.30
  -6   4   9    4.30    0.50
   5  -4  -9    1.50    0.20
   5  -4  -9    1.40    0.50
  -5   4   9    0.90    0.20
  -5   4   9    0.80    0.20
  -5   4   9    0.90    0.20
  -5   4   9    1.20    0.20
   4  -4  -9    2.00    0.50
   4  -4  -9    2.10    0.30
  -4   4   9    2.00    0.20
  -4   4   9    1.80    0.20
  -4   4   9    1.90    0.20
   3  -4  -9    6.00    0.40
   3  -4  -9    6.90    0.70
   3  -4  -9    7.00    0.40
  -3   4   9    6.30    0.30
  -3   4   9    6.00    0.30
  -3   4   9    6.30    0.40
   2  -4  -9   17.50    0.50
   2  -4  -9   15.00    0.60
   2  -4  -9   16.80    0.60
   2  -4  -9   16.40    1.00
  -2   4   9   16.50    0.60
  -2   4   9   16.60    0.60
  -2   4   9   17.10    0.60
  -2   4   9   16.70    0.70
  -2   4   9   16.50    0.50
   1  -4  -9   15.80    0.50
   1  -4  -9   16.30    0.60
   1  -4  -9   16.20    0.60
  -1   4   9   16.70    0.70
  -1   4   9   15.20    0.60
  -1   4   9   17.40    0.60
  -1   4   9   15.90    0.80
  -1   4   9   15.70    0.50
   0  -4  -9  129.49    3.20
   0  -4  -9  126.19    3.00
   0   4   9  129.59    3.20
   0   4   9  129.39    3.10
   0   4   9  126.59    3.10
   0   4   9  132.39    3.40
   0   4   9  127.49    3.20
   0   4   9  127.29    3.50
   0   4   9  132.69    3.10
  -1  -4  -9    1.90    0.20
  -1  -4  -9    1.20    0.20
  -1  -4  -9    1.70    0.20
  -1  -4  -9    1.90    0.20
   1   4   9    1.70    0.20
   1   4   9    1.70    0.20
   1   4   9    1.80    0.10
   1   4   9    2.00    0.30
   1   4   9    1.60    0.20
  -2  -4  -9    5.70    0.30
  -2  -4  -9    5.40    0.40
  -2  -4  -9    6.20    0.20
   2   4   9    6.00    0.30
   2   4   9    5.10    0.30
   2   4   9    5.50    0.20
   2   4   9    6.00    0.40
   2   4   9    6.00    0.40
  -3  -4  -9   22.10    0.80
  -3  -4  -9   22.90    0.90
  -3  -4  -9   22.10    0.80
  -3  -4  -9   23.30    0.80
   3   4   9   21.30    0.80
   3   4   9   22.90    0.80
   3   4   9   21.70    0.90
   3   4   9   21.60    0.60
  -4  -4  -9   16.70    0.60
  -4  -4  -9   17.20    0.70
  -4  -4  -9   16.90    0.70
   4   4   9   16.50    0.50
   4   4   9   16.30    0.70
   4   4   9   17.40    0.60
   4   4   9   15.50    0.60
  -5  -4  -9   -0.10    0.10
  -5  -4  -9    0.00    0.10
   5   4   9    0.10    0.10
   5   4   9   -0.10    0.10
   5   4   9    0.00    0.10
   5   4   9   -0.10    0.10
  -6  -4  -9   31.90    1.10
   6   4   9   33.50    0.90
   6   4   9   31.20    1.10
   6   4   9   31.70    1.10
   6   4   9   32.50    1.20
  -7  -4  -9    5.90    0.50
   7   4   9    4.90    0.40
   7   4   9    5.80    0.60
   7   4   9    5.10    0.40
   7   4   9    5.10    0.30
   6  -5  -9    7.80    0.50
   6  -5  -9    8.00    0.50
  -6   5   9    8.10    0.50
  -6   5   9    8.20    0.50
  -6   5   9    8.00    0.60
  -6   5   9    7.50    0.40
   5  -5  -9    9.40    0.90
   5  -5  -9   10.20    0.50
  -5   5   9    8.60    0.50
  -5   5   9    9.90    0.50
  -5   5   9    9.70    0.50
   4  -5  -9   -0.10    0.20
   4  -5  -9   -0.10    0.10
  -4   5   9    0.10    0.10
  -4   5   9    0.20    0.10
  -4   5   9    0.20    0.10
   3  -5  -9   16.30    1.00
   3  -5  -9   16.50    0.50
   3  -5  -9   15.70    0.70
   3  -5  -9   15.70    0.70
  -3   5   9   16.50    0.60
  -3   5   9   16.00    0.70
  -3   5   9   16.00    0.60
   2  -5  -9    0.10    0.20
   2  -5  -9    0.00    0.10
   2  -5  -9    0.20    0.10
   2  -5  -9    0.10    0.10
  -2   5   9    0.00    0.10
  -2   5   9    0.00    0.10
  -2   5   9    0.10    0.10
  -2   5   9   -0.10    0.10
  -2   5   9    0.30    0.10
   1  -5  -9   18.00    0.70
   1  -5  -9   16.80    0.50
   1  -5  -9   17.80    0.70
  -1   5   9   17.60    0.60
  -1   5   9   17.50    0.60
  -1   5   9   17.70    0.80
  -1   5   9   18.20    0.70
   0  -5  -9   30.70    1.00
   0  -5  -9   29.80    0.80
   0   5   9   28.70    1.10
   0   5   9   29.30    1.00
   0   5   9   30.40    0.90
   0   5   9   29.50    0.90
   0   5   9   28.90    1.10
   0   5   9   30.20    0.90
   0   5   9   30.90    0.70
  -1  -5  -9    4.70    0.20
  -1  -5  -9    5.30    0.30
  -1  -5  -9    5.00    0.30
  -1  -5  -9    5.30    0.40
   1   5   9    5.00    0.20
   1   5   9    4.70    0.40
   1   5   9    5.10    0.30
   1   5   9    5.00    0.30
   1   5   9    4.70    0.40
  -2  -5  -9   12.70    0.50
  -2  -5  -9   12.50    0.40
  -2  -5  -9   11.60    0.60
  -2  -5  -9   13.80    0.60
   2   5   9   12.30    0.50
   2   5   9   12.80    0.60
   2   5   9   12.30    0.60
   2   5   9   12.40    0.50
   2   5   9   13.60    0.40
  -3  -5  -9   26.40    0.90
  -3  -5  -9   26.20    0.90
  -3  -5  -9   26.10    0.90
  -3  -5  -9   26.00    0.90
   3   5   9   26.70    1.00
   3   5   9   27.50    0.70
   3   5   9   27.10    0.90
   3   5   9   25.60    0.90
  -4  -5  -9   10.80    0.50
  -4  -5  -9   10.20    0.50
  -4  -5  -9    9.80    0.50
   4   5   9   11.00    0.60
   4   5   9   10.50    0.50
   4   5   9   10.10    0.40
   4   5   9    9.70    0.50
  -5  -5  -9    1.80    0.20
  -5  -5  -9    1.50    0.20
   5   5   9    1.60    0.20
   5   5   9    1.40    0.20
   5   5   9    1.40    0.30
   5   5   9    1.70    0.20
  -6  -5  -9    0.10    0.10
   6   5   9    0.00    0.10
   6   5   9   -0.20    0.10
   6   5   9    0.00    0.20
   6   5   9   -0.10    0.10
  -7  -5  -9    0.80    0.20
   7   5   9    1.00    0.30
   7   5   9    1.20    0.20
   7   5   9    0.90    0.30
   7   5   9    0.90    0.20
   6  -6  -9    0.40    0.20
  -6   6   9    0.20    0.10
  -6   6   9    0.50    0.20
  -6   6   9    0.10    0.20
   5  -6  -9    7.30    0.50
   5  -6  -9    6.00    0.50
   5  -6  -9    7.40    0.80
  -5   6   9    6.90    0.40
  -5   6   9    6.30    0.50
  -5   6   9    7.40    0.50
   4  -6  -9    3.20    0.30
   4  -6  -9    2.90    0.30
   4  -6  -9    4.80    0.70
  -4   6   9    3.40    0.30
  -4   6   9    3.30    0.40
  -4   6   9    3.00    0.30
   3  -6  -9   31.90    1.50
   3  -6  -9   34.60    1.10
   3  -6  -9   33.70    0.90
   3  -6  -9   32.90    1.10
  -3   6   9   35.10    1.10
  -3   6   9   34.40    1.10
  -3   6   9   33.80    1.00
   2  -6  -9   -0.10    0.20
   2  -6  -9    0.10    0.10
   2  -6  -9    0.00    0.10
   2  -6  -9    0.10    0.10
  -2   6   9    0.10    0.10
  -2   6   9    0.00    0.10
  -2   6   9   -0.10    0.10
  -2   6   9    0.20    0.10
  -2   6   9    0.20    0.10
   1  -6  -9    0.50    0.10
   1  -6  -9    0.50    0.20
   1  -6  -9    0.70    0.20
  -1   6   9    0.50    0.20
  -1   6   9    0.60    0.10
  -1   6   9    0.50    0.10
  -1   6   9    0.70    0.20
  -1   6   9    0.70    0.10
  -1   6   9    0.70    0.10
   0  -6  -9   25.50    0.90
   0  -6  -9   25.70    0.70
   0   6   9   25.20    0.80
   0   6   9   23.70    0.90
   0   6   9   25.40    0.80
   0   6   9   25.20    1.00
   0   6   9   26.00    0.90
   0   6   9   25.90    0.60
   0   6   9   25.50    0.80
  -1  -6  -9    3.00    0.20
  -1  -6  -9    3.60    0.40
  -1  -6  -9    3.50    0.30
  -1  -6  -9    3.70    0.20
   1   6   9    3.50    0.40
   1   6   9    3.10    0.30
   1   6   9    3.40    0.20
   1   6   9    3.00    0.30
   1   6   9    2.70    0.30
  -2  -6  -9   45.60    1.30
  -2  -6  -9   43.00    1.30
  -2  -6  -9   44.60    1.30
  -2  -6  -9   45.50    1.10
   2   6   9   44.50    1.10
   2   6   9   44.10    1.30
   2   6   9   42.30    1.50
   2   6   9   45.00    1.30
  -3  -6  -9    0.20    0.10
  -3  -6  -9    0.50    0.10
  -3  -6  -9    0.50    0.10
  -3  -6  -9    0.30    0.10
   3   6   9    0.70    0.20
   3   6   9    0.50    0.10
   3   6   9    0.50    0.10
   3   6   9    0.20    0.20
  -4  -6  -9    1.20    0.20
  -4  -6  -9    1.50    0.20
  -4  -6  -9    0.80    0.20
  -4  -6  -9    1.50    0.20
   4   6   9    1.40    0.20
   4   6   9    1.40    0.20
   4   6   9    1.40    0.30
   4   6   9    1.30    0.20
  -5  -6  -9    4.30    0.30
  -5  -6  -9    4.40    0.30
   5   6   9    3.80    0.40
   5   6   9    4.40    0.30
   5   6   9    4.90    0.30
   5   6   9    4.70    0.30
  -6  -6  -9   33.40    1.10
   6   6   9   35.10    1.10
   6   6   9   32.80    1.30
   6   6   9   34.80    1.00
   6   6   9   32.70    1.10
  -7  -6  -9   11.90    0.60
   7   6   9   11.80    0.60
   7   6   9   11.40    0.70
   7   6   9   11.20    0.50
  -6   7   9    3.40    0.40
  -6   7   9    4.20    0.40
  -6   7   9    3.00    0.40
   5  -7  -9    9.20    0.60
   5  -7  -9    8.90    0.90
  -5   7   9    9.60    0.60
  -5   7   9    9.50    0.50
   4  -7  -9   24.20    1.30
   4  -7  -9   22.70    0.70
   4  -7  -9   22.30    0.90
   4  -7  -9   22.80    0.90
  -4   7   9   23.60    0.80
  -4   7   9   24.50    1.00
   3  -7  -9    0.80    0.30
   3  -7  -9    1.20    0.20
   3  -7  -9    0.80    0.10
   3  -7  -9    0.90    0.20
  -3   7   9    1.00    0.20
  -3   7   9    0.70    0.20
  -3   7   9    0.90    0.10
   2  -7  -9    0.00    0.10
   2  -7  -9    0.00    0.10
   2  -7  -9    0.00    0.20
   2  -7  -9    0.00    0.10
  -2   7   9    0.00    0.10
  -2   7   9   -0.10    0.10
  -2   7   9    0.00    0.10
  -2   7   9   -0.10    0.10
   1  -7  -9    0.00    0.10
   1  -7  -9   -0.10    0.10
   1  -7  -9    0.10    0.10
  -1   7   9    0.10    0.10
  -1   7   9   -0.10    0.10
  -1   7   9    0.10    0.10
  -1   7   9    0.10    0.10
   0  -7  -9  208.58    4.70
   0  -7  -9  208.98    5.00
   0  -7  -9  209.88    5.00
   0   7   9  206.38    4.70
   0   7   9  196.68    5.20
   0   7   9  202.58    5.20
   0   7   9  197.88    4.80
   0   7   9  208.08    4.90
   0   7   9  209.28    5.00
  -1  -7  -9  101.29    2.60
  -1  -7  -9   99.69    2.50
  -1  -7  -9   97.19    2.30
  -1  -7  -9   96.09    2.60
   1   7   9  101.39    2.50
   1   7   9   95.29    2.80
   1   7   9  100.29    2.30
   1   7   9   93.89    2.40
   1   7   9   98.59    2.50
   1   7   9   99.79    2.60
  -2  -7  -9    5.10    0.30
  -2  -7  -9    5.00    0.40
  -2  -7  -9    5.70    0.40
  -2  -7  -9    5.30    0.20
   2   7   9    5.40    0.50
   2   7   9    5.00    0.40
   2   7   9    5.80    0.30
   2   7   9    5.70    0.30
  -3  -7  -9    7.20    0.40
  -3  -7  -9    7.50    0.40
  -3  -7  -9    7.20    0.40
   3   7   9    7.30    0.40
   3   7   9    6.60    0.30
   3   7   9    7.90    0.40
   3   7   9    7.60    0.50
  -4  -7  -9    1.50    0.20
  -4  -7  -9    1.80    0.20
  -4  -7  -9    1.50    0.20
   4   7   9    1.60    0.20
   4   7   9    1.10    0.30
   4   7   9    1.70    0.20
   4   7   9    1.60    0.20
  -5  -7  -9    3.40    0.30
  -5  -7  -9    3.10    0.20
   5   7   9    2.60    0.40
   5   7   9    3.10    0.20
   5   7   9    3.40    0.30
   5   7   9    3.40    0.30
  -6  -7  -9   21.00    0.80
   6   7   9   20.60    1.00
   6   7   9   19.50    0.80
   6   7   9   19.40    0.60
   6   7   9   20.30    0.80
  -7  -7  -9    2.20    0.30
   7   7   9    2.40    0.30
   7   7   9    2.70    0.40
   7   7   9    2.20    0.20
   5  -8  -9   -0.20    0.10
  -5   8   9    0.40    0.20
   4  -8  -9    0.70    0.10
   4  -8  -9    1.10    0.30
   4  -8  -9    0.80    0.20
   4  -8  -9    0.40    0.30
   4  -8  -9    0.80    0.20
  -4   8   9    1.00    0.30
  -4   8   9    0.90    0.20
   3  -8  -9   71.79    2.30
   3  -8  -9   68.89    2.00
   3  -8  -9   68.29    2.00
   3  -8  -9   69.79    1.70
  -3   8   9   70.69    2.10
  -3   8   9   70.59    1.70
  -3   8   9   71.29    1.90
   2  -8  -9   -0.20    0.20
   2  -8  -9    0.10    0.10
   2  -8  -9    0.00    0.10
   2  -8  -9    0.10    0.10
  -2   8   9   -0.10    0.10
  -2   8   9    0.20    0.10
  -2   8   9    0.00    0.20
  -2   8   9    0.00    0.10
   1  -8  -9    4.00    0.30
   1  -8  -9    3.30    0.30
   1  -8  -9    3.80    0.20
  -1   8   9    3.70    0.50
  -1   8   9    3.80    0.30
  -1   8   9    4.20    0.40
   0  -8  -9   64.29    1.80
   0  -8  -9   63.89    1.80
   0  -8  -9   65.19    1.60
   0   8   9   61.89    1.70
   0   8   9   65.29    1.80
   0   8   9   66.49    1.50
   0   8   9   65.29    1.80
   0   8   9   64.89    2.10
  -1  -8  -9   89.49    2.40
  -1  -8  -9   89.29    2.10
  -1  -8  -9   86.89    2.40
  -1  -8  -9   90.89    2.30
   1   8   9   89.89    2.50
   1   8   9   91.59    2.40
   1   8   9   92.19    2.70
   1   8   9   91.29    2.10
   1   8   9   88.29    2.30
  -2  -8  -9  125.59    3.00
  -2  -8  -9  120.09    2.80
  -2  -8  -9  118.09    3.10
  -2  -8  -9  123.39    3.10
   2   8   9  123.09    2.90
   2   8   9  122.29    3.00
   2   8   9  119.79    3.40
   2   8   9  121.59    3.10
  -3  -8  -9    4.80    0.30
  -3  -8  -9    4.70    0.30
  -3  -8  -9    4.60    0.30
   3   8   9    5.10    0.30
   3   8   9    4.90    0.40
   3   8   9    4.40    0.30
   3   8   9    3.80    0.50
  -4  -8  -9    1.90    0.20
  -4  -8  -9    2.20    0.20
  -4  -8  -9    2.10    0.30
   4   8   9    1.40    0.20
   4   8   9    2.50    0.20
   4   8   9    2.10    0.30
   4   8   9    2.10    0.40
  -5  -8  -9   16.50    0.70
   5   8   9   17.60    0.70
   5   8   9   16.50    0.60
   5   8   9   17.40    0.70
   5   8   9   18.00    0.90
  -6  -8  -9    3.70    0.30
   6   8   9    2.90    0.30
   6   8   9    2.80    0.30
   6   8   9    2.30    0.40
   6   8   9    3.30    0.30
   5  -9  -9    0.30    0.20
   5  -9  -9    0.40    0.20
   5  -9  -9    0.20    0.10
  -5   9   9   -0.20    0.20
   4  -9  -9   -0.10    0.20
   4  -9  -9    0.00    0.20
   4  -9  -9    0.10    0.10
  -4   9   9    0.10    0.20
   3  -9  -9    0.20    0.20
   3  -9  -9    0.20    0.20
   3  -9  -9    0.20    0.20
   3  -9  -9    0.40    0.10
  -3   9   9    0.40    0.20
  -3   9   9    0.30    0.10
   2  -9  -9   10.60    0.60
   2  -9  -9   11.40    0.60
   2  -9  -9   10.30    0.60
   2  -9  -9   11.40    0.40
  -2   9   9   11.10    0.70
  -2   9   9   10.20    0.50
  -2   9   9   10.40    0.60
   1  -9  -9   23.90    0.70
   1  -9  -9   22.90    0.90
   1  -9  -9   22.60    0.90
  -1   9   9   24.50    1.10
  -1   9   9   25.00    1.00
  -1   9   9   25.40    0.90
  -1   9   9   23.30    0.80
   0  -9  -9   33.80    1.10
   0  -9  -9   34.70    1.20
   0  -9  -9   35.20    0.90
   0   9   9   34.00    0.90
   0   9   9   34.70    1.10
   0   9   9   33.40    1.40
   0   9   9   34.80    1.10
   0   9   9   35.70    1.20
  -1  -9  -9   22.20    0.80
  -1  -9  -9   21.80    0.60
  -1  -9  -9   22.80    0.80
  -1  -9  -9   22.20    0.90
   1   9   9   22.10    0.70
   1   9   9   22.70    0.80
   1   9   9   21.80    0.80
   1   9   9   22.60    1.10
  -2  -9  -9   55.99    1.60
  -2  -9  -9   56.79    1.50
  -2  -9  -9   56.99    1.60
   2   9   9   53.19    1.90
   2   9   9   55.09    1.40
   2   9   9   55.39    1.60
   2   9   9   53.69    1.60
  -3  -9  -9   30.40    1.00
  -3  -9  -9   31.50    1.10
  -3  -9  -9   31.70    1.00
  -3  -9  -9   31.20    1.00
   3   9   9   30.70    1.10
   3   9   9   31.20    1.00
   3   9   9   30.30    1.30
   3   9   9   30.90    0.90
  -4  -9  -9   15.00    0.60
  -4  -9  -9   15.80    0.60
   4   9   9   16.10    0.70
   4   9   9   17.10    0.90
   4   9   9   15.50    0.60
   4   9   9   16.10    0.50
  -5  -9  -9    5.50    0.40
   5   9   9    5.10    0.30
   5   9   9    5.00    0.60
   5   9   9    6.10    0.40
   5   9   9    5.50    0.40
  -6  -9  -9    8.60    0.50
   6   9   9    7.90    0.50
   6   9   9    8.20    0.50
   6   9   9    7.90    0.40
   6   9   9    8.10    0.60
   5 -10  -9    6.70    0.60
   5 -10  -9    7.30    0.60
   5 -10  -9    7.00    0.40
  -5  10   9    7.60    0.60
   4 -10  -9    2.00    0.20
   4 -10  -9    1.50    0.30
   4 -10  -9    2.40    0.40
  -4  10   9    2.10    0.40
   3 -10  -9    3.90    0.30
   3 -10  -9    3.50    0.40
   3 -10  -9    4.20    0.40
  -3  10   9    3.70    0.30
  -3  10   9    4.00    0.50
   2 -10  -9    5.00    0.40
   2 -10  -9    5.00    0.40
   2 -10  -9    4.30    0.40
   2 -10  -9    4.70    0.30
  -2  10   9    5.00    0.60
  -2  10   9    5.10    0.30
  -2  10   9    5.00    0.40
   1 -10  -9   22.90    1.00
   1 -10  -9   23.90    0.70
   1 -10  -9   23.80    0.90
   1 -10  -9   24.20    0.90
  -1  10   9   24.10    0.90
  -1  10   9   24.00    1.00
  -1  10   9   24.90    1.20
   0 -10  -9  269.27    6.40
   0 -10  -9  265.97    6.50
   0 -10  -9  265.57    6.40
   0 -10  -9  267.67    6.10
   0  10   9  273.07    6.40
   0  10   9  268.27    6.80
   0  10   9  268.37    6.10
   0  10   9  260.57    6.30
  -1 -10  -9   11.90    0.60
  -1 -10  -9   12.20    0.70
  -1 -10  -9   12.80    0.60
  -1 -10  -9   12.90    0.60
  -1 -10  -9   12.60    0.40
   1  10   9   12.50    0.60
   1  10   9   12.30    0.40
   1  10   9   12.70    0.60
   1  10   9   12.40    0.80
  -2 -10  -9    0.80    0.20
  -2 -10  -9    0.50    0.20
  -2 -10  -9    0.50    0.20
  -2 -10  -9    0.60    0.20
   2  10   9    0.40    0.20
   2  10   9    0.30    0.20
   2  10   9    0.40    0.10
   2  10   9    0.50    0.10
  -3 -10  -9   -0.10    0.10
  -3 -10  -9   -0.10    0.10
  -3 -10  -9    0.10    0.10
   3  10   9   -0.10    0.20
   3  10   9    0.00    0.10
   3  10   9    0.00    0.10
   3  10   9    0.10    0.10
  -4 -10  -9    0.70    0.20
  -4 -10  -9    0.90    0.20
   4  10   9    1.10    0.20
   4  10   9    1.10    0.20
   4  10   9    1.20    0.20
   4  10   9    1.10    0.30
  -5 -10  -9    2.10    0.30
   5  10   9    1.90    0.40
   5  10   9    1.80    0.30
   5  10   9    1.90    0.30
   5  10   9    1.80    0.20
  -6 -10  -9    0.20    0.20
   6  10   9    0.10    0.10
   6  10   9   -0.10    0.10
   6  10   9    0.30    0.20
   6  10   9    0.20    0.20
   4 -11  -9    0.50    0.20
   4 -11  -9    0.90    0.30
   4 -11  -9    0.60    0.20
  -4  11   9    1.20    0.30
   3 -11  -9    1.20    0.20
   3 -11  -9    0.70    0.20
   3 -11  -9    1.70    0.30
  -3  11   9    1.40    0.20
  -3  11   9    1.40    0.30
   2 -11  -9   -0.10    0.10
   2 -11  -9    0.20    0.20
   2 -11  -9   -0.20    0.20
  -2  11   9    0.00    0.20
  -2  11   9   -0.10    0.20
  -2  11   9   -0.10    0.10
   1 -11  -9   29.10    1.10
   1 -11  -9   27.90    1.10
   1 -11  -9   27.30    0.80
  -1  11   9   29.40    1.30
  -1  11   9   27.70    1.00
   0 -11  -9   13.20    0.70
   0 -11  -9   13.40    0.50
   0 -11  -9   12.90    0.70
   0  11   9   13.50    0.40
   0  11   9   13.20    0.90
   0  11   9   13.30    0.70
   0  11   9   13.20    0.60
  -1 -11  -9    8.40    0.50
  -1 -11  -9    8.50    0.30
  -1 -11  -9    9.20    0.50
   1  11   9    8.20    0.50
   1  11   9    9.30    0.80
   1  11   9    7.00    0.50
   1  11   9    8.90    0.40
  -2 -11  -9   20.70    0.80
  -2 -11  -9   22.70    0.80
  -2 -11  -9   22.80    0.90
   2  11   9   22.60    1.20
   2  11   9   22.80    0.70
   2  11   9   22.40    0.80
   2  11   9   21.90    0.90
  -3 -11  -9    0.00    0.10
  -3 -11  -9    0.00    0.10
  -3 -11  -9    0.00    0.10
   3  11   9    0.10    0.10
   3  11   9    0.10    0.10
   3  11   9   -0.20    0.20
   3  11   9   -0.10    0.10
  -4 -11  -9    1.80    0.30
  -4 -11  -9    1.50    0.20
   4  11   9    1.40    0.20
   4  11   9    1.00    0.20
   4  11   9    1.30    0.20
   4  11   9    1.90    0.40
  -5 -11  -9   47.30    1.40
   5  11   9   45.00    1.50
   5  11   9   46.70    1.30
   5  11   9   45.90    1.40
   5  11   9   45.00    1.80
  -6 -11  -9    6.40    0.40
   6  11   9    6.10    0.70
   6  11   9    5.20    0.40
   6  11   9    5.70    0.30
   4 -12  -9    0.90    0.30
   4 -12  -9    0.50    0.20
   4 -12  -9    0.80    0.30
  -4  12   9    0.20    0.20
   3 -12  -9   10.60    0.50
   3 -12  -9   10.40    0.70
   3 -12  -9   10.10    0.70
  -3  12   9    9.90    0.50
  -3  12   9   11.10    0.80
   2 -12  -9    2.90    0.20
   2 -12  -9    3.00    0.40
   2 -12  -9    2.90    0.40
  -2  12   9    3.20    0.50
  -2  12   9    3.20    0.30
   1 -12  -9    9.90    0.40
   1 -12  -9    9.20    0.60
   1 -12  -9    9.60    0.60
  -1  12   9    9.70    0.50
  -1  12   9    9.80    0.80
   0 -12  -9    0.50    0.20
   0 -12  -9    0.60    0.10
   0 -12  -9    0.50    0.20
   0  12   9    0.80    0.20
   0  12   9    0.30    0.30
   0  12   9    0.60    0.20
   0  12   9    0.60    0.10
  -1 -12  -9   16.20    0.50
  -1 -12  -9   15.20    0.70
  -1 -12  -9   16.30    0.70
   1  12   9   15.30    0.70
   1  12   9   16.40    1.00
   1  12   9   17.10    0.80
   1  12   9   15.10    0.50
  -2 -12  -9    0.20    0.20
  -2 -12  -9    0.60    0.20
  -2 -12  -9    0.00    0.10
   2  12   9    1.00    0.30
   2  12   9    0.40    0.10
   2  12   9    0.10    0.20
   2  12   9    0.30    0.20
  -3 -12  -9    0.20    0.20
  -3 -12  -9    0.20    0.10
  -3 -12  -9    0.00    0.10
   3  12   9    0.10    0.10
   3  12   9    0.10    0.10
   3  12   9    0.20    0.20
   3  12   9    0.10    0.20
  -4 -12  -9    0.70    0.10
  -4 -12  -9    0.40    0.20
   4  12   9    0.30    0.20
   4  12   9    0.40    0.10
   4  12   9    0.70    0.30
   4  12   9    0.30    0.20
  -5 -12  -9    1.60    0.30
   5  12   9    0.90    0.30
   5  12   9    1.40    0.30
   5  12   9    1.60    0.20
   5  12   9    1.60    0.30
   3 -13  -9   17.00    0.60
   3 -13  -9   17.10    0.90
   3 -13  -9   17.40    0.90
  -3  13   9   17.30    0.70
   2 -13  -9    0.00    0.20
   2 -13  -9    0.00    0.10
   2 -13  -9    0.10    0.20
  -2  13   9    0.00    0.20
  -2  13   9   -0.10    0.30
   1 -13  -9   16.90    0.60
   1 -13  -9   17.60    0.80
   1 -13  -9   15.50    0.80
  -1  13   9   15.90    1.00
  -1  13   9   16.50    0.70
   0 -13  -9   11.80    0.70
   0 -13  -9   12.10    0.70
   0 -13  -9   11.90    0.40
   0  13   9   13.40    1.00
   0  13   9   12.90    0.70
   0  13   9   11.50    0.60
   0  13   9   12.30    0.40
  -1 -13  -9    2.80    0.40
  -1 -13  -9    2.50    0.30
   1  13   9    2.30    0.30
   1  13   9    2.50    0.20
   1  13   9    3.80    0.40
   1  13   9    3.10    0.60
  -2 -13  -9   10.10    0.60
  -2 -13  -9   10.10    0.60
   2  13   9    9.20    0.60
   2  13   9   10.50    0.40
   2  13   9   10.60    0.60
   2  13   9   10.70    0.90
  -3 -13  -9   17.20    0.70
  -3 -13  -9   17.30    0.70
   3  13   9   17.80    0.80
   3  13   9   16.30    0.80
   3  13   9   16.80    1.10
   3  13   9   17.50    0.60
  -4 -13  -9   12.10    0.60
   4  13   9   12.50    0.90
   4  13   9   11.90    0.50
   4  13   9   11.80    0.60
   4  13   9   11.60    0.70
  -5 -13  -9    1.10    0.20
   5  13   9    0.20    0.30
   5  13   9    0.70    0.20
   5  13   9    0.90    0.30
   5  13   9    0.90    0.20
   2 -14  -9   10.70    0.70
   2 -14  -9   11.40    0.70
   2 -14  -9   11.60    0.50
  -2  14   9   11.50    0.90
  -2  14   9   11.10    0.60
   1 -14  -9    0.90    0.20
   1 -14  -9    0.80    0.30
   1 -14  -9    1.10    0.30
  -1  14   9    1.20    0.40
  -1  14   9    1.20    0.30
   0 -14  -9    0.70    0.20
   0 -14  -9    0.10    0.10
   0 -14  -9    0.20    0.20
   0  14   9    0.30    0.20
   0  14   9    0.10    0.20
   0  14   9    0.00    0.30
   0  14   9    0.20    0.10
  -1 -14  -9   10.20    0.60
  -1 -14  -9   10.20    0.60
   1  14   9    9.80    0.60
   1  14   9    9.20    0.40
   1  14   9   10.10    0.90
   1  14   9   10.90    0.70
  -2 -14  -9    0.70    0.20
  -2 -14  -9    1.00    0.20
   2  14   9    0.80    0.40
   2  14   9    0.70    0.20
   2  14   9    0.80    0.30
   2  14   9    0.80    0.20
  -3 -14  -9    1.20    0.30
  -3 -14  -9    1.30    0.20
   3  14   9    1.10    0.20
   3  14   9    0.80    0.30
   3  14   9    1.60    0.30
   3  14   9    1.20    0.40
  -4 -14  -9    4.80    0.40
   4  14   9    4.00    0.70
   4  14   9    4.90    0.50
   4  14   9    5.20    0.40
   4  14   9    4.90    0.30
   1 -15  -9   13.70    0.80
   1 -15  -9   12.70    0.80
   1 -15  -9   13.40    0.50
  -1  15   9   14.50    1.10
  -1  15   9   13.50    0.70
   0 -15  -9    0.20    0.20
   0 -15  -9    0.10    0.20
   0  15   9    0.40    0.10
   0  15   9    0.10    0.30
   0  15   9    0.10    0.20
  -1 -15  -9    0.00    0.20
  -1 -15  -9    0.20    0.20
   1  15   9    0.10    0.30
   1  15   9    0.10    0.20
   1  15   9    0.20    0.10
   1  15   9    0.00    0.20
  -2 -15  -9   55.19    1.70
  -2 -15  -9   54.29    1.70
   2  15   9   56.79    1.80
   2  15   9   57.59    2.30
   2  15   9   54.59    1.90
   2  15   9   54.49    1.50
  -3 -15  -9   10.60    0.50
   3  15   9   12.50    1.00
   3  15   9   10.80    0.70
   3  15   9   11.00    0.50
   3  15   9   10.80    0.70
   1   9 -10    0.60    0.20
   1   9 -10    0.70    0.20
   1   9 -10    0.60    0.30
  -1  -9  10    0.90    0.20
   0   9 -10    0.70    0.30
   0   9 -10    0.70    0.20
   0   9 -10    0.80    0.30
   0  -9  10    0.80    0.20
   3   8 -10    3.40    0.50
  -3  -8  10    3.70    0.40
  -3  -8  10    3.30    0.40
  -3  -8  10    4.90    0.40
   2   8 -10   27.30    1.20
  -2  -8  10   28.50    1.00
   1   8 -10   -0.10    0.20
   1   8 -10    0.20    0.20
   1   8 -10    0.10    0.10
  -1  -8  10    0.00    0.20
   0   8 -10    0.20    0.10
   0   8 -10    0.40    0.20
   0   8 -10    0.20    0.20
   0  -8  10    0.30    0.10
   0  -8  10    0.50    0.20
  -1   8 -10   -0.10    0.20
  -1   8 -10    0.10    0.20
  -1   8 -10    0.00    0.20
   1  -8  10   -0.10    0.10
  -2   8 -10    1.40    0.40
  -2   8 -10    2.20    0.40
  -2   8 -10    2.20    0.30
   2  -8  10    2.30    0.30
   2  -8  10    1.80    0.30
   3   7 -10   74.59    2.30
  -3  -7  10   74.99    2.10
  -3  -7  10   75.39    2.10
  -3  -7  10   77.49    2.10
   2   7 -10   10.00    0.70
  -2  -7  10    9.60    0.50
  -2  -7  10    9.00    0.50
  -2  -7  10   10.30    0.50
   1   7 -10    2.10    0.20
   1   7 -10    2.60    0.30
   1   7 -10    1.50    0.30
  -1  -7  10    2.30    0.30
   0   7 -10   16.20    0.70
   0   7 -10   16.40    0.60
   0   7 -10   15.20    0.90
   0  -7  10   15.70    0.70
   0  -7  10   15.70    0.50
  -1   7 -10   11.40    0.80
  -1   7 -10   11.50    0.60
  -1   7 -10   11.20    0.50
   1  -7  10   11.10    0.50
   1  -7  10   11.70    0.60
   1  -7  10   11.70    0.70
  -2   7 -10    0.80    0.20
  -2   7 -10    0.80    0.30
  -2   7 -10    1.00    0.20
   2  -7  10    1.10    0.20
   2  -7  10    1.00    0.30
  -3   7 -10    3.60    0.40
  -3   7 -10    4.20    0.50
  -3   7 -10    3.60    0.30
   3  -7  10    3.00    0.30
   3  -7  10    2.80    0.40
   4   6 -10    2.10    0.30
  -4  -6  10    2.40    0.30
  -4  -6  10    2.20    0.20
  -4  -6  10    1.60    0.20
  -4  -6  10    1.80    0.20
   3   6 -10   17.50    0.80
  -3  -6  10   18.20    0.80
  -3  -6  10   17.70    0.70
  -3  -6  10   17.60    0.70
  -3  -6  10   16.80    0.70
   2   6 -10    5.10    0.50
  -2  -6  10    5.70    0.40
  -2  -6  10    6.20    0.40
  -2  -6  10    6.00    0.40
   1   6 -10   16.50    0.80
   1   6 -10   17.20    0.70
   1   6 -10   17.50    0.60
  -1  -6  10   15.70    0.70
   0   6 -10   13.20    0.60
   0   6 -10   13.60    0.50
   0   6 -10   12.60    0.80
   0  -6  10   13.50    0.50
   0  -6  10   12.90    0.60
  -1   6 -10    2.20    0.20
  -1   6 -10    1.60    0.30
  -1   6 -10    2.50    0.30
   1  -6  10    2.40    0.30
   1  -6  10    2.40    0.30
   1  -6  10    2.10    0.30
  -2   6 -10    1.80    0.20
  -2   6 -10    2.00    0.40
  -2   6 -10    2.30    0.30
   2  -6  10    1.90    0.30
   2  -6  10    1.80    0.30
  -3   6 -10   12.80    0.70
  -3   6 -10   13.90    0.60
  -3   6 -10   13.90    0.80
   3  -6  10   13.60    0.70
   3  -6  10   12.60    0.60
  -4   6 -10    0.20    0.20
  -4   6 -10    0.00    0.30
   4  -6  10   -0.20    0.10
   4  -6  10    0.10    0.20
   4  -6  10    0.20    0.20
   4  -6  10    0.00    0.20
  -5  -5  10   10.10    0.40
  -5  -5  10   12.00    0.70
  -5  -5  10   10.30    0.50
  -5  -5  10    9.80    0.50
   4   5 -10    4.20    0.40
  -4  -5  10    4.00    0.30
  -4  -5  10    4.30    0.30
  -4  -5  10    4.10    0.40
  -4  -5  10    4.20    0.30
   3   5 -10    7.10    0.50
  -3  -5  10    6.50    0.40
  -3  -5  10    7.20    0.40
  -3  -5  10    6.80    0.50
  -3  -5  10    6.40    0.40
   2   5 -10    1.70    0.30
  -2  -5  10    2.30    0.30
  -2  -5  10    1.70    0.20
  -2  -5  10    1.40    0.20
  -2  -5  10    2.20    0.30
   1   5 -10   15.60    0.70
   1   5 -10   15.00    0.80
   1   5 -10   16.40    0.50
  -1  -5  10   15.40    0.60
  -1  -5  10   16.20    0.70
  -1  -5  10   16.00    0.60
   0   5 -10    0.10    0.20
   0   5 -10    0.10    0.10
   0   5 -10    0.10    0.10
   0  -5  10    0.40    0.20
   0  -5  10    0.20    0.10
  -1   5 -10    0.30    0.20
  -1   5 -10    0.00    0.10
  -1   5 -10    0.10    0.20
   1  -5  10    0.00    0.10
   1  -5  10    0.20    0.10
   1  -5  10   -0.10    0.10
  -2   5 -10    2.50    0.30
  -2   5 -10    2.30    0.40
  -2   5 -10    2.10    0.30
   2  -5  10    3.10    0.30
   2  -5  10    2.50    0.30
  -3   5 -10   41.80    1.10
  -3   5 -10   40.90    1.50
  -3   5 -10   39.50    1.40
   3  -5  10   41.00    1.10
   3  -5  10   41.40    1.30
   3  -5  10   40.40    1.30
   3  -5  10   40.60    1.40
  -4   5 -10    0.90    0.30
  -4   5 -10    1.10    0.30
   4  -5  10    0.70    0.20
   4  -5  10    0.80    0.20
   4  -5  10    1.00    0.30
   4  -5  10    0.70    0.20
  -5  -4  10   11.30    0.50
  -5  -4  10   10.70    0.70
  -5  -4  10   11.40    0.40
  -5  -4  10   12.20    0.50
   4   4 -10   32.70    1.10
  -4  -4  10   35.00    1.20
  -4  -4  10   35.30    1.00
  -4  -4  10   34.90    1.00
  -4  -4  10   34.80    1.00
   3   4 -10    2.50    0.30
  -3  -4  10    2.70    0.30
  -3  -4  10    2.40    0.30
  -3  -4  10    2.50    0.30
  -3  -4  10    2.80    0.20
   2   4 -10   22.60    0.90
   2   4 -10   22.50    0.80
  -2  -4  10   23.80    0.80
  -2  -4  10   22.40    0.80
  -2  -4  10   23.10    0.80
  -2  -4  10   22.90    0.80
   1   4 -10    0.00    0.10
   1   4 -10    0.00    0.10
   1   4 -10    0.00    0.20
  -1  -4  10    0.10    0.10
  -1  -4  10    0.00    0.10
  -1  -4  10    0.00    0.10
   0   4 -10    2.10    0.20
   0   4 -10    2.20    0.30
   0   4 -10    2.00    0.30
   0  -4  10    2.50    0.30
   0  -4  10    2.30    0.20
   0  -4  10    2.00    0.30
  -1   4 -10    5.50    0.40
  -1   4 -10    5.50    0.30
  -1   4 -10    5.60    0.50
   1  -4  10    5.40    0.40
   1  -4  10    5.50    0.40
   1  -4  10    5.70    0.30
  -2   4 -10   12.00    0.70
  -2   4 -10   11.00    0.50
  -2   4 -10   11.20    0.60
   2  -4  10   11.20    0.50
   2  -4  10   11.20    0.60
  -3   4 -10    6.90    0.40
  -3   4 -10    7.10    0.60
  -3   4 -10    6.60    0.50
   3  -4  10    6.90    0.30
   3  -4  10    7.30    0.50
   3  -4  10    6.40    0.40
   3  -4  10    6.40    0.40
  -4   4 -10    6.60    0.60
  -4   4 -10    5.60    0.50
   4  -4  10    6.20    0.40
   4  -4  10    6.30    0.50
   4  -4  10    6.80    0.50
   4  -4  10    6.40    0.50
  -5   4 -10   -0.10    0.20
  -5   4 -10    0.10    0.20
   5  -4  10    0.00    0.20
   5  -4  10    0.20    0.20
   5  -4  10    0.00    0.10
   5  -4  10    0.20    0.20
  -5  -3  10    0.90    0.10
  -5  -3  10    1.00    0.30
  -5  -3  10    1.10    0.20
  -5  -3  10    1.00    0.10
   4   3 -10   12.90    0.60
  -4  -3  10   12.50    0.50
  -4  -3  10   13.00    0.50
  -4  -3  10   12.10    0.60
  -4  -3  10   12.90    0.50
   3   3 -10   -0.10    0.10
  -3  -3  10    0.00    0.10
  -3  -3  10   -0.10    0.10
  -3  -3  10    0.00    0.10
  -3  -3  10    0.00    0.10
   2   3 -10   58.79    1.80
   2   3 -10   61.99    1.70
  -2  -3  10   62.39    1.70
  -2  -3  10   59.59    1.70
  -2  -3  10   60.59    1.70
  -2  -3  10   62.09    1.60
   1   3 -10    5.70    0.40
   1   3 -10    5.40    0.40
   1   3 -10    5.70    0.30
  -1  -3  10    5.60    0.40
  -1  -3  10    5.50    0.20
  -1  -3  10    5.30    0.30
  -1  -3  10    5.70    0.30
  -1  -3  10    5.50    0.40
   0   3 -10    8.60    0.40
   0   3 -10    9.10    0.60
   0   3 -10    9.40    0.50
   0  -3  10    9.00    0.40
   0  -3  10    8.10    0.40
   0  -3  10    9.00    0.50
   0  -3  10    8.40    0.50
   0  -3  10    9.00    0.40
  -1   3 -10    8.40    0.40
  -1   3 -10    8.70    0.50
  -1   3 -10    8.20    0.50
   1  -3  10    8.40    0.50
   1  -3  10    8.10    0.50
   1  -3  10    7.80    0.40
  -2   3 -10    0.50    0.20
  -2   3 -10    0.30    0.20
  -2   3 -10    0.50    0.10
   2  -3  10    0.40    0.10
   2  -3  10    0.40    0.10
   2  -3  10    0.30    0.10
   2  -3  10    0.50    0.20
  -3   3 -10    7.30    0.50
  -3   3 -10    8.00    0.40
  -3   3 -10    8.10    0.60
   3  -3  10    8.60    0.50
   3  -3  10    7.50    0.40
   3  -3  10    8.70    0.50
   3  -3  10    8.10    0.40
  -4   3 -10    6.10    0.50
  -4   3 -10    6.10    0.50
   4  -3  10    4.90    0.40
   4  -3  10    6.10    0.30
   4  -3  10    6.40    0.40
   4  -3  10    6.20    0.50
  -5   3 -10    0.10    0.20
  -5   3 -10    0.30    0.20
   5  -3  10   -0.10    0.20
   5  -3  10    0.10    0.20
   5  -3  10    0.10    0.10
   5  -3  10   -0.20    0.10
  -5  -2  10   15.00    0.50
  -5  -2  10   15.10    0.80
  -5  -2  10   15.50    0.50
  -5  -2  10   14.90    0.60
   4   2 -10    2.80    0.30
  -4  -2  10    2.90    0.20
  -4  -2  10    2.40    0.20
  -4  -2  10    2.50    0.20
  -4  -2  10    2.80    0.40
   3   2 -10    0.20    0.10
  -3  -2  10    0.00    0.10
  -3  -2  10   -0.10    0.10
  -3  -2  10    0.00    0.10
  -3  -2  10    0.00    0.10
   2   2 -10   32.40    1.10
   2   2 -10   31.40    1.00
  -2  -2  10   31.10    1.00
  -2  -2  10   31.40    1.00
  -2  -2  10   31.90    0.90
  -2  -2  10   31.00    1.00
   1   2 -10   25.50    0.70
   1   2 -10   25.40    0.80
   1   2 -10   25.10    0.90
  -1  -2  10   26.50    0.90
  -1  -2  10   26.70    0.80
  -1  -2  10   25.30    0.80
  -1  -2  10   25.40    0.70
  -1  -2  10   26.10    0.90
   0   2 -10   10.00    0.40
   0   2 -10   10.10    0.60
   0   2 -10   10.40    0.50
   0  -2  10   11.30    0.40
   0  -2  10   10.80    0.50
   0  -2  10   11.10    0.50
   0  -2  10   10.20    0.50
   0  -2  10   10.50    0.40
  -1   2 -10   10.50    0.50
  -1   2 -10   10.30    0.60
  -1   2 -10   10.10    0.40
   1  -2  10   10.60    0.50
   1  -2  10    9.40    0.50
   1  -2  10    9.90    0.40
   1  -2  10    9.60    0.40
  -2   2 -10   26.00    0.80
  -2   2 -10   27.50    1.00
  -2   2 -10   26.70    0.90
   2  -2  10   26.50    1.00
   2  -2  10   25.80    0.90
   2  -2  10   25.80    0.90
   2  -2  10   26.20    0.70
   2  -2  10   26.30    0.90
  -3   2 -10    0.80    0.20
  -3   2 -10    0.70    0.20
  -3   2 -10    0.40    0.20
   3  -2  10    0.60    0.10
   3  -2  10    0.90    0.20
   3  -2  10    0.90    0.20
   3  -2  10    0.70    0.20
  -4   2 -10    1.30    0.30
  -4   2 -10    1.10    0.30
   4  -2  10    0.80    0.20
   4  -2  10    0.70    0.20
   4  -2  10    0.80    0.20
   4  -2  10    0.60    0.20
  -5   2 -10   14.40    0.70
  -5   2 -10   13.90    0.70
   5  -2  10   13.90    0.60
   5  -2  10   13.30    0.70
   5  -2  10   13.30    0.70
   5  -2  10   14.00    0.70
  -6   2 -10    3.40    0.40
   6  -2  10    3.90    0.40
   6  -2  10    3.40    0.40
   6  -2  10    3.70    0.50
   6  -2  10    3.80    0.30
  -6  -1  10    4.30    0.30
  -6  -1  10    5.10    0.50
  -6  -1  10    4.90    0.30
  -6  -1  10    4.60    0.30
  -5  -1  10    3.50    0.40
  -5  -1  10    3.40    0.20
  -5  -1  10    3.10    0.20
  -5  -1  10    4.00    0.30
   4   1 -10    7.50    1.00
   4   1 -10    7.70    0.40
  -4  -1  10    7.70    0.50
  -4  -1  10    7.00    0.30
  -4  -1  10    7.00    0.30
  -4  -1  10    7.10    0.40
   3   1 -10   21.70    0.80
  -3  -1  10   21.10    0.70
  -3  -1  10   21.10    0.80
  -3  -1  10   20.90    0.70
  -3  -1  10   20.20    0.70
   2   1 -10    0.30    0.20
   2   1 -10    0.40    0.10
  -2  -1  10    0.40    0.10
  -2  -1  10    0.20    0.10
  -2  -1  10    0.30    0.10
  -2  -1  10    0.10    0.10
   1   1 -10   38.30    1.00
   1   1 -10   37.80    1.20
   1   1 -10   38.60    1.10
  -1  -1  10   37.80    1.10
  -1  -1  10   37.90    1.00
  -1  -1  10   36.90    1.10
  -1  -1  10   37.70    1.10
  -1  -1  10   38.30    1.10
   0   1 -10    2.70    0.30
   0   1 -10    2.40    0.30
   0   1 -10    2.60    0.20
   0  -1  10    2.90    0.20
   0  -1  10    2.70    0.30
   0  -1  10    2.80    0.20
   0  -1  10    2.70    0.30
   0  -1  10    1.80    0.20
  -1   1 -10  102.79    2.60
  -1   1 -10  102.69    2.80
  -1   1 -10  105.39    2.50
   1  -1  10  101.29    2.50
   1  -1  10  102.29    2.70
   1  -1  10  104.29    2.70
  -2   1 -10   32.60    0.90
  -2   1 -10   32.90    1.10
  -2   1 -10   32.00    1.20
   2  -1  10   33.40    1.00
   2  -1  10   33.60    1.00
   2  -1  10   32.60    0.90
   2  -1  10   32.70    1.10
   2  -1  10   32.80    1.10
  -3   1 -10    1.30    0.20
  -3   1 -10    1.50    0.20
  -3   1 -10    1.40    0.30
   3  -1  10    1.30    0.20
   3  -1  10    1.40    0.30
   3  -1  10    1.20    0.20
   3  -1  10    1.60    0.20
  -4   1 -10   10.50    0.60
  -4   1 -10   11.50    0.60
   4  -1  10   12.10    0.50
   4  -1  10   11.80    0.60
   4  -1  10   12.10    0.60
   4  -1  10   12.00    0.60
  -5   1 -10    5.00    0.40
  -5   1 -10    4.50    0.40
   5  -1  10    4.50    0.30
   5  -1  10    5.20    0.40
   5  -1  10    4.80    0.50
   5  -1  10    3.60    0.40
  -6   1 -10    0.50    0.20
   6  -1  10    0.30    0.20
   6  -1  10    0.50    0.20
   6  -1  10    0.50    0.20
   6  -1  10    0.80    0.20
  -6   0  10    1.80    0.20
  -6   0  10    1.70    0.20
  -6   0  10    1.80    0.30
  -6   0  10    1.20    0.20
   5   0 -10    4.60    0.30
  -5   0  10    4.30    0.30
  -5   0  10    5.00    0.50
  -5   0  10    4.70    0.30
  -5   0  10    4.70    0.30
   4   0 -10   14.50    0.60
   4   0 -10   15.40    1.30
  -4   0  10   15.10    0.50
  -4   0  10   15.30    0.70
  -4   0  10   14.50    0.60
  -4   0  10   14.90    0.50
   3   0 -10   44.70    1.30
  -3   0  10   42.80    1.20
  -3   0  10   46.80    1.20
  -3   0  10   41.20    1.30
  -3   0  10   44.10    1.20
   2   0 -10   76.29    1.90
   2   0 -10   73.29    2.00
  -2   0  10   74.59    2.00
  -2   0  10   74.19    1.90
  -2   0  10   75.29    1.90
  -2   0  10   74.69    1.90
   1   0 -10    0.00    0.10
   1   0 -10    0.00    0.10
   1   0 -10    0.10    0.10
  -1   0  10    0.00    0.10
  -1   0  10    0.10    0.10
  -1   0  10    0.00    0.10
  -1   0  10    0.10    0.10
  -1   0  10    0.10    0.10
   0   0 -10   13.90    0.60
   0   0 -10   13.40    0.40
   0   0 -10   13.10    0.60
   0   0  10   13.40    0.50
   0   0  10   13.10    0.60
   0   0  10   12.60    0.50
   0   0  10   13.30    0.60
  -1   0 -10   41.40    1.20
  -1   0 -10   40.50    1.10
  -1   0 -10   39.00    1.30
   1   0  10   40.40    1.20
   1   0  10   41.20    1.30
   1   0  10   41.00    1.10
   1   0  10   38.70    1.10
  -2   0 -10   51.29    1.30
  -2   0 -10   50.89    1.50
  -2   0 -10   51.49    1.60
   2   0  10   48.40    1.40
   2   0  10   49.50    1.40
   2   0  10   49.80    1.50
   2   0  10   50.59    1.50
   2   0  10   49.90    1.30
  -3   0 -10    5.10    0.40
  -3   0 -10    4.30    0.30
  -3   0 -10    4.40    0.40
   3   0  10    4.40    0.40
   3   0  10    4.30    0.30
   3   0  10    4.10    0.30
   3   0  10    4.80    0.30
  -4   0 -10    4.50    0.40
  -4   0 -10    4.90    0.50
  -4   0 -10    4.50    0.40
   4   0  10    3.60    0.30
   4   0  10    3.80    0.30
   4   0  10    4.10    0.40
   4   0  10    3.50    0.30
  -5   0 -10    4.80    0.40
  -5   0 -10    4.50    0.40
  -5   0 -10    4.80    0.40
   5   0  10    3.80    0.40
   5   0  10    4.80    0.30
   5   0  10    3.70    0.40
   5   0  10    4.40    0.40
  -6   0 -10    0.40    0.20
  -6   0 -10    0.10    0.20
   6   0  10    0.10    0.20
   6   0  10    0.30    0.20
   6   0  10    0.10    0.20
   6   0  10    0.80    0.20
  -6   1  10    6.20    0.30
  -6   1  10    6.20    0.50
  -6   1  10    6.10    0.30
  -6   1  10    5.70    0.40
   5  -1 -10   17.20    0.70
  -5   1  10   17.50    0.60
  -5   1  10   16.90    0.60
  -5   1  10   17.50    0.60
  -5   1  10   16.80    0.80
   4  -1 -10    0.10    0.30
   4  -1 -10    0.60    0.20
  -4   1  10    0.50    0.10
  -4   1  10    0.40    0.10
  -4   1  10    0.60    0.20
  -4   1  10    0.30    0.10
   3  -1 -10   18.40    0.70
   3  -1 -10   17.50    1.20
  -3   1  10   18.20    0.70
  -3   1  10   18.30    0.60
  -3   1  10   19.40    0.60
  -3   1  10   18.40    0.70
   2  -1 -10    2.70    0.30
   2  -1 -10    2.70    0.30
  -2   1  10    2.10    0.20
  -2   1  10    2.30    0.20
  -2   1  10    2.10    0.20
   1  -1 -10    1.40    0.10
   1  -1 -10    1.40    0.20
   1  -1 -10    1.70    0.20
  -1   1  10    1.40    0.20
  -1   1  10    1.20    0.20
  -1   1  10    1.60    0.10
  -1   1  10    1.30    0.20
   0  -1 -10    6.20    0.40
   0  -1 -10    6.50    0.40
   0  -1 -10    5.90    0.30
   0   1  10    6.40    0.30
   0   1  10    6.90    0.30
   0   1  10    6.60    0.40
   0   1  10    6.40    0.40
   0   1  10    6.30    0.40
  -1  -1 -10   31.20    1.00
  -1  -1 -10   33.80    1.10
  -1  -1 -10   32.60    0.90
   1   1  10   32.00    0.80
   1   1  10   31.50    1.10
   1   1  10   32.20    1.00
   1   1  10   33.50    1.00
   1   1  10   31.50    1.00
  -2  -1 -10    1.60    0.20
  -2  -1 -10    2.10    0.30
  -2  -1 -10    1.80    0.20
   2   1  10    2.00    0.20
   2   1  10    1.90    0.20
   2   1  10    1.60    0.20
   2   1  10    1.90    0.30
   2   1  10    1.50    0.20
  -3  -1 -10    8.00    0.50
  -3  -1 -10    7.90    0.40
  -3  -1 -10    8.40    0.50
  -3  -1 -10    8.00    0.30
   3   1  10    8.50    0.40
   3   1  10    7.10    0.40
   3   1  10    7.90    0.30
   3   1  10    8.80    0.50
  -4  -1 -10    7.70    0.50
  -4  -1 -10    7.90    0.40
  -4  -1 -10    7.10    0.50
   4   1  10    7.90    0.50
   4   1  10    7.60    0.40
   4   1  10    7.40    0.40
   4   1  10    7.60    0.40
  -5  -1 -10    0.10    0.20
  -5  -1 -10    0.20    0.20
  -5  -1 -10    0.10    0.10
   5   1  10    0.40    0.20
   5   1  10    0.10    0.10
   5   1  10    0.20    0.10
   5   1  10    0.00    0.10
  -6  -1 -10    0.20    0.10
  -6  -1 -10   -0.10    0.10
   6   1  10    0.10    0.20
   6   1  10   -0.10    0.10
   6   1  10    0.10    0.10
   6   1  10   -0.10    0.10
  -6   2  10    0.10    0.20
  -6   2  10    0.80    0.20
  -6   2  10    0.80    0.20
  -6   2  10    0.80    0.10
   5  -2 -10    8.60    0.40
  -5   2  10    7.70    0.40
  -5   2  10    8.10    0.40
  -5   2  10    7.80    0.50
  -5   2  10    8.50    0.40
   4  -2 -10  142.09    4.40
   4  -2 -10  134.69    3.40
  -4   2  10  132.49    3.50
  -4   2  10  137.09    3.30
  -4   2  10  135.49    3.30
  -4   2  10  135.39    3.30
   3  -2 -10    3.00    0.30
   3  -2 -10    4.10    0.70
  -3   2  10    3.00    0.20
  -3   2  10    3.40    0.20
  -3   2  10    3.40    0.30
   2  -2 -10    0.50    0.20
   2  -2 -10    0.60    0.10
   2  -2 -10    0.50    0.10
  -2   2  10    0.60    0.10
  -2   2  10    0.70    0.20
  -2   2  10    0.50    0.10
   1  -2 -10    0.10    0.10
   1  -2 -10    0.10    0.10
   1  -2 -10    0.10    0.10
  -1   2  10    0.00    0.10
  -1   2  10    0.00    0.10
  -1   2  10    0.10    0.10
  -1   2  10    0.00    0.10
  -1   2  10    0.10    0.10
   0  -2 -10   14.50    0.60
   0  -2 -10   13.40    0.60
   0  -2 -10   13.90    0.40
   0   2  10   13.90    0.50
   0   2  10   14.80    0.60
   0   2  10   14.80    0.70
   0   2  10   13.20    0.60
   0   2  10   14.70    0.50
   0   2  10   14.60    0.50
   0   2  10   14.10    0.90
  -1  -2 -10    0.00    0.10
  -1  -2 -10    0.00    0.10
  -1  -2 -10    0.20    0.10
   1   2  10   -0.10    0.10
   1   2  10    0.00    0.10
   1   2  10    0.00    0.10
   1   2  10    0.10    0.10
   1   2  10    0.10    0.10
   1   2  10   -0.10    0.10
  -2  -2 -10   13.30    0.60
  -2  -2 -10   13.70    0.50
  -2  -2 -10   13.90    0.60
  -2  -2 -10   15.00    0.60
   2   2  10   14.40    0.50
   2   2  10   14.90    0.70
   2   2  10   13.50    0.50
   2   2  10   14.40    0.60
   2   2  10   14.00    0.60
  -3  -2 -10   30.60    1.00
  -3  -2 -10   28.60    0.80
  -3  -2 -10   28.20    1.00
  -3  -2 -10   29.10    1.00
   3   2  10   28.90    1.00
   3   2  10   29.00    0.80
   3   2  10   28.20    0.90
   3   2  10   28.80    1.00
  -4  -2 -10    3.60    0.40
  -4  -2 -10    3.60    0.30
  -4  -2 -10    4.50    0.40
   4   2  10    3.50    0.30
   4   2  10    4.20    0.30
   4   2  10    3.20    0.40
   4   2  10    3.50    0.30
  -5  -2 -10    1.80    0.30
  -5  -2 -10    1.70    0.30
  -5  -2 -10    2.00    0.30
   5   2  10    1.60    0.20
   5   2  10    2.00    0.30
   5   2  10    2.20    0.30
   5   2  10    1.80    0.20
  -6  -2 -10   -0.10    0.10
  -6  -2 -10    0.20    0.10
   6   2  10    0.50    0.20
   6   2  10    0.20    0.10
   6   2  10    0.30    0.10
   6   2  10    0.30    0.20
   6  -3 -10    1.20    0.20
  -6   3  10    0.60    0.20
  -6   3  10    0.80    0.20
  -6   3  10    0.70    0.30
  -6   3  10    0.80    0.20
   5  -3 -10    0.60    0.20
   5  -3 -10    0.40    0.40
  -5   3  10    0.50    0.20
  -5   3  10    0.60    0.10
  -5   3  10    0.70    0.20
  -5   3  10    0.60    0.20
   4  -3 -10    8.80    1.10
   4  -3 -10    8.30    0.40
  -4   3  10    7.90    0.40
  -4   3  10    7.80    0.40
  -4   3  10    8.00    0.40
   3  -3 -10   26.20    0.90
   3  -3 -10   26.20    0.90
   3  -3 -10   24.20    1.40
  -3   3  10   26.90    0.80
  -3   3  10   25.90    0.80
  -3   3  10   26.00    0.90
   2  -3 -10   13.00    0.40
   2  -3 -10   12.50    0.50
   2  -3 -10   12.80    0.60
  -2   3  10   13.00    0.50
  -2   3  10   12.50    0.50
  -2   3  10   13.40    0.50
   1  -3 -10    0.10    0.10
   1  -3 -10    0.10    0.10
   1  -3 -10    0.20    0.10
  -1   3  10    0.10    0.20
  -1   3  10    0.10    0.10
  -1   3  10    0.10    0.10
  -1   3  10    0.30    0.10
  -1   3  10    0.20    0.10
  -1   3  10    0.20    0.10
   0  -3 -10    1.60    0.10
   0  -3 -10    0.90    0.20
   0  -3 -10    1.40    0.20
   0   3  10    1.80    0.20
   0   3  10    1.60    0.20
   0   3  10    1.50    0.20
   0   3  10    1.60    0.20
   0   3  10    1.90    0.40
   0   3  10    1.50    0.30
   0   3  10    1.40    0.20
  -1  -3 -10  100.19    2.50
  -1  -3 -10   97.69    2.60
  -1  -3 -10   97.39    2.30
   1   3  10   95.79    2.40
   1   3  10   97.49    2.50
   1   3  10   98.19    2.70
   1   3  10   97.99    2.30
   1   3  10  100.89    2.50
   1   3  10   99.79    2.50
  -2  -3 -10    0.90    0.10
  -2  -3 -10    1.10    0.20
  -2  -3 -10    1.10    0.20
  -2  -3 -10    0.80    0.20
   2   3  10    0.90    0.20
   2   3  10    1.10    0.20
   2   3  10    0.80    0.20
   2   3  10    1.20    0.20
   2   3  10    1.00    0.10
  -3  -3 -10   11.30    0.50
  -3  -3 -10   10.80    0.60
  -3  -3 -10   10.70    0.50
  -3  -3 -10   11.00    0.30
   3   3  10    9.90    0.50
   3   3  10   10.40    0.40
   3   3  10   10.10    0.60
   3   3  10   10.20    0.50
  -4  -3 -10    0.30    0.10
  -4  -3 -10    0.10    0.10
  -4  -3 -10    0.20    0.20
   4   3  10    0.10    0.10
   4   3  10    0.30    0.20
   4   3  10    0.30    0.10
   4   3  10    0.20    0.10
  -5  -3 -10    2.00    0.30
  -5  -3 -10    1.70    0.30
  -5  -3 -10    2.50    0.30
   5   3  10    1.70    0.30
   5   3  10    1.50    0.20
   5   3  10    2.10    0.30
   5   3  10    2.00    0.30
  -6  -3 -10    9.70    0.40
  -6  -3 -10    8.70    0.50
   6   3  10    9.10    0.50
   6   3  10    9.50    0.50
   6   3  10    9.50    0.60
   6   3  10    9.90    0.40
   6  -4 -10    0.70    0.20
  -6   4  10    1.00    0.20
  -6   4  10    0.40    0.20
  -6   4  10    0.90    0.20
  -6   4  10    1.10    0.30
   5  -4 -10    6.50    0.90
   5  -4 -10    4.80    0.40
  -5   4  10    4.70    0.30
  -5   4  10    4.90    0.40
  -5   4  10    4.60    0.40
  -5   4  10    4.80    0.40
   4  -4 -10   16.00    0.70
   4  -4 -10   16.60    1.20
  -4   4  10   16.00    0.70
  -4   4  10   15.90    0.60
  -4   4  10   15.60    0.60
   3  -4 -10    2.50    0.30
   3  -4 -10    2.50    0.50
   3  -4 -10    3.40    0.30
  -3   4  10    2.70    0.20
  -3   4  10    2.30    0.30
  -3   4  10    2.70    0.30
   2  -4 -10   18.00    0.70
   2  -4 -10   18.30    0.50
   2  -4 -10   17.20    0.70
  -2   4  10   18.70    0.60
  -2   4  10   17.80    0.50
  -2   4  10   18.20    0.70
  -2   4  10   18.80    0.70
   1  -4 -10    1.20    0.20
   1  -4 -10    1.30    0.20
  -1   4  10    1.80    0.30
  -1   4  10    2.10    0.40
  -1   4  10    1.70    0.20
  -1   4  10    1.90    0.20
   0  -4 -10    0.10    0.10
   0  -4 -10    0.20    0.10
   0  -4 -10    0.00    0.10
   0   4  10    0.00    0.10
   0   4  10    0.10    0.10
   0   4  10    0.10    0.10
   0   4  10    0.20    0.20
   0   4  10    0.10    0.20
   0   4  10    0.00    0.10
  -1  -4 -10   21.00    0.80
  -1  -4 -10   20.00    0.60
  -1  -4 -10   20.40    0.80
   1   4  10   20.50    0.60
   1   4  10   20.60    0.80
   1   4  10   20.30    0.70
   1   4  10   17.70    0.90
   1   4  10   20.00    0.90
  -2  -4 -10   14.10    0.50
  -2  -4 -10   14.20    0.60
  -2  -4 -10   15.00    0.60
  -2  -4 -10   14.40    0.60
   2   4  10   14.90    0.60
   2   4  10   15.20    0.60
   2   4  10   15.60    0.60
   2   4  10   15.00    0.50
   2   4  10   15.60    0.70
  -3  -4 -10   15.40    0.70
  -3  -4 -10   14.50    0.40
  -3  -4 -10   15.20    0.60
  -3  -4 -10   14.90    0.70
   3   4  10   14.60    0.60
   3   4  10   14.70    0.60
   3   4  10   16.40    0.70
   3   4  10   14.40    0.50
  -4  -4 -10    0.10    0.10
  -4  -4 -10    0.10    0.10
  -4  -4 -10   -0.10    0.10
   4   4  10    0.10    0.10
   4   4  10    0.00    0.10
   4   4  10    0.00    0.10
   4   4  10    0.00    0.10
  -5  -4 -10   22.70    0.90
  -5  -4 -10   23.30    0.80
   5   4  10   23.60    1.00
   5   4  10   23.90    0.90
   5   4  10   22.60    0.90
   5   4  10   22.60    0.70
  -6  -4 -10    7.30    0.50
   6   4  10    7.10    0.50
   6   4  10    7.50    0.40
   6   4  10    7.60    0.60
   6   4  10    7.30    0.50
   7   4  10    2.00    0.30
   6  -5 -10    0.00    0.20
   6  -5 -10   -0.20    0.10
  -6   5  10    0.20    0.20
  -6   5  10    0.10    0.10
  -6   5  10    0.20    0.10
  -6   5  10    0.30    0.20
   5  -5 -10    3.70    0.70
   5  -5 -10    3.20    0.40
  -5   5  10    3.60    0.30
  -5   5  10    3.50    0.40
  -5   5  10    3.20    0.30
   4  -5 -10   10.10    0.50
   4  -5 -10    9.40    0.90
  -4   5  10    9.50    0.50
  -4   5  10    9.60    0.50
  -4   5  10    9.90    0.50
   3  -5 -10   30.00    0.80
   3  -5 -10   31.40    1.00
   3  -5 -10   28.10    1.50
   3  -5 -10   28.80    1.00
  -3   5  10   30.40    1.00
  -3   5  10   30.30    1.00
  -3   5  10   30.30    1.00
   2  -5 -10    0.00    0.10
   2  -5 -10    0.10    0.20
   2  -5 -10    0.10    0.10
   2  -5 -10    0.20    0.10
  -2   5  10    0.00    0.10
  -2   5  10   -0.10    0.10
  -2   5  10    0.00    0.10
  -2   5  10    0.10    0.10
   1  -5 -10   24.30    0.70
   1  -5 -10   24.30    0.90
   1  -5 -10   22.60    0.80
  -1   5  10   23.00    0.80
  -1   5  10   24.70    0.90
  -1   5  10   24.20    0.70
  -1   5  10   23.80    1.00
   0  -5 -10   47.70    1.20
   0  -5 -10   46.60    1.40
   0   5  10   46.80    1.60
   0   5  10   46.20    1.30
   0   5  10   47.10    1.60
   0   5  10   45.30    1.40
   0   5  10   48.00    1.30
  -1  -5 -10   43.80    1.10
  -1  -5 -10   41.40    1.30
  -1  -5 -10   44.20    1.30
  -1  -5 -10   43.80    1.50
   1   5  10   41.50    1.30
   1   5  10   43.00    1.40
   1   5  10   39.50    1.50
   1   5  10   43.00    1.10
   1   5  10   43.20    1.20
  -2  -5 -10    0.90    0.20
  -2  -5 -10    0.40    0.20
  -2  -5 -10    0.60    0.10
  -2  -5 -10    0.70    0.10
   2   5  10    1.10    0.10
   2   5  10    1.00    0.20
   2   5  10    0.30    0.20
   2   5  10    0.80    0.20
  -3  -5 -10    5.20    0.40
  -3  -5 -10    5.20    0.30
  -3  -5 -10    4.60    0.40
   3   5  10    5.80    0.40
   3   5  10    4.90    0.30
   3   5  10    5.60    0.50
   3   5  10    5.80    0.30
  -4  -5 -10    0.30    0.10
  -4  -5 -10    1.00    0.20
  -4  -5 -10    0.70    0.20
   4   5  10    0.70    0.20
   4   5  10    0.60    0.10
   4   5  10    0.90    0.20
   4   5  10    0.70    0.20
  -5  -5 -10    0.40    0.20
  -5  -5 -10    0.60    0.20
   5   5  10    0.60    0.10
   5   5  10    0.60    0.20
   5   5  10    0.40    0.10
   5   5  10    0.40    0.20
  -6  -5 -10    0.10    0.10
   6   5  10    0.20    0.20
   6   5  10    0.20    0.10
   6   5  10    0.60    0.20
   6   5  10    0.30    0.20
  -7  -5 -10    1.50    0.30
   7   5  10    1.40    0.20
   5  -6 -10    4.90    0.80
   5  -6 -10    5.60    0.40
  -5   6  10    5.10    0.40
  -5   6  10    5.20    0.50
   4  -6 -10    7.80    0.80
   4  -6 -10    9.00    0.50
  -4   6  10    9.00    0.50
  -4   6  10    8.60    0.50
  -4   6  10    9.30    0.50
   3  -6 -10   55.99    1.70
   3  -6 -10   57.79    2.20
   3  -6 -10   56.99    1.70
   3  -6 -10   57.59    1.40
  -3   6  10   61.09    1.70
  -3   6  10   58.49    1.60
  -3   6  10   55.99    1.70
   2  -6 -10    1.80    0.30
   2  -6 -10    2.10    0.20
   2  -6 -10    1.40    0.40
   2  -6 -10    1.40    0.20
  -2   6  10    1.80    0.20
  -2   6  10    2.00    0.30
  -2   6  10    1.70    0.20
  -2   6  10    2.00    0.30
  -2   6  10    1.70    0.30
   1  -6 -10    0.60    0.10
   1  -6 -10    0.70    0.20
   1  -6 -10    0.60    0.20
  -1   6  10    0.90    0.20
  -1   6  10    0.80    0.20
  -1   6  10    0.70    0.10
  -1   6  10    0.80    0.20
   0  -6 -10    5.60    0.40
   0  -6 -10    5.10    0.30
   0  -6 -10    5.50    0.40
   0   6  10    5.90    0.40
   0   6  10    5.10    0.40
   0   6  10    4.90    0.30
   0   6  10    5.80    0.50
   0   6  10    6.10    0.60
   0   6  10    5.70    0.30
  -1  -6 -10   41.00    1.40
  -1  -6 -10   41.40    1.30
  -1  -6 -10   43.20    1.10
  -1  -6 -10   42.10    1.30
   1   6  10   38.20    1.40
   1   6  10   39.90    1.20
   1   6  10   44.50    1.50
   1   6  10   40.20    1.30
   1   6  10   43.10    1.10
   1   6  10   43.30    1.20
  -2  -6 -10   26.60    0.70
  -2  -6 -10   26.30    0.90
  -2  -6 -10   26.60    0.90
  -2  -6 -10   26.60    0.90
   2   6  10   26.50    0.90
   2   6  10   26.10    1.10
   2   6  10   26.10    0.90
   2   6  10   28.10    0.80
  -3  -6 -10    1.30    0.20
  -3  -6 -10    1.40    0.20
  -3  -6 -10    1.30    0.20
   3   6  10    1.40    0.30
   3   6  10    1.30    0.20
   3   6  10    1.50    0.20
   3   6  10    1.40    0.20
  -4  -6 -10   12.80    0.60
  -4  -6 -10   13.50    0.60
  -4  -6 -10   13.10    0.60
   4   6  10   11.00    0.70
   4   6  10   12.80    0.60
   4   6  10   12.40    0.50
   4   6  10   13.10    0.60
  -5  -6 -10    0.10    0.10
  -5  -6 -10    0.30    0.20
   5   6  10    0.00    0.10
   5   6  10    0.30    0.10
   5   6  10    0.20    0.10
   5   6  10    0.20    0.10
  -6  -6 -10   12.10    0.60
   6   6  10   11.20    0.50
   6   6  10   12.60    0.60
   6   6  10   11.60    0.60
   6   6  10   12.30    0.70
   5  -7 -10   41.10    1.40
   5  -7 -10   39.20    2.30
   5  -7 -10   40.40    1.40
  -5   7  10   42.00    1.30
  -5   7  10   40.90    1.40
   4  -7 -10    0.50    0.30
   4  -7 -10    0.40    0.20
   4  -7 -10    0.30    0.10
   4  -7 -10    0.30    0.20
  -4   7  10    0.30    0.10
  -4   7  10    0.50    0.20
   3  -7 -10    1.90    0.40
   3  -7 -10    2.60    0.30
   3  -7 -10    2.10    0.30
   3  -7 -10    2.10    0.20
  -3   7  10    2.20    0.30
  -3   7  10    1.60    0.30
   2  -7 -10  115.49    3.40
   2  -7 -10  119.99    2.90
   2  -7 -10  116.59    3.10
   2  -7 -10  123.19    3.10
  -2   7  10  125.09    3.20
  -2   7  10  122.09    3.00
  -2   7  10  120.69    3.10
  -2   7  10  121.89    2.90
   1  -7 -10    1.20    0.20
   1  -7 -10    1.50    0.20
   1  -7 -10    1.10    0.20
  -1   7  10    1.20    0.30
  -1   7  10    1.80    0.20
  -1   7  10    1.30    0.20
  -1   7  10    1.50    0.20
   0  -7 -10   36.80    1.20
   0  -7 -10   33.80    1.10
   0  -7 -10   34.00    0.90
   0   7  10   33.90    1.10
   0   7  10   34.20    0.80
   0   7  10   35.70    1.20
   0   7  10   34.30    1.30
   0   7  10   32.00    1.00
  -1  -7 -10   62.09    1.50
  -1  -7 -10   61.59    1.80
  -1  -7 -10   59.69    1.80
   1   7  10   65.89    1.70
   1   7  10   59.39    1.80
   1   7  10   62.09    1.70
   1   7  10   59.79    1.70
   1   7  10   62.09    1.50
   1   7  10   62.39    2.00
  -2  -7 -10  210.78    5.20
  -2  -7 -10  216.28    5.20
  -2  -7 -10  212.78    5.10
  -2  -7 -10  212.58    4.90
   2   7  10  220.38    5.20
   2   7  10  217.08    5.10
   2   7  10  214.68    4.90
   2   7  10  220.38    5.50
  -3  -7 -10    7.10    0.40
  -3  -7 -10    5.80    0.40
  -3  -7 -10    6.00    0.40
   3   7  10    5.60    0.40
   3   7  10    6.70    0.50
   3   7  10    5.90    0.40
   3   7  10    5.90    0.30
  -4  -7 -10    8.90    0.50
  -4  -7 -10    7.60    0.40
  -4  -7 -10    7.50    0.40
   4   7  10    7.30    0.60
   4   7  10    7.70    0.50
   4   7  10    8.30    0.40
   4   7  10    8.20    0.40
  -5  -7 -10   17.00    0.60
  -5  -7 -10   17.10    0.70
   5   7  10   17.50    0.70
   5   7  10   16.70    0.70
   5   7  10   16.80    0.60
   5   7  10   16.10    0.90
  -6  -7 -10   -0.10    0.10
   6   7  10    0.10    0.10
   6   7  10    0.00    0.20
   6   7  10    0.30    0.10
   6   7  10   -0.10    0.10
   5  -8 -10    1.20    0.30
  -5   8  10    2.30    0.40
   4  -8 -10   23.30    0.70
   4  -8 -10   24.70    1.00
   4  -8 -10   24.20    1.00
   4  -8 -10   23.60    1.00
  -4   8  10   24.40    1.00
   3  -8 -10   11.50    0.60
   3  -8 -10   11.50    0.60
   3  -8 -10   11.50    0.40
  -3   8  10   12.30    0.40
  -3   8  10   11.20    0.60
   2  -8 -10    3.50    0.20
   2  -8 -10    4.20    0.40
   2  -8 -10    4.50    0.50
   2  -8 -10    4.60    0.40
  -2   8  10    4.20    0.40
  -2   8  10    4.60    0.50
  -2   8  10    3.70    0.30
   1  -8 -10    0.30    0.20
   1  -8 -10    0.20    0.10
   1  -8 -10    0.40    0.10
  -1   8  10    0.40    0.10
  -1   8  10    0.50    0.20
  -1   8  10    0.50    0.20
   0  -8 -10   14.10    0.70
   0  -8 -10   14.80    0.50
   0  -8 -10   14.90    0.70
   0   8  10   14.40    0.80
   0   8  10   14.40    0.60
   0   8  10   14.90    0.40
   0   8  10   14.40    0.70
   0   8  10   14.60    0.60
  -1  -8 -10    0.90    0.10
  -1  -8 -10    1.20    0.20
  -1  -8 -10    1.00    0.20
   1   8  10    1.60    0.30
   1   8  10    0.60    0.20
   1   8  10    1.10    0.30
   1   8  10    1.10    0.10
  -2  -8 -10   84.99    2.00
  -2  -8 -10   85.49    2.30
  -2  -8 -10   85.29    2.30
  -2  -8 -10   87.29    2.20
   2   8  10   85.09    2.10
   2   8  10   83.39    2.30
   2   8  10   88.99    2.60
   2   8  10   87.39    2.30
  -3  -8 -10    9.00    0.50
  -3  -8 -10    8.70    0.50
  -3  -8 -10    9.50    0.50
   3   8  10    8.90    0.40
   3   8  10   10.00    0.70
   3   8  10    9.90    0.50
   3   8  10    9.00    0.50
  -4  -8 -10   14.30    0.60
  -4  -8 -10   13.90    0.60
  -4  -8 -10   13.80    0.60
   4   8  10   13.90    0.60
   4   8  10   12.30    0.50
   4   8  10   12.60    0.60
   4   8  10   13.30    0.80
  -5  -8 -10   20.00    0.80
  -5  -8 -10   18.20    0.60
   5   8  10   18.50    1.00
   5   8  10   19.30    0.80
   5   8  10   18.50    0.80
   5   8  10   20.40    0.70
  -6  -8 -10    0.90    0.20
   6   8  10    1.00    0.20
   6   8  10    1.10    0.20
   6   8  10    1.00    0.30
   6   8  10    1.00    0.20
   5  -9 -10    4.40    0.50
   5  -9 -10    4.90    0.30
  -5   9  10    4.00    0.50
   4  -9 -10   14.40    0.70
   4  -9 -10   15.00    0.50
   4  -9 -10   14.20    0.80
  -4   9  10   16.40    0.80
   3  -9 -10    1.00    0.30
   3  -9 -10    1.20    0.30
   3  -9 -10    0.90    0.20
   3  -9 -10    1.10    0.20
  -3   9  10    1.50    0.30
  -3   9  10    1.00    0.20
   2  -9 -10    7.30    0.30
   2  -9 -10    8.00    0.50
   2  -9 -10    6.90    0.50
  -2   9  10    7.90    0.60
  -2   9  10    7.20    0.40
  -2   9  10    6.80    0.50
   1  -9 -10    5.60    0.40
   1  -9 -10    6.00    0.40
   1  -9 -10    5.60    0.30
  -1   9  10    5.80    0.50
  -1   9  10    6.00    0.60
  -1   9  10    5.60    0.40
   0  -9 -10    4.50    0.40
   0  -9 -10    4.50    0.40
   0  -9 -10    4.50    0.30
   0   9  10    4.80    0.30
   0   9  10    4.70    0.40
   0   9  10    4.20    0.60
   0   9  10    5.10    0.20
   0   9  10    4.50    0.40
  -1  -9 -10  193.18    4.70
  -1  -9 -10  189.98    4.40
  -1  -9 -10  185.38    4.70
   1   9  10  190.88    4.40
   1   9  10  192.48    4.70
   1   9  10  193.78    5.10
   1   9  10  189.58    4.60
  -2  -9 -10   14.70    0.70
  -2  -9 -10   16.10    0.60
  -2  -9 -10   15.10    0.40
  -2  -9 -10   13.60    0.60
   2   9  10   13.90    0.70
   2   9  10   14.40    0.60
   2   9  10   14.70    0.50
   2   9  10   15.10    0.90
  -3  -9 -10    9.30    0.50
  -3  -9 -10    8.60    0.50
  -3  -9 -10    9.70    0.50
   3   9  10    9.50    0.40
   3   9  10    8.20    0.50
   3   9  10    9.40    0.50
   3   9  10    9.10    0.70
  -4  -9 -10   11.30    0.50
  -4  -9 -10   10.40    0.60
  -4  -9 -10    9.90    0.50
  -4  -9 -10   10.50    0.50
   4   9  10   10.40    0.40
   4   9  10   10.60    0.50
   4   9  10   10.90    0.70
   4   9  10    9.90    0.60
  -5  -9 -10   15.00    0.70
   5   9  10   14.20    0.90
   5   9  10   14.60    0.50
   5   9  10   14.40    0.70
   5   9  10   14.50    0.70
  -6  -9 -10    0.10    0.10
   6   9  10    0.10    0.20
   6   9  10   -0.10    0.10
   6   9  10   -0.10    0.10
   6   9  10    0.10    0.10
   4 -10 -10    0.30    0.10
   4 -10 -10    0.20    0.20
   4 -10 -10    0.10    0.20
  -4  10  10    0.00    0.20
   3 -10 -10    1.70    0.30
   3 -10 -10    1.20    0.30
   3 -10 -10    1.30    0.20
  -3  10  10    1.30    0.20
  -3  10  10    1.00    0.30
   2 -10 -10    4.30    0.50
   2 -10 -10    4.60    0.30
   2 -10 -10    4.70    0.50
   2 -10 -10    5.50    0.50
  -2  10  10    6.30    0.50
  -2  10  10    5.00    0.60
  -2  10  10    5.00    0.30
   1 -10 -10   14.30    0.70
   1 -10 -10   14.00    0.70
   1 -10 -10   14.90    0.50
   1 -10 -10   15.70    0.80
  -1  10  10   14.70    0.80
  -1  10  10   18.40    1.00
  -1  10  10   15.50    0.60
   0 -10 -10    0.60    0.20
   0 -10 -10    0.60    0.10
   0 -10 -10    0.90    0.20
   0  10  10    0.70    0.20
   0  10  10    0.70    0.20
   0  10  10    0.40    0.30
  -1 -10 -10   49.80    1.60
  -1 -10 -10   50.49    1.50
  -1 -10 -10   48.60    1.30
   1  10  10   52.49    1.60
   1  10  10   50.49    1.90
   1  10  10   49.40    1.50
   1  10  10   50.19    1.30
  -2 -10 -10    4.20    0.30
  -2 -10 -10    4.40    0.40
  -2 -10 -10    4.10    0.40
   2  10  10    3.50    0.20
   2  10  10    3.70    0.50
   2  10  10    4.00    0.40
   2  10  10    3.90    0.30
  -3 -10 -10    6.20    0.40
  -3 -10 -10    5.80    0.40
  -3 -10 -10    5.80    0.40
  -3 -10 -10    5.90    0.40
   3  10  10    6.50    0.50
   3  10  10    6.60    0.40
   3  10  10    6.80    0.30
   3  10  10    7.30    0.70
  -4 -10 -10    2.30    0.30
  -4 -10 -10    2.40    0.30
   4  10  10    2.50    0.30
   4  10  10    2.40    0.40
   4  10  10    2.10    0.30
   4  10  10    2.60    0.20
  -5 -10 -10    2.10    0.30
   5  10  10    1.20    0.40
   5  10  10    1.50    0.20
   5  10  10    1.50    0.30
   5  10  10    1.60    0.20
  -6 -10 -10    2.20    0.30
   6  10  10    1.80    0.30
   6  10  10    2.10    0.30
   6  10  10    1.80    0.20
   6  10  10    2.20    0.40
   4 -11 -10    2.30    0.40
   4 -11 -10    2.50    0.30
   4 -11 -10    1.90    0.40
  -4  11  10    2.70    0.40
   3 -11 -10    0.20    0.20
   3 -11 -10    0.30    0.20
   3 -11 -10    0.40    0.10
  -3  11  10    0.70    0.30
  -3  11  10    0.40    0.10
   2 -11 -10    5.20    0.50
   2 -11 -10    6.40    0.50
   2 -11 -10    5.40    0.30
  -2  11  10    5.50    0.40
  -2  11  10    7.00    0.70
  -2  11  10    5.50    0.50
   1 -11 -10   13.70    0.70
   1 -11 -10   13.60    0.50
   1 -11 -10   14.60    0.70
   1 -11 -10   13.80    0.70
  -1  11  10   14.20    0.90
  -1  11  10   13.80    0.60
   0 -11 -10   35.40    1.30
   0 -11 -10   36.10    1.30
   0 -11 -10   36.90    1.00
   0 -11 -10   36.70    1.30
   0  11  10   35.60    1.50
   0  11  10   36.10    0.90
   0  11  10   37.20    1.20
   0  11  10   36.80    1.20
  -1 -11 -10   16.80    0.80
  -1 -11 -10   17.40    0.50
  -1 -11 -10   18.50    0.80
  -1 -11 -10   17.20    0.80
   1  11  10   18.90    1.10
   1  11  10   17.00    0.70
   1  11  10   17.40    0.60
   1  11  10   17.60    0.80
  -2 -11 -10    9.50    0.50
  -2 -11 -10    9.30    0.50
  -2 -11 -10    9.90    0.60
  -2 -11 -10   10.20    0.50
   2  11  10    9.00    0.40
   2  11  10    9.10    0.60
   2  11  10    9.10    0.50
   2  11  10   10.40    0.80
  -3 -11 -10    4.00    0.40
  -3 -11 -10    5.20    0.40
  -3 -11 -10    4.60    0.40
   3  11  10    5.10    0.40
   3  11  10    4.70    0.60
   3  11  10    5.30    0.40
   3  11  10    4.80    0.30
  -4 -11 -10    1.10    0.20
  -4 -11 -10    1.30    0.20
   4  11  10    1.30    0.30
   4  11  10    0.90    0.20
   4  11  10    1.70    0.40
   4  11  10    1.40    0.20
  -5 -11 -10    0.60    0.20
   5  11  10    0.80    0.20
   5  11  10    0.80    0.30
   5  11  10    1.00    0.20
   5  11  10    1.10    0.20
   3 -12 -10   12.50    0.50
   3 -12 -10   13.20    0.80
   3 -12 -10   11.80    0.70
  -3  12  10   12.30    0.80
  -3  12  10   12.90    0.60
   2 -12 -10    0.10    0.10
   2 -12 -10    0.30    0.20
   2 -12 -10    0.50    0.20
  -2  12  10    0.30    0.20
  -2  12  10    0.50    0.30
   1 -12 -10    0.30    0.10
   1 -12 -10   -0.10    0.20
   1 -12 -10    0.00    0.20
  -1  12  10    0.10    0.20
  -1  12  10    0.30    0.30
   0 -12 -10   20.60    0.90
   0 -12 -10   20.40    0.60
   0 -12 -10   20.20    0.90
   0  12  10   20.20    1.20
   0  12  10   20.20    0.80
   0  12  10   19.80    0.90
   0  12  10   21.50    0.60
  -1 -12 -10    2.20    0.30
  -1 -12 -10    2.00    0.30
  -1 -12 -10    2.20    0.20
   1  12  10    2.00    0.20
   1  12  10    2.60    0.50
   1  12  10    2.40    0.30
   1  12  10    2.30    0.30
  -2 -12 -10    5.00    0.40
  -2 -12 -10    5.40    0.40
   2  12  10    6.20    0.80
   2  12  10    4.80    0.30
   2  12  10    5.10    0.50
   2  12  10    5.20    0.40
  -3 -12 -10    1.20    0.30
  -3 -12 -10    0.90    0.20
  -3 -12 -10    0.80    0.20
   3  12  10    1.10    0.20
   3  12  10    0.50    0.30
   3  12  10    1.30    0.20
   3  12  10    0.50    0.20
  -4 -12 -10    7.60    0.40
  -4 -12 -10    8.00    0.50
   4  12  10    8.70    0.90
   4  12  10    7.50    0.50
   4  12  10    7.90    0.40
   4  12  10    8.40    0.50
  -5 -12 -10    0.50    0.20
   5  12  10    0.80    0.20
   5  12  10    0.30    0.10
   5  12  10    0.20    0.30
   5  12  10    0.50    0.20
   3 -13 -10    3.90    0.50
   3 -13 -10    4.80    0.30
   3 -13 -10    4.10    0.50
  -3  13  10    4.40    0.40
   2 -13 -10    0.10    0.10
   2 -13 -10    0.50    0.20
   2 -13 -10    0.20    0.20
  -2  13  10    0.10    0.20
  -2  13  10    0.10    0.30
   1 -13 -10    4.20    0.50
   1 -13 -10    3.60    0.30
   1 -13 -10    4.20    0.50
  -1  13  10    4.20    0.60
  -1  13  10    3.20    0.40
   0 -13 -10    0.90    0.30
   0 -13 -10    0.60    0.10
   0 -13 -10    0.50    0.20
   0  13  10    0.80    0.20
   0  13  10    0.80    0.30
   0  13  10    1.00    0.40
   0  13  10    0.80    0.10
  -1 -13 -10    4.40    0.50
  -1 -13 -10    5.50    0.50
   1  13  10    5.00    0.50
   1  13  10    4.80    0.50
   1  13  10    5.40    0.70
   1  13  10    4.90    0.30
  -2 -13 -10    0.50    0.20
  -2 -13 -10    0.70    0.20
   2  13  10    0.60    0.10
   2  13  10    0.40    0.20
   2  13  10    0.40    0.20
   2  13  10    0.60    0.30
  -3 -13 -10    0.10    0.10
  -3 -13 -10    0.30    0.20
   3  13  10    0.40    0.30
   3  13  10    0.20    0.10
   3  13  10    0.10    0.20
   3  13  10    0.10    0.20
  -4 -13 -10    1.00    0.20
  -4 -13 -10    1.10    0.20
   4  13  10    1.40    0.20
   4  13  10    1.80    0.30
   4  13  10    0.40    0.30
   4  13  10    1.40    0.30
   2 -14 -10    0.30    0.10
   2 -14 -10    0.10    0.20
   2 -14 -10    0.50    0.20
  -2  14  10   -0.10    0.20
  -2  14  10    0.00    0.30
   1 -14 -10    1.00    0.30
   1 -14 -10    0.70    0.30
   1 -14 -10    0.80    0.20
  -1  14  10    0.50    0.40
  -1  14  10    0.30    0.20
   0 -14 -10    0.40    0.10
   0 -14 -10    0.20    0.20
   0 -14 -10    0.50    0.20
   0  14  10   -0.20    0.30
   0  14  10    0.30    0.10
   0  14  10    0.30    0.20
   0  14  10    0.10    0.20
  -1 -14 -10    3.50    0.40
  -1 -14 -10    4.50    0.50
   1  14  10    4.30    0.30
   1  14  10    3.70    0.40
   1  14  10    4.00    0.70
   1  14  10    4.20    0.50
  -2 -14 -10   32.80    1.20
  -2 -14 -10   30.40    1.10
   2  14  10   30.20    1.60
   2  14  10   31.60    1.00
   2  14  10   32.30    1.30
   2  14  10   33.80    1.20
  -3 -14 -10    6.40    0.40
   3  14  10    6.00    0.80
   3  14  10    5.10    0.50
   3  14  10    7.20    0.50
   3  14  10    6.50    0.40
  -4 -14 -10    0.50    0.20
   4  14  10    0.80    0.30
   4  14  10    1.40    0.20
   4  14  10    1.10    0.20
   4  14  10    1.00    0.40
   0 -15 -10   35.80    1.30
   0 -15 -10   35.80    1.30
   0  15  10   35.10    1.00
   0  15  10   33.10    1.70
   0  15  10   34.80    1.30
  -1 -15 -10   11.20    0.70
  -1 -15 -10   10.90    0.70
   1  15  10    9.60    1.00
   1  15  10   11.00    0.50
   1  15  10   13.10    0.80
   1  15  10   10.70    0.70
  -2 -15 -10    0.20    0.20
  -2 -15 -10   -0.10    0.10
   2  15  10    0.10    0.30
   2  15  10    0.20    0.20
   2  15  10    0.20    0.20
   2  15  10    0.20    0.10
   3  15  10    0.30    0.20
   1   8 -11    2.00    0.30
   1   8 -11    1.60    0.40
   1   8 -11    2.20    0.30
  -1  -8  11    1.80    0.30
   0   8 -11    0.60    0.20
   0   8 -11    0.50    0.20
   0   8 -11    0.10    0.20
   0  -8  11    1.20    0.30
   2   7 -11    2.20    0.40
  -2  -7  11    1.90    0.30
   1   7 -11   16.80    0.80
   1   7 -11   16.70    0.60
   1   7 -11   15.40    0.90
  -1  -7  11   16.20    0.80
   0   7 -11    0.30    0.10
   0   7 -11    0.20    0.20
   0   7 -11    0.00    0.20
   0  -7  11    0.20    0.20
   0  -7  11    0.30    0.20
  -1   7 -11    0.30    0.20
  -1   7 -11    0.40    0.20
  -1   7 -11    0.20    0.20
   1  -7  11    0.40    0.10
  -2   7 -11    0.20    0.20
  -2   7 -11    0.50    0.20
  -2   7 -11    0.90    0.30
   2  -7  11    0.60    0.20
   2  -7  11    0.60    0.20
   3   6 -11    0.10    0.20
  -3  -6  11    0.30    0.20
  -3  -6  11    0.40    0.20
  -3  -6  11    0.10    0.10
   2   6 -11    1.30    0.30
  -2  -6  11    1.60    0.30
  -2  -6  11    2.60    0.30
  -2  -6  11    1.80    0.30
   1   6 -11    1.40    0.30
   1   6 -11    1.70    0.20
   1   6 -11    1.90    0.30
  -1  -6  11    1.70    0.30
   0   6 -11    1.40    0.30
   0   6 -11    1.10    0.30
   0   6 -11    1.00    0.20
   0  -6  11    0.90    0.10
   0  -6  11    0.80    0.20
  -1   6 -11    0.40    0.20
  -1   6 -11    0.20    0.20
  -1   6 -11    0.50    0.20
   1  -6  11    0.40    0.20
   1  -6  11    0.60    0.20
  -2   6 -11    1.50    0.40
  -2   6 -11    1.30    0.20
  -2   6 -11    1.90    0.30
   2  -6  11    1.70    0.20
   2  -6  11    1.80    0.30
  -3   6 -11    0.70    0.20
  -3   6 -11    0.60    0.30
  -3   6 -11    0.40    0.20
   3  -6  11    0.50    0.20
   3  -6  11    0.30    0.20
   4   5 -11    1.10    0.30
  -4  -5  11    0.70    0.20
  -4  -5  11    0.70    0.20
  -4  -5  11    0.80    0.20
  -4  -5  11    1.00    0.30
   3   5 -11    0.40    0.20
  -3  -5  11    0.30    0.20
  -3  -5  11    0.40    0.20
  -3  -5  11    0.30    0.10
  -3  -5  11    0.00    0.10
   2   5 -11    1.40    0.30
  -2  -5  11    1.50    0.20
  -2  -5  11    2.00    0.30
  -2  -5  11    1.40    0.20
   1   5 -11    0.50    0.20
   1   5 -11    0.90    0.20
   1   5 -11    0.40    0.10
  -1  -5  11    0.10    0.10
   0   5 -11    9.10    0.40
   0   5 -11    9.00    0.50
   0   5 -11    9.50    0.60
   0  -5  11    8.60    0.50
   0  -5  11    9.10    0.40
  -1   5 -11    0.20    0.10
  -1   5 -11   -0.20    0.20
  -1   5 -11    0.20    0.20
   1  -5  11    0.20    0.20
   1  -5  11    0.00    0.10
   1  -5  11    0.00    0.20
  -2   5 -11   22.30    0.70
  -2   5 -11   20.30    0.90
  -2   5 -11   21.60    1.00
   2  -5  11   21.60    0.90
   2  -5  11   20.80    0.80
  -3   5 -11    0.20    0.20
  -3   5 -11    0.30    0.30
  -3   5 -11    0.20    0.20
   3  -5  11    0.00    0.20
   3  -5  11   -0.20    0.20
  -4   5 -11    3.30    0.50
  -4   5 -11    4.00    0.40
   4  -5  11    3.40    0.40
   4  -5  11    2.70    0.30
   4  -5  11    3.30    0.30
   4   4 -11    0.50    0.20
  -4  -4  11    1.10    0.20
  -4  -4  11    1.20    0.30
  -4  -4  11    0.70    0.20
  -4  -4  11    0.70    0.10
   3   4 -11   -0.20    0.10
  -3  -4  11    0.10    0.10
  -3  -4  11    0.00    0.10
  -3  -4  11    0.10    0.20
  -3  -4  11   -0.10    0.10
   2   4 -11   14.40    0.70
  -2  -4  11   13.80    0.60
  -2  -4  11   14.00    0.60
  -2  -4  11   13.80    0.60
   1   4 -11   26.90    1.10
   1   4 -11   28.70    0.80
   1   4 -11   27.90    1.00
  -1  -4  11   27.40    0.90
  -1  -4  11   29.10    0.90
  -1  -4  11   28.50    1.00
   0   4 -11    0.70    0.20
   0   4 -11    0.40    0.20
   0   4 -11    0.80    0.10
   0  -4  11    0.70    0.20
   0  -4  11    0.80    0.10
  -1   4 -11    2.80    0.40
  -1   4 -11    3.00    0.30
  -1   4 -11    3.60    0.30
   1  -4  11    2.80    0.30
   1  -4  11    2.70    0.30
   1  -4  11    2.90    0.30
  -2   4 -11    4.40    0.30
  -2   4 -11    3.80    0.50
  -2   4 -11    4.20    0.40
   2  -4  11    5.20    0.40
   2  -4  11    4.40    0.30
  -3   4 -11    9.30    0.70
  -3   4 -11    9.40    0.60
  -3   4 -11    9.90    0.50
   3  -4  11    8.40    0.50
   3  -4  11    9.20    0.60
   3  -4  11    9.50    0.40
  -4   4 -11    1.10    0.30
  -4   4 -11    1.60    0.30
   4  -4  11    1.60    0.30
   4  -4  11    1.20    0.20
   4  -4  11    1.40    0.30
   4  -4  11    1.20    0.30
  -5  -3  11    5.90    0.30
  -5  -3  11    5.60    0.40
  -5  -3  11    4.70    0.50
  -5  -3  11    5.50    0.30
   4   3 -11    1.60    0.30
  -4  -3  11    1.40    0.30
  -4  -3  11    1.10    0.20
  -4  -3  11    1.20    0.20
  -4  -3  11    1.30    0.20
   3   3 -11    2.20    0.30
  -3  -3  11    2.20    0.20
  -3  -3  11    2.20    0.30
  -3  -3  11    2.60    0.30
  -3  -3  11    2.50    0.30
   2   3 -11   74.69    2.10
   2   3 -11   73.49    2.10
  -2  -3  11   76.79    2.00
  -2  -3  11   75.09    2.00
  -2  -3  11   71.49    2.00
  -2  -3  11   73.49    2.00
   1   3 -11   22.10    0.70
   1   3 -11   22.20    0.80
   1   3 -11   21.10    0.90
  -1  -3  11   23.00    0.80
  -1  -3  11   22.70    0.80
  -1  -3  11   22.40    0.80
   0   3 -11    1.20    0.20
   0   3 -11    1.30    0.20
   0   3 -11    1.40    0.30
   0  -3  11    1.90    0.30
   0  -3  11    1.30    0.20
  -1   3 -11    3.40    0.30
  -1   3 -11    3.60    0.40
  -1   3 -11    3.70    0.40
   1  -3  11    3.80    0.30
   1  -3  11    3.50    0.40
   1  -3  11    3.60    0.40
  -2   3 -11    6.00    0.40
  -2   3 -11    4.90    0.50
  -2   3 -11    6.00    0.30
   2  -3  11    6.10    0.40
   2  -3  11    5.60    0.50
  -3   3 -11    1.20    0.30
  -3   3 -11    1.00    0.20
  -3   3 -11    1.10    0.30
   3  -3  11    1.40    0.20
   3  -3  11    1.20    0.20
   3  -3  11    1.50    0.30
   3  -3  11    1.60    0.30
  -4   3 -11   -0.10    0.20
  -4   3 -11    0.00    0.20
   4  -3  11    0.10    0.20
   4  -3  11    0.30    0.20
   4  -3  11    0.00    0.10
   4  -3  11    0.10    0.20
  -5   3 -11    0.30    0.20
  -5   3 -11    0.10    0.20
   5  -3  11    0.00    0.10
   5  -3  11    0.00    0.10
   5  -3  11    0.10    0.20
   5  -3  11    0.10    0.20
  -5  -2  11    5.80    0.30
  -5  -2  11    4.90    0.50
  -5  -2  11    5.80    0.40
  -5  -2  11    5.50    0.30
   4   2 -11    0.30    0.20
  -4  -2  11    0.30    0.10
  -4  -2  11    0.30    0.10
  -4  -2  11    0.30    0.20
  -4  -2  11    0.40    0.10
   3   2 -11    0.90    0.20
  -3  -2  11    0.80    0.20
  -3  -2  11    0.60    0.20
  -3  -2  11    0.80    0.20
  -3  -2  11    0.90    0.20
   2   2 -11   21.70    0.80
   2   2 -11   20.90    0.90
  -2  -2  11   21.30    0.80
  -2  -2  11   21.80    0.80
  -2  -2  11   22.10    0.70
  -2  -2  11   22.00    0.80
   1   2 -11   52.29    1.30
   1   2 -11   51.89    1.50
   1   2 -11   50.19    1.60
  -1  -2  11   49.80    1.40
  -1  -2  11   48.80    1.50
  -1  -2  11   49.20    1.40
  -1  -2  11   49.40    1.20
   0   2 -11    2.40    0.20
   0   2 -11    2.60    0.30
   0   2 -11    2.60    0.40
   0  -2  11    3.10    0.30
   0  -2  11    2.40    0.20
   0  -2  11    2.40    0.20
   0  -2  11    2.10    0.30
  -1   2 -11    0.10    0.10
  -1   2 -11   -0.10    0.10
  -1   2 -11    0.10    0.20
   1  -2  11    0.10    0.10
   1  -2  11    0.20    0.10
   1  -2  11    0.10    0.10
  -2   2 -11   16.70    0.70
  -2   2 -11   17.20    0.80
  -2   2 -11   17.20    0.60
   2  -2  11   17.10    0.80
   2  -2  11   15.90    0.60
   2  -2  11   17.30    0.50
   2  -2  11   17.00    0.70
  -3   2 -11    1.50    0.30
  -3   2 -11    1.20    0.20
  -3   2 -11    1.00    0.20
   3  -2  11    0.80    0.20
   3  -2  11    1.20    0.20
   3  -2  11    0.60    0.20
   3  -2  11    0.90    0.20
  -4   2 -11    0.10    0.10
  -4   2 -11    0.40    0.20
   4  -2  11    0.30    0.20
   4  -2  11    0.00    0.10
   4  -2  11   -0.10    0.20
   4  -2  11   -0.10    0.10
  -5   2 -11   10.70    0.60
  -5   2 -11   10.10    0.70
   5  -2  11   10.20    0.70
   5  -2  11   10.50    0.60
   5  -2  11    9.90    0.50
   5  -2  11   10.20    0.60
  -5  -1  11    3.40    0.30
  -5  -1  11    4.40    0.30
  -5  -1  11    3.40    0.20
  -5  -1  11    3.60    0.40
   4   1 -11    1.60    0.30
  -4  -1  11    1.40    0.20
  -4  -1  11    2.00    0.20
  -4  -1  11    2.00    0.30
  -4  -1  11    1.70    0.20
   3   1 -11    5.90    0.40
  -3  -1  11    6.50    0.40
  -3  -1  11    6.60    0.40
  -3  -1  11    6.30    0.40
  -3  -1  11    6.90    0.30
   2   1 -11  393.46    9.10
   2   1 -11  384.66    9.20
  -2  -1  11  402.96    9.10
  -2  -1  11  394.26    9.10
  -2  -1  11  397.36    9.10
  -2  -1  11  398.56    9.10
   1   1 -11    0.20    0.10
   1   1 -11   -0.10    0.10
   1   1 -11   -0.10    0.10
  -1  -1  11    0.20    0.10
  -1  -1  11   -0.10    0.10
  -1  -1  11    0.00    0.10
  -1  -1  11   -0.10    0.10
  -1  -1  11    0.00    0.10
   0   1 -11    2.40    0.30
   0   1 -11    3.30    0.30
   0   1 -11    2.70    0.20
   0  -1  11    2.90    0.30
   0  -1  11    2.70    0.20
   0  -1  11    2.50    0.20
   0  -1  11    1.90    0.30
   0  -1  11    2.40    0.30
  -1   1 -11    0.50    0.20
  -1   1 -11    0.60    0.20
  -1   1 -11    0.40    0.10
   1  -1  11    0.40    0.20
   1  -1  11    0.30    0.10
   1  -1  11    0.30    0.10
   1  -1  11    0.70    0.10
  -2   1 -11   20.60    0.80
  -2   1 -11   20.60    0.70
  -2   1 -11   19.70    0.90
   2  -1  11   20.20    0.70
   2  -1  11   21.80    0.90
   2  -1  11   19.90    0.70
   2  -1  11   20.60    0.60
  -3   1 -11    5.40    0.50
  -3   1 -11    5.10    0.30
  -3   1 -11    4.80    0.40
   3  -1  11    5.60    0.50
   3  -1  11    4.40    0.30
   3  -1  11    5.50    0.30
   3  -1  11    5.50    0.40
  -4   1 -11    3.40    0.40
  -4   1 -11    4.00    0.40
   4  -1  11    3.90    0.40
   4  -1  11    3.40    0.40
   4  -1  11    3.60    0.30
   4  -1  11    3.70    0.40
  -5   1 -11   18.40    0.80
  -5   1 -11   17.90    0.90
   5  -1  11   19.10    0.80
   5  -1  11   17.90    0.70
   5  -1  11   19.00    0.90
   5  -1  11   17.30    0.80
   5   0 -11    0.30    0.20
  -5   0  11    0.30    0.10
  -5   0  11    0.20    0.10
  -5   0  11    0.10    0.20
  -5   0  11    0.30    0.10
   4   0 -11    0.50    0.20
   4   0 -11   -0.10    0.40
  -4   0  11    0.20    0.10
  -4   0  11    0.40    0.10
  -4   0  11    0.60    0.20
  -4   0  11    0.30    0.10
   3   0 -11    3.30    0.30
  -3   0  11    3.80    0.30
  -3   0  11    3.30    0.20
  -3   0  11    2.70    0.30
  -3   0  11    3.30    0.30
   2   0 -11   74.19    2.10
   2   0 -11   78.49    2.00
  -2   0  11   77.59    2.00
  -2   0  11   77.49    2.00
  -2   0  11   74.19    2.00
  -2   0  11   77.29    2.00
   1   0 -11    3.70    0.30
   1   0 -11    4.20    0.40
   1   0 -11    3.70    0.20
  -1   0  11    3.80    0.30
  -1   0  11    4.00    0.30
  -1   0  11    4.00    0.30
  -1   0  11    4.40    0.20
   0   0 -11   13.70    0.60
   0   0 -11   14.70    0.70
   0   0  11   14.80    0.70
   0   0  11   14.90    0.50
  -1   0 -11    8.70    0.40
  -1   0 -11    7.80    0.50
  -1   0 -11    8.60    0.50
   1   0  11    8.60    0.40
   1   0  11    8.50    0.50
   1   0  11    8.50    0.50
  -2   0 -11   13.80    0.50
  -2   0 -11   13.80    0.70
  -2   0 -11   14.90    0.70
   2   0  11   14.10    0.80
   2   0  11   13.80    0.40
   2   0  11   15.40    0.70
   2   0  11   13.70    0.60
   2   0  11   14.10    0.60
  -3   0 -11    0.60    0.20
  -3   0 -11    1.20    0.20
  -3   0 -11    1.20    0.20
   3   0  11    1.20    0.20
   3   0  11    1.10    0.30
   3   0  11    1.50    0.20
   3   0  11    1.20    0.20
  -4   0 -11    4.00    0.40
  -4   0 -11    4.60    0.50
   4   0  11    4.50    0.30
   4   0  11    4.60    0.50
   4   0  11    5.30    0.40
   4   0  11    4.70    0.40
  -5   0 -11   11.00    0.60
  -5   0 -11   10.40    0.60
   5   0  11   10.80    0.60
   5   0  11   10.60    0.70
   5   0  11   11.10    0.60
   5   0  11   11.40    0.50
  -6   0 -11    0.70    0.20
   6   0  11    0.40    0.20
   6   0  11    0.70    0.20
   6   0  11    0.70    0.20
   6   0  11    0.60    0.20
   5  -1 -11    1.60    0.20
  -5   1  11    1.20    0.20
  -5   1  11    1.20    0.20
  -5   1  11    1.10    0.20
  -5   1  11    1.20    0.30
   4  -1 -11   22.90    1.60
   4  -1 -11   22.90    0.80
  -4   1  11   23.80    0.80
  -4   1  11   23.30    0.80
  -4   1  11   22.40    0.80
  -4   1  11   24.10    0.90
   3  -1 -11    6.80    0.40
  -3   1  11    7.10    0.40
  -3   1  11    6.30    0.40
  -3   1  11    6.00    0.30
  -3   1  11    6.50    0.40
   2  -1 -11   25.50    0.90
   2  -1 -11   24.40    0.70
   2  -1 -11   24.80    0.90
  -2   1  11   26.00    0.80
  -2   1  11   25.10    0.80
  -2   1  11   25.50    0.90
   1  -1 -11    0.80    0.10
   1  -1 -11    1.00    0.20
   1  -1 -11    0.90    0.20
  -1   1  11    0.90    0.20
  -1   1  11    1.00    0.10
  -1   1  11    1.10    0.20
  -1   1  11    0.70    0.20
   0  -1 -11    6.70    0.40
   0  -1 -11    6.90    0.50
   0  -1 -11    6.70    0.30
   0   1  11    6.50    0.30
   0   1  11    6.30    0.50
   0   1  11    6.90    0.40
  -1  -1 -11   85.59    2.30
  -1  -1 -11   85.49    2.40
  -1  -1 -11   86.29    2.10
   1   1  11   85.29    2.20
   1   1  11   85.89    2.40
   1   1  11   86.79    2.30
   1   1  11   85.29    2.20
  -2  -1 -11    0.80    0.10
  -2  -1 -11    0.50    0.20
  -2  -1 -11    0.70    0.20
   2   1  11    0.80    0.20
   2   1  11    0.60    0.10
   2   1  11    1.00    0.20
   2   1  11    0.60    0.10
   2   1  11    0.70    0.20
  -3  -1 -11    0.30    0.10
  -3  -1 -11    0.30    0.20
  -3  -1 -11    0.20    0.20
   3   1  11    0.20    0.20
   3   1  11    0.40    0.10
   3   1  11    0.50    0.20
   3   1  11    0.20    0.10
  -4  -1 -11   10.30    0.60
  -4  -1 -11   11.10    0.60
   4   1  11   10.20    0.60
   4   1  11   10.40    0.50
   4   1  11   10.90    0.50
   4   1  11   10.80    0.60
  -5  -1 -11    1.50    0.30
  -5  -1 -11    1.40    0.30
   5   1  11    1.40    0.30
   5   1  11    1.50    0.30
   5   1  11    1.50    0.30
   5   1  11    1.10    0.20
  -6  -1 -11    1.80    0.30
  -6  -1 -11    1.80    0.50
   6   1  11    1.50    0.30
   6   1  11    1.30    0.30
   6   1  11    1.40    0.30
   6   1  11    1.30    0.20
   5  -2 -11    5.30    0.40
  -5   2  11    5.90    0.40
  -5   2  11    5.80    0.30
  -5   2  11    5.40    0.40
  -5   2  11    5.70    0.50
   4  -2 -11    3.10    0.80
   4  -2 -11    2.30    0.30
  -4   2  11    2.70    0.30
  -4   2  11    2.80    0.30
  -4   2  11    2.90    0.30
  -4   2  11    2.60    0.20
   3  -2 -11    0.00    0.10
  -3   2  11    0.10    0.10
  -3   2  11    0.00    0.10
  -3   2  11    0.00    0.10
   2  -2 -11    0.50    0.10
   2  -2 -11    0.40    0.20
   2  -2 -11    0.30    0.10
  -2   2  11    0.50    0.10
  -2   2  11    0.40    0.20
  -2   2  11    0.60    0.10
   1  -2 -11    5.40    0.40
   1  -2 -11    5.30    0.40
   1  -2 -11    5.50    0.20
  -1   2  11    5.10    0.20
  -1   2  11    4.80    0.30
  -1   2  11    5.00    0.30
  -1   2  11    5.00    0.40
  -1   2  11    5.50    0.30
   0  -2 -11   11.50    0.50
   0  -2 -11   11.00    0.40
   0  -2 -11   12.00    0.60
   0   2  11   11.30    0.50
   0   2  11   10.50    0.60
   0   2  11   11.70    0.50
   0   2  11   10.40    0.40
  -1  -2 -11   11.50    0.40
  -1  -2 -11   11.90    0.60
  -1  -2 -11   10.60    0.60
   1   2  11   11.20    0.50
   1   2  11   11.50    0.60
   1   2  11   11.40    0.50
   1   2  11   11.90    0.50
  -2  -2 -11    5.10    0.40
  -2  -2 -11    4.60    0.40
  -2  -2 -11    5.40    0.30
   2   2  11    5.60    0.40
   2   2  11    4.20    0.40
   2   2  11    5.30    0.30
   2   2  11    5.30    0.40
   2   2  11    6.00    0.30
  -3  -2 -11    5.20    0.40
  -3  -2 -11    4.60    0.20
  -3  -2 -11    4.50    0.40
   3   2  11    4.60    0.30
   3   2  11    5.00    0.40
   3   2  11    4.20    0.30
   3   2  11    4.40    0.30
  -4  -2 -11    6.20    0.40
  -4  -2 -11    7.00    0.50
  -4  -2 -11    6.70    0.40
   4   2  11    7.10    0.40
   4   2  11    5.80    0.50
   4   2  11    6.40    0.40
   4   2  11    6.30    0.40
  -5  -2 -11    7.10    0.50
  -5  -2 -11    7.10    0.50
  -5  -2 -11    7.50    0.50
   5   2  11    7.00    0.50
   5   2  11    6.40    0.40
   5   2  11    6.50    0.50
   5   2  11    7.70    0.40
  -6  -2 -11    1.70    0.30
  -6  -2 -11    1.50    0.30
   6   2  11    1.70    0.30
   6   2  11    1.80    0.30
   6   2  11    1.20    0.20
   6   2  11    1.80    0.30
   5  -3 -11   10.50    0.50
  -5   3  11   10.50    0.60
  -5   3  11   11.30    0.50
  -5   3  11   10.80    0.50
  -5   3  11    9.40    0.60
   4  -3 -11    9.80    0.50
   4  -3 -11   10.10    1.00
  -4   3  11   10.10    0.50
  -4   3  11    9.70    0.50
  -4   3  11    9.50    0.50
   3  -3 -11    1.60    0.20
   3  -3 -11    1.10    0.40
   3  -3 -11    1.60    0.30
  -3   3  11    1.30    0.20
  -3   3  11    1.50    0.20
  -3   3  11    1.10    0.20
   2  -3 -11    5.40    0.20
   2  -3 -11    5.50    0.40
   2  -3 -11    6.40    0.40
  -2   3  11    4.80    0.40
  -2   3  11    5.20    0.30
  -2   3  11    5.50    0.30
   1  -3 -11    2.30    0.30
   1  -3 -11    2.20    0.30
   1  -3 -11    2.50    0.20
  -1   3  11    2.60    0.20
  -1   3  11    2.20    0.20
  -1   3  11    2.60    0.30
  -1   3  11    2.50    0.30
  -1   3  11    2.40    0.30
   0  -3 -11    5.00    0.40
   0  -3 -11    5.20    0.40
   0  -3 -11    5.70    0.30
   0   3  11    5.00    0.40
   0   3  11    5.00    0.30
   0   3  11    5.20    0.30
   0   3  11    5.20    0.40
  -1  -3 -11   25.50    0.90
  -1  -3 -11   24.50    0.90
  -1  -3 -11   23.80    0.70
   1   3  11   24.30    0.80
   1   3  11   24.90    0.90
   1   3  11   24.30    0.60
   1   3  11   23.30    0.80
   1   3  11   23.50    1.00
  -2  -3 -11    4.10    0.30
  -2  -3 -11    3.90    0.20
  -2  -3 -11    4.50    0.40
   2   3  11    4.10    0.20
   2   3  11    3.80    0.30
   2   3  11    3.80    0.30
   2   3  11    3.90    0.40
  -3  -3 -11    4.20    0.40
  -3  -3 -11    4.90    0.40
  -3  -3 -11    5.70    0.30
  -3  -3 -11    4.90    0.40
   3   3  11    5.30    0.30
   3   3  11    5.50    0.40
   3   3  11    5.10    0.30
   3   3  11    5.10    0.40
  -4  -3 -11   15.00    0.70
  -4  -3 -11   14.70    0.70
  -4  -3 -11   14.60    0.60
   4   3  11   14.40    0.70
   4   3  11   12.90    0.60
   4   3  11   13.70    0.60
   4   3  11   14.40    0.50
  -5  -3 -11    2.20    0.30
  -5  -3 -11    2.40    0.30
  -5  -3 -11    2.10    0.30
   5   3  11    2.50    0.30
   5   3  11    2.40    0.30
   5   3  11    2.00    0.30
   5   3  11    2.30    0.20
  -6  -3 -11    4.40    0.30
  -6  -3 -11    5.20    0.40
   6   3  11    4.70    0.30
   6   3  11    3.80    0.40
   6   3  11    4.60    0.40
   6   3  11    4.40    0.50
   5  -4 -11    1.80    0.30
  -5   4  11    1.80    0.30
  -5   4  11    1.60    0.30
  -5   4  11    1.60    0.30
  -5   4  11    1.50    0.20
   4  -4 -11    2.70    0.60
   4  -4 -11    2.10    0.30
  -4   4  11    1.80    0.30
  -4   4  11    2.10    0.20
  -4   4  11    2.80    0.30
   3  -4 -11    4.70    0.40
   3  -4 -11    5.20    0.80
   3  -4 -11    5.60    0.40
  -3   4  11    4.60    0.30
  -3   4  11    4.60    0.30
  -3   4  11    5.00    0.40
   2  -4 -11   41.10    1.00
   2  -4 -11   40.40    1.30
   2  -4 -11   40.80    1.30
  -2   4  11   40.50    1.20
  -2   4  11   38.70    1.20
  -2   4  11   38.70    1.00
  -2   4  11   40.80    1.20
   1  -4 -11    0.50    0.20
   1  -4 -11    0.20    0.10
   1  -4 -11    0.20    0.10
  -1   4  11    0.00    0.10
  -1   4  11    0.20    0.10
  -1   4  11    0.00    0.20
  -1   4  11    0.20    0.10
  -1   4  11   -0.10    0.10
   0  -4 -11    2.90    0.30
   0  -4 -11    3.60    0.20
   0  -4 -11    2.80    0.30
   0   4  11    3.70    0.30
   0   4  11    2.80    0.40
   0   4  11    3.30    0.50
   0   4  11    2.90    0.20
   0   4  11    2.80    0.20
  -1  -4 -11   15.70    0.50
  -1  -4 -11   15.90    0.70
  -1  -4 -11   14.20    0.70
   1   4  11   15.90    1.00
   1   4  11   16.20    0.60
   1   4  11   17.20    0.70
   1   4  11   16.80    0.50
   1   4  11   17.60    0.80
   1   4  11   16.00    0.60
  -2  -4 -11    0.70    0.20
  -2  -4 -11    0.60    0.20
  -2  -4 -11    0.80    0.10
   2   4  11    1.00    0.10
   2   4  11    1.00    0.20
   2   4  11    0.90    0.20
   2   4  11    1.00    0.30
  -3  -4 -11    9.50    0.30
  -3  -4 -11   11.20    0.60
  -3  -4 -11   10.20    0.60
  -3  -4 -11   11.00    0.50
   3   4  11   10.50    0.50
   3   4  11   10.30    0.40
   3   4  11   10.60    0.50
   3   4  11   10.40    0.60
  -4  -4 -11    0.70    0.20
  -4  -4 -11    0.60    0.20
  -4  -4 -11    0.40    0.20
   4   4  11    0.40    0.10
   4   4  11    0.30    0.10
   4   4  11    0.40    0.20
   4   4  11    0.80    0.20
  -5  -4 -11    1.90    0.30
  -5  -4 -11    1.70    0.30
  -5  -4 -11    2.60    0.30
   5   4  11    1.90    0.30
   5   4  11    1.90    0.30
   5   4  11    2.10    0.30
   5   4  11    2.10    0.20
  -6  -4 -11    6.50    0.50
  -6  -4 -11    5.60    0.30
   6   4  11    5.50    0.40
   6   4  11    5.40    0.60
   6   4  11    5.90    0.40
   6   4  11    6.00    0.50
   5  -5 -11    3.90    0.40
  -5   5  11    4.20    0.30
  -5   5  11    3.60    0.40
  -5   5  11    3.50    0.40
   4  -5 -11   20.50    1.40
   4  -5 -11   19.10    0.80
  -4   5  11   19.50    0.80
  -4   5  11   20.60    0.80
  -4   5  11   20.80    0.90
   3  -5 -11   33.20    1.10
   3  -5 -11   33.20    1.60
   3  -5 -11   33.10    0.90
   3  -5 -11   32.60    1.10
  -3   5  11   32.70    1.10
  -3   5  11   32.50    1.00
  -3   5  11   32.70    1.10
   2  -5 -11    0.20    0.10
   2  -5 -11    0.20    0.10
   2  -5 -11    0.20    0.20
  -2   5  11    0.20    0.10
  -2   5  11    0.30    0.10
  -2   5  11    0.00    0.10
   1  -5 -11    2.40    0.30
   1  -5 -11    2.80    0.20
   1  -5 -11    2.40    0.30
  -1   5  11    2.80    0.20
  -1   5  11    3.40    0.40
  -1   5  11    2.60    0.20
  -1   5  11    2.80    0.30
  -1   5  11    2.40    0.40
   0  -5 -11    0.30    0.20
   0  -5 -11    0.70    0.10
   0  -5 -11    0.50    0.20
   0   5  11    0.30    0.10
   0   5  11    0.90    0.30
   0   5  11    0.50    0.10
   0   5  11    0.60    0.20
   0   5  11    0.60    0.30
  -1  -5 -11   89.79    2.40
  -1  -5 -11   86.69    2.40
  -1  -5 -11   89.79    2.10
   1   5  11   89.39    2.10
   1   5  11   88.99    2.30
   1   5  11   87.09    2.70
   1   5  11   88.79    2.30
   1   5  11   89.99    2.60
   1   5  11   87.69    2.40
  -2  -5 -11   23.80    0.90
  -2  -5 -11   23.00    0.90
  -2  -5 -11   23.60    0.70
   2   5  11   22.50    0.80
   2   5  11   23.40    1.00
   2   5  11   22.40    0.80
   2   5  11   22.60    0.70
  -3  -5 -11    7.70    0.30
  -3  -5 -11    7.20    0.50
  -3  -5 -11    7.70    0.40
  -3  -5 -11    7.50    0.50
   3   5  11    6.80    0.50
   3   5  11    7.00    0.30
   3   5  11    7.40    0.40
   3   5  11    7.10    0.40
  -4  -5 -11    0.80    0.20
  -4  -5 -11    1.50    0.30
  -4  -5 -11    1.20    0.20
   4   5  11    0.90    0.20
   4   5  11    1.00    0.20
   4   5  11    0.90    0.20
   4   5  11    1.00    0.20
  -5  -5 -11    0.30    0.20
  -5  -5 -11    0.60    0.20
   5   5  11    0.20    0.10
   5   5  11    0.50    0.10
   5   5  11    0.20    0.20
   5   5  11    0.20    0.20
  -6  -5 -11    4.10    0.40
   6   5  11    2.80    0.40
   6   5  11    3.40    0.30
   6   5  11    3.60    0.50
   6   5  11    3.30    0.40
   5  -6 -11   15.00    0.70
   5  -6 -11   17.00    1.50
  -5   6  11   14.80    0.80
  -5   6  11   15.20    0.70
   4  -6 -11    0.70    0.20
   4  -6 -11   -0.20    0.40
  -4   6  11    0.30    0.20
  -4   6  11    0.60    0.20
   3  -6 -11    4.00    0.40
   3  -6 -11    5.40    0.70
   3  -6 -11    3.80    0.40
   3  -6 -11    3.70    0.20
  -3   6  11    4.00    0.40
  -3   6  11    3.80    0.30
   2  -6 -11   75.09    1.80
   2  -6 -11   71.49    2.10
   2  -6 -11   73.29    2.10
  -2   6  11   75.89    2.10
  -2   6  11   76.89    2.00
  -2   6  11   73.59    1.80
   1  -6 -11    1.20    0.20
   1  -6 -11    1.10    0.20
   1  -6 -11    1.10    0.20
  -1   6  11    0.70    0.20
  -1   6  11    1.20    0.30
  -1   6  11    1.20    0.20
   0  -6 -11    1.20    0.20
   0  -6 -11    1.30    0.20
   0  -6 -11    1.20    0.10
   0   6  11    0.90    0.20
   0   6  11    1.30    0.20
   0   6  11    1.00    0.30
   0   6  11    1.00    0.30
   0   6  11    1.00    0.20
  -1  -6 -11   76.59    2.20
  -1  -6 -11   76.39    2.10
  -1  -6 -11   76.89    1.90
   1   6  11   75.69    2.00
   1   6  11   79.89    2.10
   1   6  11   77.99    1.80
   1   6  11   82.49    2.40
   1   6  11   76.99    2.30
   1   6  11   76.09    2.10
  -2  -6 -11   87.89    2.10
  -2  -6 -11   85.19    2.40
  -2  -6 -11   87.09    2.40
   2   6  11   88.89    2.10
   2   6  11   88.49    2.30
   2   6  11   85.79    2.60
   2   6  11   87.69    2.30
  -3  -6 -11   47.00    1.40
  -3  -6 -11   45.90    1.40
  -3  -6 -11   47.00    1.40
   3   6  11   45.90    1.40
   3   6  11   45.10    1.60
   3   6  11   46.10    1.20
   3   6  11   44.50    1.40
  -4  -6 -11    2.90    0.30
  -4  -6 -11    2.70    0.30
  -4  -6 -11    3.20    0.30
   4   6  11    2.30    0.40
   4   6  11    2.60    0.20
   4   6  11    2.30    0.30
   4   6  11    2.70    0.30
  -5  -6 -11    7.80    0.40
  -5  -6 -11    7.60    0.50
   5   6  11    7.10    0.50
   5   6  11    7.70    0.50
   5   6  11    7.70    0.60
   5   6  11    7.40    0.40
  -6  -6 -11    2.40    0.30
   6   6  11    2.40    0.30
   6   6  11    2.50    0.30
   6   6  11    2.40    0.30
   6   6  11    2.60    0.40
   5  -7 -11   16.20    0.80
  -5   7  11   17.00    0.90
  -5   7  11   17.60    0.70
   4  -7 -11    0.20    0.20
   4  -7 -11    0.20    0.10
   4  -7 -11    0.10    0.20
  -4   7  11    0.20    0.20
  -4   7  11    0.50    0.20
   3  -7 -11    0.30    0.10
   3  -7 -11    0.30    0.20
   3  -7 -11    0.10    0.30
   3  -7 -11    0.20    0.10
  -3   7  11    0.20    0.20
  -3   7  11    0.20    0.10
   2  -7 -11    3.90    0.20
   2  -7 -11    3.40    0.40
   2  -7 -11    3.20    0.40
  -2   7  11    4.50    0.50
  -2   7  11    4.00    0.30
  -2   7  11    3.60    0.40
   1  -7 -11    6.90    0.50
   1  -7 -11    7.40    0.30
   1  -7 -11    7.60    0.50
  -1   7  11    8.60    0.60
  -1   7  11    7.80    0.40
  -1   7  11    7.40    0.50
   0  -7 -11   10.70    0.60
   0  -7 -11   11.10    0.60
   0  -7 -11   11.20    0.40
   0   7  11   11.50    0.50
   0   7  11   10.90    0.50
   0   7  11   13.20    0.80
   0   7  11   11.80    0.60
  -1  -7 -11   19.00    0.80
  -1  -7 -11   18.10    0.80
  -1  -7 -11   18.70    0.60
   1   7  11   17.40    0.90
   1   7  11   18.60    0.70
   1   7  11   19.80    1.00
   1   7  11   19.80    0.60
   1   7  11   17.90    0.70
   1   7  11   19.00    0.80
  -2  -7 -11   44.30    1.40
  -2  -7 -11   42.40    1.10
  -2  -7 -11   44.40    1.40
   2   7  11   43.10    1.30
   2   7  11   43.40    1.10
   2   7  11   41.70    1.60
   2   7  11   43.10    1.30
  -3  -7 -11   11.90    0.60
  -3  -7 -11   11.40    0.50
  -3  -7 -11   11.10    0.60
   3   7  11   11.50    0.40
   3   7  11   11.00    0.70
   3   7  11   11.60    0.60
   3   7  11   11.90    0.60
  -4  -7 -11   11.00    0.50
  -4  -7 -11   10.80    0.50
  -4  -7 -11   10.70    0.60
   4   7  11   10.80    0.40
   4   7  11    9.30    0.70
   4   7  11   10.50    0.50
   4   7  11   11.00    0.60
  -5  -7 -11    8.00    0.50
  -5  -7 -11    8.00    0.40
   5   7  11    7.90    0.50
   5   7  11    8.20    0.40
   5   7  11    9.00    0.50
   5   7  11    8.60    0.70
  -6  -7 -11    6.20    0.50
   6   7  11    6.00    0.40
   6   7  11    5.50    0.60
   6   7  11    5.90    0.50
   6   7  11    5.60    0.40
   5  -8 -11    0.80    0.30
   5  -8 -11    0.70    0.20
  -5   8  11    0.80    0.30
   4  -8 -11   11.80    0.50
   4  -8 -11   11.40    0.70
   4  -8 -11   11.60    0.70
  -4   8  11   12.00    0.70
   3  -8 -11    3.50    0.40
   3  -8 -11    3.00    0.20
   3  -8 -11    3.00    0.40
  -3   8  11    3.40    0.40
   2  -8 -11   12.90    0.50
   2  -8 -11   13.60    0.70
   2  -8 -11   12.10    0.70
  -2   8  11   13.30    0.70
  -2   8  11   12.60    0.50
  -2   8  11   12.90    0.90
   1  -8 -11    3.80    0.40
   1  -8 -11    3.40    0.40
   1  -8 -11    3.60    0.20
  -1   8  11    4.00    0.40
  -1   8  11    4.30    0.50
  -1   8  11    4.00    0.30
   0  -8 -11   19.70    0.80
   0  -8 -11   20.30    0.60
   0  -8 -11   19.00    0.80
   0   8  11   20.10    0.50
   0   8  11   19.80    0.80
   0   8  11   18.60    0.80
   0   8  11   20.00    0.70
   0   8  11   20.30    1.00
  -1  -8 -11  344.77    8.20
  -1  -8 -11  345.57    7.90
  -1  -8 -11  358.66    8.30
   1   8  11  346.67    8.10
   1   8  11  350.96    8.20
   1   8  11  349.17    7.90
   1   8  11  347.27    8.60
  -2  -8 -11    7.20    0.30
  -2  -8 -11    6.80    0.50
  -2  -8 -11    6.90    0.50
   2   8  11    7.10    0.40
   2   8  11    6.60    0.30
   2   8  11    7.10    0.50
   2   8  11    7.00    0.60
  -3  -8 -11    4.80    0.40
  -3  -8 -11    4.70    0.40
  -3  -8 -11    4.70    0.30
   3   8  11    4.30    0.30
   3   8  11    4.10    0.40
   3   8  11    4.00    0.30
   3   8  11    4.50    0.60
  -4  -8 -11    1.50    0.30
  -4  -8 -11    2.00    0.30
  -4  -8 -11    1.20    0.20
   4   8  11    1.30    0.20
   4   8  11    1.50    0.20
   4   8  11    1.00    0.20
   4   8  11    1.60    0.40
  -5  -8 -11    1.60    0.20
  -5  -8 -11    1.50    0.30
   5   8  11    1.20    0.20
   5   8  11    1.40    0.30
   5   8  11    1.40    0.20
   5   8  11    1.50    0.40
  -6  -8 -11    1.60    0.30
   6   8  11    1.70    0.40
   6   8  11    1.40    0.30
   6   8  11    1.90    0.30
   6   8  11    2.10    0.30
   4  -9 -11    0.00    0.20
   4  -9 -11   -0.10    0.20
   4  -9 -11    0.00    0.10
   4  -9 -11   -0.10    0.20
  -4   9  11    0.10    0.20
   3  -9 -11    0.10    0.20
   3  -9 -11    0.10    0.20
   3  -9 -11    0.20    0.10
  -3   9  11    0.20    0.20
  -3   9  11    0.30    0.10
   2  -9 -11    0.10    0.20
   2  -9 -11    0.20    0.20
   2  -9 -11    0.00    0.10
  -2   9  11   -0.20    0.10
  -2   9  11    0.00    0.20
  -2   9  11    0.10    0.10
   1  -9 -11    1.00    0.20
   1  -9 -11    0.60    0.20
   1  -9 -11    0.50    0.10
  -1   9  11    0.70    0.30
  -1   9  11    0.90    0.20
  -1   9  11    0.40    0.20
   0  -9 -11   45.90    1.20
   0  -9 -11   46.20    1.50
   0  -9 -11   50.09    1.50
   0   9  11   46.10    1.50
   0   9  11   44.20    1.40
   0   9  11   46.90    1.10
   0   9  11   47.90    1.80
   0   9  11   48.40    1.40
  -1  -9 -11    0.40    0.20
  -1  -9 -11    0.30    0.20
  -1  -9 -11    0.70    0.10
   1   9  11    0.40    0.20
   1   9  11    0.80    0.20
   1   9  11    0.30    0.20
   1   9  11    0.60    0.10
  -2  -9 -11    6.00    0.40
  -2  -9 -11    6.50    0.50
  -2  -9 -11    5.90    0.20
   2   9  11    4.60    0.40
   2   9  11    5.60    0.30
   2   9  11    5.50    0.40
   2   9  11    5.60    0.70
  -3  -9 -11   15.30    0.70
  -3  -9 -11   15.10    0.70
  -3  -9 -11   15.20    0.70
   3   9  11   14.50    0.50
   3   9  11   15.30    0.70
   3   9  11   14.80    0.90
   3   9  11   15.70    0.70
  -4  -9 -11    0.20    0.10
  -4  -9 -11    0.40    0.20
  -4  -9 -11    0.50    0.20
   4   9  11    0.50    0.10
   4   9  11    0.20    0.10
   4   9  11    0.40    0.20
   4   9  11    0.10    0.20
  -5  -9 -11    2.20    0.30
  -5  -9 -11    2.00    0.20
   5   9  11    2.20    0.30
   5   9  11    2.10    0.30
   5   9  11    1.40    0.20
   5   9  11    1.60    0.40
  -6  -9 -11   21.60    0.90
   6   9  11   20.00    0.90
   6   9  11   21.20    1.10
   6   9  11   20.00    0.80
   6   9  11   20.30    0.70
   4 -10 -11    0.60    0.10
   4 -10 -11    1.30    0.30
   4 -10 -11    0.80    0.30
  -4  10  11    0.80    0.30
   3 -10 -11    0.30    0.20
   3 -10 -11    0.50    0.20
   3 -10 -11    0.70    0.10
   3 -10 -11    0.50    0.20
  -3  10  11    0.50    0.20
  -3  10  11    0.60    0.10
   2 -10 -11    4.80    0.30
   2 -10 -11    3.70    0.50
   2 -10 -11    4.30    0.50
   2 -10 -11    4.30    0.50
  -2  10  11    4.00    0.50
  -2  10  11    4.50    0.30
  -2  10  11    4.10    0.50
   1 -10 -11    0.30    0.10
   1 -10 -11    0.20    0.20
   1 -10 -11   -0.10    0.10
  -1  10  11    0.30    0.20
  -1  10  11   -0.10    0.20
  -1  10  11    0.20    0.10
   0 -10 -11   15.60    0.50
   0 -10 -11   13.80    0.70
   0 -10 -11   13.80    0.70
   0  10  11   14.90    0.40
   0  10  11   14.80    0.90
   0  10  11   15.40    0.70
   0  10  11   14.10    0.60
  -1 -10 -11    2.50    0.30
  -1 -10 -11    2.30    0.20
  -1 -10 -11    2.60    0.30
   1  10  11    3.00    0.50
   1  10  11    2.30    0.20
   1  10  11    2.70    0.30
   1  10  11    2.10    0.30
  -2 -10 -11   13.00    0.40
  -2 -10 -11   12.90    0.60
  -2 -10 -11   12.90    0.70
   2  10  11   13.50    0.60
   2  10  11   12.20    0.90
   2  10  11   12.70    0.50
   2  10  11   13.30    0.70
  -3 -10 -11    0.10    0.20
  -3 -10 -11    0.10    0.10
  -3 -10 -11   -0.10    0.10
   3  10  11    0.20    0.20
   3  10  11    0.00    0.20
   3  10  11    0.20    0.10
   3  10  11    0.00    0.10
  -4 -10 -11    0.50    0.20
  -4 -10 -11    0.60    0.20
   4  10  11    0.50    0.20
   4  10  11    0.60    0.10
   4  10  11    0.40    0.20
   4  10  11    0.40    0.20
  -5 -10 -11    0.00    0.10
   5  10  11    0.10    0.10
   5  10  11   -0.10    0.20
   5  10  11   -0.20    0.10
   5  10  11    0.30    0.20
   3 -11 -11    4.80    0.50
   3 -11 -11    4.60    0.30
   3 -11 -11    4.10    0.50
  -3  11  11    4.10    0.50
  -3  11  11    5.00    0.30
   2 -11 -11   14.10    0.50
   2 -11 -11   13.70    0.80
   2 -11 -11   15.30    0.80
   2 -11 -11   14.30    0.80
  -2  11  11   14.30    0.80
  -2  11  11   13.90    0.60
  -2  11  11   14.40    0.90
   1 -11 -11    0.60    0.20
   1 -11 -11    0.30    0.20
   1 -11 -11    0.50    0.20
   1 -11 -11    0.70    0.10
  -1  11  11    0.60    0.20
  -1  11  11    0.70    0.30
   0 -11 -11   27.50    0.80
   0 -11 -11   28.20    1.10
   0 -11 -11   29.00    1.10
   0 -11 -11   27.50    1.10
   0  11  11   29.30    1.10
   0  11  11   28.50    0.70
   0  11  11   27.60    1.00
   0  11  11   30.00    1.40
  -1 -11 -11    9.00    0.60
  -1 -11 -11   10.10    0.60
  -1 -11 -11    9.00    0.30
  -1 -11 -11    9.30    0.60
   1  11  11    9.40    0.50
   1  11  11    9.20    0.60
   1  11  11    9.50    0.80
   1  11  11    8.60    0.40
  -2 -11 -11   -0.10    0.10
  -2 -11 -11    0.10    0.20
  -2 -11 -11   -0.10    0.20
   2  11  11    0.00    0.10
   2  11  11   -0.10    0.20
   2  11  11    0.00    0.10
   2  11  11   -0.10    0.20
  -3 -11 -11   14.90    0.70
  -3 -11 -11   12.90    0.60
  -3 -11 -11   12.80    0.70
  -3 -11 -11   13.40    0.60
   3  11  11   15.00    0.70
   3  11  11   13.20    0.50
   3  11  11   13.10    0.70
   3  11  11   13.90    0.90
  -4 -11 -11   13.80    0.60
  -4 -11 -11   15.30    0.70
   4  11  11   14.90    0.70
   4  11  11   14.30    1.00
   4  11  11   13.20    0.50
   4  11  11   13.90    0.70
  -5 -11 -11    6.20    0.50
   5  11  11    6.40    0.50
   5  11  11    5.90    0.40
   5  11  11    6.40    0.50
   5  11  11    6.10    0.80
   3 -12 -11    3.50    0.30
   3 -12 -11    4.10    0.50
   3 -12 -11    3.40    0.50
  -3  12  11    3.50    0.30
   2 -12 -11    5.20    0.30
   2 -12 -11    5.50    0.60
   2 -12 -11    5.60    0.60
  -2  12  11    4.50    0.40
  -2  12  11    6.90    0.80
   1 -12 -11    6.80    0.50
   1 -12 -11    6.10    0.60
   1 -12 -11    6.00    0.30
  -1  12  11    6.10    0.70
  -1  12  11    6.70    0.50
   0 -12 -11    0.20    0.20
   0 -12 -11    0.40    0.10
   0 -12 -11    0.30    0.20
   0 -12 -11    0.40    0.20
   0  12  11    0.90    0.40
   0  12  11    0.20    0.20
   0  12  11    0.80    0.20
   0  12  11    0.30    0.10
  -1 -12 -11    2.30    0.30
  -1 -12 -11    3.10    0.40
  -1 -12 -11    2.70    0.40
  -1 -12 -11    3.00    0.20
   1  12  11    2.90    0.50
   1  12  11    2.50    0.30
   1  12  11    2.30    0.20
   1  12  11    3.30    0.40
  -2 -12 -11   11.10    0.60
  -2 -12 -11   10.40    0.60
   2  12  11   10.70    0.40
   2  12  11    9.80    0.60
   2  12  11   11.10    0.90
   2  12  11   10.80    0.60
  -3 -12 -11    7.00    0.50
  -3 -12 -11    6.70    0.50
   3  12  11    6.00    0.40
   3  12  11    7.00    0.50
   3  12  11    6.90    0.50
   3  12  11    5.50    0.70
  -4 -12 -11   -0.20    0.10
  -4 -12 -11   -0.10    0.10
   4  12  11    0.00    0.10
   4  12  11   -0.20    0.20
   4  12  11    0.50    0.30
   4  12  11    0.00    0.10
  -5 -12 -11    6.80    0.50
   5  12  11    7.60    0.80
   5  12  11    7.50    0.40
   5  12  11    8.40    0.60
   5  12  11    7.20    0.50
   2 -13 -11    1.10    0.30
   2 -13 -11    1.00    0.30
   2 -13 -11    1.10    0.20
  -2  13  11    0.80    0.40
  -2  13  11    1.30    0.30
   1 -13 -11    6.60    0.60
   1 -13 -11    6.30    0.40
   1 -13 -11    5.60    0.60
  -1  13  11    8.90    0.90
  -1  13  11    7.50    0.50
   0 -13 -11    8.80    0.60
   0 -13 -11    8.60    0.60
   0 -13 -11    9.10    0.40
   0  13  11    8.40    0.70
   0  13  11    8.30    0.30
   0  13  11    8.80    0.60
   0  13  11    6.50    0.80
  -1 -13 -11    0.30    0.10
  -1 -13 -11    0.10    0.20
  -1 -13 -11    0.10    0.20
   1  13  11    0.50    0.10
   1  13  11    0.90    0.40
   1  13  11    0.60    0.20
   1  13  11    0.80    0.20
  -2 -13 -11   -0.20    0.20
  -2 -13 -11    0.30    0.20
   2  13  11   -0.10    0.10
   2  13  11    0.20    0.20
   2  13  11    0.20    0.30
   2  13  11    0.00    0.20
  -3 -13 -11   52.79    1.60
  -3 -13 -11   48.20    1.50
   3  13  11   50.89    1.40
   3  13  11   50.19    1.60
   3  13  11   50.49    2.10
   3  13  11   52.59    1.70
  -4 -13 -11   10.80    0.60
  -4 -13 -11   10.80    0.50
   4  13  11   11.10    0.60
   4  13  11    9.00    1.00
   4  13  11   10.80    0.50
   4  13  11    9.60    0.70
   1 -14 -11    9.30    0.70
   1 -14 -11    9.10    0.40
   1 -14 -11    9.40    0.70
  -1  14  11    9.50    0.60
  -1  14  11    9.20    1.00
   0 -14 -11    2.30    0.20
   0 -14 -11    1.90    0.30
   0 -14 -11    2.30    0.40
   0  14  11    2.60    0.60
   0  14  11    2.60    0.20
   0  14  11    2.70    0.40
  -1 -14 -11    2.20    0.40
  -1 -14 -11    2.80    0.40
   1  14  11    3.20    0.60
   1  14  11    1.90    0.30
   1  14  11    2.90    0.40
   1  14  11    2.70    0.20
  -2 -14 -11    3.20    0.40
  -2 -14 -11    3.30    0.40
   2  14  11    3.10    0.40
   2  14  11    2.30    0.30
   2  14  11    2.90    0.60
   2  14  11    2.50    0.30
  -3 -14 -11    2.20    0.30
   3  14  11    2.90    0.40
   3  14  11    2.80    0.40
   3  14  11    2.40    0.30
   3  14  11    2.50    0.60
   0 -15 -11    0.60    0.10
   0  15  11    0.40    0.10
  -1 -15 -11   50.49    1.70
  -1 -15 -11   54.69    1.80
   1  15  11   50.19    1.40
   1  15  11   52.89    1.70
   1  15  11   52.89    1.80
   1  15  11   54.19    2.30
  -2 -15 -11    5.90    0.50
   2  15  11    6.20    0.50
   2  15  11    5.80    0.40
   2  15  11    5.60    0.80
   2  15  11    6.30    0.60
   2   6 -12    0.20    0.20
  -2  -6  12    0.60    0.20
   1   6 -12    7.20    0.60
   1   6 -12    7.30    0.50
   1   6 -12    7.50    0.40
  -1  -6  12    6.50    0.50
   0   6 -12    1.40    0.30
   0   6 -12    1.20    0.30
   0   6 -12    1.40    0.20
   0  -6  12    1.30    0.30
  -1   6 -12    1.80    0.20
  -1   6 -12    1.60    0.40
  -1   6 -12    2.60    0.40
   1  -6  12    2.10    0.20
  -2   6 -12    0.00    0.20
  -2   6 -12    0.80    0.20
  -2   6 -12    0.70    0.30
   2  -6  12    0.70    0.20
   2  -6  12    0.40    0.20
   3   5 -12   12.20    0.70
  -3  -5  12   12.90    0.70
  -3  -5  12   13.00    0.60
  -3  -5  12   12.30    0.60
   2   5 -12    0.30    0.20
  -2  -5  12    0.30    0.30
  -2  -5  12    0.30    0.20
   1   5 -12   34.30    1.30
   1   5 -12   34.70    1.20
   1   5 -12   35.30    1.00
  -1  -5  12   35.30    1.20
   0   5 -12    2.50    0.30
   0   5 -12    2.30    0.30
   0   5 -12    2.20    0.40
   0  -5  12    2.20    0.20
   0  -5  12    2.60    0.40
  -1   5 -12    1.20    0.20
  -1   5 -12    1.50    0.30
  -1   5 -12    0.80    0.30
   1  -5  12    1.10    0.40
   1  -5  12    1.20    0.20
  -2   5 -12    0.20    0.20
  -2   5 -12    0.30    0.20
  -2   5 -12    0.30    0.20
   2  -5  12    0.40    0.20
   2  -5  12    0.20    0.10
  -3   5 -12    0.50    0.20
  -3   5 -12    0.40    0.20
  -3   5 -12    0.90    0.30
   3  -5  12    0.50    0.30
   3  -5  12    0.70    0.20
  -4  -4  12    7.80    0.50
   3   4 -12    0.20    0.20
  -3  -4  12    0.30    0.10
  -3  -4  12    0.20    0.20
  -3  -4  12    0.30    0.20
   2   4 -12    0.10    0.20
  -2  -4  12    0.80    0.20
  -2  -4  12    0.40    0.20
  -2  -4  12    0.30    0.20
   1   4 -12   17.30    0.60
   1   4 -12   18.70    0.90
   1   4 -12   17.80    0.80
  -1  -4  12   17.40    0.80
   0   4 -12    6.50    0.50
   0   4 -12    6.60    0.40
   0   4 -12    6.70    0.60
   0  -4  12    6.30    0.30
   0  -4  12    7.30    0.50
  -1   4 -12    0.90    0.20
  -1   4 -12    0.90    0.30
  -1   4 -12    0.70    0.20
   1  -4  12    1.60    0.30
   1  -4  12    1.10    0.20
   1  -4  12    1.60    0.30
  -2   4 -12    0.40    0.20
  -2   4 -12    0.50    0.30
  -2   4 -12    0.50    0.20
   2  -4  12    1.00    0.30
   2  -4  12    0.50    0.20
  -3   4 -12   10.20    0.50
  -3   4 -12    8.40    0.60
  -3   4 -12   11.40    0.80
   3  -4  12    9.80    0.50
   3  -4  12   10.80    0.70
   4   3 -12    5.30    0.40
  -4  -3  12    5.20    0.30
  -4  -3  12    4.50    0.50
  -4  -3  12    4.80    0.40
  -4  -3  12    5.50    0.40
   3   3 -12    1.60    0.30
  -3  -3  12    1.60    0.20
  -3  -3  12    1.10    0.20
  -3  -3  12    1.40    0.30
  -3  -3  12    1.30    0.20
   2   3 -12   14.60    0.80
  -2  -3  12   15.60    0.60
  -2  -3  12   15.70    0.70
  -2  -3  12   15.20    0.70
   1   3 -12    6.40    0.50
   1   3 -12    5.80    0.40
   1   3 -12    6.00    0.30
  -1  -3  12    6.00    0.40
  -1  -3  12    6.00    0.40
   0   3 -12   13.10    0.50
   0   3 -12   13.70    0.60
   0   3 -12   12.30    0.70
   0  -3  12   13.10    0.50
   0  -3  12   14.10    0.70
  -1   3 -12    3.80    0.30
  -1   3 -12    4.30    0.40
  -1   3 -12    4.20    0.50
   1  -3  12    4.20    0.30
   1  -3  12    3.20    0.40
   1  -3  12    4.10    0.40
  -2   3 -12   51.99    1.40
  -2   3 -12   51.99    1.60
  -2   3 -12   52.19    1.80
   2  -3  12   52.59    1.70
   2  -3  12   52.29    1.50
  -3   3 -12   15.50    0.60
  -3   3 -12   16.10    0.90
  -3   3 -12   15.60    0.80
   3  -3  12   15.30    0.80
   3  -3  12   15.70    0.50
   3  -3  12   15.50    0.70
  -4   3 -12   -0.10    0.20
  -4   3 -12   -0.10    0.20
   4  -3  12   -0.20    0.10
   4  -3  12   -0.10    0.20
   4  -3  12    0.10    0.20
   4  -3  12    0.10    0.10
   4   2 -12    1.50    0.30
  -4  -2  12    1.90    0.30
  -4  -2  12    1.80    0.20
  -4  -2  12    1.50    0.20
  -4  -2  12    2.00    0.20
   3   2 -12   17.60    0.80
  -3  -2  12   16.40    0.70
  -3  -2  12   16.40    0.60
  -3  -2  12   16.40    0.70
  -3  -2  12   16.00    0.70
   2   2 -12   14.60    0.70
   2   2 -12   14.20    0.70
  -2  -2  12   14.20    0.60
  -2  -2  12   14.10    0.60
  -2  -2  12   13.10    0.60
   1   2 -12   16.50    0.50
   1   2 -12   16.60    0.80
   1   2 -12   16.40    0.70
  -1  -2  12   16.20    0.60
  -1  -2  12   17.60    0.70
  -1  -2  12   17.20    0.70
   0   2 -12   -0.10    0.10
   0   2 -12    0.00    0.10
   0   2 -12    0.10    0.20
   0  -2  12    0.10    0.10
   0  -2  12    0.00    0.10
  -1   2 -12    6.10    0.40
  -1   2 -12    7.00    0.50
  -1   2 -12    6.60    0.30
   1  -2  12    7.70    0.50
   1  -2  12    6.70    0.50
   1  -2  12    6.00    0.40
  -2   2 -12   12.30    0.60
  -2   2 -12   12.90    0.50
  -2   2 -12   12.20    0.70
   2  -2  12   12.40    0.70
   2  -2  12   11.40    0.50
  -3   2 -12   13.60    0.70
  -3   2 -12   12.50    0.80
  -3   2 -12   13.00    0.50
   3  -2  12   12.90    0.50
   3  -2  12   12.70    0.70
   3  -2  12   13.40    0.60
   3  -2  12   13.70    0.60
  -4   2 -12    0.70    0.30
  -4   2 -12    1.00    0.30
   4  -2  12    0.80    0.30
   4  -2  12    1.10    0.20
   4  -2  12    1.10    0.30
   4  -2  12    0.90    0.20
  -5  -1  12    4.00    0.30
  -5  -1  12    4.30    0.30
  -5  -1  12    4.40    0.30
  -5  -1  12    4.70    0.50
   4   1 -12   10.70    0.60
  -4  -1  12   11.60    0.50
  -4  -1  12   11.40    0.60
  -4  -1  12   12.10    0.50
  -4  -1  12   11.50    0.60
   3   1 -12    0.20    0.20
  -3  -1  12    0.30    0.20
  -3  -1  12    0.10    0.10
  -3  -1  12    0.30    0.10
  -3  -1  12    0.30    0.20
   2   1 -12   19.10    0.80
   2   1 -12   18.70    0.70
  -2  -1  12   20.50    0.80
  -2  -1  12   20.20    0.90
  -2  -1  12   18.70    0.80
  -2  -1  12   19.10    0.70
   1   1 -12   15.40    0.70
   1   1 -12   14.80    0.50
   1   1 -12   14.40    0.70
  -1  -1  12   15.40    0.60
  -1  -1  12   15.70    0.70
  -1  -1  12   15.00    0.60
   0   1 -12    1.70    0.20
   0   1 -12    2.20    0.30
   0   1 -12    2.40    0.40
   0  -1  12    2.10    0.30
   0  -1  12    1.70    0.20
   0  -1  12    2.10    0.20
   0  -1  12    2.40    0.30
  -1   1 -12    5.50    0.40
  -1   1 -12    6.00    0.50
  -1   1 -12    6.10    0.30
   1  -1  12    5.90    0.30
   1  -1  12    6.40    0.50
   1  -1  12    6.70    0.50
  -2   1 -12   13.60    0.70
  -2   1 -12   14.70    0.50
  -2   1 -12   14.50    0.80
   2  -1  12   13.60    0.60
   2  -1  12   13.20    0.70
  -3   1 -12    0.80    0.20
  -3   1 -12    1.00    0.20
  -3   1 -12    1.10    0.30
   3  -1  12    1.10    0.20
   3  -1  12    0.50    0.20
   3  -1  12    0.70    0.10
   3  -1  12    0.50    0.20
  -4   1 -12    0.00    0.20
  -4   1 -12    0.00    0.20
   4  -1  12    0.20    0.20
   4  -1  12    0.30    0.20
   4  -1  12    0.10    0.10
   4  -1  12    0.10    0.10
  -5   1 -12    0.30    0.20
  -5   1 -12   -0.10    0.20
   5  -1  12    0.00    0.10
   5  -1  12    0.00    0.20
   5  -1  12    0.10    0.20
   5  -1  12   -0.10    0.10
   5   0 -12    1.20    0.20
  -5   0  12    0.80    0.20
  -5   0  12    1.00    0.20
  -5   0  12    0.90    0.30
  -5   0  12    1.00    0.20
   4   0 -12    7.90    0.50
  -4   0  12    8.30    0.50
  -4   0  12    8.40    0.40
  -4   0  12    8.00    0.40
  -4   0  12    7.60    0.40
   3   0 -12  124.59    3.30
  -3   0  12  132.49    3.20
  -3   0  12  129.89    3.30
  -3   0  12  130.09    3.20
  -3   0  12  129.79    3.30
   2   0 -12    0.90    0.20
   2   0 -12    0.90    0.20
  -2   0  12    1.20    0.20
  -2   0  12    0.80    0.20
  -2   0  12    0.80    0.20
  -2   0  12    1.00    0.20
   1   0 -12    0.10    0.10
   1   0 -12    0.30    0.10
   1   0 -12    0.10    0.20
  -1   0  12    0.20    0.10
  -1   0  12    0.20    0.10
  -1   0  12    0.00    0.10
  -1   0  12    0.00    0.10
   0   0 -12    0.60    0.20
   0   0 -12    0.80    0.20
   0   0  12    0.70    0.10
   0   0  12    0.70    0.20
   0   0  12    0.60    0.20
  -1   0 -12    2.50    0.30
  -1   0 -12    2.80    0.30
  -1   0 -12    2.40    0.20
   1   0  12    2.20    0.30
   1   0  12    2.50    0.30
   1   0  12    2.50    0.30
  -2   0 -12    1.90    0.30
  -2   0 -12    2.10    0.30
  -2   0 -12    1.50    0.20
   2   0  12    1.60    0.20
   2   0  12    1.40    0.20
   2   0  12    1.80    0.30
   2   0  12    1.70    0.10
  -3   0 -12    3.60    0.40
  -3   0 -12    4.20    0.50
  -3   0 -12    3.60    0.30
   3   0  12    3.70    0.40
   3   0  12    3.80    0.30
   3   0  12    3.60    0.30
   3   0  12    3.60    0.30
  -4   0 -12    8.00    0.60
  -4   0 -12    6.60    0.50
   4   0  12    8.20    0.60
   4   0  12    7.60    0.40
   4   0  12    7.70    0.50
   4   0  12    8.20    0.50
  -5   0 -12    9.10    0.60
  -5   0 -12    9.30    0.60
   5   0  12    8.90    0.50
   5   0  12    9.10    0.70
   5   0  12    7.50    0.50
   5   0  12    9.90    0.60
   5  -1 -12    1.10    0.20
  -5   1  12    0.90    0.30
  -5   1  12    0.70    0.20
  -5   1  12    0.80    0.20
  -5   1  12    1.00    0.20
   4  -1 -12    0.20    0.10
  -4   1  12   -0.20    0.10
  -4   1  12    0.10    0.10
  -4   1  12   -0.10    0.10
  -4   1  12   -0.10    0.10
   3  -1 -12    0.90    0.20
  -3   1  12    0.70    0.20
  -3   1  12    0.90    0.20
  -3   1  12    1.20    0.20
  -3   1  12    0.80    0.20
   2  -1 -12   35.50    1.20
   2  -1 -12   38.10    1.20
   2  -1 -12   38.10    1.00
  -2   1  12   36.10    1.20
  -2   1  12   39.40    1.10
  -2   1  12   38.10    1.20
   1  -1 -12    9.30    0.60
   1  -1 -12    9.40    0.50
   1  -1 -12    9.60    0.40
  -1   1  12    9.10    0.30
  -1   1  12    8.90    0.50
  -1   1  12    9.40    0.40
   0  -1 -12    1.20    0.10
   0  -1 -12    0.80    0.20
   0  -1 -12    1.40    0.20
   0   1  12    1.40    0.30
   0   1  12    1.00    0.20
   0   1  12    1.00    0.20
  -1  -1 -12    0.90    0.20
  -1  -1 -12    1.00    0.20
  -1  -1 -12    1.20    0.20
   1   1  12    0.70    0.20
   1   1  12    1.30    0.20
   1   1  12    1.00    0.20
  -2  -1 -12   23.00    1.00
  -2  -1 -12   21.90    0.70
  -2  -1 -12   22.10    0.90
   2   1  12   23.20    0.80
   2   1  12   22.50    0.60
   2   1  12   22.20    0.80
   2   1  12   22.90    1.00
  -3  -1 -12    0.00    0.10
  -3  -1 -12    0.00    0.10
  -3  -1 -12    0.10    0.20
   3   1  12    0.20    0.20
   3   1  12    0.10    0.10
   3   1  12    0.10    0.10
   3   1  12    0.20    0.10
  -4  -1 -12   10.60    0.60
  -4  -1 -12    9.50    0.60
   4   1  12   11.10    0.70
   4   1  12   10.70    0.50
   4   1  12   11.80    0.60
   4   1  12   11.50    0.60
  -5  -1 -12    0.70    0.20
  -5  -1 -12    1.00    0.30
   5   1  12    1.30    0.30
   5   1  12    1.40    0.30
   5   1  12    0.90    0.30
   5   1  12    1.00    0.20
   5  -2 -12    2.00    0.30
  -5   2  12    1.90    0.30
  -5   2  12    1.70    0.20
  -5   2  12    2.20    0.20
  -5   2  12    2.00    0.40
   4  -2 -12    9.30    0.50
   4  -2 -12    5.70    1.40
  -4   2  12    9.50    0.50
  -4   2  12    9.20    0.50
  -4   2  12    9.60    0.50
  -4   2  12    8.00    0.50
   3  -2 -12   31.00    1.10
  -3   2  12   32.60    1.00
  -3   2  12   31.50    1.10
  -3   2  12   31.80    1.00
   2  -2 -12    0.80    0.20
   2  -2 -12    0.50    0.20
  -2   2  12    0.60    0.20
  -2   2  12    0.70    0.20
  -2   2  12    0.60    0.20
   1  -2 -12    8.30    0.50
   1  -2 -12    8.70    0.50
   1  -2 -12    8.80    0.30
  -1   2  12    8.20    0.30
  -1   2  12    8.70    0.50
  -1   2  12    9.60    0.40
   0  -2 -12    2.20    0.20
   0  -2 -12    2.20    0.30
   0  -2 -12    2.00    0.30
   0   2  12    2.00    0.20
   0   2  12    2.30    0.30
   0   2  12    2.10    0.30
  -1  -2 -12    0.80    0.20
  -1  -2 -12    1.00    0.20
  -1  -2 -12    0.30    0.20
   1   2  12    0.80    0.20
   1   2  12    0.80    0.20
   1   2  12    0.80    0.20
  -2  -2 -12    3.40    0.20
  -2  -2 -12    3.20    0.40
  -2  -2 -12    3.50    0.40
   2   2  12    3.20    0.40
   2   2  12    2.20    0.30
   2   2  12    2.80    0.20
   2   2  12    3.50    0.30
  -3  -2 -12    6.40    0.50
  -3  -2 -12    6.00    0.30
  -3  -2 -12    5.50    0.40
   3   2  12    5.70    0.40
   3   2  12    5.40    0.30
   3   2  12    5.80    0.40
   3   2  12    6.30    0.50
  -4  -2 -12    2.90    0.40
  -4  -2 -12    4.50    0.50
   4   2  12    3.30    0.30
   4   2  12    2.60    0.40
   4   2  12    3.10    0.30
   4   2  12    3.00    0.30
  -5  -2 -12   -0.10    0.20
  -5  -2 -12    0.20    0.20
   5   2  12   -0.10    0.20
   5   2  12    0.00    0.10
   5   2  12    0.00    0.10
   5   2  12    0.10    0.20
  -6  -2 -12    6.20    0.40
   6   2  12    6.10    0.50
   6   2  12    6.00    0.50
   6   2  12    6.20    0.40
   6   2  12    4.50    0.60
   5  -3 -12    0.00    0.10
  -5   3  12    0.10    0.10
  -5   3  12    0.00    0.10
  -5   3  12    0.00    0.20
  -5   3  12    0.10    0.20
   4  -3 -12    5.10    0.40
   4  -3 -12    4.60    0.80
  -4   3  12    4.80    0.40
  -4   3  12    5.30    0.30
  -4   3  12    4.70    0.40
   3  -3 -12    7.30    0.50
  -3   3  12    8.90    0.40
  -3   3  12    8.80    0.50
  -3   3  12    7.90    0.50
   2  -3 -12   20.90    0.60
   2  -3 -12   22.20    0.80
   2  -3 -12   21.60    0.90
  -2   3  12   23.20    0.90
  -2   3  12   22.50    0.80
   1  -3 -12    0.40    0.10
   1  -3 -12    0.30    0.20
   1  -3 -12    0.50    0.20
  -1   3  12    0.40    0.10
  -1   3  12    0.60    0.20
  -1   3  12    0.20    0.10
   0  -3 -12   26.30    1.00
   0  -3 -12   26.20    0.80
   0  -3 -12   25.20    0.90
   0   3  12   27.60    1.10
   0   3  12   26.60    0.80
   0   3  12   26.50    1.00
  -1  -3 -12   39.10    1.30
  -1  -3 -12   39.70    1.10
  -1  -3 -12   38.90    1.30
   1   3  12   39.50    1.20
   1   3  12   38.00    1.40
   1   3  12   38.50    1.30
   1   3  12   38.60    1.20
  -2  -3 -12   22.60    0.90
  -2  -3 -12   23.20    0.90
  -2  -3 -12   23.00    0.70
   2   3  12   23.80    0.80
   2   3  12   24.10    0.80
   2   3  12   23.80    1.00
   2   3  12   23.90    0.70
  -3  -3 -12    0.60    0.20
  -3  -3 -12    0.60    0.10
  -3  -3 -12    0.60    0.20
   3   3  12    0.40    0.10
   3   3  12    0.60    0.20
   3   3  12    0.50    0.20
  -4  -3 -12    2.10    0.30
  -4  -3 -12    2.00    0.30
   4   3  12    1.90    0.30
   4   3  12    1.90    0.20
   4   3  12    2.40    0.40
   4   3  12    2.30    0.30
  -5  -3 -12   -0.10    0.20
  -5  -3 -12   -0.10    0.10
   5   3  12   -0.10    0.10
   5   3  12    0.00    0.10
   5   3  12    0.10    0.10
   5   3  12   -0.10    0.20
  -6  -3 -12    0.20    0.20
   6   3  12    0.10    0.20
   6   3  12    0.10    0.20
   6   3  12    0.00    0.20
   6   3  12    0.30    0.20
   5  -4 -12    0.00    0.10
  -5   4  12    0.10    0.20
  -5   4  12   -0.20    0.10
  -5   4  12   -0.10    0.10
  -5   4  12    0.10    0.20
   4  -4 -12    3.20    0.80
   4  -4 -12    4.00    0.40
  -4   4  12    4.10    0.30
  -4   4  12    3.80    0.30
  -4   4  12    3.70    0.40
   3  -4 -12    6.60    0.50
   3  -4 -12    6.70    0.50
  -3   4  12    7.00    0.50
  -3   4  12    6.80    0.40
  -3   4  12    6.30    0.50
   2  -4 -12   33.00    1.10
   2  -4 -12   33.70    1.20
   2  -4 -12   33.70    0.90
  -2   4  12   35.90    1.20
  -2   4  12   35.20    1.10
   1  -4 -12    3.40    0.20
   1  -4 -12    2.70    0.30
   1  -4 -12    2.70    0.30
  -1   4  12    3.00    0.30
  -1   4  12    3.00    0.20
  -1   4  12    3.60    0.30
  -1   4  12    3.40    0.40
   0  -4 -12   -0.10    0.10
   0  -4 -12   -0.10    0.10
   0  -4 -12    0.00    0.10
   0   4  12    0.10    0.20
   0   4  12   -0.20    0.10
   0   4  12    0.10    0.10
  -1  -4 -12    4.50    0.40
  -1  -4 -12    4.50    0.30
  -1  -4 -12    4.80    0.40
   1   4  12    4.30    0.30
   1   4  12    4.00    0.40
   1   4  12    5.10    0.50
   1   4  12    4.80    0.20
   1   4  12    4.50    0.30
  -2  -4 -12   27.70    1.00
  -2  -4 -12   28.80    1.10
  -2  -4 -12   28.70    0.80
   2   4  12   26.10    0.90
   2   4  12   27.90    0.80
   2   4  12   27.90    1.00
   2   4  12   28.90    1.20
  -3  -4 -12   27.40    1.10
  -3  -4 -12   28.10    0.80
  -3  -4 -12   27.60    1.00
   3   4  12   28.20    1.20
   3   4  12   28.70    1.00
   3   4  12   29.30    0.80
   3   4  12   27.50    1.00
  -4  -4 -12    0.20    0.20
  -4  -4 -12    0.50    0.20
   4   4  12    0.70    0.20
   4   4  12    0.30    0.20
   4   4  12    0.20    0.20
   4   4  12    0.30    0.10
  -5  -4 -12    1.70    0.30
  -5  -4 -12    1.90    0.30
  -5  -4 -12    1.70    0.30
   5   4  12    1.40    0.20
   5   4  12    1.40    0.30
   5   4  12    1.70    0.20
   5   4  12    2.00    0.30
  -6  -4 -12    0.60    0.20
  -6  -4 -12    0.50    0.20
   6   4  12    0.60    0.20
   6   4  12    0.60    0.30
   6   4  12    0.90    0.20
   6   4  12    0.40    0.20
   5  -5 -12    0.30    0.20
  -5   5  12    0.30    0.20
  -5   5  12    0.50    0.20
   4  -5 -12   41.50    1.40
   4  -5 -12   40.50    2.00
  -4   5  12   42.90    1.30
  -4   5  12   43.70    1.40
   3  -5 -12    1.70    0.20
   3  -5 -12    1.40    0.30
   3  -5 -12    1.30    0.30
  -3   5  12    1.30    0.30
  -3   5  12    1.10    0.20
   2  -5 -12   11.00    0.60
   2  -5 -12   10.20    0.60
   2  -5 -12   10.90    0.40
  -2   5  12   10.70    0.50
  -2   5  12   10.90    0.60
  -2   5  12   10.70    0.40
   1  -5 -12  114.89    3.00
   1  -5 -12  115.09    3.00
   1  -5 -12  113.59    2.70
  -1   5  12  115.99    3.00
  -1   5  12  114.29    3.10
  -1   5  12  112.09    2.80
   0  -5 -12    0.30    0.10
   0  -5 -12    0.30    0.20
   0  -5 -12    0.20    0.10
   0   5  12    0.20    0.20
   0   5  12    0.20    0.20
   0   5  12    0.00    0.10
   0   5  12    0.20    0.20
  -1  -5 -12   15.80    0.50
  -1  -5 -12   15.30    0.70
  -1  -5 -12   15.20    0.70
   1   5  12   16.20    0.50
   1   5  12   15.70    0.60
   1   5  12   17.60    0.90
   1   5  12   15.80    1.00
   1   5  12   16.80    0.70
   1   5  12   16.20    0.70
  -2  -5 -12   53.19    1.40
  -2  -5 -12   51.09    1.60
  -2  -5 -12   53.69    1.70
   2   5  12   54.19    1.40
   2   5  12   56.99    1.60
   2   5  12   52.79    1.50
   2   5  12   55.19    1.80
  -3  -5 -12   69.19    2.10
  -3  -5 -12   72.39    1.70
  -3  -5 -12   71.89    2.10
   3   5  12   75.79    2.30
   3   5  12   71.59    1.80
   3   5  12   71.89    2.00
   3   5  12   73.29    2.00
  -4  -5 -12    3.80    0.40
  -4  -5 -12    4.20    0.40
  -4  -5 -12    4.50    0.40
   4   5  12    3.90    0.40
   4   5  12    3.80    0.40
   4   5  12    3.50    0.50
   4   5  12    3.50    0.30
  -5  -5 -12    1.40    0.40
  -5  -5 -12    1.50    0.30
  -5  -5 -12    1.30    0.30
   5   5  12    1.70    0.30
   5   5  12    1.30    0.30
   5   5  12    1.20    0.20
   5   5  12    2.00    0.30
  -6  -5 -12   10.00    0.60
  -6  -5 -12   10.00    0.50
   6   5  12   10.20    0.50
   6   5  12   10.20    0.60
   6   5  12    9.10    0.70
   6   5  12   10.60    0.60
   5  -6 -12    3.50    0.40
  -5   6  12    3.60    0.50
  -5   6  12    3.90    0.30
   4  -6 -12   -0.40    0.30
   4  -6 -12   -0.20    0.10
  -4   6  12    0.30    0.20
  -4   6  12    0.00    0.10
   3  -6 -12    8.60    0.50
   3  -6 -12    8.40    0.50
   3  -6 -12    8.40    0.30
  -3   6  12    7.80    0.50
  -3   6  12    9.00    0.50
   2  -6 -12   14.10    0.50
   2  -6 -12   13.80    0.70
   2  -6 -12   14.60    0.70
  -2   6  12   14.40    0.70
  -2   6  12   14.40    0.70
  -2   6  12   14.50    0.50
   1  -6 -12   16.10    0.50
   1  -6 -12   14.00    0.70
   1  -6 -12   16.20    0.70
  -1   6  12   15.50    0.60
  -1   6  12   15.80    0.80
  -1   6  12   15.10    0.70
   0  -6 -12    2.40    0.30
   0  -6 -12    2.50    0.30
   0  -6 -12    2.60    0.20
   0   6  12    2.30    0.30
   0   6  12    2.80    0.40
   0   6  12    2.80    0.30
  -1  -6 -12    7.80    0.50
  -1  -6 -12    6.60    0.30
  -1  -6 -12    7.90    0.50
   1   6  12    7.40    0.40
   1   6  12    7.60    0.40
   1   6  12    7.00    0.50
   1   6  12    7.30    0.30
   1   6  12    7.30    0.60
  -2  -6 -12   16.40    0.80
  -2  -6 -12   17.00    0.50
  -2  -6 -12   16.20    0.80
   2   6  12   17.40    0.50
   2   6  12   17.40    0.90
   2   6  12   17.00    0.70
   2   6  12   18.30    0.70
  -3  -6 -12   89.79    2.50
  -3  -6 -12   89.19    2.10
  -3  -6 -12   93.79    2.50
   3   6  12   89.39    2.70
   3   6  12   88.19    2.40
   3   6  12   91.59    2.40
   3   6  12   91.49    2.20
  -4  -6 -12    3.00    0.40
  -4  -6 -12    2.90    0.30
  -4  -6 -12    3.40    0.40
   4   6  12    2.80    0.20
   4   6  12    3.60    0.40
   4   6  12    3.50    0.40
   4   6  12    3.00    0.40
  -5  -6 -12   13.50    0.60
  -5  -6 -12   13.80    0.70
   5   6  12   14.60    0.90
   5   6  12   13.30    0.70
   5   6  12   13.60    0.50
   5   6  12   14.40    0.70
  -6  -6 -12   25.70    1.00
   6   6  12   24.30    0.80
   6   6  12   25.40    1.20
   6   6  12   25.90    1.00
   6   6  12   26.30    1.00
   4  -7 -12    4.60    0.50
   4  -7 -12    4.60    0.30
  -4   7  12    3.80    0.50
   3  -7 -12   33.40    0.90
   3  -7 -12   33.30    1.20
   3  -7 -12   33.30    1.20
  -3   7  12   32.50    1.20
   2  -7 -12    1.50    0.30
   2  -7 -12    1.10    0.10
   2  -7 -12    1.40    0.30
  -2   7  12    1.20    0.30
  -2   7  12    1.30    0.20
   1  -7 -12    6.90    0.50
   1  -7 -12    7.10    0.30
   1  -7 -12    5.70    0.50
  -1   7  12    6.90    0.50
  -1   7  12    6.90    0.60
  -1   7  12    7.00    0.40
   0  -7 -12    2.20    0.30
   0  -7 -12    2.70    0.20
   0  -7 -12    2.80    0.40
   0   7  12    1.80    0.20
   0   7  12    3.30    0.40
   0   7  12    3.10    0.50
  -1  -7 -12    0.50    0.10
  -1  -7 -12    0.30    0.20
  -1  -7 -12    0.30    0.20
   1   7  12    0.10    0.10
   1   7  12    0.00    0.10
   1   7  12    0.00    0.20
   1   7  12    0.00    0.10
  -2  -7 -12  197.18    4.90
  -2  -7 -12  194.68    4.90
  -2  -7 -12  196.18    4.50
   2   7  12  201.58    4.80
   2   7  12  196.18    4.80
   2   7  12  199.98    4.60
   2   7  12  195.58    5.20
  -3  -7 -12   10.50    0.60
  -3  -7 -12    9.60    0.60
   3   7  12   10.20    0.60
   3   7  12   10.30    0.40
   3   7  12   10.80    0.50
   3   7  12   10.60    0.70
  -4  -7 -12    7.00    0.50
  -4  -7 -12    7.40    0.50
  -4  -7 -12    6.70    0.50
   4   7  12    7.30    0.50
   4   7  12    7.60    0.50
   4   7  12    7.10    0.40
   4   7  12    7.40    0.60
  -5  -7 -12   10.20    0.60
  -5  -7 -12   10.40    0.50
   5   7  12   10.00    0.60
   5   7  12    9.50    0.60
   5   7  12    9.60    0.70
   5   7  12   10.20    0.50
  -6  -7 -12    5.70    0.50
   6   7  12    5.80    0.40
   6   7  12    5.00    0.40
   6   7  12    3.60    0.40
   6   7  12    4.90    0.60
   4  -8 -12    0.00    0.20
   4  -8 -12    0.00    0.10
   4  -8 -12    0.00    0.20
  -4   8  12    0.10    0.20
   3  -8 -12    0.50    0.20
   3  -8 -12    0.50    0.10
   3  -8 -12    0.70    0.20
  -3   8  12    0.90    0.30
   2  -8 -12    0.10    0.10
   2  -8 -12    0.30    0.20
   2  -8 -12    0.30    0.20
  -2   8  12    0.20    0.20
  -2   8  12   -0.10    0.10
   1  -8 -12    0.60    0.20
   1  -8 -12    0.60    0.20
   1  -8 -12    0.40    0.10
  -1   8  12    0.50    0.20
  -1   8  12    0.20    0.20
  -1   8  12    0.30    0.20
   0  -8 -12    7.00    0.50
   0  -8 -12    6.00    0.30
   0  -8 -12    6.10    0.50
   0   8  12    6.30    0.50
   0   8  12    6.70    0.40
   0   8  12    7.60    0.60
  -1  -8 -12   -0.10    0.20
  -1  -8 -12    0.20    0.10
  -1  -8 -12    0.20    0.20
   1   8  12    0.20    0.20
   1   8  12    0.30    0.10
   1   8  12    0.20    0.10
   1   8  12    0.30    0.10
  -2  -8 -12   20.50    0.90
  -2  -8 -12   18.70    0.80
  -2  -8 -12   20.20    0.60
   2   8  12   20.00    0.60
   2   8  12   19.80    0.80
   2   8  12   19.50    0.80
   2   8  12   20.60    1.10
  -3  -8 -12    1.90    0.30
  -3  -8 -12    2.80    0.40
   3   8  12    2.40    0.30
   3   8  12    2.10    0.20
   3   8  12    2.30    0.50
   3   8  12    2.90    0.40
  -4  -8 -12    2.60    0.30
  -4  -8 -12    2.70    0.30
  -4  -8 -12    2.60    0.30
   4   8  12    2.40    0.30
   4   8  12    1.60    0.40
   4   8  12    1.90    0.30
   4   8  12    2.10    0.20
  -5  -8 -12    2.40    0.30
  -5  -8 -12    2.40    0.30
   5   8  12    2.50    0.40
   5   8  12    2.10    0.30
   5   8  12    2.00    0.20
   5   8  12    2.50    0.30
  -6  -8 -12    4.90    0.40
   6   8  12    4.00    0.30
   4  -9 -12    2.40    0.30
   4  -9 -12    3.00    0.40
   4  -9 -12    2.80    0.40
   4  -9 -12    1.80    0.30
  -4   9  12    2.80    0.40
   3  -9 -12    0.30    0.10
   3  -9 -12    0.70    0.20
   3  -9 -12    0.80    0.20
  -3   9  12    0.50    0.20
   2  -9 -12    0.20    0.10
   2  -9 -12   -0.20    0.10
   2  -9 -12    0.10    0.20
  -2   9  12    0.10    0.10
  -2   9  12    0.00    0.10
   1  -9 -12   15.30    0.50
   1  -9 -12   14.80    0.80
   1  -9 -12   15.40    0.80
  -1   9  12   16.90    0.90
  -1   9  12   14.70    0.60
  -1   9  12   16.20    0.80
   0  -9 -12   56.99    1.40
   0  -9 -12   54.19    1.70
   0  -9 -12   54.79    1.70
   0   9  12   54.09    2.00
   0   9  12   53.79    1.60
  -1  -9 -12   35.90    1.30
  -1  -9 -12   36.90    1.00
  -1  -9 -12   37.00    1.30
   1   9  12   36.20    1.20
   1   9  12   37.50    1.60
   1   9  12   39.10    1.30
   1   9  12   37.60    1.00
  -2  -9 -12   23.80    1.00
  -2  -9 -12   23.80    0.90
  -2  -9 -12   23.10    0.70
   2   9  12   23.60    0.90
   2   9  12   22.50    0.90
   2   9  12   22.80    1.20
   2   9  12   23.10    0.70
  -3  -9 -12    0.60    0.20
  -3  -9 -12    0.70    0.20
   3   9  12    0.60    0.20
   3   9  12    0.50    0.30
   3   9  12    0.60    0.20
   3   9  12    0.60    0.10
  -4  -9 -12   17.00    0.70
  -4  -9 -12   16.50    0.80
  -4  -9 -12   16.80    0.70
   4   9  12   18.80    0.80
   4   9  12   17.60    0.60
   4   9  12   19.40    0.80
   4   9  12   18.00    1.00
  -5  -9 -12    6.00    0.40
  -5  -9 -12    6.00    0.40
   5   9  12    6.10    0.50
   5   9  12    5.30    0.70
   5   9  12    5.60    0.40
   5   9  12    5.60    0.50
   3 -10 -12    0.10    0.20
   3 -10 -12    0.20    0.20
   3 -10 -12    0.00    0.10
   3 -10 -12    0.00    0.20
  -3  10  12    0.00    0.20
   2 -10 -12    5.20    0.50
   2 -10 -12    5.80    0.50
   2 -10 -12    5.00    0.30
  -2  10  12    4.70    0.30
  -2  10  12    5.50    0.60
   1 -10 -12    0.00    0.10
   1 -10 -12    0.20    0.20
   1 -10 -12    0.20    0.20
  -1  10  12    0.20    0.10
  -1  10  12    0.30    0.20
  -1  10  12    0.00    0.20
   0 -10 -12    0.50    0.10
   0 -10 -12    0.40    0.20
   0 -10 -12    0.40    0.20
   0  10  12    0.20    0.20
   0  10  12    0.30    0.30
  -1 -10 -12    4.00    0.40
  -1 -10 -12    3.30    0.20
  -1 -10 -12    3.50    0.40
   1  10  12    3.10    0.40
   1  10  12    3.70    0.60
   1  10  12    2.50    0.30
   1  10  12    3.00    0.20
  -2 -10 -12    0.50    0.10
  -2 -10 -12    0.40    0.20
  -2 -10 -12    0.30    0.20
   2  10  12    0.70    0.20
   2  10  12    0.30    0.20
   2  10  12    0.40    0.10
   2  10  12    0.50    0.30
  -3 -10 -12    8.00    0.50
  -3 -10 -12    7.50    0.50
   3  10  12    8.10    0.50
   3  10  12    7.10    0.80
   3  10  12    7.60    0.50
   3  10  12    7.40    0.40
  -4 -10 -12    0.90    0.30
  -4 -10 -12    0.60    0.20
  -4 -10 -12    0.80    0.20
   4  10  12    0.70    0.20
   4  10  12    0.90    0.20
   4  10  12    0.50    0.30
   4  10  12    0.80    0.20
  -5 -10 -12   15.10    0.60
  -5 -10 -12   15.80    0.70
   5  10  12   16.20    0.80
   5  10  12   15.10    0.70
   5  10  12   14.80    1.00
   5  10  12   14.60    0.60
   3 -11 -12    2.70    0.40
   3 -11 -12    2.60    0.30
   3 -11 -12    3.40    0.50
   3 -11 -12    3.00    0.40
  -3  11  12    2.80    0.30
  -3  11  12    2.70    0.50
   2 -11 -12    3.30    0.40
   2 -11 -12    3.00    0.40
   2 -11 -12    2.80    0.40
   2 -11 -12    3.40    0.30
  -2  11  12    3.30    0.30
  -2  11  12    3.10    0.50
   1 -11 -12    4.40    0.50
   1 -11 -12    4.60    0.30
   1 -11 -12    4.90    0.50
   1 -11 -12    4.70    0.50
  -1  11  12    4.80    0.60
  -1  11  12    5.00    0.40
   0 -11 -12    1.90    0.30
   0 -11 -12    2.50    0.40
   0 -11 -12    1.70    0.20
   0  11  12    1.90    0.30
   0  11  12    2.70    0.50
  -1 -11 -12    3.10    0.40
  -1 -11 -12    3.10    0.20
  -1 -11 -12    2.70    0.40
   1  11  12    2.60    0.30
   1  11  12    2.80    0.50
   1  11  12    3.40    0.40
   1  11  12    2.70    0.20
  -2 -11 -12   21.30    0.90
  -2 -11 -12   21.00    0.90
   2  11  12   20.70    0.70
   2  11  12   20.30    0.80
   2  11  12   20.80    0.90
   2  11  12   21.30    1.20
  -3 -11 -12    2.70    0.40
  -3 -11 -12    2.30    0.30
  -3 -11 -12    2.40    0.40
   3  11  12    2.40    0.20
   3  11  12    1.90    0.50
   3  11  12    2.60    0.40
   3  11  12    2.30    0.30
  -4 -11 -12    1.80    0.30
  -4 -11 -12    1.40    0.20
   4  11  12    1.60    0.20
   4  11  12    1.60    0.30
   4  11  12    1.00    0.40
   4  11  12    1.40    0.30
  -5 -11 -12    1.40    0.30
   5  11  12    1.10    0.40
   5  11  12    1.80    0.30
   5  11  12    1.40    0.20
   5  11  12    1.80    0.30
   2 -12 -12    0.40    0.10
   2 -12 -12    0.40    0.20
   2 -12 -12    0.30    0.20
  -2  12  12    0.20    0.20
   1 -12 -12    0.30    0.20
   1 -12 -12    0.00    0.20
   1 -12 -12    0.20    0.10
   1 -12 -12    0.00    0.20
  -1  12  12   -0.10    0.20
  -1  12  12    0.20    0.20
   0 -12 -12    1.10    0.20
   0 -12 -12    0.70    0.20
   0 -12 -12    0.90    0.30
   0  12  12    0.90    0.40
   0  12  12    0.80    0.20
  -1 -12 -12    0.50    0.20
  -1 -12 -12    0.50    0.20
  -1 -12 -12    0.50    0.10
  -1 -12 -12    0.60    0.30
   1  12  12    0.10    0.30
   1  12  12    0.90    0.30
   1  12  12    0.60    0.20
   1  12  12    0.40    0.10
  -2 -12 -12    4.10    0.40
  -2 -12 -12    3.70    0.40
  -2 -12 -12    3.90    0.50
   2  12  12    5.00    0.50
   2  12  12    3.90    0.40
   2  12  12    4.00    0.60
   2  12  12    4.10    0.30
  -3 -12 -12   14.10    0.70
  -3 -12 -12   13.30    0.70
   3  12  12   14.20    0.80
   3  12  12   14.10    0.70
   3  12  12   13.50    1.00
   3  12  12   13.80    0.50
  -4 -12 -12   13.90    0.60
   4  12  12   15.00    1.10
   4  12  12   14.60    0.80
   4  12  12   15.60    0.70
   4  12  12   14.40    0.60
   2 -13 -12    1.00    0.30
   2 -13 -12    2.00    0.40
   2 -13 -12    1.30    0.20
  -2  13  12    1.30    0.30
   1 -13 -12    3.00    0.40
   1 -13 -12    3.50    0.50
   1 -13 -12    3.30    0.30
  -1  13  12    2.90    0.40
  -1  13  12    4.10    0.60
   0 -13 -12    9.30    0.70
   0 -13 -12    9.30    0.40
   0 -13 -12   10.10    0.60
   0  13  12    9.80    0.90
   0  13  12    8.80    0.60
  -1 -13 -12   33.90    1.30
  -1 -13 -12   33.40    0.90
  -1 -13 -12   32.50    1.30
   1  13  12   33.40    1.30
   1  13  12   32.00    1.20
   1  13  12   33.80    0.90
   1  13  12   32.20    1.60
  -2 -13 -12    1.30    0.30
  -2 -13 -12    1.60    0.30
   2  13  12    1.60    0.30
   2  13  12    1.60    0.30
   2  13  12    1.50    0.40
   2  13  12    1.70    0.20
  -3 -13 -12    5.80    0.50
  -3 -13 -12    5.00    0.40
   3  13  12    5.00    0.50
   3  13  12    4.80    0.70
   3  13  12    3.60    0.50
   3  13  12    3.60    0.30
  -4 -13 -12    0.30    0.20
   4  13  12    0.50    0.20
   4  13  12    0.00    0.20
   0 -14 -12   -0.10    0.20
   0 -14 -12    0.00    0.10
   0 -14 -12    0.50    0.20
   0  14  12   -0.10    0.30
   0  14  12    0.10    0.20
  -1 -14 -12    0.30    0.30
  -1 -14 -12    0.30    0.20
   1  14  12    0.00    0.10
   1  14  12   -0.20    0.30
   1  14  12    0.10    0.20
   1  14  12    0.20    0.20
  -2 -14 -12   62.09    1.90
  -2 -14 -12   57.79    1.80
   2  14  12   60.09    2.40
   2  14  12   57.19    1.80
   2  14  12   58.79    1.90
   2  14  12   59.29    1.60
   3  14  12   -0.20    0.10
   1   5 -13   28.50    1.10
   1   5 -13   27.00    1.20
   1   5 -13   27.90    0.90
  -1  -5  13   28.70    1.10
   0   5 -13    1.60    0.20
   0   5 -13    1.60    0.30
   0   5 -13    1.20    0.40
   0  -5  13    1.70    0.30
  -1   5 -13    0.30    0.20
  -1   5 -13    0.30    0.20
  -1   5 -13    0.30    0.20
   1  -5  13    0.30    0.10
   2   4 -13    0.10    0.20
  -2  -4  13    0.10    0.20
   1   4 -13   12.10    0.50
   1   4 -13   11.80    0.60
   1   4 -13   11.30    0.70
  -1  -4  13   11.70    0.70
   0   4 -13   26.10    1.00
   0   4 -13   27.20    1.20
   0   4 -13   26.90    0.90
   0  -4  13   26.50    0.80
   0  -4  13   25.50    1.00
  -1   4 -13    2.00    0.40
  -1   4 -13    1.80    0.20
  -1   4 -13    1.90    0.30
   1  -4  13    1.90    0.20
  -2   4 -13    0.40    0.20
  -2   4 -13    0.10    0.20
  -2   4 -13    0.20    0.20
   2  -4  13    0.20    0.20
   2  -4  13    0.10    0.10
   3   3 -13    0.10    0.20
  -3  -3  13    0.20    0.20
  -3  -3  13    0.30    0.20
  -3  -3  13    0.30    0.10
   2   3 -13    3.60    0.50
  -2  -3  13    4.30    0.40
  -2  -3  13    3.70    0.40
   1   3 -13  150.88    3.80
   1   3 -13  156.08    3.60
   1   3 -13  148.89    4.00
  -1  -3  13  149.59    3.90
   0   3 -13    0.10    0.20
   0   3 -13    0.10    0.10
   0   3 -13   -0.10    0.20
   0  -3  13    0.10    0.20
   0  -3  13   -0.20    0.10
  -1   3 -13    2.40    0.40
  -1   3 -13    3.30    0.40
  -1   3 -13    2.20    0.30
   1  -3  13    2.70    0.40
   1  -3  13    3.30    0.50
   1  -3  13    2.70    0.30
  -2   3 -13   -0.30    0.20
  -2   3 -13    0.10    0.10
  -2   3 -13    0.10    0.20
   2  -3  13    0.30    0.20
   2  -3  13    0.00    0.10
  -3   3 -13    2.70    0.30
  -3   3 -13    3.90    0.50
  -3   3 -13    3.00    0.40
   3  -3  13    2.80    0.40
   3  -3  13    2.80    0.30
   3   2 -13    0.20    0.20
  -3  -2  13    0.10    0.10
  -3  -2  13    0.30    0.10
  -3  -2  13    0.10    0.20
   2   2 -13    5.40    0.50
  -2  -2  13    6.40    0.40
  -2  -2  13    6.10    0.40
  -2  -2  13    5.30    0.40
   1   2 -13  103.99    2.70
   1   2 -13  100.69    2.50
   1   2 -13   97.69    2.80
  -1  -2  13  102.39    2.70
  -1  -2  13  102.09    2.60
   0   2 -13    2.20    0.20
   0   2 -13    1.40    0.30
   0   2 -13    2.10    0.30
   0  -2  13    2.20    0.20
   0  -2  13    1.90    0.30
  -1   2 -13    3.60    0.40
  -1   2 -13    2.90    0.40
  -1   2 -13    3.60    0.30
   1  -2  13    4.20    0.40
   1  -2  13    3.70    0.30
   1  -2  13    3.90    0.40
  -2   2 -13    4.60    0.50
  -2   2 -13    5.90    0.40
  -2   2 -13    6.00    0.60
   2  -2  13    4.20    0.50
   2  -2  13    5.60    0.40
  -3   2 -13    6.70    0.40
  -3   2 -13    6.80    0.60
  -3   2 -13    6.90    0.50
   3  -2  13    7.30    0.50
   3  -2  13    6.90    0.60
  -4   2 -13    0.10    0.20
  -4   2 -13    0.50    0.20
   4  -2  13    0.00    0.20
   4  -2  13    0.00    0.10
   4  -2  13    0.20    0.20
   4  -2  13    0.10    0.20
   4   1 -13    0.30    0.20
  -4  -1  13    0.10    0.10
  -4  -1  13    0.00    0.10
  -4  -1  13    0.10    0.10
  -4  -1  13    0.10    0.20
   3   1 -13    7.30    0.50
  -3  -1  13    7.60    0.50
  -3  -1  13    8.50    0.40
  -3  -1  13    7.90    0.50
   2   1 -13    5.20    0.40
   2   1 -13    5.20    0.50
  -2  -1  13    4.80    0.30
  -2  -1  13    4.70    0.40
  -2  -1  13    4.80    0.40
   1   1 -13    3.10    0.20
   1   1 -13    3.60    0.40
   1   1 -13    2.80    0.30
  -1  -1  13    3.50    0.30
  -1  -1  13    3.50    0.40
   0   1 -13    0.70    0.30
   0   1 -13    0.60    0.10
   0   1 -13    0.60    0.20
   0  -1  13    0.80    0.20
   0  -1  13    0.70    0.10
  -1   1 -13    2.50    0.30
  -1   1 -13    3.70    0.30
  -1   1 -13    2.80    0.40
   1  -1  13    3.30    0.30
   1  -1  13    3.00    0.40
   1  -1  13    3.30    0.40
  -2   1 -13   40.60    1.10
  -2   1 -13   38.70    1.30
  -2   1 -13   38.10    1.40
   2  -1  13   38.70    1.20
   2  -1  13   40.10    1.40
  -3   1 -13    0.30    0.20
  -3   1 -13    0.90    0.30
  -3   1 -13    0.70    0.20
   3  -1  13    0.30    0.20
   3  -1  13    0.80    0.30
   3  -1  13    0.20    0.10
  -4   1 -13    0.10    0.20
  -4   1 -13    0.40    0.20
   4  -1  13    0.20    0.20
   4  -1  13   -0.10    0.20
   4  -1  13    0.20    0.10
   4  -1  13    0.30    0.20
   4   0 -13    8.30    0.50
  -4   0  13    8.10    0.60
  -4   0  13    8.00    0.50
  -4   0  13    8.00    0.40
  -4   0  13    7.70    0.50
   3   0 -13    2.70    0.40
  -3   0  13    2.90    0.30
  -3   0  13    2.20    0.30
  -3   0  13    2.40    0.30
   2   0 -13    1.00    0.20
   2   0 -13    1.70    0.30
   2   0 -13    1.10    0.20
  -2   0  13    1.40    0.20
  -2   0  13    1.40    0.30
  -2   0  13    1.10    0.20
   1   0 -13    1.60    0.20
   1   0 -13    1.30    0.30
   1   0 -13    1.70    0.30
  -1   0  13    1.40    0.20
  -1   0  13    1.90    0.30
   0   0 -13    1.90    0.30
   0   0 -13    2.10    0.20
   0   0 -13    2.30    0.30
   0   0  13    1.70    0.20
  -1   0 -13    3.60    0.40
  -1   0 -13    3.40    0.30
  -1   0 -13    3.80    0.40
   1   0  13    3.70    0.30
   1   0  13    4.50    0.40
   1   0  13    3.90    0.40
  -2   0 -13    0.60    0.20
  -2   0 -13    0.80    0.30
  -2   0 -13    0.10    0.10
   2   0  13    0.30    0.10
   2   0  13    0.40    0.20
  -3   0 -13    1.90    0.30
  -3   0 -13    2.30    0.20
  -3   0 -13    2.20    0.40
   3   0  13    2.00    0.40
   3   0  13    2.60    0.30
   3   0  13    2.00    0.20
   3   0  13    2.20    0.30
  -4   0 -13    0.70    0.30
  -4   0 -13    0.90    0.20
   4   0  13    0.80    0.20
   4   0  13    0.80    0.20
   4   0  13    0.70    0.30
   4   0  13    0.80    0.20
   5   0  13    0.80    0.20
   4  -1 -13    4.50    0.40
  -4   1  13    4.40    0.30
  -4   1  13    4.30    0.40
  -4   1  13    4.40    0.40
  -4   1  13    4.80    0.50
   3  -1 -13   12.40    0.70
  -3   1  13   13.20    0.70
  -3   1  13   12.80    0.60
  -3   1  13   12.80    0.60
   2  -1 -13    2.50    0.30
   2  -1 -13    2.20    0.20
   2  -1 -13    2.20    0.30
  -2   1  13    2.00    0.30
  -2   1  13    2.20    0.30
  -2   1  13    2.40    0.30
   1  -1 -13    0.60    0.10
   1  -1 -13    0.50    0.20
   1  -1 -13    0.20    0.20
  -1   1  13    0.50    0.10
  -1   1  13    0.50    0.20
   0  -1 -13    4.20    0.40
   0  -1 -13    4.90    0.30
   0  -1 -13    3.90    0.40
   0   1  13    4.10    0.30
   0   1  13    4.10    0.40
   0   1  13    5.60    0.50
  -1  -1 -13    0.60    0.20
  -1  -1 -13    1.10    0.20
  -1  -1 -13    0.90    0.20
   1   1  13    0.80    0.20
   1   1  13    0.80    0.20
   1   1  13    1.00    0.30
  -2  -1 -13   10.20    0.40
  -2  -1 -13   10.30    0.60
  -2  -1 -13   10.30    0.60
   2   1  13    9.60    0.50
   2   1  13   10.00    0.60
  -3  -1 -13    1.00    0.30
  -3  -1 -13    1.00    0.20
  -3  -1 -13    1.30    0.30
   3   1  13    1.00    0.20
   3   1  13    0.50    0.20
   3   1  13    1.00    0.20
   3   1  13    1.10    0.20
  -4  -1 -13    0.20    0.20
  -4  -1 -13    0.40    0.20
   4   1  13    0.00    0.10
   4   1  13    0.00    0.10
   4   1  13    0.00    0.10
   4   1  13    0.20    0.20
  -5  -1 -13    4.50    0.50
  -5  -1 -13    4.30    0.50
   5   1  13    3.80    0.40
   5   1  13    3.90    0.50
   5   1  13    2.80    0.30
   5   1  13    3.80    0.40
   4  -2 -13    3.40    0.40
  -4   2  13    3.40    0.40
  -4   2  13    3.40    0.30
  -4   2  13    4.10    0.40
  -4   2  13    3.40    0.30
   3  -2 -13    1.70    0.30
  -3   2  13    1.70    0.30
  -3   2  13    1.80    0.20
   2  -2 -13    7.20    0.50
   2  -2 -13    7.40    0.50
   2  -2 -13    6.60    0.30
  -2   2  13    7.00    0.40
  -2   2  13    7.40    0.50
   1  -2 -13   26.20    0.80
   1  -2 -13   24.90    0.90
   1  -2 -13   25.30    1.00
  -1   2  13   26.30    1.00
  -1   2  13   25.20    0.70
   0  -2 -13    0.20    0.10
   0  -2 -13    0.30    0.20
   0  -2 -13    0.20    0.20
   0   2  13    0.40    0.20
   0   2  13    0.70    0.20
   0   2  13    0.30    0.10
  -1  -2 -13    8.70    0.60
  -1  -2 -13    7.90    0.50
  -1  -2 -13    7.40    0.40
   1   2  13    8.10    0.40
   1   2  13    8.40    0.50
   1   2  13    8.40    0.60
  -2  -2 -13    6.30    0.50
  -2  -2 -13    7.10    0.30
  -2  -2 -13    7.00    0.50
   2   2  13    6.90    0.50
   2   2  13    7.00    0.40
   2   2  13    7.40    0.30
   2   2  13    7.00    0.40
  -3  -2 -13    0.10    0.20
  -3  -2 -13    0.00    0.10
  -3  -2 -13    0.10    0.20
   3   2  13    0.10    0.20
   3   2  13    0.10    0.10
   3   2  13    0.10    0.10
   3   2  13    0.10    0.10
  -4  -2 -13    1.10    0.30
  -4  -2 -13    1.20    0.30
   4   2  13    0.80    0.20
   4   2  13    0.70    0.30
   4   2  13    1.20    0.30
   4   2  13    1.00    0.20
  -5  -2 -13    0.00    0.20
  -5  -2 -13    0.00    0.20
   5   2  13    0.00    0.10
   5   2  13    0.10    0.10
   5   2  13    0.10    0.20
   5   2  13    0.00    0.20
   4  -3 -13    0.90    0.20
  -4   3  13    0.70    0.20
  -4   3  13    0.40    0.20
  -4   3  13    0.80    0.20
   3  -3 -13   22.00    0.90
  -3   3  13   23.60    0.90
  -3   3  13   24.70    0.80
   2  -3 -13   29.40    1.10
   2  -3 -13   30.10    0.80
   2  -3 -13   29.80    1.10
  -2   3  13   29.60    1.10
  -2   3  13   30.50    1.00
   1  -3 -13    4.70    0.40
   1  -3 -13    4.80    0.30
   1  -3 -13    3.30    0.40
  -1   3  13    4.60    0.30
  -1   3  13    5.30    0.40
   0  -3 -13    8.70    0.40
   0  -3 -13    9.10    0.50
   0  -3 -13    8.30    0.50
   0   3  13    9.30    0.40
   0   3  13    8.10    0.50
   0   3  13    8.80    0.60
  -1  -3 -13    0.80    0.10
  -1  -3 -13    1.00    0.20
  -1  -3 -13    0.90    0.20
   1   3  13    0.60    0.20
   1   3  13    0.50    0.20
   1   3  13    1.00    0.30
  -2  -3 -13   18.80    0.90
  -2  -3 -13   18.60    0.80
  -2  -3 -13   19.90    0.60
   2   3  13   18.80    0.70
   2   3  13   19.10    0.60
   2   3  13   18.90    0.70
   2   3  13   17.80    0.90
  -3  -3 -13    2.20    0.30
  -3  -3 -13    1.70    0.30
  -3  -3 -13    2.30    0.20
   3   3  13    2.30    0.30
   3   3  13    1.90    0.30
   3   3  13    2.10    0.20
   3   3  13    1.80    0.40
  -4  -3 -13    4.10    0.50
  -4  -3 -13    4.50    0.50
   4   3  13    4.30    0.40
   4   3  13    4.00    0.50
   4   3  13    4.70    0.30
   4   3  13    5.30    0.40
  -5  -3 -13    0.30    0.20
  -5  -3 -13    0.30    0.20
   5   3  13   -0.20    0.20
   5   3  13    0.00    0.10
   5   3  13    0.00    0.20
   5   3  13    0.00    0.10
   4  -4 -13   16.70    0.80
  -4   4  13   16.90    0.80
  -4   4  13   18.60    0.70
   3  -4 -13    7.80    0.50
  -3   4  13    9.30    0.50
  -3   4  13    8.50    0.50
   2  -4 -13    7.40    0.50
   2  -4 -13    8.70    0.50
   2  -4 -13    8.40    0.40
  -2   4  13    8.30    0.40
  -2   4  13    8.20    0.50
   1  -4 -13   24.20    0.70
   1  -4 -13   25.40    1.00
   1  -4 -13   25.70    1.00
  -1   4  13   25.70    1.00
  -1   4  13   24.30    0.80
   0  -4 -13    9.20    0.60
   0  -4 -13    9.70    0.60
   0  -4 -13    9.60    0.40
   0   4  13    9.00    0.40
   0   4  13   10.10    0.70
   0   4  13    9.50    0.60
  -1  -4 -13    0.10    0.20
  -1  -4 -13    0.20    0.10
  -1  -4 -13    0.50    0.20
   1   4  13    0.30    0.10
   1   4  13    0.10    0.20
   1   4  13    0.40    0.20
  -2  -4 -13   56.49    1.80
  -2  -4 -13   56.99    1.80
  -2  -4 -13   56.99    1.50
   2   4  13   56.99    1.40
   2   4  13   58.49    1.70
   2   4  13   58.49    1.90
   2   4  13   57.29    1.60
  -3  -4 -13   53.49    1.70
  -3  -4 -13   50.39    1.60
  -3  -4 -13   51.99    1.30
   3   4  13   49.90    1.50
   3   4  13   51.59    1.60
   3   4  13   52.99    1.30
   3   4  13   50.89    1.80
  -4  -4 -13    8.80    0.60
  -4  -4 -13    7.60    0.50
   4   4  13    9.10    0.50
   4   4  13    7.70    0.40
   4   4  13    9.20    0.50
   4   4  13    8.20    0.60
  -5  -4 -13    0.60    0.20
  -5  -4 -13    0.40    0.20
   5   4  13    0.30    0.20
   5   4  13    0.70    0.20
   5   4  13    0.70    0.20
   5   4  13    0.20    0.20
   4  -5 -13   20.00    0.90
  -4   5  13   21.10    0.80
  -4   5  13   19.70    0.90
   3  -5 -13   -0.10    0.10
   3  -5 -13    0.00    0.20
   3  -5 -13    0.00    0.20
  -3   5  13    0.00    0.10
  -3   5  13    0.00    0.10
   2  -5 -13    4.00    0.40
   2  -5 -13    4.00    0.30
   2  -5 -13    4.00    0.40
  -2   5  13    4.80    0.40
   1  -5 -13   14.20    0.70
   1  -5 -13   14.10    0.50
   1  -5 -13   13.90    0.70
  -1   5  13   14.00    0.70
  -1   5  13   14.20    0.50
   0  -5 -13    1.70    0.20
   0  -5 -13    1.30    0.30
   0  -5 -13    1.80    0.30
   0   5  13    1.60    0.30
   0   5  13    1.90    0.20
   0   5  13    1.90    0.30
  -1  -5 -13    0.00    0.20
  -1  -5 -13    0.20    0.10
  -1  -5 -13    0.20    0.20
   1   5  13    0.40    0.20
   1   5  13    0.30    0.10
   1   5  13    0.10    0.20
  -2  -5 -13   11.80    0.70
  -2  -5 -13   11.40    0.40
  -2  -5 -13   11.30    0.60
   2   5  13   11.50    0.60
   2   5  13   11.70    0.40
   2   5  13   10.80    0.50
   2   5  13   12.00    0.80
  -3  -5 -13   40.40    1.40
  -3  -5 -13   42.20    1.10
  -3  -5 -13   40.70    1.40
   3   5  13   39.80    1.30
   3   5  13   42.10    1.10
   3   5  13   39.80    1.60
   3   5  13   42.10    1.30
  -4  -5 -13   -0.10    0.20
  -4  -5 -13   -0.10    0.20
   4   5  13   -0.10    0.10
   4   5  13   -0.10    0.10
   4   5  13    0.00    0.10
   4   5  13   -0.30    0.20
  -5  -5 -13    2.70    0.40
  -5  -5 -13    2.50    0.40
   5   5  13    2.60    0.40
   5   5  13    2.60    0.30
   5   5  13    2.10    0.20
   5   5  13    2.00    0.40
   4  -6 -13    1.70    0.30
  -4   6  13    3.50    0.40
  -4   6  13    2.70    0.50
   3  -6 -13    7.90    0.60
   3  -6 -13    7.20    0.30
   3  -6 -13    7.40    0.50
  -3   6  13    7.10    0.50
   2  -6 -13    7.50    0.50
   2  -6 -13    8.30    0.60
  -2   6  13    8.80    0.30
  -2   6  13    9.60    0.60
   1  -6 -13    6.80    0.50
   1  -6 -13    6.40    0.30
   1  -6 -13    6.30    0.50
  -1   6  13    6.60    0.40
  -1   6  13    6.30    0.60
  -1   6  13    6.30    0.50
   0  -6 -13    0.80    0.10
   0  -6 -13    0.80    0.20
   0  -6 -13    0.90    0.20
   0   6  13    0.90    0.20
   0   6  13    1.00    0.20
   0   6  13    1.00    0.30
  -1  -6 -13   18.80    0.80
  -1  -6 -13   18.70    0.60
  -1  -6 -13   19.00    0.80
   1   6  13   17.70    0.70
   1   6  13   18.80    1.00
   1   6  13   17.90    0.70
   1   6  13   19.30    0.50
  -2  -6 -13  203.58    4.70
  -2  -6 -13  200.58    5.10
  -2  -6 -13  201.78    5.10
   2   6  13  209.88    4.90
   2   6  13  203.48    4.70
   2   6  13  198.18    5.30
   2   6  13  204.88    5.00
  -3  -6 -13    2.50    0.40
  -3  -6 -13    2.10    0.30
  -3  -6 -13    2.60    0.20
   3   6  13    2.50    0.30
   3   6  13    2.00    0.20
   3   6  13    2.40    0.30
   3   6  13    2.40    0.40
  -4  -6 -13    6.20    0.50
  -4  -6 -13    5.40    0.50
   4   6  13    6.30    0.30
   4   6  13    4.90    0.40
   4   6  13    7.20    0.60
   4   6  13    5.40    0.40
  -5  -6 -13    2.90    0.30
   5   6  13    3.10    0.40
   5   6  13    2.80    0.30
   5   6  13    2.50    0.40
   5   6  13    2.90    0.40
   4  -7 -13    7.30    0.50
   4  -7 -13    7.40    0.40
  -4   7  13    7.50    0.60
   3  -7 -13   -0.30    0.10
   3  -7 -13   -0.10    0.20
   3  -7 -13    0.00    0.10
  -3   7  13   -0.20    0.20
   2  -7 -13    0.20    0.20
   2  -7 -13    0.20    0.20
  -2   7  13    0.10    0.20
  -2   7  13    0.00    0.10
   1  -7 -13    1.70    0.30
   1  -7 -13    2.30    0.40
   1  -7 -13    2.20    0.20
  -1   7  13    2.30    0.30
  -1   7  13    2.20    0.40
  -1   7  13    2.00    0.20
   0  -7 -13    0.10    0.20
   0  -7 -13    0.10    0.20
   0  -7 -13    0.10    0.10
   0   7  13    0.20    0.10
   0   7  13    0.10    0.20
   0   7  13    0.30    0.20
  -1  -7 -13   55.39    1.80
  -1  -7 -13   59.29    1.80
  -1  -7 -13   57.39    1.50
   1   7  13   57.59    1.70
   1   7  13   57.99    2.00
   1   7  13   58.69    1.40
   1   7  13   58.59    1.70
  -2  -7 -13   17.10    0.80
  -2  -7 -13   16.50    0.80
  -2  -7 -13   15.70    0.50
   2   7  13   16.40    0.70
   2   7  13   16.60    1.00
   2   7  13   16.60    0.50
   2   7  13   17.20    0.70
  -3  -7 -13    0.80    0.20
  -3  -7 -13    0.90    0.30
   3   7  13    1.00    0.20
   3   7  13    0.90    0.20
   3   7  13    1.10    0.30
   3   7  13    0.90    0.20
  -4  -7 -13    3.50    0.40
  -4  -7 -13    3.00    0.40
   4   7  13    2.90    0.50
   4   7  13    3.00    0.40
   4   7  13    3.00    0.30
   4   7  13    3.50    0.40
  -5  -7 -13    0.00    0.20
   5   7  13    0.20    0.20
   5   7  13   -0.10    0.10
   5   7  13    0.20    0.10
   5   7  13    0.30    0.20
   4  -8 -13   17.20    0.60
   4  -8 -13   16.70    0.80
  -4   8  13   16.10    0.90
   3  -8 -13    2.30    0.40
   3  -8 -13    2.20    0.40
   3  -8 -13    2.80    0.20
  -3   8  13    2.90    0.40
   2  -8 -13    1.80    0.30
   2  -8 -13    2.20    0.20
   2  -8 -13    2.10    0.30
  -2   8  13    1.90    0.20
  -2   8  13    2.20    0.30
   1  -8 -13    3.00    0.40
   1  -8 -13    2.40    0.30
   1  -8 -13    2.30    0.20
  -1   8  13    2.90    0.40
  -1   8  13    2.70    0.30
  -1   8  13    3.10    0.50
   0  -8 -13    0.50    0.20
   0  -8 -13    0.40    0.20
   0  -8 -13    0.40    0.10
   0   8  13    0.40    0.20
   0   8  13    0.60    0.20
   0   8  13    0.50    0.30
  -1  -8 -13    2.80    0.40
  -1  -8 -13    2.70    0.40
  -1  -8 -13    3.00    0.20
   1   8  13    3.80    0.40
   1   8  13    3.20    0.20
   1   8  13    3.90    0.60
   1   8  13    2.90    0.30
  -2  -8 -13    0.90    0.30
  -2  -8 -13    1.10    0.30
  -2  -8 -13    0.90    0.10
   2   8  13    1.00    0.20
   2   8  13    0.80    0.30
   2   8  13    0.80    0.20
   2   8  13    0.90    0.10
  -3  -8 -13   10.70    0.60
  -3  -8 -13   10.60    0.60
   3   8  13   10.70    0.40
   3   8  13   10.90    0.80
   3   8  13   10.50    0.60
   3   8  13    9.90    0.60
  -4  -8 -13    2.90    0.40
  -4  -8 -13    2.70    0.40
   4   8  13    2.00    0.40
   4   8  13    2.10    0.20
   4   8  13    2.30    0.30
   4   8  13    2.20    0.30
  -5  -8 -13    0.50    0.20
   5   8  13    0.70    0.20
   5   8  13    0.60    0.30
   5   8  13    0.70    0.20
   5   8  13    0.40    0.20
   3  -9 -13   -0.10    0.20
   3  -9 -13   -0.10    0.20
   3  -9 -13    0.10    0.10
  -3   9  13   -0.20    0.20
   2  -9 -13    2.80    0.40
   2  -9 -13    2.60    0.20
   2  -9 -13    2.90    0.40
  -2   9  13    3.30    0.40
  -2   9  13    2.80    0.30
   1  -9 -13    8.90    0.40
   1  -9 -13    9.30    0.60
   1  -9 -13    8.80    0.60
  -1   9  13    8.10    0.60
  -1   9  13    9.10    0.50
  -1   9  13    8.60    0.70
   0  -9 -13    2.30    0.20
   0  -9 -13    2.10    0.40
   0  -9 -13    2.10    0.30
   0   9  13    2.20    0.30
   0   9  13    2.00    0.40
  -1  -9 -13   28.90    1.10
  -1  -9 -13   28.00    0.80
  -1  -9 -13   27.00    1.10
   1   9  13   28.70    0.80
   1   9  13   27.10    1.30
   1   9  13   28.00    1.00
   1   9  13   26.20    1.00
  -2  -9 -13   19.10    0.90
  -2  -9 -13   19.40    0.60
  -2  -9 -13   19.30    0.90
   2   9  13   20.90    0.60
   2   9  13   20.90    0.80
   2   9  13   20.10    1.10
   2   9  13   18.90    0.80
  -3  -9 -13    3.30    0.40
  -3  -9 -13    4.40    0.50
   3   9  13    3.90    0.60
   3   9  13    3.00    0.30
   3   9  13    3.50    0.40
   3   9  13    2.70    0.40
  -4  -9 -13    8.10    0.50
  -4  -9 -13    6.90    0.50
   4   9  13    7.10    0.80
   4   9  13    7.00    0.50
   4   9  13    7.40    0.50
   4   9  13    6.90    0.40
  -5  -9 -13    2.40    0.30
   5   9  13    2.50    0.50
   5   9  13    2.40    0.30
   5   9  13    2.80    0.40
   5   9  13    2.30    0.30
   3 -10 -13    2.20    0.40
   3 -10 -13    3.30    0.30
   3 -10 -13    2.70    0.40
  -3  10  13    3.40    0.50
   2 -10 -13    2.00    0.30
   2 -10 -13    1.60    0.20
   2 -10 -13    1.80    0.40
  -2  10  13    1.40    0.30
  -2  10  13    1.90    0.20
   1 -10 -13   13.10    0.70
   1 -10 -13   14.00    0.50
   1 -10 -13   12.50    0.70
  -1  10  13   13.20    0.90
  -1  10  13   13.00    0.60
   0 -10 -13    6.50    0.50
   0 -10 -13    6.90    0.30
   0 -10 -13    7.60    0.60
   0  10  13    5.80    0.40
   0  10  13    6.50    0.80
  -1 -10 -13    6.00    0.50
  -1 -10 -13    6.10    0.50
  -1 -10 -13    6.80    0.30
   1  10  13    5.70    0.40
   1  10  13    6.60    0.50
   1  10  13    4.90    0.70
   1  10  13    6.90    0.30
  -2 -10 -13    1.30    0.10
  -2 -10 -13    1.00    0.30
  -2 -10 -13    1.00    0.30
   2  10  13    1.10    0.20
   2  10  13    0.70    0.30
   2  10  13    1.10    0.20
   2  10  13    1.60    0.30
  -3 -10 -13   16.10    0.80
  -3 -10 -13   16.50    0.80
   3  10  13   16.10    1.10
   3  10  13   17.60    0.80
   3  10  13   15.10    0.70
   3  10  13   16.50    0.60
  -4 -10 -13    4.80    0.50
  -4 -10 -13    5.40    0.40
   4  10  13    5.10    0.30
   4  10  13    3.30    0.60
   4  10  13    5.20    0.50
   4  10  13    5.10    0.40
  -5 -10 -13   -0.20    0.10
   5  10  13   -0.10    0.20
   5  10  13    0.10    0.10
   2 -11 -13   19.00    1.00
   2 -11 -13   17.80    0.90
   2 -11 -13   19.20    0.90
   2 -11 -13   17.90    0.70
  -2  11  13   18.70    0.70
   1 -11 -13    0.70    0.30
   1 -11 -13    0.60    0.20
   1 -11 -13    0.80    0.20
  -1  11  13    0.70    0.20
  -1  11  13    0.80    0.30
   0 -11 -13    5.20    0.50
   0 -11 -13    5.10    0.30
   0 -11 -13    4.00    0.50
   0  11  13    4.40    0.40
   0  11  13    4.30    0.60
  -1 -11 -13    9.50    0.60
  -1 -11 -13   10.80    0.60
  -1 -11 -13    9.00    0.40
   1  11  13    9.30    0.60
   1  11  13    9.60    0.40
   1  11  13    9.40    1.00
   1  11  13    9.20    0.60
  -2 -11 -13    0.40    0.20
  -2 -11 -13    0.20    0.20
   2  11  13    0.20    0.20
   2  11  13    0.60    0.10
   2  11  13    0.70    0.20
   2  11  13    0.70    0.30
  -3 -11 -13    0.30    0.20
  -3 -11 -13    0.50    0.20
   3  11  13    0.00    0.10
   3  11  13    0.10    0.30
   3  11  13    0.30    0.20
   3  11  13    0.30    0.10
  -4 -11 -13   13.50    0.70
   4  11  13   12.80    1.00
   4  11  13   13.90    0.80
   4  11  13   14.30    0.70
   4  11  13   12.60    0.50
   2 -12 -13   43.50    1.30
   2 -12 -13   47.40    1.60
   2 -12 -13   42.00    1.60
   2 -12 -13   44.20    1.60
  -2  12  13   46.10    1.40
   1 -12 -13    2.40    0.40
   1 -12 -13    3.10    0.40
   1 -12 -13    3.60    0.50
   1 -12 -13    2.80    0.30
  -1  12  13    3.80    0.40
  -1  12  13    3.00    0.60
   0 -12 -13   15.10    0.80
   0 -12 -13   14.00    0.50
   0 -12 -13   14.90    0.90
   0 -12 -13   14.50    0.80
   0  12  13   14.50    1.00
   0  12  13   15.10    0.70
  -1 -12 -13    2.90    0.20
  -1 -12 -13    2.90    0.40
  -1 -12 -13    2.20    0.40
  -1 -12 -13    2.70    0.40
   1  12  13    2.50    0.40
   1  12  13    3.10    0.20
   1  12  13    2.50    0.40
   1  12  13    3.10    0.60
  -2 -12 -13    0.90    0.30
  -2 -12 -13    0.90    0.30
  -2 -12 -13    1.30    0.30
   2  12  13    1.10    0.30
   2  12  13    1.20    0.40
   2  12  13    1.00    0.20
   2  12  13    1.00    0.20
  -3 -12 -13   -0.20    0.10
  -3 -12 -13    0.00    0.20
  -3 -12 -13   -0.10    0.20
   3  12  13    0.10    0.20
   3  12  13    0.00    0.20
   3  12  13    0.10    0.10
   3  12  13    0.10    0.30
  -4 -12 -13    5.40    0.40
   4  12  13    6.10    0.50
   4  12  13    6.00    0.50
   4  12  13    6.20    0.40
   4  12  13    5.90    0.80
   1 -13 -13   -0.10    0.20
   1 -13 -13    0.10    0.10
   1 -13 -13   -0.20    0.20
  -1  13  13    0.10    0.30
  -1  13  13   -0.10    0.20
   0 -13 -13    3.80    0.50
   0 -13 -13    3.90    0.30
   0 -13 -13    4.00    0.50
   0 -13 -13    3.30    0.40
   0  13  13    3.30    0.40
   0  13  13    4.10    0.70
  -1 -13 -13    1.40    0.20
  -1 -13 -13    1.30    0.30
  -1 -13 -13    1.40    0.30
  -1 -13 -13    1.40    0.30
   1  13  13    1.40    0.20
   1  13  13    1.00    0.40
   1  13  13    1.30    0.30
   1  13  13    1.20    0.30
  -2 -13 -13   62.09    2.00
  -2 -13 -13   59.69    1.90
   2  13  13   64.39    2.50
   2  13  13   60.49    1.90
   2  13  13   67.39    2.00
   2  13  13   62.69    1.60
  -3 -13 -13   11.60    0.70
  -3 -13 -13   11.60    0.70
   3  13  13   11.20    0.70
   3  13  13   11.30    0.70
   3  13  13   11.00    0.50
   3  13  13   11.40    1.20
   0   4 -14    0.30    0.10
   0   4 -14    0.50    0.30
   0   4 -14    0.30    0.20
   0  -4  14    0.30    0.20
   2   3 -14   -0.30    0.20
   2   3 -14    0.10    0.10
  -2  -3  14   -0.10    0.20
   1   3 -14   11.90    0.80
   1   3 -14   11.30    0.60
   1   3 -14   11.50    0.50
  -1  -3  14   12.50    0.70
   0   3 -14   19.10    1.00
   0   3 -14   19.30    0.90
   0   3 -14   19.00    0.70
   0  -3  14   18.80    0.90
  -1   3 -14    2.70    0.40
  -1   3 -14    2.10    0.30
  -1   3 -14    1.90    0.30
   1  -3  14    2.20    0.30
  -2   3 -14    5.80    0.40
  -2   3 -14    5.90    0.50
  -2   3 -14    5.00    0.60
   2  -3  14    6.10    0.60
   2  -3  14    6.40    0.40
   2   2 -14   58.99    1.50
   2   2 -14   54.79    1.80
  -2  -2  14   58.09    1.80
  -2  -2  14   57.39    1.70
   1   2 -14   -0.20    0.10
   1   2 -14    0.00    0.20
   1   2 -14    0.00    0.10
  -1  -2  14   -0.10    0.10
   0   2 -14    0.30    0.10
   0   2 -14    0.10    0.20
   0   2 -14   -0.20    0.20
   0  -2  14    0.10    0.20
   0  -2  14    0.10    0.10
  -1   2 -14   -0.20    0.10
  -1   2 -14    0.00    0.20
  -1   2 -14   -0.10    0.20
   1  -2  14   -0.10    0.10
  -2   2 -14    1.70    0.40
  -2   2 -14    1.20    0.20
  -2   2 -14    1.10    0.30
   2  -2  14    1.30    0.30
   2  -2  14    1.20    0.20
  -3   2 -14    4.20    0.30
  -3   2 -14    4.20    0.50
  -3   2 -14    3.40    0.40
   3  -2  14    4.00    0.50
   3  -2  14    3.30    0.40
   3   1 -14    0.00    0.20
  -3  -1  14    0.10    0.10
  -3  -1  14    0.20    0.20
  -3  -1  14    0.10    0.10
   2   1 -14   17.10    0.80
   2   1 -14   16.80    0.60
  -2  -1  14   16.30    0.70
  -2  -1  14   17.40    0.80
   1   1 -14   27.70    1.20
   1   1 -14   28.30    0.90
   1   1 -14   28.30    1.10
  -1  -1  14   30.30    1.00
  -1  -1  14   29.50    1.10
   0   1 -14    2.50    0.30
   0   1 -14    2.20    0.40
   0   1 -14    1.90    0.20
   0  -1  14    2.00    0.30
   0  -1  14    2.10    0.20
  -1   1 -14    2.40    0.30
  -1   1 -14    2.20    0.40
  -1   1 -14    2.00    0.30
   1  -1  14    2.50    0.40
   1  -1  14    2.40    0.30
  -2   1 -14    0.00    0.20
  -2   1 -14    0.20    0.10
  -2   1 -14    0.00    0.20
   2  -1  14    0.00    0.10
   2  -1  14   -0.20    0.20
  -3   1 -14    2.50    0.40
  -3   1 -14    2.40    0.30
  -3   1 -14    1.60    0.40
   3  -1  14    1.80    0.30
   3  -1  14    2.10    0.40
   3   0 -14    3.90    0.40
  -3   0  14    4.30    0.40
  -3   0  14    4.60    0.40
  -3   0  14    3.90    0.30
   2   0 -14   17.00    0.80
   2   0 -14   16.00    0.70
   2   0 -14   16.30    0.60
  -2   0  14   16.10    0.70
  -2   0  14   17.80    0.80
   1   0 -14    0.00    0.20
   1   0 -14    0.30    0.10
   1   0 -14    0.30    0.20
  -1   0  14    0.10    0.20
  -1   0  14    0.20    0.20
   0   0 -14    0.90    0.30
   0   0 -14    1.00    0.20
   0   0 -14    1.10    0.20
   0   0  14    0.90    0.20
   0   0  14    1.00    0.20
  -1   0 -14    2.20    0.20
  -1   0 -14    1.70    0.30
  -1   0 -14    3.30    0.50
   1   0  14    3.00    0.40
   1   0  14    3.20    0.40
   1   0  14    2.40    0.30
  -2   0 -14    0.50    0.20
  -2   0 -14    0.40    0.20
  -2   0 -14    0.30    0.20
   2   0  14    0.40    0.20
   2   0  14    0.60    0.20
  -3   0 -14    0.30    0.20
  -3   0 -14    0.40    0.20
  -3   0 -14    0.60    0.20
   3   0  14    0.40    0.20
   3   0  14    0.40    0.20
  -4   0 -14    3.80    0.50
  -4   0 -14    3.30    0.40
   4   0  14    2.90    0.40
   4   0  14    4.00    0.40
   4   0  14    3.10    0.40
   4   0  14    3.00    0.30
   3  -1 -14    2.60    0.40
  -3   1  14    2.30    0.30
  -3   1  14    2.50    0.30
  -3   1  14    2.70    0.30
   2  -1 -14    0.20    0.20
   2  -1 -14    0.20    0.20
   2  -1 -14   -0.10    0.10
  -2   1  14    0.20    0.20
  -2   1  14    0.30    0.20
   1  -1 -14    9.10    0.60
   1  -1 -14    9.20    0.40
   1  -1 -14    9.10    0.60
  -1   1  14    8.70    0.60
   0  -1 -14    0.20    0.20
   0  -1 -14    0.20    0.20
   0  -1 -14    0.20    0.10
   0   1  14    0.00    0.20
   0   1  14    0.10    0.10
  -1  -1 -14    6.00    0.50
  -1  -1 -14    6.90    0.40
  -1  -1 -14    7.40    0.50
   1   1  14    6.50    0.60
   1   1  14    6.20    0.50
   1   1  14    6.20    0.40
  -2  -1 -14   15.70    0.60
  -2  -1 -14   13.80    0.80
  -2  -1 -14   15.40    0.80
   2   1  14   15.70    0.70
   2   1  14   15.60    0.80
  -3  -1 -14    7.30    0.60
  -3  -1 -14    6.70    0.50
  -3  -1 -14    7.00    0.40
   3   1  14    6.70    0.30
   3   1  14    6.80    0.50
   3   1  14    6.90    0.60
  -4  -1 -14   -0.30    0.10
  -4  -1 -14    0.00    0.20
   4   1  14    0.10    0.20
   4   1  14    0.10    0.10
   4   1  14   -0.10    0.10
   4   1  14    0.10    0.20
   4  -2 -14    1.10    0.30
  -4   2  14    0.90    0.20
  -4   2  14    1.20    0.30
  -4   2  14    1.00    0.30
   3  -2 -14    1.40    0.30
  -3   2  14    1.10    0.20
  -3   2  14    1.50    0.30
  -3   2  14    0.90    0.20
   2  -2 -14    7.10    0.50
   2  -2 -14    7.00    0.50
   2  -2 -14    7.20    0.30
  -2   2  14    6.70    0.50
   1  -2 -14   20.10    0.80
   1  -2 -14   18.20    0.60
   1  -2 -14   19.30    0.90
  -1   2  14   20.10    0.80
  -1   2  14   18.80    0.60
   0  -2 -14    2.80    0.20
   0  -2 -14    3.60    0.40
   0  -2 -14    2.60    0.40
   0   2  14    2.80    0.30
   0   2  14    2.80    0.40
  -1  -2 -14    0.10    0.10
  -1  -2 -14    0.20    0.20
  -1  -2 -14    0.20    0.20
   1   2  14    0.40    0.20
   1   2  14    0.30    0.20
   1   2  14    0.40    0.20
  -2  -2 -14    6.10    0.50
  -2  -2 -14    6.90    0.40
  -2  -2 -14    7.00    0.60
   2   2  14    5.90    0.40
   2   2  14    7.80    0.60
  -3  -2 -14   21.60    1.00
  -3  -2 -14   21.60    1.00
  -3  -2 -14   23.10    0.70
   3   2  14   22.80    1.10
   3   2  14   21.20    0.90
   3   2  14   23.50    0.90
   3   2  14   22.50    0.70
  -4  -2 -14   17.10    0.90
  -4  -2 -14   16.00    0.80
   4   2  14   18.50    0.80
   4   2  14   17.10    0.80
   4   2  14   18.20    1.00
   4   2  14   17.90    0.60
   4  -3 -14    0.30    0.20
  -4   3  14    0.10    0.20
  -4   3  14    0.40    0.20
  -4   3  14    0.30    0.20
   3  -3 -14   31.30    1.20
  -3   3  14   35.10    1.10
  -3   3  14   35.20    1.20
   2  -3 -14    1.50    0.30
   2  -3 -14    1.50    0.20
   2  -3 -14    1.30    0.30
  -2   3  14    0.70    0.20
   1  -3 -14   13.90    0.50
   1  -3 -14   14.40    0.70
   1  -3 -14   13.40    0.70
  -1   3  14   13.20    0.70
  -1   3  14   14.10    0.50
   0  -3 -14   37.20    1.30
   0  -3 -14   35.70    1.30
   0  -3 -14   38.60    1.10
   0   3  14   39.10    1.40
   0   3  14   36.70    1.10
   0   3  14   37.10    1.30
  -1  -3 -14    0.50    0.20
  -1  -3 -14    0.10    0.10
  -1  -3 -14    0.10    0.20
   1   3  14    0.50    0.30
   1   3  14   -0.20    0.20
   1   3  14    0.20    0.10
  -2  -3 -14    6.40    0.50
  -2  -3 -14    4.60    0.50
  -2  -3 -14    6.20    0.30
   2   3  14    5.90    0.40
   2   3  14    6.50    0.60
  -3  -3 -14   27.30    1.10
  -3  -3 -14   27.30    1.10
  -3  -3 -14   27.50    0.80
   3   3  14   28.40    1.00
   3   3  14   29.50    1.30
   3   3  14   28.10    0.80
   3   3  14   26.50    1.00
  -4  -3 -14   18.90    0.90
  -4  -3 -14   19.60    0.90
   4   3  14   18.50    0.80
   4   3  14   19.90    0.70
   4   3  14   21.00    0.90
   4   3  14   20.10    1.00
   4  -4 -14    6.00    0.50
  -4   4  14    6.20    0.40
  -4   4  14    4.90    0.50
   3  -4 -14    1.90    0.30
  -3   4  14    1.70    0.30
   2  -4 -14    3.80    0.40
   2  -4 -14    3.40    0.40
   2  -4 -14    3.50    0.30
  -2   4  14    3.60    0.40
   1  -4 -14    8.30    0.50
   1  -4 -14    8.30    0.60
   1  -4 -14    8.20    0.40
  -1   4  14    8.80    0.40
  -1   4  14    7.90    0.50
   0  -4 -14   24.70    0.80
   0  -4 -14   23.30    1.00
   0  -4 -14   22.50    1.00
   0   4  14   25.70    1.10
   0   4  14   24.20    1.00
   0   4  14   25.20    0.80
  -1  -4 -14    0.50    0.10
  -1  -4 -14    0.20    0.20
  -1  -4 -14    0.40    0.20
   1   4  14    0.00    0.20
   1   4  14    0.30    0.20
  -2  -4 -14    6.90    0.50
  -2  -4 -14    6.40    0.30
  -2  -4 -14    6.30    0.50
   2   4  14    6.70    0.40
   2   4  14    7.40    0.60
   2   4  14    6.50    0.70
   2   4  14    7.00    0.30
  -3  -4 -14   23.20    1.00
  -3  -4 -14   21.80    0.70
  -3  -4 -14   19.90    0.90
   3   4  14   21.10    1.10
   3   4  14   20.60    0.80
   3   4  14   20.80    0.70
   3   4  14   24.10    0.90
  -4  -4 -14   46.40    1.60
  -4  -4 -14   49.10    1.70
   4   4  14   51.79    1.80
   4   4  14   49.40    1.50
   4   4  14   49.10    1.60
   4   4  14   47.90    1.30
  -5  -4 -14    0.10    0.20
  -5  -4 -14   -0.10    0.20
   5   4  14    0.20    0.20
   5   4  14   -0.10    0.10
   5   4  14   -0.10    0.20
   5   4  14   -0.10    0.10
   4  -5 -14    1.80    0.30
  -4   5  14    1.80    0.30
   3  -5 -14    2.70    0.20
   3  -5 -14    3.60    0.50
   3  -5 -14    2.50    0.40
  -3   5  14    2.00    0.30
   2  -5 -14   26.20    1.10
   2  -5 -14   27.00    1.10
   2  -5 -14   27.90    0.80
  -2   5  14   26.80    1.10
   1  -5 -14    4.40    0.30
   1  -5 -14    3.20    0.40
   1  -5 -14    3.70    0.40
  -1   5  14    4.40    0.50
  -1   5  14    3.50    0.30
   0  -5 -14    0.40    0.10
   0  -5 -14    0.30    0.20
   0  -5 -14    0.60    0.20
   0   5  14    0.90    0.30
   0   5  14    0.60    0.20
   0   5  14    0.60    0.20
  -1  -5 -14    1.10    0.30
  -1  -5 -14    0.90    0.20
  -1  -5 -14    1.50    0.30
   1   5  14    1.40    0.30
   1   5  14    1.40    0.20
  -2  -5 -14    0.00    0.20
  -2  -5 -14    0.40    0.20
  -2  -5 -14    0.40    0.10
   2   5  14    0.20    0.20
   2   5  14    0.10    0.10
   2   5  14    0.20    0.20
   2   5  14    0.40    0.20
  -3  -5 -14   77.89    1.90
  -3  -5 -14   75.09    2.30
  -3  -5 -14   80.39    2.30
   3   5  14   82.09    2.20
   3   5  14   76.29    1.90
   3   5  14   77.39    2.50
   3   5  14   76.69    2.20
  -4  -5 -14    5.30    0.50
  -4  -5 -14    6.00    0.50
   4   5  14    6.60    0.70
   4   5  14    6.50    0.40
   4   5  14    6.20    0.50
   4   5  14    6.50    0.50
  -5  -5 -14    7.20    0.50
  -5  -5 -14    8.10    0.60
   5   5  14    7.10    0.50
   5   5  14    7.70    0.60
   5   5  14    7.20    0.80
   5   5  14    7.80    0.40
   3  -6 -14    0.30    0.20
   3  -6 -14    0.40    0.10
   3  -6 -14    0.40    0.20
  -3   6  14    0.50    0.20
   2  -6 -14    5.40    0.50
   2  -6 -14    5.50    0.30
   2  -6 -14    5.80    0.50
  -2   6  14    5.40    0.50
   1  -6 -14    0.90    0.30
   1  -6 -14    0.90    0.30
   1  -6 -14    0.90    0.20
  -1   6  14    1.00    0.20
  -1   6  14    1.00    0.20
   0  -6 -14    0.60    0.20
   0  -6 -14    0.60    0.10
   0  -6 -14    0.30    0.20
   0   6  14    1.00    0.30
   0   6  14    0.70    0.20
   0   6  14    0.30    0.20
  -1  -6 -14    2.40    0.20
  -1  -6 -14    2.60    0.40
  -1  -6 -14    2.30    0.30
   1   6  14    2.60    0.50
   1   6  14    2.60    0.30
  -2  -6 -14    0.10    0.20
  -2  -6 -14    0.10    0.10
  -2  -6 -14    0.00    0.20
   2   6  14   -0.10    0.10
   2   6  14    0.10    0.20
   2   6  14    0.10    0.10
   2   6  14    0.00    0.10
  -3  -6 -14    0.00    0.10
  -3  -6 -14   -0.50    0.20
  -3  -6 -14   -0.10    0.20
   3   6  14   -0.30    0.20
   3   6  14    0.00    0.20
   3   6  14   -0.30    0.10
   3   6  14   -0.10    0.10
  -4  -6 -14    0.00    0.20
  -4  -6 -14    0.00    0.20
   4   6  14    0.10    0.20
   4   6  14    0.00    0.20
   4   6  14    0.10    0.10
   4   6  14   -0.20    0.20
  -5  -6 -14    0.90    0.30
   5   6  14    1.00    0.30
   5   6  14    1.10    0.20
   5   6  14    1.00    0.30
   5   6  14    1.00    0.20
   3  -7 -14    6.10    0.50
   3  -7 -14    6.30    0.30
   3  -7 -14    6.10    0.50
  -3   7  14    5.80    0.50
   2  -7 -14   -0.20    0.20
   2  -7 -14    0.10    0.10
   2  -7 -14    0.00    0.20
  -2   7  14   -0.10    0.10
   1  -7 -14   -0.10    0.20
   1  -7 -14    0.00    0.20
   1  -7 -14   -0.20    0.10
  -1   7  14    0.10    0.10
  -1   7  14   -0.20    0.10
   0  -7 -14   14.10    0.80
   0  -7 -14   14.60    0.50
   0  -7 -14   16.70    0.80
   0   7  14   15.80    0.90
   0   7  14   14.80    0.60
   0   7  14   14.80    0.80
  -1  -7 -14   62.19    1.90
  -1  -7 -14   61.99    1.60
  -1  -7 -14   60.99    1.90
   1   7  14   61.39    2.20
   1   7  14   60.29    1.70
  -2  -7 -14   15.40    0.50
  -2  -7 -14   15.20    0.80
  -2  -7 -14   16.20    0.80
   2   7  14   14.50    1.00
   2   7  14   15.40    0.50
   2   7  14   14.90    0.70
   2   7  14   15.90    0.70
  -3  -7 -14   11.60    0.70
  -3  -7 -14   13.70    0.70
   3   7  14   13.90    0.90
   3   7  14   13.60    0.70
   3   7  14   12.80    0.70
   3   7  14   13.50    0.50
  -4  -7 -14    0.10    0.20
  -4  -7 -14    0.00    0.20
   4   7  14    0.00    0.10
   4   7  14   -0.30    0.20
   4   7  14   -0.10    0.20
   4   7  14   -0.10    0.10
  -5  -7 -14   12.40    0.70
   5   7  14   11.30    0.70
   5   7  14   14.20    0.90
   5   7  14   13.60    0.60
   5   7  14   12.40    0.70
   3  -8 -14    1.60    0.20
   3  -8 -14    2.70    0.40
   3  -8 -14    1.70    0.30
  -3   8  14    1.90    0.40
   2  -8 -14    0.10    0.10
   2  -8 -14    0.10    0.20
   2  -8 -14    0.00    0.20
  -2   8  14    0.00    0.10
  -2   8  14    0.10    0.20
   1  -8 -14    0.30    0.10
   1  -8 -14    0.00    0.20
   1  -8 -14    0.10    0.20
  -1   8  14    0.40    0.20
  -1   8  14    0.30    0.20
   0  -8 -14    1.10    0.30
   0  -8 -14    1.10    0.30
   0  -8 -14    0.70    0.10
   0   8  14    0.60    0.30
   0   8  14    0.80    0.20
  -1  -8 -14   -0.10    0.20
  -1  -8 -14    0.10    0.10
  -1  -8 -14   -0.30    0.20
   1   8  14   -0.20    0.20
   1   8  14   -0.20    0.10
  -2  -8 -14    0.00    0.10
  -2  -8 -14   -0.20    0.20
  -2  -8 -14   -0.10    0.20
   2   8  14    0.00    0.10
   2   8  14   -0.10    0.10
   2   8  14   -0.20    0.20
   2   8  14    0.00    0.20
  -3  -8 -14    0.00    0.20
  -3  -8 -14    0.80    0.30
   3   8  14    0.40    0.30
   3   8  14    0.60    0.10
   3   8  14    0.40    0.20
   3   8  14    0.50    0.20
  -4  -8 -14    5.10    0.50
  -4  -8 -14    4.80    0.50
   4   8  14    4.90    0.70
   4   8  14    5.30    0.50
   4   8  14    6.00    0.50
   4   8  14    5.20    0.30
   3  -9 -14    1.20    0.30
   3  -9 -14    1.80    0.20
   3  -9 -14    1.70    0.30
  -3   9  14    2.20    0.40
   2  -9 -14    1.70    0.30
   2  -9 -14    1.30    0.20
   2  -9 -14    1.40    0.30
  -2   9  14    1.50    0.20
  -2   9  14    1.30    0.30
   1  -9 -14    0.10    0.20
   1  -9 -14    0.40    0.20
   1  -9 -14    0.40    0.10
  -1   9  14    0.00    0.30
  -1   9  14    0.30    0.20
  -1   9  14    0.00    0.20
   0  -9 -14   15.60    0.60
   0  -9 -14   14.20    0.80
   0  -9 -14   16.00    0.80
   0   9  14   15.70    0.70
   0   9  14   16.70    1.00
  -1  -9 -14    0.80    0.30
  -1  -9 -14    2.10    0.20
  -1  -9 -14    2.00    0.30
   1   9  14    1.30    0.20
   1   9  14    1.70    0.40
  -2  -9 -14    2.70    0.40
  -2  -9 -14    3.20    0.20
  -2  -9 -14    2.60    0.40
   2   9  14    3.70    0.60
   2   9  14    3.00    0.20
   2   9  14    2.80    0.30
   2   9  14    3.40    0.40
  -3  -9 -14   18.30    0.90
  -3  -9 -14   17.00    0.80
   3   9  14   17.80    0.60
   3   9  14   17.50    1.10
   3   9  14   17.80    0.80
   3   9  14   17.80    0.80
  -4  -9 -14    2.10    0.30
  -4  -9 -14    2.20    0.30
   4   9  14    2.60    0.30
   4   9  14    2.00    0.50
   4   9  14    2.00    0.40
   4   9  14    2.00    0.30
   2 -10 -14    6.30    0.40
   2 -10 -14    7.00    0.60
   2 -10 -14    5.90    0.60
  -2  10  14    7.00    0.40
  -2  10  14    7.50    0.60
   1 -10 -14    0.20    0.20
   1 -10 -14   -0.10    0.20
   1 -10 -14    0.10    0.10
  -1  10  14    0.20    0.20
  -1  10  14    0.10    0.10
   0 -10 -14    0.10    0.20
   0 -10 -14    0.50    0.20
   0 -10 -14    0.10    0.10
   0  10  14    0.10    0.20
   0  10  14    0.10    0.30
  -1 -10 -14    0.10    0.20
  -1 -10 -14    0.10    0.10
  -1 -10 -14   -0.10    0.20
   1  10  14   -0.20    0.20
   1  10  14    0.10    0.10
   1  10  14    0.00    0.10
  -2 -10 -14    0.30    0.10
  -2 -10 -14    0.20    0.20
  -2 -10 -14    0.00    0.20
   2  10  14    0.60    0.30
   2  10  14    0.50    0.10
   2  10  14    0.50    0.20
   2  10  14    0.60    0.20
  -3 -10 -14    5.20    0.50
  -3 -10 -14    4.90    0.50
   3  10  14    4.90    0.40
   3  10  14    4.80    0.30
   3  10  14    4.70    0.70
   3  10  14    4.90    0.50
  -4 -10 -14    4.10    0.50
  -4 -10 -14    4.50    0.50
   4  10  14    3.70    0.50
   4  10  14    3.30    0.30
   4  10  14    3.90    0.40
   4  10  14    3.70    0.60
   2 -11 -14    0.30    0.20
   2 -11 -14    0.30    0.10
   2 -11 -14    0.10    0.20
  -2  11  14    0.30    0.20
   1 -11 -14    0.10    0.10
   1 -11 -14    0.30    0.20
   1 -11 -14    0.10    0.20
  -1  11  14    0.30    0.20
  -1  11  14    0.40    0.30
   0 -11 -14    1.40    0.30
   0 -11 -14    1.60    0.30
   0 -11 -14    1.40    0.20
   0  11  14    1.40    0.30
   0  11  14    1.30    0.40
  -1 -11 -14    5.80    0.30
  -1 -11 -14    4.90    0.50
  -1 -11 -14    5.60    0.50
   1  11  14    6.10    0.50
   1  11  14    6.30    0.80
   1  11  14    5.50    0.30
  -2 -11 -14   20.70    0.90
  -2 -11 -14   20.10    0.90
   2  11  14   21.10    0.90
   2  11  14   20.30    0.60
   2  11  14   19.20    1.20
   2  11  14   19.40    0.90
  -3 -11 -14    0.40    0.20
  -3 -11 -14    0.40    0.20
   3  11  14    0.10    0.30
   3  11  14    0.10    0.10
   3  11  14    0.20    0.20
   3  11  14    0.10    0.20
   1 -12 -14    3.20    0.50
   1 -12 -14    3.50    0.50
   1 -12 -14    3.00    0.30
   1 -12 -14    2.40    0.40
  -1  12  14    2.20    0.50
  -1  12  14    2.30    0.30
   0 -12 -14   33.70    1.30
   0 -12 -14   33.10    1.00
   0 -12 -14   33.40    1.30
   0  12  14   35.20    1.20
   0  12  14   34.70    1.60
  -1 -12 -14    1.00    0.20
  -1 -12 -14    1.10    0.30
  -1 -12 -14    0.60    0.30
   1  12  14    0.70    0.10
   1  12  14    0.90    0.30
   1  12  14    0.80    0.40
  -2 -12 -14    3.60    0.40
  -2 -12 -14    3.90    0.50
   2  12  14    3.40    0.30
   2  12  14    3.70    0.50
   2  12  14    4.40    0.70
   2  12  14    2.80    0.40
  -3 -12 -14   64.89    2.00
  -3 -12 -14   62.69    2.00
  -3 -12 -14   68.79    2.10
   3  12  14   66.19    1.70
   3  12  14   64.59    2.10
   3  12  14   63.79    2.50
   3  12  14   63.39    2.00
  -1 -13 -14    7.30    0.60
  -1 -13 -14    7.30    0.60
  -1 -13 -14    7.50    0.60
  -1 -13 -14    6.50    0.30
   1  13  14    5.90    0.50
   1  13  14    6.90    0.30
   1  13  14    7.60    0.90
   1   2 -15    4.20    0.30
   0   2 -15    1.20    0.20
   0   2 -15    0.90    0.30
   0   2 -15    1.60    0.40
   0  -2  15    1.10    0.30
  -1   2 -15    0.60    0.30
  -1   2 -15    0.80    0.30
  -1   2 -15    0.40    0.20
   1  -2  15    1.00    0.20
   2   1 -15    9.30    0.40
   1   1 -15    0.20    0.10
   1   1 -15    0.10    0.20
   1   1 -15    0.70    0.30
  -1  -1  15    0.20    0.20
   0   1 -15    0.40    0.20
   0   1 -15    0.40    0.20
   0   1 -15    0.50    0.30
   0  -1  15    0.70    0.10
   0  -1  15    0.10    0.20
  -1   1 -15    0.70    0.20
  -1   1 -15    0.80    0.30
  -1   1 -15    0.50    0.20
   1  -1  15    0.80    0.20
  -2   1 -15    1.30    0.20
  -2   1 -15    0.90    0.30
  -2   1 -15    1.00    0.30
   2  -1  15    0.80    0.20
   2  -1  15    1.50    0.40
   2   0 -15    8.10    0.40
   2   0 -15    6.60    0.60
  -2   0  15    7.00    0.50
  -2   0  15    7.60    0.50
   1   0 -15    3.00    0.40
   1   0 -15    2.00    0.40
   1   0 -15    2.30    0.20
  -1   0  15    2.80    0.30
  -1   0  15    2.60    0.40
   0   0 -15   10.00    0.60
   0   0 -15   10.50    0.50
   0   0 -15   10.20    0.70
   0   0  15   10.50    0.40
   0   0  15   10.70    0.60
  -1   0 -15    0.70    0.20
  -1   0 -15    1.00    0.30
  -1   0 -15    0.60    0.20
   1   0  15    0.60    0.20
  -2   0 -15    3.40    0.50
  -2   0 -15    3.80    0.50
  -2   0 -15    3.90    0.30
   2   0  15    3.80    0.40
   2   0  15    4.50    0.60
  -3   0 -15    1.10    0.30
  -3   0 -15    1.10    0.30
  -3   0 -15    1.20    0.20
   3   0  15    1.30    0.30
   3   0  15    0.90    0.20
   2  -1 -15    9.30    0.40
   2  -1 -15   10.70    0.60
   2  -1 -15    9.30    0.60
  -2   1  15   10.00    0.60
  -2   1  15   10.20    0.60
   1  -1 -15   15.70    0.60
   1  -1 -15   14.80    0.80
   1  -1 -15   14.90    0.80
  -1   1  15   15.60    0.80
  -1   1  15   16.40    0.70
   0  -1 -15    7.80    0.60
   0  -1 -15    7.70    0.50
   0  -1 -15    8.30    0.40
   0   1  15    8.30    0.60
   0   1  15    7.90    0.40
  -1  -1 -15    9.40    0.70
  -1  -1 -15    8.60    0.40
  -1  -1 -15    9.60    0.60
   1   1  15    8.20    0.50
   1   1  15    8.00    0.70
  -2  -1 -15    0.20    0.20
  -2  -1 -15   -0.10    0.20
  -2  -1 -15    0.50    0.20
   2   1  15    0.00    0.10
   2   1  15   -0.10    0.20
  -3  -1 -15    4.30    0.50
  -3  -1 -15    5.10    0.40
  -3  -1 -15    4.10    0.50
   3   1  15    3.90    0.40
   3   1  15    4.40    0.60
   3  -2 -15   14.80    0.80
  -3   2  15   13.90    0.70
  -3   2  15   15.20    0.80
   2  -2 -15   19.30    0.60
   2  -2 -15   19.90    0.90
   2  -2 -15   19.10    0.90
  -2   2  15   17.80    0.90
   1  -2 -15    7.60    0.60
   1  -2 -15    7.40    0.40
   1  -2 -15    7.90    0.60
  -1   2  15    7.50    0.50
   0  -2 -15    4.30    0.50
   0  -2 -15    4.00    0.30
   0  -2 -15    4.00    0.50
   0   2  15    5.00    0.40
   0   2  15    5.10    0.30
  -1  -2 -15    9.10    0.60
  -1  -2 -15    8.20    0.40
  -1  -2 -15    9.00    0.60
   1   2  15    8.30    0.50
   1   2  15    8.90    0.70
  -2  -2 -15    1.30    0.30
  -2  -2 -15    0.60    0.30
  -2  -2 -15    0.60    0.20
   2   2  15    1.30    0.40
   2   2  15    0.80    0.20
  -3  -2 -15   22.70    1.10
  -3  -2 -15   26.60    0.80
  -3  -2 -15   24.50    1.10
   3   2  15   24.30    0.90
   3   2  15   26.50    1.20
   3  -3 -15   16.70    0.80
  -3   3  15   18.40    0.90
   2  -3 -15    0.00    0.20
   2  -3 -15    0.30    0.20
   2  -3 -15    0.30    0.10
  -2   3  15    0.40    0.20
   1  -3 -15    6.90    0.50
   1  -3 -15    7.30    0.40
   1  -3 -15    6.40    0.50
  -1   3  15    6.30    0.50
   0  -3 -15   14.30    0.80
   0  -3 -15   15.10    0.80
   0  -3 -15   14.80    0.60
   0   3  15   14.40    0.60
   0   3  15   13.70    0.70
  -1  -3 -15    1.40    0.30
  -1  -3 -15    1.50    0.20
  -1  -3 -15    1.90    0.30
   1   3  15    1.60    0.20
   1   3  15    1.80    0.40
  -2  -3 -15    0.00    0.10
  -2  -3 -15    0.20    0.20
  -2  -3 -15    0.20    0.20
   2   3  15    0.10    0.30
   2   3  15   -0.10    0.10
  -3  -3 -15    5.20    0.30
  -3  -3 -15    4.20    0.50
  -3  -3 -15    5.60    0.60
   3   3  15    4.80    0.40
   3   3  15    3.90    0.60
   3   3  15    5.00    0.30
  -4  -3 -15   28.40    1.20
  -4  -3 -15   28.30    1.20
   4   3  15   30.90    1.40
   4   3  15   29.10    0.90
   4   3  15   30.40    1.10
   4   3  15   27.90    1.10
   3  -4 -15    3.70    0.40
   3  -4 -15    4.20    0.30
  -3   4  15    4.00    0.50
   2  -4 -15    2.30    0.40
   2  -4 -15    2.30    0.20
   2  -4 -15    2.60    0.40
  -2   4  15    2.20    0.30
   1  -4 -15    9.70    0.60
   1  -4 -15    8.30    0.40
   1  -4 -15    8.30    0.60
  -1   4  15    8.30    0.60
  -1   4  15    8.70    0.40
   0  -4 -15    0.20    0.20
   0  -4 -15    0.30    0.20
   0  -4 -15    0.50    0.10
   0   4  15    0.20    0.20
   0   4  15    0.50    0.20
  -1  -4 -15    0.10    0.20
  -1  -4 -15    0.10    0.10
  -1  -4 -15   -0.10    0.20
   1   4  15    0.10    0.10
   1   4  15    0.10    0.20
  -2  -4 -15    9.80    0.40
  -2  -4 -15   10.20    0.70
  -2  -4 -15    9.90    0.70
   2   4  15    9.60    0.80
   2   4  15    9.80    0.50
  -3  -4 -15   84.49    2.60
  -3  -4 -15   88.59    2.60
  -3  -4 -15   87.39    2.20
   3   4  15   89.09    2.40
   3   4  15   87.39    2.80
   3   4  15   88.89    2.20
   3   4  15   93.89    2.50
  -4  -4 -15    2.70    0.40
  -4  -4 -15    2.80    0.40
   4   4  15    3.10    0.50
   4   4  15    2.80    0.40
   4   4  15    2.50    0.30
   4   4  15    2.70    0.40
   3  -5 -15    6.40    0.30
   3  -5 -15    5.60    0.50
  -3   5  15    5.70    0.50
   2  -5 -15    0.40    0.20
   2  -5 -15    0.50    0.20
   2  -5 -15    0.10    0.10
  -2   5  15    0.30    0.20
   1  -5 -15    1.40    0.30
   1  -5 -15    0.80    0.30
   1  -5 -15    0.90    0.20
  -1   5  15    0.90    0.30
  -1   5  15    1.10    0.20
   0  -5 -15   10.20    0.70
   0  -5 -15    9.70    0.40
   0  -5 -15    9.40    0.60
   0   5  15   10.30    0.60
   0   5  15    9.40    0.50
   0   5  15    9.40    0.70
  -1  -5 -15    1.50    0.30
  -1  -5 -15    1.30    0.30
  -1  -5 -15    1.20    0.20
   1   5  15    1.20    0.40
   1   5  15    1.10    0.20
  -2  -5 -15   47.30    1.60
  -2  -5 -15   47.80    1.30
  -2  -5 -15   47.60    1.60
   2   5  15   46.50    1.50
   2   5  15   49.60    1.80
  -3  -5 -15   40.80    1.10
  -3  -5 -15   40.80    1.50
  -3  -5 -15   40.90    1.50
   3   5  15   40.20    1.70
   3   5  15   41.20    1.10
   3   5  15   40.20    1.40
   3   5  15   40.80    1.30
  -4  -5 -15    0.70    0.30
  -4  -5 -15    0.40    0.20
   4   5  15    0.60    0.30
   4   5  15    0.20    0.20
   4   5  15    0.40    0.20
   4   5  15    0.40    0.20
   3  -6 -15    8.60    0.40
   3  -6 -15    7.60    0.60
   3  -6 -15    6.80    0.60
  -3   6  15    7.80    0.60
   2  -6 -15    0.70    0.20
   2  -6 -15    0.60    0.10
   2  -6 -15    0.80    0.30
  -2   6  15    0.90    0.30
   1  -6 -15    3.70    0.30
   1  -6 -15    3.70    0.50
   1  -6 -15    4.50    0.50
  -1   6  15    3.70    0.50
  -1   6  15    3.70    0.30
   0  -6 -15    2.20    0.40
   0  -6 -15    2.20    0.20
   0  -6 -15    2.20    0.40
   0   6  15    2.40    0.30
   0   6  15    1.80    0.30
   0   6  15    2.80    0.50
  -1  -6 -15    0.90    0.20
  -1  -6 -15    0.80    0.30
  -1  -6 -15    0.80    0.30
   1   6  15    1.60    0.40
   1   6  15    1.10    0.20
  -2  -6 -15    0.20    0.20
  -2  -6 -15    0.40    0.20
  -2  -6 -15    0.00    0.10
   2   6  15   -0.10    0.10
   2   6  15    0.10    0.20
   2   6  15    0.20    0.30
  -3  -6 -15   -0.20    0.20
  -3  -6 -15    0.20    0.10
  -3  -6 -15   -0.10    0.20
   3   6  15    0.00    0.20
   3   6  15    0.00    0.20
   3   6  15   -0.20    0.10
   3   6  15   -0.10    0.30
  -4  -6 -15    6.50    0.50
  -4  -6 -15    5.40    0.50
   4   6  15    7.10    0.80
   4   6  15    5.80    0.40
   4   6  15    6.10    0.50
   4   6  15    5.70    0.50
   2  -7 -15    1.80    0.30
   2  -7 -15    2.80    0.40
   2  -7 -15    1.80    0.20
  -2   7  15    2.10    0.40
   1  -7 -15    3.00    0.40
   1  -7 -15    2.90    0.30
   1  -7 -15    3.10    0.40
  -1   7  15    3.40    0.50
  -1   7  15    2.70    0.30
   0  -7 -15    6.30    0.40
   0  -7 -15    7.30    0.60
   0  -7 -15    5.40    0.50
   0   7  15    6.40    0.70
   0   7  15    6.30    0.40
  -1  -7 -15    2.60    0.20
  -1  -7 -15    2.40    0.40
  -1  -7 -15    3.00    0.40
   1   7  15    2.70    0.50
   1   7  15    2.90    0.30
  -2  -7 -15   23.10    1.00
  -2  -7 -15   23.50    0.70
  -2  -7 -15   24.80    1.10
   2   7  15   21.90    0.90
   2   7  15   22.60    0.70
   2   7  15   24.60    1.30
  -3  -7 -15   26.50    1.10
  -3  -7 -15   22.90    1.00
   3   7  15   23.40    0.70
   3   7  15   24.50    1.00
   3   7  15   23.30    1.30
   3   7  15   26.00    1.00
  -4  -7 -15    5.70    0.50
  -4  -7 -15    5.60    0.60
   4   7  15    5.00    0.50
   4   7  15    5.80    0.50
   4   7  15    5.10    0.30
   4   7  15    6.50    0.80
   2  -8 -15    2.60    0.40
   2  -8 -15    2.80    0.30
   2  -8 -15    3.00    0.40
  -2   8  15    2.90    0.50
   1  -8 -15    2.10    0.20
   1  -8 -15    2.00    0.40
   1  -8 -15    1.10    0.30
  -1   8  15    2.10    0.40
  -1   8  15    2.20    0.30
   0  -8 -15    5.80    0.30
   0  -8 -15    6.30    0.60
   0  -8 -15    5.90    0.50
   0   8  15    6.10    0.40
   0   8  15    6.50    0.70
  -1  -8 -15    8.60    0.60
  -1  -8 -15    9.30    0.40
  -1  -8 -15    9.00    0.60
   1   8  15    8.70    0.50
   1   8  15   10.70    0.80
  -2  -8 -15   13.20    0.50
  -2  -8 -15   14.20    0.80
  -2  -8 -15   12.60    0.80
   2   8  15   14.50    1.00
   2   8  15   13.20    0.50
   2   8  15   13.10    0.70
  -3  -8 -15    0.10    0.20
  -3  -8 -15   -0.20    0.20
   3   8  15   -0.10    0.10
   3   8  15    0.10    0.10
   3   8  15   -0.30    0.10
   3   8  15   -0.10    0.30
  -4  -8 -15   11.90    0.70
  -4  -8 -15   13.00    0.70
   4   8  15   13.60    1.00
   4   8  15   13.60    0.50
   4   8  15   12.50    0.70
   4   8  15   13.50    0.80
   2  -9 -15    1.90    0.40
   2  -9 -15    2.20    0.30
   2  -9 -15    2.80    0.40
  -2   9  15    3.20    0.50
   1  -9 -15   18.90    0.70
   1  -9 -15   20.50    1.00
   1  -9 -15   19.10    0.90
  -1   9  15   18.50    0.70
   0  -9 -15    0.90    0.30
   0  -9 -15    0.50    0.20
   0  -9 -15    0.60    0.20
   0   9  15    0.40    0.30
   0   9  15    0.60    0.20
  -1  -9 -15    0.00    0.20
  -1  -9 -15    0.10    0.10
  -1  -9 -15    0.10    0.20
   1   9  15   -0.10    0.10
   1   9  15   -0.20    0.30
  -2  -9 -15   12.10    0.70
  -2  -9 -15    9.40    0.70
  -2  -9 -15   10.60    0.40
   2   9  15   11.80    0.60
   2   9  15    9.80    0.80
   2   9  15    9.60    0.90
   2   9  15   11.20    0.40
  -3  -9 -15    0.40    0.20
  -3  -9 -15    0.30    0.20
   3   9  15    0.40    0.10
   3   9  15    0.60    0.20
   3   9  15    0.30    0.30
   3   9  15    0.30    0.20
   1 -10 -15   26.10    1.20
   1 -10 -15   26.40    1.20
   1 -10 -15   25.90    0.90
  -1  10  15   27.80    1.00
   0 -10 -15    4.10    0.30
   0 -10 -15    3.50    0.50
   0 -10 -15    3.50    0.50
   0  10  15    3.00    0.40
   0  10  15    4.50    0.60
  -1 -10 -15   16.00    0.60
  -1 -10 -15   16.40    0.90
  -1 -10 -15   17.30    0.90
   1  10  15   15.90    1.10
   1  10  15   16.20    0.70
  -2 -10 -15    0.20    0.20
  -2 -10 -15    0.30    0.10
  -2 -10 -15    0.00    0.20
   2  10  15    0.20    0.10
   2  10  15   -0.20    0.30
   2  10  15    0.20    0.20
   2  10  15    0.50    0.20
  -3 -10 -15    2.00    0.40
  -3 -10 -15    2.30    0.40
   3  10  15    2.40    0.20
   3  10  15    2.40    0.40
   3  10  15    2.40    0.40
   3  10  15    2.70    0.50
   0 -11 -15    0.50    0.30
   0 -11 -15    0.30    0.20
   0 -11 -15    0.30    0.10
   0  11  15    0.40    0.20
   0  11  15    0.20    0.30
  -1 -11 -15    0.20    0.10
  -1 -11 -15    0.10    0.20
  -1 -11 -15    0.10    0.20
   1  11  15    0.00    0.20
   1  11  15   -0.40    0.30
  -2 -11 -15    1.00    0.30
  -2 -11 -15    1.30    0.30
   2  11  15    0.90    0.40
   2  11  15    1.20    0.40
   2  11  15    0.90    0.20
   2  11  15    1.10    0.20
   1  -1 -16    0.20    0.20
   1  -1 -16    0.10    0.20
   1  -1 -16    0.30    0.10
  -1   1  16   -0.10    0.20
  -1   1  16    0.30    0.20
   0  -1 -16    7.60    0.60
   0  -1 -16    9.30    0.60
   0  -1 -16    9.10    0.40
   0   1  16    8.70    0.40
   0   1  16    8.80    0.60
  -1  -1 -16    4.10    0.30
  -1  -1 -16    4.90    0.50
  -1  -1 -16    4.30    0.50
   1   1  16    4.70    0.40
   1  -2 -16    3.80    0.50
   1  -2 -16    4.70    0.30
   1  -2 -16    4.40    0.50
  -1   2  16    4.20    0.50
   0  -2 -16    3.20    0.30
   0  -2 -16    2.70    0.40
   0  -2 -16    3.40    0.40
   0   2  16    2.70    0.40
   0   2  16    3.30    0.30
  -1  -2 -16   17.70    0.90
  -1  -2 -16   18.50    0.90
  -1  -2 -16   17.90    0.70
   1   2  16   17.80    0.70
  -2  -2 -16   -0.10    0.20
  -2  -2 -16    0.40    0.20
  -2  -2 -16    0.10    0.20
   2   2  16    0.30    0.30
   2   2  16    0.00    0.10
   2  -3 -16    0.80    0.20
   1  -3 -16    7.50    0.60
   1  -3 -16    8.40    0.60
   1  -3 -16    7.50    0.40
  -1   3  16    7.80    0.60
   0  -3 -16    9.20    0.60
   0  -3 -16    8.20    0.40
   0  -3 -16    9.10    0.70
   0   3  16    9.00    0.40
   0   3  16    8.00    0.60
  -1  -3 -16    2.00    0.40
  -1  -3 -16    1.90    0.20
  -1  -3 -16    2.10    0.40
   1   3  16    1.40    0.40
   1   3  16    2.60    0.30
  -2  -3 -16    1.40    0.20
  -2  -3 -16    1.10    0.30
  -2  -3 -16    1.00    0.30
   2   3  16    1.10    0.20
   2   3  16    0.80    0.30
   2  -4 -16    0.20    0.10
   2  -4 -16    0.00    0.20
   2  -4 -16   -0.10    0.20
  -2   4  16    0.00    0.20
   1  -4 -16    7.20    0.60
   1  -4 -16    8.30    0.60
   1  -4 -16    7.90    0.40
  -1   4  16    7.20    0.60
   0  -4 -16    2.50    0.40
   0  -4 -16    1.80    0.30
   0  -4 -16    1.90    0.20
   0   4  16    2.40    0.30
   0   4  16    2.30    0.40
  -1  -4 -16    3.10    0.50
  -1  -4 -16    2.50    0.30
  -1  -4 -16    2.90    0.40
   1   4  16    2.80    0.30
   1   4  16    4.20    0.60
  -2  -4 -16    1.60    0.30
  -2  -4 -16    1.90    0.40
  -2  -4 -16    1.10    0.20
   2   4  16    1.00    0.20
   2   4  16    1.20    0.40
  -3  -4 -16    0.30    0.10
  -3  -4 -16   -0.20    0.20
  -3  -4 -16    0.00    0.20
   3   4  16    0.20    0.30
   3   4  16    0.10    0.20
   2  -5 -16    3.00    0.30
   2  -5 -16    3.30    0.40
   2  -5 -16    2.80    0.40
  -2   5  16    2.80    0.40
   1  -5 -16    0.40    0.10
   1  -5 -16    0.40    0.20
   1  -5 -16    0.20    0.20
  -1   5  16    0.30    0.20
   0  -5 -16    0.00    0.10
   0  -5 -16    0.00    0.20
   0  -5 -16    0.20    0.20
   0   5  16    0.10    0.10
  -1  -5 -16    5.70    0.60
  -1  -5 -16    6.20    0.60
  -1  -5 -16    6.50    0.40
   1   5  16    6.00    0.40
   1   5  16    6.70    0.70
  -2  -5 -16   31.60    1.30
  -2  -5 -16   31.20    0.90
  -2  -5 -16   31.30    1.30
   2   5  16   33.00    1.50
   2   5  16   28.90    1.10
  -3  -5 -16    2.70    0.20
  -3  -5 -16    1.90    0.40
  -3  -5 -16    2.10    0.40
   3   5  16    2.60    0.20
   3   5  16    2.60    0.30
   3   5  16    2.50    0.50
   2  -6 -16    0.70    0.20
  -2   6  16    0.50    0.20
   1  -6 -16    1.10    0.20
   1  -6 -16    1.20    0.30
   1  -6 -16    1.80    0.40
  -1   6  16    0.80    0.20
  -1   6  16    1.10    0.20
   0  -6 -16    0.10    0.10
   0  -6 -16   -0.10    0.20
   0  -6 -16    0.20    0.20
   0   6  16    0.00    0.10
  -1  -6 -16    0.40    0.20
  -1  -6 -16    0.30    0.20
  -1  -6 -16    0.30    0.30
   1   6  16    0.40    0.30
   1   6  16    0.10    0.10
  -2  -6 -16    3.30    0.50
  -2  -6 -16    3.50    0.50
  -2  -6 -16    3.40    0.30
   2   6  16    3.20    0.40
   2   6  16    2.90    0.60
  -3  -6 -16    0.20    0.20
  -3  -6 -16    0.00    0.20
  -3  -6 -16    0.40    0.10
   3   6  16    0.30    0.30
   3   6  16    0.50    0.20
   3   6  16    0.30    0.10
   1  -7 -16    0.40    0.20
   1  -7 -16    0.80    0.30
   1  -7 -16    0.50    0.20
  -1   7  16    0.60    0.20
  -1   7  16    0.70    0.20
   0  -7 -16    0.10    0.20
   0  -7 -16    0.20    0.10
   0  -7 -16    0.00    0.20
   0   7  16   -0.10    0.10
  -1  -7 -16    7.80    0.60
  -1  -7 -16    9.00    0.70
  -1  -7 -16    8.80    0.40
   1   7  16    8.80    0.50
   1   7  16    8.90    0.80
  -2  -7 -16    2.20    0.40
  -2  -7 -16    3.50    0.50
  -2  -7 -16    3.60    0.30
   2   7  16    3.20    0.40
   2   7  16    3.90    0.60
  -3  -7 -16   -0.10    0.20
  -3  -7 -16    0.10    0.20
   3   7  16    0.40    0.20
   3   7  16    0.30    0.10
   3   7  16    0.30    0.30
   1  -8 -16    3.90    0.30
   1  -8 -16    4.80    0.60
   1  -8 -16    4.30    0.50
  -1   8  16    4.30    0.30
   0  -8 -16    0.10    0.10
   0  -8 -16   -0.20    0.20
   0  -8 -16    0.20    0.20
   0   8  16   -0.10    0.10
   0   8  16   -0.20    0.30
  -1  -8 -16    0.70    0.30
  -1  -8 -16    0.50    0.20
  -1  -8 -16    0.40    0.30
   1   8  16    0.70    0.40
   1   8  16    0.50    0.20
  -2  -8 -16    1.00    0.30
  -2  -8 -16    1.00    0.30
  -2  -8 -16    0.50    0.20
   2   8  16    0.80    0.20
   2   8  16    0.20    0.30
   0  -9 -16    1.30    0.30
   0  -9 -16    0.90    0.20
   0  -9 -16    0.50    0.30
   0   9  16    0.70    0.20
   0   9  16    1.00    0.40
  -1  -9 -16   -0.10    0.20
  -1  -9 -16   -0.10    0.20
  -1  -9 -16    0.20    0.10
   1   9  16   -0.10    0.10
   1   9  16    0.10    0.30
  -2  -9 -16    5.10    0.30
  -2  -9 -16    5.60    0.60
  -2  -9 -16    4.90    0.60
   2   9  16    4.00    0.40
   2   9  16    5.10    0.70
  -1 -10 -16   23.20    1.10
  -1 -10 -16   24.40    1.10
  -1 -10 -16   24.40    0.80
   1  10  16   23.00    1.00
   1  10  16   28.00    1.50
   0   0   0    0.00    0.00

_computing_structure_solution     'SHELXT 2014/5 (Sheldrick, 2014)'
;
_shelx_hkl_checksum              529
loop_
_space_group_symop_operation_xyz
'x, y, z'
'-x, -y, -z'
loop_
_atom_site_label
_atom_site_type_symbol
_atom_site_fract_x
_atom_site_fract_y
_atom_site_fract_z
_atom_site_U_iso_or_equiv
_atom_site_adp_type
_atom_site_occupancy
_atom_site_site_symmetry_order
_atom_site_calc_flag
_atom_site_refinement_flags_posn
_atom_site_refinement_flags_adp
_atom_site_refinement_flags_occupancy
_atom_site_disorder_assembly
_atom_site_disorder_group
O1 O 0.07152(13) 0.31533(7) 0.05096(7) 0.0235(2) Uani 1 1 d . . . . .
O2 O 0.00874(14) 0.55005(8) 0.29122(7) 0.0262(2) Uani 1 1 d . . . . .
O3 O -0.25473(14) 0.54419(8) 0.41506(7) 0.0254(2) Uani 1 1 d . . . . .
H3 H -0.179(3) 0.6018(15) 0.4250(14) 0.038 Uiso 1 1 d . U . . .
O4 O -0.73391(15) 0.13529(8) 0.29548(8) 0.0318(2) Uani 1 1 d . . . . .
H4 H -0.832(17) 0.096(9) 0.267(9) 0.048 Uiso 0.177(3) 1 d . U P . .
O5 O -0.48686(15) 0.13643(9) 0.16398(8) 0.0349(2) Uani 1 1 d . . . . .
H5 H -0.570(4) 0.087(2) 0.152(2) 0.052 Uiso 0.823(3) 1 d . U P . .
N1 N 0.01873(15) 0.41185(8) 0.17410(8) 0.0167(2) Uani 1 1 d . . . . .
H1 H 0.071(2) 0.4610(13) 0.1953(12) 0.025 Uiso 1 1 d . U . . .
C1 C 0.12391(17) 0.38454(9) 0.08946(9) 0.0155(2) Uani 1 1 d . . . . .
C2 C 0.31673(17) 0.44704(9) 0.04489(9) 0.0149(2) Uani 1 1 d . . . . .
C3 C 0.37690(18) 0.53348(9) 0.07875(9) 0.0177(2) Uani 1 1 d . . . . .
H3A H 0.292988 0.556851 0.132594 0.021 Uiso 1 1 calc R U . . .
C4 C 0.55795(18) 0.58539(9) 0.03444(9) 0.0175(2) Uani 1 1 d . . . . .
H4A H 0.597404 0.643980 0.058441 0.021 Uiso 1 1 calc R U . . .
C5 C -0.16798(17) 0.37343(9) 0.23086(9) 0.0157(2) Uani 1 1 d . . . . .
C6 C -0.25833(17) 0.42331(9) 0.30962(9) 0.0171(2) Uani 1 1 d . . . . .
C7 C -0.45041(18) 0.38967(10) 0.36338(9) 0.0187(2) Uani 1 1 d . . . . .
H7 H -0.511944 0.423909 0.415260 0.022 Uiso 1 1 calc R U . . .
C8 C -0.55241(18) 0.30778(10) 0.34263(9) 0.0188(2) Uani 1 1 d . . . . .
H8 H -0.683477 0.286361 0.379152 0.023 Uiso 1 1 calc R U . . .
C9 C -0.45988(17) 0.25704(9) 0.26721(9) 0.0172(2) Uani 1 1 d . . . . .
C10 C -0.26974(17) 0.28920(9) 0.21170(9) 0.0165(2) Uani 1 1 d . . . . .
H10 H -0.209084 0.253675 0.160615 0.020 Uiso 1 1 calc R U . . .
C11 C -0.15453(18) 0.51119(10) 0.33658(9) 0.0185(2) Uani 1 1 d . . . . .
C12 C -0.57162(18) 0.16912(10) 0.24390(9) 0.0200(2) Uani 1 1 d . . . . .
N2 N 0.20758(16) 0.79994(8) 0.42063(8) 0.0211(2) Uani 1 1 d . . . . .
O6 O -0.07379(13) 0.69583(7) 0.45603(7) 0.0249(2) Uani 1 1 d . . . . .
C13 C 0.10743(19) 0.71541(10) 0.41566(9) 0.0210(2) Uani 1 1 d . . . . .
H13 H 0.177942 0.666149 0.378904 0.025 Uiso 1 1 calc R U . . .
C14 C 0.4211(2) 0.81690(12) 0.37334(11) 0.0283(3) Uani 1 1 d . . . . .
H14A H 0.467068 0.760043 0.337149 0.043 Uiso 1 1 calc R U . . .
H14B H 0.519063 0.808134 0.431203 0.043 Uiso 1 1 calc R U . . .
H14C H 0.420801 0.893940 0.319874 0.043 Uiso 1 1 calc R U . . .
C15 C 0.1113(2) 0.87744(11) 0.47779(11) 0.0303(3) Uani 1 1 d . . . . .
H15A H 0.116729 0.956748 0.430058 0.045 Uiso 1 1 calc R U . . .
H15B H 0.189476 0.864388 0.543916 0.045 Uiso 1 1 calc R U . . .
H15C H -0.037009 0.863263 0.497812 0.045 Uiso 1 1 calc R U . . .
N3 N -0.95762(17) -0.10421(9) 0.12796(9) 0.0260(2) Uani 1 1 d . . . . .
C16 C -0.8707(2) -0.01962(11) 0.14169(11) 0.0287(3) Uani 1 1 d D . . . .
O7 O -0.68670(19) -0.00079(10) 0.11095(11) 0.0318(4) Uani 0.823(3) 1 d . . P A
1
H16 H -0.958(4) 0.0279(17) 0.1766(9) 0.048 Uiso 0.823(3) 1 d D U P A 1
O8 O -0.9545(8) 0.0175(4) 0.2204(4) 0.0242(14) Uani 0.177(3) 1 d . . P A 2
H17 H -0.755(3) 0.019(7) 0.102(7) 0.036 Uiso 0.177(3) 1 d D U P A 2
C17 C -1.1755(2) -0.12546(16) 0.16333(14) 0.0473(4) Uani 1 1 d . . . . .
H17A H -1.255806 -0.122977 0.100820 0.071 Uiso 1 1 calc R U . . .
H17B H -1.241058 -0.066694 0.193782 0.071 Uiso 1 1 calc R U . . .
H17C H -1.176673 -0.201024 0.219225 0.071 Uiso 1 1 calc R U . . .
C18 C -0.8343(3) -0.18379(14) 0.08227(15) 0.0455(4) Uani 1 1 d . . . . .
H18A H -0.925567 -0.208240 0.038447 0.068 Uiso 1 1 calc R U . . .
H18B H -0.775923 -0.250637 0.141408 0.068 Uiso 1 1 calc R U . . .
H18C H -0.717807 -0.146539 0.035929 0.068 Uiso 1 1 calc R U . . .
loop_
_atom_site_aniso_label
_atom_site_aniso_U_11
_atom_site_aniso_U_22
_atom_site_aniso_U_33
_atom_site_aniso_U_23
_atom_site_aniso_U_13
_atom_site_aniso_U_12
O1 0.0214(4) 0.0300(4) 0.0267(4) -0.0184(4) 0.0084(3) -0.0114(3)
O2 0.0271(5) 0.0318(5) 0.0282(5) -0.0195(4) 0.0130(4) -0.0156(4)
O3 0.0249(4) 0.0313(5) 0.0284(5) -0.0206(4) 0.0121(4) -0.0117(4)
O4 0.0312(5) 0.0371(5) 0.0342(5) -0.0174(4) 0.0128(4) -0.0217(4)
O5 0.0300(5) 0.0490(6) 0.0407(6) -0.0315(5) 0.0111(4) -0.0196(4)
N1 0.0156(5) 0.0195(5) 0.0182(5) -0.0097(4) 0.0043(4) -0.0070(4)
C1 0.0137(5) 0.0170(5) 0.0160(5) -0.0057(4) 0.0006(4) -0.0016(4)
C2 0.0134(5) 0.0162(5) 0.0144(5) -0.0042(4) 0.0001(4) -0.0016(4)
C3 0.0178(5) 0.0198(5) 0.0176(5) -0.0096(4) 0.0052(4) -0.0033(4)
C4 0.0191(5) 0.0186(5) 0.0179(5) -0.0095(4) 0.0022(4) -0.0045(4)
C5 0.0142(5) 0.0175(5) 0.0143(5) -0.0039(4) 0.0018(4) -0.0024(4)
C6 0.0174(5) 0.0179(5) 0.0160(5) -0.0054(4) 0.0012(4) -0.0032(4)
C7 0.0184(5) 0.0219(5) 0.0157(5) -0.0068(4) 0.0037(4) -0.0029(4)
C8 0.0152(5) 0.0226(6) 0.0168(5) -0.0038(4) 0.0039(4) -0.0055(4)
C9 0.0171(5) 0.0173(5) 0.0156(5) -0.0027(4) -0.0003(4) -0.0035(4)
C10 0.0169(5) 0.0175(5) 0.0153(5) -0.0055(4) 0.0015(4) -0.0031(4)
C11 0.0188(5) 0.0204(5) 0.0171(5) -0.0077(4) 0.0037(4) -0.0033(4)
C12 0.0201(6) 0.0187(5) 0.0195(5) -0.0029(4) -0.0001(4) -0.0056(4)
N2 0.0206(5) 0.0226(5) 0.0204(5) -0.0075(4) 0.0031(4) -0.0044(4)
O6 0.0229(4) 0.0291(5) 0.0291(5) -0.0175(4) 0.0070(3) -0.0084(3)
C13 0.0222(6) 0.0232(6) 0.0193(5) -0.0099(4) 0.0021(4) -0.0021(4)
C14 0.0216(6) 0.0323(7) 0.0278(6) -0.0049(5) 0.0042(5) -0.0074(5)
C15 0.0341(7) 0.0270(6) 0.0357(7) -0.0178(6) 0.0067(6) -0.0088(5)
N3 0.0270(6) 0.0272(5) 0.0245(5) -0.0079(4) -0.0023(4) -0.0059(4)
C16 0.0315(7) 0.0258(6) 0.0318(7) -0.0143(5) 0.0042(5) -0.0041(5)
O7 0.0334(7) 0.0328(7) 0.0368(7) -0.0187(5) 0.0004(5) -0.0122(5)
O8 0.024(3) 0.025(3) 0.028(3) -0.014(2) 0.002(2) -0.0072(19)
C17 0.0322(8) 0.0576(10) 0.0440(9) -0.0004(8) -0.0018(7) -0.0197(7)
C18 0.0496(9) 0.0434(9) 0.0588(10) -0.0361(8) -0.0074(8) -0.0040(7)
loop_
_atom_type_symbol
_atom_type_description
_atom_type_scat_dispersion_real
_atom_type_scat_dispersion_imag
_atom_type_scat_source
C C 0.0033 0.0016 'International Tables Vol C Tables 4.2.6.8 and 6.1.1.4'
H H 0.0000 0.0000 'International Tables Vol C Tables 4.2.6.8 and 6.1.1.4'
N N 0.0061 0.0033 'International Tables Vol C Tables 4.2.6.8 and 6.1.1.4'
O O 0.0106 0.0060 'International Tables Vol C Tables 4.2.6.8 and 6.1.1.4'
loop_
_geom_angle_atom_site_label_1
_geom_angle_atom_site_label_2
_geom_angle_atom_site_label_3
_geom_angle
_geom_angle_site_symmetry_1
_geom_angle_site_symmetry_3
C11 O3 H3 107.6(10) . .
C12 O4 H4 121(6) . .
C12 O5 H5 108.7(15) . .
C1 N1 C5 129.27(10) . .
C1 N1 H1 116.6(10) . .
C5 N1 H1 114.1(10) . .
O1 C1 N1 124.43(10) . .
O1 C1 C2 120.95(10) . .
N1 C1 C2 114.62(9) . .
C4 C2 C3 118.68(10) 2_665 .
C4 C2 C1 117.11(10) 2_665 .
C3 C2 C1 124.21(10) . .
C4 C3 C2 120.42(10) . .
C4 C3 H3A 119.8 . .
C2 C3 H3A 119.8 . .
C3 C4 C2 120.90(10) . 2_665
C3 C4 H4A 119.5 . .
C2 C4 H4A 119.5 2_665 .
C10 C5 N1 122.39(10) . .
C10 C5 C6 119.00(10) . .
N1 C5 C6 118.61(10) . .
C7 C6 C5 119.30(10) . .
C7 C6 C11 118.90(10) . .
C5 C6 C11 121.81(10) . .
C8 C7 C6 121.43(10) . .
C8 C7 H7 119.3 . .
C6 C7 H7 119.3 . .
C7 C8 C9 118.93(10) . .
C7 C8 H8 120.5 . .
C9 C8 H8 120.5 . .
C10 C9 C8 121.07(10) . .
C10 C9 C12 119.99(10) . .
C8 C9 C12 118.92(10) . .
C9 C10 C5 120.24(10) . .
C9 C10 H10 119.9 . .
C5 C10 H10 119.9 . .
O2 C11 O3 122.16(10) . .
O2 C11 C6 124.15(10) . .
O3 C11 C6 113.69(10) . .
O4 C12 O5 124.27(11) . .
O4 C12 C9 121.20(11) . .
O5 C12 C9 114.50(10) . .
C13 N2 C14 121.57(10) . .
C13 N2 C15 120.92(10) . .
C14 N2 C15 117.46(10) . .
O6 C13 N2 124.32(11) . .
O6 C13 H13 117.8 . .
N2 C13 H13 117.8 . .
N2 C14 H14A 109.5 . .
N2 C14 H14B 109.5 . .
H14A C14 H14B 109.5 . .
N2 C14 H14C 109.5 . .
H14A C14 H14C 109.5 . .
H14B C14 H14C 109.5 . .
N2 C15 H15A 109.5 . .
N2 C15 H15B 109.5 . .
H15A C15 H15B 109.5 . .
N2 C15 H15C 109.5 . .
H15A C15 H15C 109.5 . .
H15B C15 H15C 109.5 . .
C16 N3 C18 120.63(12) . .
C16 N3 C17 121.98(13) . .
C18 N3 C17 117.30(13) . .
O7 C16 N3 122.13(13) . .
O8 C16 N3 116.2(3) . .
O7 C16 H16 120.9(17) . .
N3 C16 H16 117.0(17) . .
O8 C16 H17 115(8) . .
N3 C16 H17 129(8) . .
N3 C17 H17A 109.5 . .
N3 C17 H17B 109.5 . .
H17A C17 H17B 109.5 . .
N3 C17 H17C 109.5 . .
H17A C17 H17C 109.5 . .
H17B C17 H17C 109.5 . .
N3 C18 H18A 109.5 . .
N3 C18 H18B 109.5 . .
H18A C18 H18B 109.5 . .
N3 C18 H18C 109.5 . .
H18A C18 H18C 109.5 . .
H18B C18 H18C 109.5 . .
loop_
_geom_bond_atom_site_label_1
_geom_bond_atom_site_label_2
_geom_bond_distance
_geom_bond_site_symmetry_2
O1 C1 1.2205(14) .
O2 C11 1.2258(14) .
O3 C11 1.3177(14) .
O3 H3 0.959(18) .
O4 C12 1.2282(15) .
O4 H4 1.00(11) .
O5 C12 1.2972(15) .
O5 H5 0.91(3) .
N1 C1 1.3640(14) .
N1 C5 1.3992(14) .
N1 H1 0.858(16) .
C1 C2 1.5081(15) .
C2 C4 1.3929(15) 2_665
C2 C3 1.3944(15) .
C3 C4 1.3828(16) .
C3 H3A 0.9500 .
C4 H4A 0.9500 .
C5 C10 1.3959(15) .
C5 C6 1.4198(15) .
C6 C7 1.3998(15) .
C6 C11 1.4923(15) .
C7 C8 1.3812(16) .
C7 H7 0.9500 .
C8 C9 1.3946(16) .
C8 H8 0.9500 .
C9 C10 1.3928(15) .
C9 C12 1.4976(15) .
C10 H10 0.9500 .
N2 C13 1.3180(16) .
N2 C14 1.4574(15) .
N2 C15 1.4580(16) .
O6 C13 1.2472(15) .
C13 H13 0.9500 .
C14 H14A 0.9800 .
C14 H14B 0.9800 .
C14 H14C 0.9800 .
C15 H15A 0.9800 .
C15 H15B 0.9800 .
C15 H15C 0.9800 .
N3 C16 1.3165(17) .
N3 C18 1.4431(18) .
N3 C17 1.4535(18) .
C16 O7 1.2316(18) .
C16 O8 1.311(5) .
C16 H16 0.962(17) .
C16 H17 0.95(2) .
C17 H17A 0.9800 .
C17 H17B 0.9800 .
C17 H17C 0.9800 .
C18 H18A 0.9800 .
C18 H18B 0.9800 .
C18 H18C 0.9800 .
loop_
_geom_hbond_atom_site_label_D
_geom_hbond_atom_site_label_H
_geom_hbond_atom_site_label_A
_geom_hbond_distance_DH
_geom_hbond_distance_HA
_geom_hbond_distance_DA
_geom_hbond_angle_DHA
_geom_hbond_site_symmetry_A
_geom_hbond_publ_flag
O3 H3 O6 0.959(18) 1.592(18) 2.5451(12) 172.2(16) . yes
O4 H4 O8 1.00(11) 1.60(11) 2.595(5) 171(9) . yes
O5 H5 O7 0.91(3) 1.64(3) 2.5425(15) 169(2) . yes
N1 H1 O2 0.858(16) 1.920(16) 2.6459(13) 141.5(14) . yes
C10 H10 O1 0.95 2.24 2.8696(14) 122.5 . yes
C13 H13 O2 0.95 2.49 3.1552(14) 126.8 . yes
C15 H15A O4 0.98 2.57 3.5056(16) 159.7 1_665 yes
C15 H15A O8 0.98 2.63 3.248(5) 121.1 1_665 yes
C18 H18A O1 0.98 2.34 3.2930(17) 163.0 2_455 yes
