#------------------------------------------------------------------------------
#$Date: 2019-10-28 05:53:06 +0200 (Mon, 28 Oct 2019) $
#$Revision: 219789 $
#$URL: file:///home/coder/svn-repositories/cod/cif/4/51/46/4514604.cif $
#------------------------------------------------------------------------------
#
# This file is available in the Crystallography Open Database (COD),
# http://www.crystallography.net/
#
# All data on this site have been placed in the public domain by the
# contributors.
#
data_4514604
loop_
_publ_author_name
'Wei, Hongxia'
'Guo, Zhifen'
'Liang, Xiao'
'Chen, Peiqi'
'Liu, Hui'
'Xing, Hongzhu'
_publ_section_title
;
 Selective Photooxidation of Amines and Sulfides Triggered by a Superoxide
 Radical Using a Novel Visible-Light-Responsive Metal-Organic Framework.
;
_journal_issue                   3
_journal_name_full               'ACS applied materials &amp; interfaces'
_journal_page_first              3016
_journal_page_last               3023
_journal_paper_doi               10.1021/acsami.8b18206
_journal_volume                  11
_journal_year                    2019
_chemical_formula_sum            'C32 H16 In O5'
_chemical_formula_weight         595.27
_space_group_crystal_system      monoclinic
_space_group_IT_number           12
_space_group_name_Hall           '-C 2y'
_space_group_name_H-M_alt        'C 1 2/m 1'
_symmetry_space_group_name_Hall  '-C 2y'
_symmetry_space_group_name_H-M   'C 1 2/m 1'
_atom_sites_solution_hydrogens   geom
_audit_creation_method           SHELXL-2017/1
_cell_angle_alpha                90
_cell_angle_beta                 93.594(3)
_cell_angle_gamma                90
_cell_formula_units_Z            4
_cell_length_a                   7.2183(5)
_cell_length_b                   43.778(3)
_cell_length_c                   10.9651(8)
_cell_measurement_reflns_used    2820
_cell_measurement_temperature    296(2)
_cell_measurement_theta_max      21.05
_cell_measurement_theta_min      2.26
_cell_volume                     3458.2(4)
_computing_structure_refinement  'SHELXL-2017/1 (Sheldrick, 2017)'
_computing_structure_solution    'SHELXT 2014/5 (Sheldrick, 2014)'
_diffrn_ambient_temperature      296(2)
_diffrn_measured_fraction_theta_full 0.991
_diffrn_measured_fraction_theta_max 0.991
_diffrn_measurement_device_type  'Bruker APEX CCD'
_diffrn_measurement_method       '\w scans'
_diffrn_radiation_type           MoK\a
_diffrn_radiation_wavelength     0.71073
_diffrn_reflns_av_R_equivalents  0.0511
_diffrn_reflns_av_unetI/netI     0.0400
_diffrn_reflns_Laue_measured_fraction_full 0.991
_diffrn_reflns_Laue_measured_fraction_max 0.991
_diffrn_reflns_limit_h_max       8
_diffrn_reflns_limit_h_min       -8
_diffrn_reflns_limit_k_max       52
_diffrn_reflns_limit_k_min       -52
_diffrn_reflns_limit_l_max       13
_diffrn_reflns_limit_l_min       -13
_diffrn_reflns_number            8639
_diffrn_reflns_point_group_measured_fraction_full 0.991
_diffrn_reflns_point_group_measured_fraction_max 0.991
_diffrn_reflns_theta_full        25.415
_diffrn_reflns_theta_max         25.415
_diffrn_reflns_theta_min         2.792
_exptl_absorpt_coefficient_mu    0.714
_exptl_crystal_colour            red
_exptl_crystal_density_diffrn    1.143
_exptl_crystal_description       plate
_exptl_crystal_F_000             1188
_exptl_crystal_size_max          0.2
_exptl_crystal_size_mid          0.2
_exptl_crystal_size_min          0.15
_refine_diff_density_max         0.668
_refine_diff_density_min         -0.290
_refine_diff_density_rms         0.062
_refine_ls_extinction_method     none
_refine_ls_goodness_of_fit_ref   1.092
_refine_ls_hydrogen_treatment    constr
_refine_ls_matrix_type           full
_refine_ls_number_parameters     177
_refine_ls_number_reflns         1838
_refine_ls_number_restraints     0
_refine_ls_restrained_S_all      1.092
_refine_ls_R_factor_all          0.0350
_refine_ls_R_factor_gt           0.0283
_refine_ls_shift/su_max          0.000
_refine_ls_shift/su_mean         0.000
_refine_ls_structure_factor_coef Fsqd
_refine_ls_weighting_details
'w=1/[\s^2^(Fo^2^)+14.3524P] where P=(Fo^2^+2Fc^2^)/3'
_refine_ls_weighting_scheme      calc
_refine_ls_wR_factor_gt          0.0685
_refine_ls_wR_factor_ref         0.0715
_reflns_Friedel_coverage         0.000
_reflns_number_gt                1524
_reflns_number_total             3252
_reflns_threshold_expression     'I > 2\s(I)'
_cod_data_source_file            am8b18206_si_002.cif
_cod_data_source_block           1
_cod_database_code               4514604
_shelx_shelxl_version_number     2017/1
_shelx_space_group_comment
;
The symmetry employed for this shelxl refinement is uniquely defined
by the following loop, which should always be used as a source of
symmetry information in preference to the above space-group names.
They are only intended as comments.
;
_shelx_res_file
;
CELL  0.71073   7.2183  43.7781  10.9651   90.000   93.594   90.000
ZERR   30.000   0.0005   0.0030   0.0008    0.000    0.003    0.000
LATT  7
SYMM -X, Y, -Z
SFAC C H N O IN
UNIT 30 30 30 30 30
LIST 6
TEMP 23.460
L.S. 5 0   36
BOND $H
acta
FMAP 2
PLAN 80
ABIN
ACTA
WGHT    0.000000   14.352400
FVAR       0.27902
IN1   6    0.000000    0.500000    0.500000    10.25000    0.01099    0.01153 =
         0.02856    0.00000    0.00410    0.00000
IN2   6    0.500000    0.500000    0.500000    10.25000    0.01172    0.01228 =
         0.02464    0.00000    0.00178    0.00000
O1    4    0.608542    0.535852    0.618957    11.00000    0.02826    0.05039 =
         0.08547   -0.04346    0.01597   -0.01085
O2    4    0.916523    0.535772    0.621361    11.00000    0.02718    0.03657 =
         0.06462   -0.02805    0.00720    0.00040
O3    4    0.258613    0.500000    0.594561    10.50000    0.01448    0.04091 =
         0.03220    0.00000    0.00313    0.00000
C1    1    0.763139    0.547404    0.646334    11.00000    0.02490    0.02686 =
         0.05079   -0.01334    0.00584   -0.00456
C2    1    0.767635    0.576254    0.714968    11.00000    0.02155    0.02968 =
         0.07943   -0.02787    0.00311    0.00214
C3    1    0.608653    0.592253    0.728661    11.00000    0.02997    0.06283 =
         0.15615   -0.06881   -0.01119    0.00371
AFIX  43
H3    2    0.495975    0.584448    0.696773    11.00000   -1.20000
AFIX   0
C4    1    0.612350    0.620110    0.789672    11.00000    0.03983    0.07178 =
         0.18327   -0.08337   -0.02287    0.02015
AFIX  43
H4    2    0.501845    0.630493    0.799397    11.00000   -1.20000
AFIX   0
C5    1    0.774959    0.632354    0.835216    11.00000    0.05056    0.03516 =
         0.10826   -0.04391   -0.01013    0.00997
C6    1    0.937538    0.616054    0.823680    11.00000    0.03860    0.05216 =
         0.13767   -0.04909   -0.01594    0.00019
AFIX  43
H6    2    1.050246    0.623883    0.855407    11.00000   -1.20000
AFIX   0
C7    1    0.931548    0.588316    0.765256    11.00000    0.03113    0.04636 =
         0.12484   -0.05169   -0.00194    0.00845
AFIX  43
H7    2    1.041015    0.577358    0.759426    11.00000   -1.20000
AFIX   0
C8    1    0.778334    0.662685    0.888786    11.00000    0.04782    0.04416 =
         0.11249   -0.03245   -0.01026    0.00962
C9    1    0.773003    0.688054    0.923788    11.00000    0.03617    0.03967 =
         0.11274   -0.03983   -0.01101    0.00468
C10   1    0.763095    0.719492    0.964291    11.00000    0.02343    0.03583 =
         0.07924   -0.02570    0.00054    0.00067
C11   1    0.793766    0.742337    0.879793    11.00000    0.02174    0.03720 =
         0.08965   -0.02601   -0.00098    0.00184
C12   1    0.837604    0.736410    0.757079    11.00000    0.04220    0.08398 =
         0.08800   -0.04317    0.00259    0.00205
AFIX  43
H12   2    0.845318    0.716273    0.730861    11.00000   -1.20000
AFIX   0
C13   1    0.868383    0.759279    0.677467    11.00000    0.05907    0.13493 =
         0.07931   -0.01699    0.01166   -0.00249
AFIX  43
H13   2    0.897970    0.754452    0.598412    11.00000   -1.20000
AFIX   0
C14   1    0.856779    0.789579    0.711151    11.00000    0.06215    0.11037 =
         0.09620    0.01282    0.00131   -0.01569
AFIX  43
H14   2    0.878495    0.805003    0.655494    11.00000   -1.20000
AFIX   0
C15   1    0.812980    0.796614    0.827307    11.00000    0.04416    0.05370 =
         0.11752   -0.01066   -0.00116    0.00054
AFIX  43
H15   2    0.804426    0.817034    0.849660    11.00000   -1.20000
AFIX   0
C16   1    0.780667    0.774026    0.913489    11.00000    0.02359    0.04084 =
         0.08046   -0.01714   -0.00042    0.00061
HKLF 4




REM
REM R1 =  0.0283 for    1524 Fo > 4sig(Fo)  and  0.0350 for all    1838 data
REM    177 parameters refined using      0 restraints

END

WGHT      0.0000     14.3524

REM Highest difference peak  0.668,  deepest hole -0.290,  1-sigma level  0.062
Q1    1   0.0242  0.5000  0.6140  10.50000  0.05    0.67
Q2    1   0.2424  0.4908  0.6668  11.00000  0.05    0.34
Q3    1   0.2549  0.5000  0.6837  10.50000  0.05    0.34
Q4    1   0.5054  0.5000  0.6120  10.50000  0.05    0.34
Q5    1   0.2814  0.5000  0.5620  10.50000  0.05    0.29
Q6    1   0.6293  0.5000  0.5749  10.50000  0.05    0.26
Q7    1   0.7749  0.5779  0.6065  11.00000  0.05    0.20
Q8    1   0.5168  0.5869  0.6449  11.00000  0.05    0.19
Q9    1   0.7689  0.6803  0.8225  11.00000  0.05    0.19
Q10   1   1.0031  0.5503  0.6248  11.00000  0.05    0.18
Q11   1   1.0045  0.8192  0.8179  11.00000  0.05    0.18
Q12   1   1.0000  0.6577  1.0000  10.50000  0.05    0.18
Q13   1   0.7412  0.6361  0.7360  11.00000  0.05    0.18
Q14   1   0.8467  0.5917  0.6781  11.00000  0.05    0.17
Q15   1   0.7484  0.8021  0.7977  11.00000  0.05    0.16
Q16   1   0.1793  0.5000  0.4249  10.50000  0.05    0.16
Q17   1   0.5778  0.5332  0.5492  11.00000  0.05    0.16
Q18   1   0.6748  0.5218  0.6634  11.00000  0.05    0.16
Q19   1   0.9199  0.5374  0.5278  11.00000  0.05    0.16
Q20   1   0.7389  0.6487  0.8581  11.00000  0.05    0.16
Q21   1   0.8941  0.6218  0.7149  11.00000  0.05    0.16
Q22   1   0.6849  0.5452  0.5743  11.00000  0.05    0.16
Q23   1   0.8584  0.5155  0.7194  11.00000  0.05    0.16
Q24   1   0.8903  0.5975  0.6596  11.00000  0.05    0.16
Q25   1   1.1085  0.8076  0.7588  11.00000  0.05    0.15
Q26   1   0.6743  0.7215  0.9778  11.00000  0.05    0.15
Q27   1   0.5323  0.6388  0.7778  11.00000  0.05    0.15
Q28   1   0.5653  0.5495  0.6319  11.00000  0.05    0.14
Q29   1   0.7949  0.8053  0.6376  11.00000  0.05    0.14
Q30   1   0.7945  0.7145  1.0188  11.00000  0.05    0.14
Q31   1   0.1887  0.4553  0.5698  11.00000  0.05    0.13
Q32   1   0.7598  0.8002  0.6536  11.00000  0.05    0.13
Q33   1   0.5554  0.5215  0.7025  11.00000  0.05    0.13
Q34   1   0.8909  0.8090  0.9750  11.00000  0.05    0.13
Q35   1   0.4979  0.6262  0.8825  11.00000  0.05    0.13
Q36   1   0.3980  0.6591  0.7679  11.00000  0.05    0.13
Q37   1   0.8058  0.6586  0.9410  11.00000  0.05    0.12
Q38   1   1.0000  0.7590  1.0000  10.50000  0.05    0.12
Q39   1   1.0000  0.7261  1.0000  10.50000  0.05    0.12
Q40   1   0.5000  0.6230  1.0000  10.50000  0.05    0.12
Q41   1   0.7423  0.7224  0.6363  11.00000  0.05    0.12
Q42   1   0.2479  0.4625  0.6738  11.00000  0.05    0.12
Q43   1   1.0369  0.5666  0.8400  11.00000  0.05    0.11
Q44   1   1.0060  0.5829  0.6655  11.00000  0.05    0.11
Q45   1   0.7092  0.6722  0.9159  11.00000  0.05    0.11
Q46   1   0.6176  0.6098  0.7236  11.00000  0.05    0.11
Q47   1   0.8586  0.8203  0.8300  11.00000  0.05    0.11
Q48   1   0.8205  0.7481  0.8187  11.00000  0.05    0.11
Q49   1   0.5000  0.5860  0.5000  10.50000  0.05    0.10
Q50   1   0.7183  0.7796  0.8807  11.00000  0.05    0.10
Q51   1   0.7883  0.6289  0.9875  11.00000  0.05    0.10
Q52   1   0.5620  0.7814  0.8645  11.00000  0.05    0.10
Q53   1   0.7872  0.6800  1.0039  11.00000  0.05    0.10
Q54   1   0.8250  0.7795  0.7139  11.00000  0.05    0.10
Q55   1   0.6812  0.5000  0.7094  10.50000  0.05    0.10
Q56   1   0.6756  0.7461  0.5975  11.00000  0.05    0.10
Q57   1   0.8805  0.7919  0.7783  11.00000  0.05    0.10
Q58   1   0.3288  0.5526  0.5922  11.00000  0.05    0.10
Q59   1   0.7901  0.7698  0.5771  11.00000  0.05    0.10
Q60   1   0.9454  0.6973  1.0840  11.00000  0.05    0.10
Q61   1   0.8958  0.5302  0.6622  11.00000  0.05    0.10
Q62   1   0.6145  0.7315  0.7627  11.00000  0.05    0.09
Q63   1   1.0084  0.8206  0.9362  11.00000  0.05    0.09
Q64   1   0.6338  0.5297  0.7850  11.00000  0.05    0.09
Q65   1   1.0438  0.7825  0.5664  11.00000  0.05    0.09
Q66   1   0.8285  0.7291  0.9470  11.00000  0.05    0.09
Q67   1   0.7587  0.8408  0.9621  11.00000  0.05    0.09
Q68   1   0.7527  0.7424  0.7154  11.00000  0.05    0.09
Q69   1   0.6837  0.6134  0.8955  11.00000  0.05    0.09
Q70   1   0.3636  0.6297  0.8110  11.00000  0.05    0.09
Q71   1   0.7183  0.7407  0.8605  11.00000  0.05    0.09
Q72   1   0.6485  0.5769  0.8135  11.00000  0.05    0.09
Q73   1   0.7216  0.7615  0.6792  11.00000  0.05    0.08
Q74   1   1.0000  0.7030  1.0000  10.50000  0.05    0.08
Q75   1   0.7859  0.5676  0.7515  11.00000  0.05    0.08
Q76   1   0.8593  0.5403  0.6383  11.00000  0.05    0.08
Q77   1   0.7232  0.7178  0.9057  11.00000  0.05    0.08
Q78   1   1.0579  0.5815  0.8743  11.00000  0.05    0.08
Q79   1   0.8252  0.6308  0.8476  11.00000  0.05    0.08
Q80   1   0.5584  0.6702  0.9582  11.00000  0.05    0.08
;
_shelx_res_checksum              77609
_shelx_hkl_file
;
   2   0   0 1063.89   68.09
  -2   0   0 1093.99   68.19
  -4   0   0 2023.90  128.29
  -6   0   0   19.50   13.30
  -1  -1   0    0.50    1.10
  -1   1   0    0.40    1.00
  -3  -1   0  134.39   11.70
   3   1   0  117.99   11.30
  -3   1   0  121.19   11.50
  -5  -1   0   59.29   12.30
  -5   1   0   57.89   12.10
  -7  -1   0  153.38   23.80
  -7   1   0  124.59   21.50
  -2  -2   0 6320.97  387.96
   2   2   0 6183.48  387.96
  -2   2   0 6323.07  388.06
  -4  -2   0 1045.60   65.79
   4   2   0  977.80   65.49
  -4   2   0  983.60   65.69
  -6  -2   0  153.48   23.80
  -6   2   0  179.28   21.70
  -1  -3   0   40.80    3.70
  -3  -3   0    0.40    4.10
  -3   3   0    2.10    4.00
   3   3   0    5.50    4.20
  -5  -3   0   34.50   10.20
  -5   3   0   50.39   11.60
  -7  -3   0    7.00   14.60
  -7   3   0   -9.30   15.20
  -2  -4   0   11.90    3.50
   2   4   0   18.20    4.30
  -4  -4   0 1308.47   82.49
  -4   4   0 1278.17   82.69
   4   4   0 1246.38   82.39
  -6  -4   0  724.13   53.59
  -6   4   0  759.32   54.29
   1  -5   0  271.07   18.20
  -1  -5   0  296.77   19.00
  -1   5   0  286.57   18.20
  -1   5   0  273.67   18.20
  -3  -5   0   53.69    7.70
  -3   5   0   49.00    7.40
   3   5   0   51.09    7.40
  -5  -5   0   32.10   10.20
  -5   5   0   30.40   11.20
   5   5   0   24.80    9.00
  -7  -5   0    1.60   15.00
   0   6   0 1171.18   72.39
  -2  -6   0 1306.27   81.79
   2   6   0 1297.97   81.99
  -4  -6   0 2212.18  136.49
   4   6   0 2099.69  136.59
  -4   6   0 2171.18  136.99
  -6  -6   0  737.23   53.39
  -6   6   0  747.63   54.09
   1  -7   0  201.88   14.00
  -1   7   0  215.08   13.80
  -1   7   0  209.38   14.00
  -3  -7   0   47.80    7.00
   3   7   0   49.80    8.20
  -5  -7   0    6.80    8.80
  -5   7   0   -7.90    8.80
   5   7   0    2.20    8.10
  -7  -7   0    0.90   14.50
   0  -8   0 6906.21  426.76
  -2  -8   0 1690.43  101.29
  -2   8   0 1581.64  100.89
  -2   8   0 1596.64  100.89
   2   8   0 1604.94  101.39
  -4  -8   0  929.91   60.69
   4   8   0  895.71   60.89
  -4   8   0  950.50   61.59
  -6  -8   0  747.93   54.89
  -6   8   0  786.72   56.59
   6   8   0  772.92   55.79
   1  -9   0   36.70    3.90
   1  -9   0   34.90    6.70
   1  -9   0   32.70    4.50
  -1  -9   0   38.50    3.20
  -1  -9   0   36.40    6.50
  -1   9   0   33.60    4.60
  -1   9   0   34.40    3.80
  -3  -9   0  149.09   11.60
  -3   9   0  102.69   10.40
   3   9   0  136.89   12.10
  -5  -9   0   15.10    8.90
   5   9   0    9.00    8.60
  -7  -9   0   22.00   14.50
  -7   9   0   10.30    8.00
   0 -10   0 1838.82  116.19
   0 -10   0 1833.72  114.59
   0  10   0 1886.01  114.59
  -2 -10   0 1930.51  126.19
   2 -10   0 1969.00  126.29
   2  10   0 2044.30  126.09
  -2  10   0 2111.59  125.69
  -2  10   0 2033.30  125.59
  -4 -10   0 1343.87   84.39
   4  10   0 1281.47   84.69
  -6 -10   0  670.03   48.00
  -6  10   0  649.34   45.60
  -6  10   0  662.73   61.79
   6  10   0  643.24   49.30
   1 -11   0    9.40    5.90
   1 -11   0   18.40    3.40
   1 -11   0   12.40    2.00
  -1 -11   0    4.70    5.60
  -1  11   0   10.90    1.90
  -1  11   0   16.20    3.20
  -3 -11   0    3.60    4.30
   3  11   0   -0.40    4.50
  -3  11   0    1.90    2.50
  -3  11   0    1.90    3.80
  -5  11   0   16.70   11.50
   5  11   0    9.40    9.60
  -5  11   0    7.70    4.80
   0 -12   0  276.37   22.30
   0 -12   0  298.87   19.20
   0  12   0  317.27   19.20
   2 -12   0 1224.78   89.39
  -2 -12   0 1432.76   89.59
  -2 -12   0 1562.84   87.99
  -2  12   0 1414.16   88.49
  -2  12   0 1309.27   88.49
   2  12   0 1533.95   88.99
  -4 -12   0 1979.60  121.69
  -4  12   0 1909.61  120.79
   4  12   0 1866.91  121.99
  -6 -12   0  856.31   60.89
  -6  12   0  879.61   59.39
   6  12   0  918.91   62.99
   1 -13   0   29.60    7.60
   1 -13   0   33.10    4.00
   1 -13   0   34.90    5.10
  -1  13   0   31.40    3.70
  -1  13   0   33.30    5.10
  -3 -13   0  194.88   14.20
  -3  13   0  161.08   13.70
   3  13   0  171.38   14.80
  -3  13   0  172.98   13.30
  -5 -13   0    3.20   10.50
  -5  13   0    3.90    4.30
   5  13   0   -3.90    9.50
  -5  13   0  -12.40   10.60
   0 -14   0  708.13   44.50
   0 -14   0  719.53   43.70
   0 -14   0  600.94   46.20
   0  14   0  751.22   43.70
   2 -14   0  252.87   19.20
  -2 -14   0  303.57   18.10
  -2 -14   0  294.07   22.40
  -2  14   0  248.18   19.20
  -2  14   0  257.17   18.70
   2  14   0  305.07   19.60
  -4 -14   0 3014.90  184.68
   4  14   0 2871.41  185.38
  -4  14   0 3007.60  184.18
  -4  14   0 2896.41  183.78
  -6 -14   0  808.32   56.99
   6  14   0  820.52   59.29
  -6  14   0  813.12   55.19
   1 -15   0   31.90    4.20
   1 -15   0   28.70    5.50
   1 -15   0   15.00    8.00
  -1  15   0   26.60    3.70
  -1  15   0   32.00    4.90
  -3 -15   0   13.70    8.60
  -3  15   0    6.20    2.90
  -3  15   0   10.50    4.70
   3  15   0   10.30    5.20
  -5 -15   0   18.70    8.50
   5  15   0   11.70   10.10
  -5  15   0    9.50    4.70
   0 -16   0  968.00   67.89
   0 -16   0 1077.69   65.19
   0 -16   0 1029.20   65.99
   0  16   0 1093.99   65.19
  -2 -16   0  783.12   45.20
   2 -16   0  674.83   46.30
  -2 -16   0  697.73   48.40
  -2  16   0  695.53   45.80
  -2  16   0  670.73   46.20
   2  16   0  779.62   46.50
  -4  16   0 1950.90  120.49
  -4  16   0 1863.71  120.29
   4  16   0 1915.71  121.79
  -6 -16   0  881.41   61.99
   6  16   0  946.71   65.29
  -6  16   0  889.31   60.59
  -1 -17   0   83.39    5.60
   1 -17   0   62.59    7.70
   1 -17   0   60.69    6.30
  -1 -17   0   68.49   10.80
   1 -17   0   53.79   10.90
  -1  17   0   63.79    6.00
   1  17   0   77.19    6.00
   3 -17   0  140.09   14.10
  -3 -17   0  183.38   19.10
  -3  17   0  149.69   13.80
  -3  17   0  157.18   12.80
   3  17   0  201.38   14.80
  -5 -17   0   25.40    8.90
   5  17   0   10.60   10.90
  -5  17   0   25.80    5.90
  -5  17   0   28.40    8.50
   0 -18   0  565.64   37.30
   0 -18   0  539.55   40.10
   0 -18   0  566.94   36.30
   0  18   0  607.54   36.30
   2 -18   0  808.62   58.89
   2 -18   0  887.11   56.79
  -2 -18   0  931.91   55.29
  -2 -18   0  864.81   58.89
  -2  18   0  864.11   55.89
   2  18   0  922.91   56.69
  -2  18   0  885.31   56.69
  -4 -18   0 1680.43  110.89
  -4  18   0 1722.13  109.19
   4  18   0 1753.42  110.69
  -4  18   0 1750.32  109.29
  -6 -18   0  486.55   39.80
  -6  18   0  493.35   38.00
   6  18   0  574.94   44.50
  -6  18   0  559.64   39.00
  -1 -19   0   81.29   14.60
   1 -19   0   49.10   11.30
   1 -19   0   57.49    6.30
   1 -19   0   47.50    7.90
  -1  19   0   63.69    5.90
  -3 -19   0   61.19    6.20
   3 -19   0   52.99   11.50
  -3 -19   0   49.60   12.20
  -3  19   0   54.39    9.00
  -3  19   0   48.00    7.00
   3  19   0   55.69    8.70
  -5  19   0   21.00    5.50
  -5  19   0   24.20    8.70
   5  19   0   28.10   12.10
   0 -20   0  669.43   42.80
   0 -20   0  651.73   47.50
   0 -20   0  684.93   44.20
   0  20   0  692.93   42.80
  -2 -20   0 1569.24   86.79
   2 -20   0 1367.26   88.29
  -2 -20   0 1389.56   90.29
   2 -20   0 1267.67   90.29
  -2  20   0 1373.46   87.29
  -2  20   0 1367.86   88.09
  -4 -20   0  825.72   53.79
  -4 -20   0  853.31   58.79
  -4  20   0  833.02   55.09
   4  20   0  866.01   56.99
  -4  20   0  840.42   55.69
   6  20   0  752.22   54.79
  -6  20   0  728.43   49.99
  -6  20   0  660.83   49.00
  -1 -21   0   -7.10    9.00
   1 -21   0   -2.40    4.30
   1 -21   0   -0.40    2.20
   1 -21   0   -1.80    9.00
  -1 -21   0   -0.40    1.60
   1  21   0   -1.70    1.90
  -1  21   0    2.00    2.00
   3 -21   0   47.40    8.70
  -3 -21   0   31.30   12.40
   3 -21   0   38.10   12.00
  -3  21   0   41.00    7.50
   3  21   0   37.90    7.40
  -3  21   0   41.90    6.70
  -5 -21   0    4.90    4.20
   5  21   0   -0.50   11.80
  -5  21   0   17.90    8.70
  -5  21   0   12.00    5.40
   0 -22   0 3177.48  194.48
   0 -22   0 3140.79  195.58
   0 -22   0 2991.50  197.68
   0  22   0 3233.88  194.38
  -2 -22   0  736.93   46.40
   2 -22   0  756.42   48.50
  -2 -22   0  635.54   51.19
   2 -22   0  721.13   51.99
  -2  22   0  787.72   48.50
  -2  22   0  757.72   47.20
  -4 -22   0 1511.25   89.79
  -4 -22   0 1362.26   94.09
  -4  22   0 1454.85   91.59
   4  22   0 1409.56   92.49
  -4  22   0 1395.86   90.89
  -6  22   0  198.08   21.40
   6  22   0  230.68   30.50
  -6  22   0  217.78   24.10
   1 -23   0    3.70    2.90
   1 -23   0    4.60    5.10
  -1 -23   0    9.40    2.20
  -1 -23   0    1.50   10.10
   1 -23   0    0.60   10.40
  -1  23   0    4.40    2.30
   1  23   0    8.40    2.50
  -3 -23   0    4.10   12.70
   3 -23   0   12.00   11.90
   3 -23   0    5.00    7.20
  -3  23   0   10.50    5.90
  -3  23   0    4.40    3.20
   3  23   0   20.80    6.80
   5  23   0   -8.50   11.70
  -5  23   0    2.60    5.00
  -5  23   0   -0.20    8.20
   0 -24   0 5035.20  308.37
   0 -24   0 4845.62  311.77
   0 -24   0 4998.40  309.67
   0  24   0 5061.39  308.27
   2 -24   0  989.30   70.89
  -2 -24   0 1154.58   65.39
   2 -24   0 1021.50   67.39
  -2 -24   0  988.00   70.79
  -2  24   0 1033.70   65.99
  -4 -24   0  664.33   48.90
   4  24   0  586.04   43.70
  -4  24   0  639.34   43.10
  -4  24   0  597.24   41.50
  -6 -24   0  238.08   20.60
  -6  24   0  237.98   26.00
   6  24   0  246.48   33.30
   1 -25   0   13.90    6.30
   1 -25   0   13.60   11.90
   1 -25   0    9.70    3.30
  -1 -25   0   32.30   12.40
  -1  25   0   11.10    2.80
   3 -25   0   -3.20    7.50
   3 -25   0    6.60   13.20
  -3 -25   0    5.90   13.20
  -3  25   0   -3.80    3.10
  -3  25   0    0.90    6.40
   3  25   0    2.90    6.40
  -5 -25   0   23.20   17.20
   5  25   0    8.50   12.60
  -5  25   0   14.20    9.60
  -5  25   0    9.60    5.60
   0 -26   0 3168.48  195.78
   0 -26   0 3143.79  194.28
   0 -26   0 3013.00  198.28
   0  26   0 3191.18  194.18
   2 -26   0  913.71   59.89
  -2 -26   0  958.30   57.39
   2 -26   0  892.61   63.99
  -2 -26   0  847.92   64.19
  -2  26   0  921.81   58.09
   4 -26   0  823.92   55.29
  -4 -26   0  822.22   60.09
  -4  26   0  802.32   53.39
   4  26   0  828.92   55.79
  -4  26   0  789.42   54.79
   1 -27   0   11.00    3.90
  -1 -27   0   20.50    3.20
   1 -27   0   10.60    6.80
  -1 -27   0   25.70   13.40
   1 -27   0    1.60   13.50
  -1  27   0   12.20    3.20
   1  27   0   22.10    3.70
   3 -27   0    0.40    7.90
  -3 -27   0   17.40    3.40
  -3 -27   0   26.60   15.80
   3 -27   0   22.10   15.00
  -3  27   0    8.60    7.60
  -3  27   0    6.40    3.90
   3  27   0   19.90    8.10
  -5 -27   0   13.80    5.30
  -5 -27   0   15.90   18.70
  -5  27   0    8.00    6.00
  -5  27   0   22.50   10.60
   5  27   0   -1.80   12.50
   0 -28   0 1416.66   88.09
   0 -28   0 1406.06   89.79
   0 -28   0 1379.26   93.99
   0  28   0 1399.16   87.89
  -2 -28   0 1039.10   62.49
  -2 -28   0  941.31   69.99
   2 -28   0  956.10   69.89
   2 -28   0  974.90   65.19
  -2  28   0 1027.80   63.29
  -4 -28   0  634.94   40.70
  -4 -28   0  669.13   51.09
   4 -28   0  604.94   44.50
   4  28   0  629.94   45.10
  -4  28   0  617.54   44.40
  -4  28   0  598.34   42.00
   1 -29   0   12.70   15.10
  -1 -29   0    0.70    2.60
   1 -29   0    0.80    7.20
   1 -29   0    4.10    3.70
  -1 -29   0    9.10   14.60
  -1  29   0   -0.90    2.70
   1  29   0    0.30    3.10
   3 -29   0   10.60   16.50
  -3 -29   0   19.60   16.60
   3  29   0   -4.80    7.80
  -5 -29   0    6.10   21.30
  -5  29   0    4.70   11.10
   5  29   0   -3.30   14.30
  -5  29   0   -3.50    5.50
   0 -30   0 1427.46   92.29
   0 -30   0 1405.86   96.89
   0 -30   0 1430.46   90.39
   0  30   0 1475.85   90.19
  -2 -30   0  695.33   44.60
   2 -30   0  722.93   54.89
  -2 -30   0  647.94   54.59
   2 -30   0  703.93   48.30
  -2  30   0  711.33   45.50
   4 -30   0  419.16   34.60
  -4 -30   0  444.66   43.90
  -4  30   0  451.45   34.40
   4  30   0  408.66   34.70
  -4  30   0  457.25   31.30
   1 -31   0   -0.70    8.00
  -1 -31   0    3.30    3.20
  -1 -31   0   -1.50   13.20
   1 -31   0    5.50    4.30
  -1 -31   0   16.70   16.50
   1 -31   0    8.00   17.00
   1  31   0    1.50    3.40
  -1  31   0    9.00    3.40
   3 -31   0   28.30   18.70
  -3 -31   0   22.90   19.00
   3 -31   0   14.80   10.40
  -3  31   0    6.80    4.40
   3  31   0   16.90    9.30
  -5 -31   0   12.10   23.00
  -5  31   0    5.20    7.40
   5  31   0   16.00   15.80
  -5  31   0   -9.30   11.30
   0 -32   0 1690.43  102.79
   0 -32   0 1542.35  109.59
   0  32   0 1657.33  102.49
  -2 -32   0  721.63   63.19
  -2 -32   0  764.42   52.59
   2 -32   0  929.71   63.89
   2 -32   0  847.42   56.69
  -2  32   0  871.21   53.59
   4 -32   0  428.36   43.00
  -4 -32   0  481.65   47.50
  -4  32   0  435.76   32.40
   4  32   0  468.65   36.90
  -1 -33   0    2.00    3.50
   1 -33   0   -2.60    9.10
   1 -33   0    2.00    4.60
  -1 -33   0    6.30    8.90
  -1 -33   0    2.40   18.40
   1 -33   0    7.60   18.70
  -1  33   0   -2.20    3.30
   1  33   0   -1.10    3.60
  -3 -33   0   43.90    5.70
   3 -33   0   45.00   21.10
  -3 -33   0   93.19   22.80
   3 -33   0   33.40   13.70
   3  33   0   52.99   11.90
   0 -34   0  806.52   56.89
   0 -34   0  855.61   54.29
   0 -34   0  810.72   64.59
   0  34   0  866.01   53.89
   2 -34   0 1629.54  113.09
  -2 -34   0 1832.22  104.39
  -2 -34   0 1592.94  112.49
   2 -34   0 1576.44  107.29
  -2  34   0 1662.13  104.89
   4 -34   0  113.99   18.20
  -4  34   0  123.69   15.30
   4  34   0  102.09   17.50
  -1 -35   0   19.70    9.90
   1 -35   0   11.50   20.60
  -1 -35   0    3.00    4.00
   1 -35   0    8.30    5.60
  -1 -35   0    1.70   19.50
   1 -35   0   15.00   10.80
   1  35   0    3.70    4.10
  -1  35   0   13.50    4.20
   3 -35   0   65.59   24.60
  -3 -35   0  126.69   27.30
  -3 -35   0  124.19   11.60
   3  35   0  117.79   19.30
   0 -36   0  856.81   68.79
   0 -36   0  914.01   56.99
   0 -36   0  810.52   59.39
   0  36   0  906.21   56.39
   2 -36   0  425.36   36.50
  -2 -36   0  417.16   47.90
   2 -36   0  550.54   50.09
  -2 -36   0  480.65   31.30
  -2  36   0  460.45   32.10
  -4 -36   0  848.82   67.19
   4 -36   0  683.13   56.39
   4 -36   0  823.42   64.79
   4  36   0  809.02   57.39
  -4  36   0  769.32   52.69
   1 -37   0   -0.20   10.80
  -1 -37   0   10.20   10.50
   1 -37   0   11.10   22.60
   1 -37   0    2.10    7.10
  -1 -37   0   10.10    4.60
  -1 -37   0    4.20   22.00
  -1  37   0    2.50    4.40
   1  37   0   12.70    5.00
   3 -37   0   73.69   26.40
   3 -37   0   52.29   14.40
  -3  37   0   42.90    7.80
   0 -38   0  594.84   40.30
   0 -38   0  603.14   55.89
   0 -38   0  591.44   46.80
   0  38   0  588.44   39.50
   2 -38   0  234.38   43.00
  -2 -38   0  221.58   16.60
   2 -38   0  143.69   23.30
  -2 -38   0  286.07   41.70
  -2 -38   0  224.68   24.30
  -2  38   0  166.28   16.80
  -1 -39   0   17.50    5.40
   1 -39   0    6.70   24.90
   1 -39   0    3.20   11.60
  -1 -39   0   30.40   25.20
   1 -39   0   11.90    6.90
   1  39   0   19.70    5.60
  -1  39   0    2.30    5.00
  -3 -39   0    2.60   26.50
   3 -39   0    8.90   13.70
   3 -39   0   -0.60   27.00
   3  39   0  -13.90   12.90
  -3  39   0   -1.40    5.80
   0 -40   0  325.07   27.40
   0  40   0  336.67   24.30
  -2 -40   0  221.88   45.00
  -2 -40   0  240.68   20.10
   2 -40   0  361.66   48.00
   2 -40   0  236.28   27.70
  -2 -40   0  220.38   26.80
  -2  40   0  262.47   20.70
   1 -41   0    0.00   27.30
  -1 -41   0    6.20   27.30
   1 -41   0    3.40    7.00
  -1 -41   0   -1.50    5.50
   1 -41   0    2.10   13.20
   1  41   0    4.20    5.50
  -1  41   0   -4.40    4.90
   0 -42   0  656.23   62.89
   0 -42   0  609.34   42.20
   0  42   0  578.04   40.80
   2 -42   0  372.36   53.99
  -2 -42   0  340.07   51.59
  -2 -42   0  312.97   31.40
  -2 -42   0  335.87   25.00
  -2  42   0  301.77   25.60
   2  42   0  345.67   26.50
   1 -43   0   -0.20    8.00
  -1 -43   0    1.20    6.10
   1 -43   0  -18.50   31.30
  -1 -43   0   -5.50   34.30
   1  43   0   -4.90    6.30
  -1  43   0   -4.50    5.40
  -6   0   1   76.49   16.00
  -4   0   1 1188.38   76.99
  -2   0   1 1979.20  123.59
  -4   0  -1   37.80    9.50
  -6   0  -1 1782.52  116.79
  -5  -1   1   78.29   13.30
  -5   1   1  109.99   14.30
  -3  -1   1  353.46   24.60
  -3   1   1  355.86   24.50
   3   1  -1  336.27   24.50
  -1  -1   1 1080.69   66.59
   1  -1  -1 1114.19   66.39
  -1   1   1  955.80   66.19
   1   1  -1  990.70   66.39
  -1   1   1 1173.28   66.79
  -1  -1  -1 2548.84  148.39
   1  -1   1 2368.06  148.09
  -1   1  -1 2275.47  148.09
  -3  -1  -1  669.63   42.10
  -3   1  -1  605.44   42.00
  -5  -1  -1  105.89   14.70
  -5   1  -1   98.99   15.00
  -7  -1  -1   74.89   19.00
  -7   1  -1   66.59   19.30
  -6  -2   1  124.49   18.50
  -6   2   1  142.09   19.20
  -4  -2   1 1171.68   72.99
  -4   2   1 1073.39   72.89
  -2  -2   1 2535.25  151.58
   2   2  -1 2446.96  151.58
  -2   2   1 2396.96  151.18
  -2   2   1 2358.76  151.48
  -2  -2  -1  448.06   29.50
  -2   2  -1  469.45   28.70
   2   2   1  422.16   29.40
  -4  -2  -1 4218.58  258.27
  -4   2  -1 4055.09  258.27
  -6  -2  -1  369.46   34.30
  -6   2  -1  366.76   34.20
  -5  -3   1   99.89   14.60
  -5   3   1   99.79   14.30
   5   3  -1   85.89   13.50
  -3  -3   1  325.67   22.80
   3   3  -1  302.27   22.80
  -3   3   1  326.67   22.90
  -1  -3   1   75.79    5.90
   1  -3  -1   70.59    6.70
   1   3  -1   75.69    6.10
  -1  -3  -1   34.90    3.80
   1   3   1   26.70    4.40
  -3  -3  -1  121.69   11.20
  -3   3  -1  112.09   11.60
   3   3   1  116.39   11.20
  -5  -3  -1    7.30    9.10
  -5   3  -1   16.20   10.10
  -7  -3  -1   22.00   17.50
  -7   3  -1   24.90    8.10
  -7   3  -1   21.40   17.30
  -6  -4   1  677.23   49.80
  -6   4   1  669.93   50.29
  -4  -4   1 1449.46   90.79
   4   4  -1 1410.56   90.89
  -4   4   1 1384.06   90.89
  -2  -4   1 1225.58   75.59
  -2  -4   1 1258.57   75.59
  -2   4   1 1132.79   75.49
   2   4  -1 1246.58   75.79
  -2   4   1 1131.79   75.19
  -2  -4  -1 9814.22  583.94
   2   4   1 9102.49  583.84
  -4  -4  -1  164.98   15.90
   4   4   1  151.58   15.50
  -4   4  -1  132.89   17.20
  -6  -4  -1  281.57   30.20
  -6   4  -1  295.07   24.10
  -6   4  -1  311.17   30.70
  -5  -5   1    4.30    8.40
  -5   5   1   12.60    9.10
   5   5  -1   -1.70    7.90
  -3  -5   1  203.78   14.40
   3   5  -1  190.68   14.80
  -3   5   1  162.38   14.70
  -3   5   1  154.98   13.70
  -1  -5   1 1709.93  116.39
   1  -5  -1 2145.79  116.19
   1   5  -1 1677.43  115.79
   1   5  -1 1720.73  116.29
  -1   5   1 2082.39  116.09
   1  -5   1 1462.85   94.09
  -1  -5  -1 1667.13   94.19
  -1   5  -1 1420.66   93.99
  -3  -5  -1    4.90    4.20
   3   5   1    5.60    4.60
  -3   5  -1    3.30    2.30
  -5  -5  -1   42.60   10.80
  -5   5  -1   46.90   12.90
  -7  -5  -1   10.20   15.70
  -7   5  -1   22.50   16.70
  -7   5  -1    7.80    7.30
  -6  -6   1  764.72   53.09
  -6   6   1  728.03   54.29
   6   6  -1  714.83   53.59
  -4  -6   1 1224.58   77.09
  -4   6   1 1159.08   77.49
   4   6  -1 1197.78   77.49
  -2  -6   1 4357.66  261.07
   2  -6  -1 4037.20  260.67
  -2  -6   1 4364.36  261.07
   2   6  -1 4215.78  261.17
  -2   6   1 4091.89  260.77
   0  -6   1 3145.89  186.38
   0  -6  -1 2884.01  185.68
   0   6   1 2982.10  185.98
  -2  -6  -1 1828.52  108.49
   2   6   1 1789.32  108.69
  -2   6  -1 1592.94  107.99
  -4  -6  -1 1388.66   89.69
  -4   6  -1 1451.15   88.59
  -4   6  -1 1443.96   90.39
   4   6   1 1311.57   89.69
  -6  -6  -1  465.65   37.60
  -6   6  -1  423.66   32.30
  -6   6  -1  432.26   38.30
  -5  -7   1   15.70    8.70
  -5   7   1   24.30   10.30
   5   7  -1   18.80    9.80
  -3  -7   1   19.20    5.10
  -3   7   1   12.10    4.90
  -3   7   1   11.60    5.10
   3   7  -1   13.80    5.70
  -1  -7   1   43.30    4.00
  -1  -7   1   44.20    7.40
   1   7  -1   45.90    7.20
   1  -7   1   28.70    5.50
   1  -7   1   20.30    2.90
   1  -7   1   17.80    3.30
  -1   7  -1   18.40    5.40
  -1   7  -1   20.30    2.80
  -3  -7  -1  132.89   11.20
  -3   7  -1  114.29    9.70
   3   7   1  115.39   11.70
  -5  -7  -1  139.59   18.60
   5   7   1  128.79   17.60
  -5   7  -1  155.08   13.80
  -5   7  -1  139.69   22.90
  -7  -7  -1   49.30   17.50
  -7   7  -1   42.80   18.00
  -7   7  -1   38.10    8.80
  -6  -8   1  690.43   50.69
  -6   8   1  678.13   56.39
   6   8  -1  734.63   52.09
  -4  -8   1 1262.57   80.49
  -4   8   1 1209.58   79.59
   4   8  -1 1228.48   80.79
  -4   8   1 1304.77   81.29
  -2  -8   1 1494.25   92.19
   2  -8  -1 1471.75   92.09
  -2  -8   1 1464.05   92.69
   2   8  -1 1494.55   92.59
   2   8  -1 1420.06   92.29
  -2   8   1 1473.95   92.09
   0  -8   1 2286.67  145.19
   0  -8   1 2551.54  144.09
   0  -8  -1 2166.18  144.29
   0   8  -1 2516.55  144.09
   0   8  -1 2308.47  145.29
   0   8   1 2147.29  144.29
  -2  -8  -1 1746.33  107.29
  -2   8  -1 1684.73  106.99
   2   8   1 1721.63  107.59
  -4  -8  -1 1230.58   78.99
   4   8   1 1176.28   79.19
  -4   8  -1 1264.57   77.89
  -6  -8  -1  748.43   54.59
  -6   8  -1  747.63   51.19
  -6   8  -1  781.12   56.59
  -7  -9   1    6.50   13.40
   5   9  -1   29.40   10.50
  -3  -9   1  462.65   33.20
  -3  -9   1  529.55   32.90
   3   9  -1  502.65   33.30
  -3   9   1  456.55   32.30
  -1  -9   1  102.39    6.90
  -1  -9   1   89.49   11.90
   1   9  -1   77.89   11.70
   1   9  -1   98.19    7.20
   1  -9   1  744.13   51.49
   1  -9   1  834.12   50.39
   1  -9   1  864.11   50.29
  -1   9  -1  710.03   51.49
  -1   9  -1  848.32   50.19
  -3  -9  -1  214.38   16.10
  -3   9  -1  219.78   15.10
   3   9   1  189.58   16.60
  -5  -9  -1   19.50    9.30
   5   9   1   11.20    9.00
  -5   9  -1   10.60    4.40
  -6 -10   1  778.82   56.09
   6  10  -1  819.32   57.79
  -4 -10   1 1340.37   85.09
   4  10  -1 1313.07   85.69
  -4  10   1 1321.97   85.79
  -2 -10   1 2015.70  123.79
   2 -10  -1 1946.81  123.09
   2  10  -1 1929.81  123.19
   2  10  -1 2031.80  123.69
  -2  10   1 1930.71  122.99
   0 -10   1  515.35   35.70
   0 -10   1  565.14   33.20
   0 -10  -1  461.25   32.90
   0 -10  -1  530.25   33.70
   0  10   1  556.54   33.70
   0  10  -1  558.54   33.20
   0  10  -1  497.85   35.70
  -2 -10  -1 1067.79   64.19
   2 -10   1 1052.69   64.09
   2  10   1  991.20   64.39
  -2  10  -1 1019.00   63.89
  -2  10  -1 1053.59   63.99
  -2  10  -1  916.31   64.89
  -4 -10  -1 1837.02  114.79
  -4  10  -1 1835.62  113.89
   4  10   1 1753.52  115.19
  -6 -10  -1  935.61   65.29
  -6  10  -1  964.40   67.69
  -6  10  -1  924.51   62.49
   6  10   1  958.40   66.89
  -5 -11   1    3.00   13.70
   5  11  -1    4.20    9.30
  -5  11   1   -3.50   14.10
  -3 -11   1   49.30    9.30
  -3 -11   1   41.20    6.30
   3  11  -1   39.40    7.00
  -3  11   1   47.10    7.90
  -1 -11   1   33.10    3.50
  -1 -11   1   33.80    7.80
   1  11  -1   33.00    7.70
   1  11  -1   35.70    3.90
   1 -11   1  231.08   15.50
   1 -11   1  236.08   15.20
   1 -11   1  206.78   18.10
  -1  11  -1  246.38   15.10
  -1  11  -1  205.68   18.50
  -3 -11  -1   40.90    6.60
   3  11   1   28.30    6.70
  -5 -11  -1   31.10    9.70
  -5  11  -1   13.50    4.60
  -5  11  -1   39.40   12.10
   5  11   1    8.50    9.30
  -6 -12   1  827.62   59.49
   6  12  -1  903.21   61.99
  -4 -12   1 2046.60  118.99
  -4 -12   1 1865.31  118.79
  -4  12   1 1699.73  117.89
   4  12  -1 1892.41  119.39
  -2 -12   1 1273.17   83.59
  -2 -12   1 1324.17   81.79
   2 -12  -1 1329.57   82.69
  -2  12   1 1282.07   82.49
   2  12  -1 1364.86   82.69
   2  12  -1 1287.07   83.49
   0 -12   1 1585.04   93.69
   0 -12   1 1496.95   95.69
   0 -12  -1 1476.05   94.19
   0  12  -1 1479.95   95.69
   0  12   1 1410.46   93.39
   0  12   1 1495.45   94.19
   0  12  -1 1614.64   93.69
   2 -12   1 1629.64   98.29
  -2  12  -1 1548.95   97.99
  -2  12  -1 1587.34   97.99
   2  12   1 1704.13   98.59
  -2  12  -1 1376.96   99.09
  -4 -12  -1 1616.34  102.29
   4  12   1 1534.25  102.59
  -4  12  -1 1662.63  101.39
  -6 -12  -1  673.03   47.50
  -6  12  -1  692.83   51.19
  -6  12  -1  579.04   44.40
   6  12   1  660.43   49.50
  -5 -13   1   19.20    8.50
  -5  13   1   11.20    7.60
   5  13  -1    4.10    9.10
  -5  13   1   22.90   11.20
  -3 -13   1  410.16   30.60
  -3  13   1  436.46   28.40
   3  13  -1  395.56   28.70
  -1 -13   1   30.10    8.20
  -1 -13   1   31.90    3.40
   1  13  -1   25.30    3.80
   1  13  -1   31.30    8.20
   1 -13   1   44.60    5.50
   1 -13   1   42.10    8.40
   1 -13   1   44.60    4.50
  -1  13  -1   41.10    8.40
  -1  13  -1   43.70    4.40
  -3 -13  -1  151.98   14.30
  -3  13  -1  210.98   13.90
  -3  13  -1  212.78   14.30
   3  13   1  145.99   15.20
  -5  13  -1   23.30    5.60
   5  13   1   34.00   11.40
  -6 -14   1  998.50   69.99
  -6  14   1 1038.70   68.79
   6  14  -1 1075.99   72.59
  -4 -14   1 2334.97  137.59
  -4 -14   1 2196.88  137.79
  -4  14   1 1992.90  136.79
   4  14  -1 2194.18  138.19
   2 -14  -1 1198.48   69.89
  -2 -14   1 1014.30   70.99
  -2 -14   1 1016.70   68.49
   2  14  -1 1033.50   69.49
   2  14  -1 1010.00   70.69
  -2  14   1 1227.98   69.29
  -2  14   1 1170.48   69.69
   0 -14   1  952.10   64.09
   0 -14  -1  934.01   61.19
   0 -14   1 1066.99   61.49
   0 -14  -1  947.11   62.09
   0  14   1  955.80   61.09
   0  14  -1  954.60   64.09
   0  14  -1 1066.59   61.49
   2 -14   1 1353.76   85.49
   2 -14   1 1212.98   86.49
   2 -14   1 1439.96   85.69
   2  14   1 1530.45   86.09
  -2  14  -1 1358.36   85.29
  -2  14  -1 1248.08   87.09
  -2  14  -1 1392.56   85.59
  -4 -14  -1 1153.58   74.09
   4  14   1 1069.49   74.59
  -4  14  -1 1208.58   73.29
  -6 -14  -1  660.93   48.50
   6  14   1  681.03   50.99
  -6  14  -1  674.73   52.09
  -6  14  -1  650.13   45.80
  -5 -15   1    8.40    8.20
  -5  15   1    2.30    7.10
  -5  15   1    6.70   11.00
   5  15  -1    5.50   10.10
  -3 -15   1  111.79   16.90
   3 -15  -1  133.89   12.80
   3 -15  -1  108.69   15.80
  -3 -15   1  131.19   10.30
  -3  15   1  138.59   11.20
  -3  15   1  139.79   12.40
   3  15  -1  118.39   12.30
   1 -15  -1  614.74   35.90
  -1 -15   1  524.45   34.50
   1  15  -1  501.55   34.70
   1 -15   1  264.27   23.30
   1 -15   1  302.47   19.20
   1 -15   1  298.77   19.90
  -1  15  -1  298.27   19.10
  -1  15  -1  264.77   23.30
  -3  15  -1  337.67   29.20
  -3  15  -1  391.56   26.20
   3  15   1  408.96   27.40
  -3  15  -1  397.36   26.00
  -5 -15  -1    3.60    9.80
  -5  15  -1    1.30    4.00
   5  15   1    4.10   10.00
  -6 -16   1  677.33   48.80
   6  16  -1  709.53   52.29
  -6  16   1  651.53   47.50
  -6  16   1  682.73   47.70
  -4  16   1 2165.18  138.59
  -4  16   1 2191.28  138.59
   4  16  -1 2256.57  139.89
  -2 -16   1  529.15   34.10
   2 -16  -1  556.74   35.70
   2 -16  -1  495.15   37.90
  -2 -16   1  523.95   38.10
   2  16  -1  494.65   37.90
  -2  16   1  561.04   35.60
  -2  16   1  574.04   34.80
   2  16  -1  526.25   35.30
   0 -16  -1 1407.26   88.19
   0 -16   1 1470.25   87.39
   0 -16   1 1288.77   89.89
   0 -16  -1 1414.76   87.19
   0  16   1 1419.06   87.09
   0  16  -1 1346.97   90.19
   0  16  -1 1463.65   87.39
   2 -16   1  586.54   36.10
   2 -16   1  562.24   36.20
   2 -16   1  503.35   38.50
  -2  16  -1  497.85   39.10
  -2  16  -1  569.54   35.60
  -2  16  -1  577.64   36.20
  -4 -16  -1 1502.25   94.39
  -4  16  -1 1528.45   93.79
   4  16   1 1401.36   95.19
  -6 -16  -1  533.35   42.60
  -6  16  -1  533.35   39.90
   6  16   1  637.24   46.20
  -5 -17   1   20.10   12.90
  -5  17   1   17.30    8.10
  -5  17   1    9.30    5.20
   5  17  -1  -13.40    9.70
   3 -17  -1  155.78   14.90
   3 -17  -1  151.18   18.10
  -3  17   1  175.58   13.10
  -3  17   1  159.88   14.40
  -1 -17   1   67.59   11.30
  -1 -17   1   65.99    5.20
   1 -17  -1   47.80    7.50
   1  17  -1   62.89    5.70
  -1  17   1   45.00    7.10
  -1  17   1   48.10    5.30
   1  17  -1   74.69   11.70
   1 -17   1   29.10    9.40
   1 -17   1   34.30    4.50
   1 -17   1   32.00    5.20
  -1  17  -1   28.30    4.20
  -1  17  -1   21.10    9.70
  -3 -17  -1   86.79   12.70
  -3  17  -1   93.29    9.80
  -3  17  -1   88.99    8.40
   3  17   1   81.79   10.40
  -5 -17  -1   69.39   11.50
   5  17   1   63.59   13.70
  -5  17  -1   47.70    7.40
  -6  18   1  852.31   59.19
  -6  18   1  891.91   59.89
   6  18  -1  879.51   63.49
  -4 -18   1 1277.97   76.89
   4  18  -1 1129.99   75.19
  -4  18   1 1088.29   74.09
  -4  18   1 1102.29   73.69
   2 -18  -1 1461.65   93.79
   2 -18  -1 1425.46   95.59
  -2 -18   1 1445.96   95.59
  -2 -18   1 1572.74   92.39
  -2  18   1 1513.95   93.69
   2  18  -1 1417.76   95.39
  -2  18   1 1519.45   92.99
   0 -18   1  699.33   46.20
   0 -18  -1  799.42   47.50
   0 -18   1  658.43   49.99
   0 -18  -1  774.92   46.20
   0  18  -1  702.93   46.20
   0  18  -1  701.93   50.29
   0  18   1  776.02   46.00
   2 -18   1  773.92   47.70
   2 -18   1  664.63   50.09
   2 -18   1  746.93   47.80
  -2  18  -1  747.13   47.20
   2  18   1  819.52   48.00
  -2  18  -1  666.03   50.99
   4  18   1 1243.68   83.99
  -4  18  -1 1329.47   82.49
  -4  18  -1 1293.87   82.19
  -6 -18  -1  511.25   41.90
   6  18   1  628.04   47.20
  -6  18  -1  557.44   39.90
  -5 -19   1   -0.60   12.80
   5  19  -1    1.70   10.80
  -5  19   1    3.30    7.80
  -5  19   1    4.30    4.80
   3 -19  -1   23.40    7.60
   3 -19  -1   20.20   10.30
  -3 -19   1   15.20    3.40
  -3 -19   1   15.50   10.60
   3  19  -1   12.40    5.90
  -3  19   1   17.80    3.90
  -3  19   1   29.30    6.50
   1 -19  -1  404.16   30.90
  -1 -19   1  343.67   30.90
   1 -19  -1  425.86   27.40
  -1 -19   1  401.36   25.70
   1  19  -1  354.06   31.30
  -1  19   1  439.96   27.30
   1  19  -1  369.36   25.90
  -1  19   1  419.76   25.90
   1 -19   1  402.76   33.00
   1 -19   1  446.26   29.20
   1 -19   1  445.36   28.40
  -1  19  -1  414.66   33.70
  -1  19  -1  441.56   28.10
  -3 -19  -1   16.20   10.10
  -3  19  -1    5.60    4.90
  -3  19  -1    1.80    2.70
   3  19   1   15.40    6.00
   5  19   1  -12.10   10.40
  -5  19  -1    8.60    7.30
  -5  19  -1   -1.10    4.30
   6  20  -1  419.86   38.50
  -6  20   1  413.26   33.80
  -6  20   1  408.16   31.90
  -4 -20   1 1625.24  105.79
  -4 -20   1 1641.34  102.19
  -4  20   1 1655.23  103.29
  -4  20   1 1631.14  103.59
   4  20  -1 1575.54  104.39
  -2 -20   1  479.95   37.40
   2 -20  -1  457.85   37.00
  -2 -20   1  508.25   31.50
   2 -20  -1  488.45   33.60
  -2  20   1  484.25   33.30
  -2  20   1  504.05   32.10
   0 -20  -1 2968.70  188.88
   0 -20  -1 2823.32  191.78
   0 -20   1 3251.17  189.08
   0 -20   1 3010.40  191.98
   0 -20  -1 2995.20  189.98
   0  20   1 2927.01  188.68
   0  20  -1 3185.48  189.08
   0  20  -1 3237.78  192.58
  -2 -20  -1  832.02   55.39
   2 -20   1  758.52   55.09
   2 -20   1  778.92   52.29
   2 -20   1  834.72   52.19
  -2  20  -1  804.02   51.59
   2  20   1  907.01   52.59
  -2  20  -1  747.33   56.19
  -4  20  -1 1227.68   77.99
  -4  20  -1 1188.18   77.59
   4  20   1 1230.08   79.59
  -6  20  -1  256.77   23.60
   6  20   1  314.57   33.60
  -5 -21   1   -5.70   14.10
  -5 -21   1    2.70    4.70
   5  21  -1    6.20   11.70
  -5  21   1   -5.30    4.60
  -5  21   1    0.80    8.70
  -3 -21   1   28.00   12.10
   3 -21  -1   44.90    8.90
  -3 -21   1   26.60    4.20
   3 -21  -1   40.00   12.20
  -3  21   1   39.40    7.70
  -3  21   1   25.40    4.60
   3  21  -1   34.80    7.50
   1 -21  -1   22.70   10.50
  -1 -21   1   52.89   11.90
   1 -21  -1   30.10    6.30
  -1  21   1   27.70    4.60
  -1  21   1   25.00    5.80
   1  21  -1   58.49   12.90
  -1 -21  -1    5.60    9.80
  -1 -21  -1   12.20    4.80
   1 -21   1   30.50   11.00
   1 -21   1   18.70    3.30
   1 -21   1   29.90    5.90
  -1  21  -1   31.40    4.80
  -1  21  -1   32.70   11.90
  -3 -21  -1   21.30   11.40
   3 -21   1    4.40   10.20
   3  21   1   24.80    6.70
  -3  21  -1   16.40    5.80
  -5  21  -1    7.80    7.80
   5  21   1   23.50   12.90
  -5  21  -1    2.00    4.50
  -6 -22   1  348.37   26.80
  -6 -22   1  337.17   37.30
   6  22  -1  332.67   36.80
  -6  22   1  378.46   31.50
  -6  22   1  332.37   28.50
  -4 -22   1  865.21   56.09
   4 -22  -1  701.53   51.69
  -4 -22   1  786.62   49.70
  -4  22   1  763.92   51.89
  -4  22   1  726.43   50.59
   4  22  -1  776.52   52.39
  -2 -22   1 1832.02  109.39
   2 -22  -1 1784.82  111.19
   2 -22  -1 1679.93  113.29
  -2 -22   1 1646.94  113.19
  -2  22   1 1797.72  110.89
  -2  22   1 1776.02  109.89
   0 -22  -1 2272.37  154.08
   0 -22  -1 2402.96  151.88
   0 -22  -1 2393.86  150.58
   0 -22   1 2530.05  150.78
   0 -22   1 2351.36  154.18
   0  22  -1 2505.05  154.88
   0  22   1 2392.06  150.38
   0  22  -1 2557.34  150.78
   2 -22   1 1046.40   67.89
   2 -22   1 1151.48   67.79
  -2 -22  -1 1035.40   70.89
   2 -22   1  977.60   70.59
  -2  22  -1 1073.59   66.99
  -4 -22  -1  766.62   56.59
  -4  22  -1  813.52   52.39
  -4  22  -1  827.12   53.39
   4  22   1  791.62   54.49
  -6  22  -1  500.15   39.70
   6  22   1  621.04   46.80
  -6  22  -1  502.85   38.10
  -5 -23   1    4.80    4.90
  -5 -23   1    6.90   15.70
  -5  23   1    2.00    5.20
  -5  23   1    3.60    9.20
   5  23  -1    8.00   11.30
   3 -23  -1   38.60   13.90
  -3 -23   1   21.60   13.40
   3 -23  -1   49.40    9.70
  -3 -23   1   23.50    4.00
   3  23  -1   31.70    7.80
  -3  23   1   32.20    4.90
  -1 -23   1   16.00    3.00
  -1 -23   1   10.60   11.80
   1 -23  -1   24.60   11.40
   1 -23  -1   33.10    6.80
  -1  23   1   28.90    4.70
   1  23  -1   18.20    3.60
  -1 -23  -1  105.99   15.80
   1 -23   1   94.19    9.00
  -1 -23  -1  108.39   11.00
   1 -23   1   99.79   11.10
   1 -23   1   92.59   15.50
   1  23   1   98.89    8.00
  -1  23  -1  100.79   16.90
  -1  23  -1   97.09    8.50
   3 -23   1   18.40    7.30
  -3 -23  -1   19.50   12.40
   3 -23   1   16.70   11.70
   3  23   1   30.90    7.30
  -3  23  -1   16.40    4.10
  -5  23  -1    9.50    5.20
  -5  23  -1   22.00    9.10
   5  23   1   15.10   13.40
  -6 -24   1  175.18   32.50
  -6 -24   1  142.79   17.70
  -6  24   1  221.78   24.60
   6  24  -1  182.78   30.20
  -4 -24   1  961.30   67.59
  -4 -24   1  968.10   61.39
   4 -24  -1  948.61   66.79
   4 -24  -1  948.81   63.79
  -4  24   1 1015.80   63.89
   4  24  -1  903.21   64.09
  -4  24   1  965.70   62.59
  -2 -24   1  561.14   45.50
   2 -24  -1  588.04   40.90
  -2 -24   1  588.04   38.40
   2 -24  -1  631.34   45.30
  -2  24   1  614.04   39.10
  -2  24   1  614.94   40.80
   0 -24  -1 2377.76  175.78
   0 -24  -1 2493.55  173.48
   0 -24   1 3183.58  172.68
   0 -24   1 2911.61  176.58
   0 -24  -1 2543.85  172.28
   0  24   1 2520.45  171.98
   0  24  -1 3023.50  177.18
   0  24  -1 3168.68  172.68
   2 -24   1  931.21   61.79
   2 -24   1  921.31   65.19
   2 -24   1  976.30   61.29
  -2 -24  -1  956.50   65.39
  -2  24  -1  969.10   60.59
  -4 -24  -1  847.12   59.99
  -4  24  -1  819.12   54.69
  -4  24  -1  850.51   55.89
   4  24   1  834.42   56.99
  -5 -25   1   15.50    5.70
  -5 -25   1    0.00   17.30
  -5  25   1   41.90   11.10
  -5  25   1   28.00    6.60
   5  25  -1   10.80   12.50
  -3 -25   1    2.70   13.60
  -3 -25   1    8.00    3.10
   3 -25  -1   23.80   14.10
   3 -25  -1   23.20    9.10
  -3  25   1   23.70    7.60
  -3  25   1   12.40    3.90
   3  25  -1    9.60    6.90
  -1 -25   1  229.78   15.20
   1 -25  -1  201.08   17.90
   1 -25  -1  173.08   24.50
  -1 -25   1  210.68   25.30
  -1  25   1  224.98   15.20
   1  25  -1  214.38   15.60
  -1 -25  -1   86.99   11.30
   1 -25   1   90.09    9.20
  -1 -25  -1   92.89   15.80
   1 -25   1   93.69   11.40
   1 -25   1   83.79   16.00
  -1  25  -1   89.49    8.40
   1  25   1   94.59    7.90
   3 -25   1   38.10    8.70
  -3 -25  -1   28.00   14.30
   3 -25   1   26.60   13.30
  -3  25  -1   22.40    4.60
   3  25   1   26.60    8.30
  -5  25  -1    2.00    9.30
   5  25   1   -1.00   13.00
  -5  25  -1   -1.00    5.10
   4 -26  -1  621.04   48.60
  -4 -26   1  633.14   41.10
   4 -26  -1  598.84   44.60
  -4 -26   1  695.53   50.69
  -4  26   1  601.24   42.10
  -4  26   1  637.24   44.10
   4  26  -1  599.64   44.60
  -2 -26   1 1027.80   62.39
   2 -26  -1  975.40   64.89
   2 -26  -1  978.10   68.79
  -2 -26   1  930.91   68.79
  -2  26   1 1004.30   64.59
   2  26  -1  961.50   62.89
  -2  26   1 1024.40   62.99
   0 -26  -1 1511.55   98.99
   0 -26   1 1633.64  100.69
   0 -26  -1 1516.85  100.69
   0 -26  -1 1485.55  103.89
   0 -26   1 1605.04  104.29
   0 -26   1 1693.13   99.39
   0  26  -1 1678.43   99.29
   0  26   1 1539.55   98.79
  -2 -26  -1  964.40   70.49
   2 -26   1  989.80   70.39
   2 -26   1 1108.89   66.29
   2 -26   1  999.20   66.59
  -2  26  -1 1059.29   65.39
  -4 -26  -1  726.63   53.29
  -4  26  -1  694.13   46.10
   4  26   1  640.74   48.40
  -4  26  -1  709.03   47.80
  -5 -27   1   -4.00    5.00
  -5 -27   1  -20.50   19.00
  -5  27   1   -2.10    5.50
   5  27  -1   -8.30   12.20
  -5  27   1   -5.50    9.80
   3 -27  -1   70.69   12.20
  -3 -27   1   34.80   16.80
   3 -27  -1   53.19   17.00
  -3  27   1   62.39   12.50
   3  27  -1   36.80    9.60
  -3  27   1   55.59    8.60
  -1 -27   1    5.30    2.70
  -1 -27   1   -5.60   13.20
   1 -27  -1    5.70   13.00
   1 -27  -1    3.70    6.50
   1  27  -1    3.20    3.30
  -1  27   1    5.50    2.60
  -1 -27  -1   10.10    6.30
   1 -27   1   -1.30   13.50
   1 -27   1    0.80    3.10
  -1 -27  -1    3.50   12.10
   1 -27   1    6.00    6.10
  -1  27  -1    0.20    2.70
  -3 -27  -1   21.80   15.50
   3 -27   1   32.80   14.30
   3 -27   1   16.80    8.40
   3  27   1   36.10    9.40
  -3  27  -1   14.00    4.40
  -5 -27  -1    0.90   19.30
   5  27   1  -22.70   13.10
  -5  27  -1    0.80    5.60
  -5  27  -1    4.50   10.00
   4 -28  -1  523.85   39.80
  -4 -28   1  589.24   46.90
   4 -28  -1  504.55   44.90
  -4 -28   1  555.44   35.40
  -4  28   1  496.95   38.60
   4  28  -1  524.95   39.60
  -4  28   1  508.45   36.40
  -2 -28   1  903.21   54.39
   2 -28  -1  855.01   57.39
   2 -28  -1  808.42   61.79
  -2 -28   1  812.62   61.79
  -2  28   1  865.61   54.89
  -2  28   1  866.21   56.79
   2  28  -1  849.61   54.99
   0 -28   1 2231.58  137.19
   0 -28   1 2284.27  135.69
   0 -28  -1 2174.38  137.19
   0 -28  -1 1971.10  140.09
   0 -28   1 2074.99  140.49
   0 -28  -1 2149.88  135.49
   0  28  -1 2258.27  135.59
   0  28   1 2219.08  135.19
   2 -28   1  954.90   65.59
   2 -28   1  967.60   70.09
   2 -28   1 1106.29   65.19
  -2 -28  -1  974.20   70.19
  -2  28  -1 1006.90   64.09
  -4 -28  -1  639.94   50.59
  -4  28  -1  605.74   41.10
   4  28   1  574.54   43.70
  -5 -29   1   -9.60   20.80
  -5 -29   1   -7.60    5.30
  -5  29   1    0.90    5.80
  -5  29   1    2.50   10.80
   5  29  -1  -14.70   13.40
   3 -29  -1   24.80   17.10
   3 -29  -1   23.60   10.40
  -3 -29   1   59.39   18.80
  -3  29   1   12.70    4.60
  -3  29   1   22.20    8.90
  -1 -29   1   14.80   15.40
  -1 -29   1   12.00    3.30
   1 -29  -1   25.10    8.30
   1 -29  -1   12.20   14.60
  -1  29   1   15.70    3.40
   1  29  -1    5.60    3.60
   1 -29   1    6.50    7.00
  -1 -29  -1    7.60   13.70
  -1 -29  -1    1.70    2.60
   1 -29   1   10.10    3.90
   1 -29   1    1.00   14.80
  -1 -29  -1    5.00    7.00
  -1  29  -1    5.80    3.30
   1  29   1    0.50    2.90
  -3 -29  -1   28.50   17.00
   3 -29   1   12.80    8.40
   3 -29   1   28.10   16.40
   3  29   1   28.10    9.40
  -5 -29  -1   29.50   22.10
  -5  29  -1   -0.60    5.90
  -5  29  -1   12.60   11.00
   5  29   1    0.00   14.10
  -4 -30   1  653.03   54.99
  -4 -30   1  699.43   43.80
   4 -30  -1  632.64   53.39
   4 -30  -1  676.43   48.10
  -4  30   1  669.43   47.50
  -4  30   1  672.63   44.90
   4  30  -1  640.14   48.10
   2 -30  -1  929.51   68.79
   2 -30  -1  999.70   63.49
  -2 -30   1  955.70   59.99
  -2 -30   1  888.21   68.69
  -2  30   1  985.00   60.49
   2  30  -1  889.61   60.59
   0 -30  -1 1464.85  107.89
   0 -30   1 1740.93  102.29
   0 -30  -1 1534.05  103.89
   0 -30   1 1616.94  108.69
   0 -30  -1 1607.14  101.99
   0 -30   1 1663.63  103.99
   0  30   1 1617.54  101.59
   0  30  -1 1739.83  102.19
   2 -30   1 1126.39   71.19
   2 -30   1 1093.29   76.39
  -2 -30  -1 1028.00   76.09
   2 -30   1 1069.99   70.89
  -2  30  -1 1084.59   68.99
  -4 -30  -1  452.85   41.90
  -4  30  -1  323.77   27.00
   4  30   1  359.06   31.00
  -5 -31   1   10.90   23.00
  -5 -31   1    8.20    6.90
   5  31  -1   -0.60   14.50
  -5  31   1   21.60    7.00
  -5  31   1   31.20   12.80
   3 -31  -1   77.59   21.60
   3 -31  -1   73.79   13.90
  -3 -31   1   42.40   19.60
  -3  31   1   71.09   12.10
  -3  31   1   64.09   10.20
  -1 -31   1    2.30    3.10
  -1 -31   1   -9.10   16.30
   1 -31  -1   -4.30    8.70
   1 -31  -1   -8.70   16.10
   1  31  -1   -2.40    3.50
  -1  31   1    0.20    2.70
  -1 -31  -1   -0.20   13.10
  -1 -31  -1    6.50    2.90
   1 -31   1    5.00    7.80
  -1 -31  -1   -3.00   15.80
   1 -31   1    4.30    4.20
   1 -31   1    4.60   16.90
   1  31   1    0.50    3.20
  -1  31  -1   -2.40    3.20
   3 -31   1   82.09   20.20
   3 -31   1   78.89   15.40
  -3  31  -1   54.69    7.70
  -5 -31  -1   72.59   25.90
   5  31   1   57.49   17.90
   4 -32  -1  179.28   23.80
  -4 -32   1  214.18   37.00
  -4 -32   1  129.69   14.40
   4  32  -1  140.59   21.60
  -4  32   1  165.98   16.50
  -4  32   1  205.78   22.50
   2 -32  -1 1643.14  115.29
  -2 -32   1 1644.74  115.59
  -2 -32   1 1833.02  107.99
  -2  32   1 1748.43  108.39
   0 -32  -1  553.64   49.30
   0 -32  -1  668.73   54.49
   0 -32   1  726.13   55.99
   0 -32   1  698.43   44.20
   0 -32  -1  690.23   44.10
   0  32  -1  682.33   44.00
   0  32   1  697.73   43.50
  -2 -32  -1  862.11   61.29
   2 -32   1 1046.00   68.69
  -2 -32  -1  775.72   67.79
   2 -32   1  915.71   61.49
   2 -32   1  967.10   60.49
  -2  32  -1  933.51   59.09
  -4  32  -1  369.96   29.10
   4  32   1  423.96   33.80
   3 -33  -1  123.49   20.30
  -3 -33   1  106.59   24.20
  -3 -33   1   87.89   11.70
   3 -33  -1  163.78   26.80
   3  33  -1  112.79   16.50
  -3  33   1  120.19   13.30
  -3  33   1  136.49   18.00
  -1 -33   1    5.70   18.70
   1 -33  -1   -3.10   18.40
   1 -33  -1    2.20    9.50
  -1 -33   1    5.80    3.80
  -1  33   1    8.90    3.50
   1  33  -1    8.30    4.40
  -1 -33  -1    7.90    3.70
   1 -33   1   12.80    5.10
  -1 -33  -1    7.90    8.70
   1 -33   1    5.80   18.20
  -1 -33  -1    2.60   18.00
   1 -33   1    1.90    9.50
  -1  33  -1    5.10    4.00
   3 -33   1  160.48   33.70
   3 -33   1  185.28   22.40
  -3 -33  -1  210.18   36.50
  -3  33  -1  222.38   18.10
   3  33   1  239.68   22.40
  -4 -34   1  502.95   38.30
  -4 -34   1  489.65   53.69
   4 -34  -1  572.44   47.70
   4 -34  -1  657.93   53.99
   4  34  -1  527.15   44.60
  -4  34   1  646.74   40.60
  -4  34   1  646.64   44.30
  -2 -34   1  412.06   26.70
   2 -34  -1  386.96   43.50
  -2 -34   1  462.65   45.00
   2 -34  -1  378.46   32.90
  -2  34   1  337.17   26.90
   0 -34   1 1119.59   74.19
   0 -34   1 1173.58   81.49
   0 -34  -1 1076.39   71.49
   0 -34   1 1231.98   71.89
   0 -34  -1 1005.50   80.69
   0 -34  -1 1053.39   73.89
   0  34  -1 1210.08   71.59
   0  34   1 1090.39   70.99
   2 -34   1  361.96   33.20
   2 -34   1  453.95   43.90
   2 -34   1  428.96   30.20
  -2 -34  -1  352.46   31.70
  -2 -34  -1  339.97   42.50
  -2  34  -1  427.86   27.90
  -4 -34  -1 1099.19   76.99
   4 -34   1  858.31   71.59
   4  34   1 1069.29   69.09
  -4  34  -1  966.00   65.39
  -3 -35   1  261.67   41.40
   3 -35  -1  274.47   41.60
   3 -35  -1  254.57   27.70
  -3 -35   1  278.77   20.70
   3  35  -1  281.07   27.00
  -3  35   1  287.97   22.00
   1 -35  -1   82.89   23.20
   1 -35  -1   71.49   13.50
  -1 -35   1  107.69   25.10
  -1 -35   1   94.79   10.90
  -1  35   1   71.49    9.70
   1  35  -1   92.69   11.20
   1 -35   1   51.19   22.20
   1 -35   1   25.70    6.80
  -1 -35  -1   39.80   10.90
   1 -35   1   45.70   11.50
  -1 -35  -1   34.30   20.50
   1  35   1   36.40    5.50
  -1  35  -1   30.50    5.90
   3 -35   1   53.19   14.90
   3 -35   1   78.69   23.20
  -3 -35  -1   56.19   24.30
  -3  35  -1   79.19   12.10
   3  35   1   56.99   13.30
  -4 -36   1  453.35   31.80
   4 -36  -1  416.36   39.90
  -4 -36   1  526.65   53.19
   4 -36  -1  551.44   51.79
  -4  36   1  464.15   37.90
   4  36  -1  460.35   39.50
  -4  36   1  390.66   33.10
   2 -36  -1  664.83   57.79
   2 -36  -1  589.74   46.50
  -2 -36   1  624.54   57.09
  -2 -36   1  660.33   41.40
  -2  36   1  600.94   41.60
   0 -36  -1  429.96   45.50
   0 -36   1  458.85   46.60
   0 -36   1  409.86   29.00
   0 -36  -1  421.36   28.90
   0 -36  -1  394.86   32.40
   0 -36   1  343.87   32.10
   0  36   1  439.86   27.90
   0  36  -1  389.06   28.30
  -2 -36  -1  735.73   61.99
  -2 -36  -1  734.23   51.89
   2 -36   1  748.33   50.39
   2 -36   1  698.23   51.69
   2 -36   1  746.33   62.09
  -2  36  -1  758.72   48.80
   4 -36   1  429.66   53.89
   4 -36   1  554.84   49.20
  -4 -36  -1  569.54   54.79
   4  36   1  464.45   41.40
  -4  36  -1  484.15   37.10
  -3 -37   1  188.58   15.90
   3 -37  -1  196.08   31.50
  -3 -37   1  204.38   41.30
   3 -37  -1  172.78   23.80
   3  37  -1  133.99   23.90
  -3  37   1  178.28   17.40
  -1 -37   1   68.59   24.50
   1 -37  -1   37.30   12.40
  -1 -37   1   49.50    6.90
   1 -37  -1   13.50   23.10
   1  37  -1   53.79    7.50
   1 -37   1   25.50    6.60
  -1 -37  -1   18.20   11.20
   1 -37   1   21.60   11.40
  -1 -37  -1   11.70   22.10
   1 -37   1   35.20   24.00
  -1 -37  -1   11.40    4.70
  -1  37  -1   24.50    5.50
  -3 -37  -1    8.40   26.10
   3 -37   1   60.59   14.30
  -3 -37  -1   19.30   12.70
   3 -37   1   44.90   24.40
   3  37   1   27.00   12.60
  -3  37  -1   34.60    6.80
   2 -38  -1  359.26   32.90
  -2 -38   1  327.57   25.10
  -2 -38   1  366.16   45.70
   2  38  -1  312.07   26.20
  -2  38   1  380.36   25.50
   0 -38  -1  530.05   53.09
   0 -38   1  626.94   56.09
   0 -38   1  497.85   40.70
   0 -38   1  588.34   37.90
   0 -38  -1  510.35   37.60
   0  38   1  541.45   36.50
   0  38  -1  567.24   37.20
  -2 -38  -1  673.23   45.50
   2 -38   1  555.64   57.09
   2 -38   1  526.35   44.10
  -2 -38  -1  739.23   59.09
   2 -38   1  592.64   43.00
  -2  38  -1  577.14   41.00
   3 -39  -1    3.00   28.10
   3 -39  -1   18.30   14.10
  -3 -39   1   22.10   27.40
  -3 -39   1   14.80   10.10
  -3  39   1   17.40    6.50
   3  39  -1   19.60   14.20
   1 -39  -1   36.90   13.70
   1 -39  -1   45.10   25.90
  -1 -39   1   50.69   25.40
   1  39  -1   45.60    7.40
  -1  39   1   30.20    5.80
  -1 -39  -1   12.50    5.20
  -1 -39  -1    2.30   14.10
   1 -39   1   16.40   11.50
   1 -39   1   21.50    6.70
   1 -39   1   28.30   25.00
  -1 -39  -1   10.30   23.60
  -1  39  -1    5.10    4.80
   1  39   1    7.80    4.80
   3 -39   1   67.49   16.20
  -3 -39  -1   73.29   29.60
   3 -39   1   77.89   28.20
  -3 -39  -1   93.99   17.60
  -3  39  -1   70.49    9.80
  -2 -40   1  400.76   35.60
  -2 -40   1  420.36   52.49
   2 -40  -1  567.14   54.69
   2 -40  -1  454.45   39.30
  -2  40   1  469.85   32.00
   2  40  -1  441.56   33.00
   0 -40   1  568.14   46.30
   0 -40  -1  735.83   61.09
   0 -40  -1  695.83   43.70
   0 -40   1  594.94   43.40
   0 -40   1  638.34   60.79
   0  40  -1  577.54   42.60
   0  40   1  691.03   42.30
  -2 -40  -1  272.17   27.80
   2 -40   1  220.58   26.10
   2 -40   1  296.37   47.00
   2 -40   1  240.98   23.90
  -2  40  -1  219.88   20.60
  -1 -41   1    6.60    5.90
   1 -41  -1   -4.30   28.00
  -1 -41   1   -6.30   26.10
  -1  41   1    0.10    4.90
   1  41  -1   -3.20    5.90
   1 -41   1   -0.10    6.70
   1 -41   1    1.20   12.00
  -1 -41  -1    4.00   27.70
  -1 -41  -1   -2.10    5.70
   1 -41   1   -3.40   27.20
   1  41   1    0.50    5.10
  -1  41  -1   -2.00    5.20
   0 -42  -1  459.15   56.99
   0 -42   1  503.75   35.80
   0 -42   1  581.04   58.39
   0  42   1  474.25   34.10
   0  42  -1  502.05   34.80
   1 -43  -1   -3.20   41.30
  -1 -43   1   -1.40    6.20
   1  43  -1   -1.90    6.70
  -1  43   1   -3.20    5.20
   1 -43   1    0.70    7.40
  -1 -43  -1    3.00    6.40
   1 -43   1   -4.50   30.10
  -1 -43  -1    5.60   37.70
   1  43   1  -10.00    5.70
  -1  43  -1    0.30    5.80
  -6   0   2 1148.79   77.89
  -4   0   2 1341.57   84.89
  -4   0   2 1291.47   84.29
   2   0  -2 2585.04  160.58
   2   0  -2 2468.65  160.48
  -2   0   2 2628.44  160.58
  -2   0   2 2634.04  160.78
   0   0   2  310.47   22.30
   0   0   2  364.36   21.40
  -2   0  -2  315.17   21.00
  -2   0  -2  295.77   19.70
  -4   0  -2 4535.95  288.67
  -4   0  -2 4728.63  287.17
  -6   0  -2  206.08   19.70
  -5  -1   2    5.00    8.20
  -5   1   2   -5.30    7.90
  -3  -1   2  495.35   34.70
  -3  -1   2  479.75   35.10
   3  -1  -2  538.55   35.00
  -3   1   2  549.05   35.00
   3   1  -2  473.75   34.80
  -3   1   2  571.34   35.10
  -1  -1   2   47.70    7.60
   1  -1  -2   56.59    5.90
  -1  -1   2   42.10    4.70
   1  -1  -2   52.99    7.20
  -1   1   2   41.30    6.50
   1   1  -2   48.30    7.60
   1   1  -2   48.10    5.20
  -1   1   2   53.59    5.00
  -1  -1  -2  151.48    9.00
   1  -1   2  128.49    9.00
  -1   1  -2  128.29    9.00
  -3  -1  -2   84.89   10.60
  -3  -1  -2  106.99    8.00
  -3   1  -2   92.09    7.90
  -3   1  -2   90.49   10.70
  -5  -1  -2   36.30   10.90
  -5  -1  -2   32.00    5.20
  -5   1  -2   19.90   10.20
  -5   1  -2   19.50    4.60
  -6  -2   2  401.16   34.80
  -6   2   2  416.26   35.30
  -4  -2   2  999.20   62.39
   4   2  -2  922.11   62.29
  -4   2   2  925.71   61.69
  -4   2   2  944.91   62.29
  -2  -2   2 2267.67  145.39
   2  -2  -2 2389.36  145.19
   2  -2  -2 2347.67  145.09
  -2  -2   2 2324.27  144.99
  -2   2   2 2406.06  145.09
   2   2  -2 2275.97  145.09
   2   2  -2 2271.77  145.09
  -2   2   2 2340.97  145.29
   0  -2   2 2388.36  151.88
   0  -2   2 2492.95  151.18
   0  -2  -2 2322.57  151.68
   0   2   2 2409.66  151.68
   0   2  -2 2526.75  151.98
   0   2  -2 2545.95  151.28
  -2  -2  -2 2031.00  133.79
  -2   2  -2 2264.57  133.19
  -4  -2  -2   40.80   10.10
  -4   2  -2   47.60   10.60
  -4   2  -2   31.70    5.00
  -6  -2  -2 2200.98  140.99
  -6  -2  -2 2337.67  144.79
  -6   2  -2 2176.38  141.19
  -6   2  -2 2238.78  144.79
  -5  -3   2   40.30   10.50
  -5  -3   2   28.30    9.60
  -5   3   2   39.40   10.40
   5   3  -2   20.30    9.70
  -3  -3   2   -3.60    6.20
  -3  -3   2   -2.20    3.80
   3   3  -2   -0.70    4.40
  -3   3   2    1.20    4.50
  -3   3   2    5.40    4.40
   1  -3  -2 3801.82  220.68
  -1  -3   2 3322.37  220.78
   1   3  -2 3320.97  220.08
  -1   3   2 3881.81  220.78
   1   3  -2 3262.07  220.68
  -1   3   2 3770.32  220.08
   1  -3   2  681.33   44.50
  -1  -3  -2  798.22   44.80
  -1   3  -2  659.23   44.40
  -3  -3  -2  130.09    9.80
  -3  -3  -2  124.79   12.10
  -3   3  -2  127.69   12.40
  -3   3  -2  134.09   10.00
  -5  -3  -2   32.10   11.10
  -5   3  -2   28.50   11.80
  -5   3  -2   18.80    4.70
  -6  -4   2  311.27   28.70
  -6   4   2  220.18   28.30
  -4  -4   2 1165.68   73.89
  -4  -4   2 1103.49   73.79
  -4   4   2 1187.58   74.19
  -4   4   2 1140.59   73.49
   4   4  -2 1100.69   73.99
  -2  -4   2 1630.54  107.09
   2  -4  -2 1738.63  106.79
  -2  -4   2 1716.13  106.59
   2   4  -2 1649.93  106.79
  -2   4   2 1758.62  106.99
  -2   4   2 1780.22  106.79
   2   4  -2 1655.23  106.89
   0  -4   2 3771.02  232.98
   0  -4   2 3802.42  232.18
   0  -4  -2 3686.33  232.68
   0   4  -2 3901.21  232.28
   0   4  -2 3730.33  233.08
   0   4   2 3681.53  232.58
   2  -4   2 2407.76  135.59
  -2  -4  -2 2156.68  135.89
   2   4   2 1924.11  135.69
  -2   4  -2 2234.88  135.29
  -4  -4  -2 2502.25  156.78
  -4   4  -2 2514.85  155.18
  -4   4  -2 2442.46  156.98
  -6   4  -2  200.88   27.60
  -6   4  -2  174.08   17.90
  -5  -5   2   67.29   13.30
  -5   5   2   55.99   12.50
  -5   5   2   79.19   12.00
   5   5  -2   70.49   12.40
  -3  -5   2  324.17   21.90
  -3  -5   2  286.37   22.90
   3   5  -2  311.87   22.40
  -3   5   2  301.07   22.10
  -3   5   2  295.27   22.10
  -1  -5   2  156.38   10.90
  -1  -5   2  162.28   14.00
   1  -5  -2  152.18   12.30
   1   5  -2  165.08   14.00
  -1   5   2  162.98   12.30
   1   5  -2  145.29   11.10
   1  -5   2  180.28   11.60
  -1   5  -2  167.18   11.50
  -3  -5  -2  234.08   17.10
   3   5   2  211.08   16.80
  -3   5  -2  208.98   15.20
  -5  -5  -2   41.20   11.40
  -5   5  -2   33.00   12.80
  -6  -6   2  389.16   36.40
  -6   6   2  309.87   28.30
  -6   6   2  304.17   32.00
   6   6  -2  345.17   31.90
  -4  -6   2  836.62   52.19
  -4   6   2  787.52   52.59
  -4   6   2  746.53   51.79
   4   6  -2  762.82   52.39
  -2  -6   2 2368.16  146.89
  -2  -6   2 2463.15  146.39
   2  -6  -2 2326.57  146.49
   2   6  -2 2271.77  146.39
  -2   6   2 2310.57  146.39
  -2   6   2 2316.27  146.49
   2   6  -2 2381.96  146.79
   0  -6   2 9394.96  594.84
   0  -6  -2 9775.52  594.44
   0   6  -2 9374.56  594.84
   0   6   2 9999.00  594.34
  -2  -6  -2 1455.05   89.99
   2  -6   2 1507.75   89.69
   2   6   2 1353.76   89.99
  -2   6  -2 1423.46   89.39
  -4  -6  -2 1114.49   71.09
  -4   6  -2 1113.69   69.19
   4   6   2 1030.20   70.79
  -4   6  -2 1089.69   71.49
  -6  -6  -2  597.54   43.80
  -6   6  -2  510.05   45.00
  -6   6  -2  516.25   37.60
  -5   7   2  118.79   15.50
  -5   7   2   95.29   14.40
   5   7  -2  103.19   15.20
  -3  -7   2  182.38   17.70
   3  -7  -2  216.88   16.10
  -3  -7   2  177.08   15.30
  -3   7   2  206.68   16.00
  -3   7   2  210.38   16.30
   3   7  -2  178.58   16.00
  -1  -7   2 1616.64   96.59
  -1  -7   2 1521.65   97.89
   1   7  -2 1520.05   97.89
   1  -7   2  537.85   31.20
   1  -7   2  438.76   32.00
  -1   7  -2  530.15   31.10
  -1   7  -2  454.15   32.40
  -3  -7  -2  529.45   32.50
   3   7   2  480.65   32.50
  -3   7  -2  431.46   31.00
  -5  -7  -2   51.49   11.80
  -5   7  -2   79.29    9.60
   6   8  -2  925.91   61.29
  -6   8   2  839.32   60.99
  -6   8   2  801.82   57.99
  -4  -8   2 1727.83  111.19
  -4  -8   2 1859.71  111.29
  -4   8   2 1665.63  110.69
   4   8  -2 1775.12  111.69
  -4   8   2 1717.63  111.59
  -2  -8   2  983.50   67.09
   2  -8  -2 1123.49   66.49
   2   8  -2  984.40   66.99
  -2   8   2 1119.79   66.39
   2   8  -2  994.90   65.99
   0  -8   2 1424.06  100.49
   0  -8   2 1687.23   99.29
   0   8  -2 1685.53   99.39
   2  -8   2 1131.69   64.29
  -2  -8  -2  959.20   64.19
   2   8   2  924.31   64.39
  -2   8  -2 1057.59   63.89
  -4  -8  -2 1841.52  115.09
  -4   8  -2 1784.52  113.69
   4   8   2 1809.42  115.29
  -6  -8  -2  353.86   33.00
  -6   8  -2  317.47   34.10
  -6   8  -2  318.47   25.40
  -5  -9   2   12.40   13.50
  -5  -9   2   15.60   10.70
  -5   9   2   12.80    8.30
   5   9  -2   -0.70    9.90
  -3  -9   2    3.10    7.30
   3  -9  -2    2.20    4.90
  -3  -9   2    3.40    4.40
  -3   9   2    3.70    5.10
  -3   9   2    3.30    4.90
   3   9  -2   -4.60    4.30
  -1  -9   2 1071.49   61.29
   1  -9  -2  862.91   61.89
  -1  -9   2  977.20   63.19
   1   9  -2 1070.89   61.49
  -1   9   2  894.21   61.89
   1   9  -2  999.70   63.19
   1  -9   2  454.85   27.20
   1  -9   2  402.96   28.60
  -1   9  -2  444.06   27.10
  -1   9  -2  390.66   28.90
  -3  -9  -2  248.18   19.30
  -3   9  -2  303.97   18.40
   3   9   2  235.38   19.80
  -5  -9  -2   88.99   13.70
  -5   9  -2   74.29   10.20
  -5   9  -2   61.49   20.60
   5   9   2   76.69   13.20
   6  10  -2  752.02   54.39
  -6  10   2  726.73   54.39
  -4 -10   2 2485.35  145.79
  -4 -10   2 2236.18  145.59
  -4  10   2 2221.68  145.19
   4  10  -2 2302.77  146.09
  -4  10   2 2302.77  146.09
  -2 -10   2  931.21   61.39
   2 -10  -2  956.30   60.49
   2  10  -2  939.51   61.29
   2  10  -2  919.41   59.99
  -2  10   2  965.60   60.29
   0 -10   2  586.74   43.10
   0 -10   2  707.13   41.00
   0  10  -2  698.43   41.10
   0  10  -2  602.14   43.30
  -2 -10  -2  372.86   26.40
   2 -10   2  452.15   26.70
  -2  10  -2  419.46   26.30
   2  10   2  371.26   27.00
  -4 -10  -2 1354.96   81.49
   4  10   2 1241.98   81.69
  -4  10  -2 1190.48   79.79
  -6 -10  -2  621.74   48.60
  -6  10  -2  637.64   44.40
  -6  10  -2  684.33   51.49
  -5 -11   2   96.09   14.80
   5  11  -2  111.59   15.60
  -5  11   2  114.19   14.80
   3 -11  -2   11.30    6.00
  -3 -11   2   27.30    8.70
  -3 -11   2   21.40    5.20
   3  11  -2   19.50    8.80
  -3  11   2    8.50    5.40
   3  11  -2   20.80    5.80
   1 -11  -2  234.48   19.10
  -1 -11   2  279.07   21.90
  -1 -11   2  300.87   18.00
   1  11  -2  296.87   18.30
   1  11  -2  286.77   21.80
  -1  11   2  246.98   19.00
   1 -11   2  223.88   18.40
  -1 -11  -2  204.58   15.90
   1 -11   2  264.47   15.90
  -1  11  -2  229.38   18.90
  -1  11  -2  252.07   15.70
  -3 -11  -2   96.89   10.50
  -3  11  -2  115.29    9.00
   3  11   2  103.29   11.70
  -5 -11  -2   62.09   11.80
  -5  11  -2   50.09   14.10
   5  11   2   47.10   12.10
  -5  11  -2   34.40    6.00
   6  12  -2  965.40   64.29
  -6  12   2  855.11   60.39
  -6  12   2  866.51   63.59
  -4 -12   2 1302.77   84.79
  -4 -12   2 1366.96   83.89
  -4  12   2 1297.67   84.69
  -4  12   2 1251.27   83.69
   2 -12  -2 1358.56   85.59
  -2 -12   2 1360.36   84.49
  -2 -12   2 1347.37   86.59
   2  12  -2 1335.17   86.59
  -2  12   2 1347.87   85.39
   0 -12   2 1402.06   84.59
   0 -12  -2 1435.66   85.29
   0 -12   2 1267.37   86.59
   0  12   2 1471.85   85.19
   0  12  -2 1174.58   86.29
   0  12  -2 1386.96   84.59
   2 -12   2 1707.03   97.09
  -2  12  -2 1412.26   97.99
  -2  12  -2 1578.14   96.69
   2  12   2 1495.25   97.19
  -4 -12  -2  819.82   53.39
  -4  12  -2  774.12   51.89
   4  12   2  822.42   54.19
  -6 -12  -2  651.33   49.50
   6  12   2  705.33   51.69
  -6  12  -2  648.04   45.50
  -6  12  -2  663.23   52.39
  -5 -13   2    8.50    7.60
  -5 -13   2    0.10   11.30
  -5  13   2    2.20    7.80
  -5  13   2    5.90   10.10
   5  13  -2    7.60   10.40
   3 -13  -2  273.77   22.00
  -3 -13   2  325.57   24.40
   3  13  -2  281.37   21.30
  -3  13   2  260.27   21.20
   3  13  -2  308.27   24.70
  -1 -13   2  295.77   24.60
  -1 -13   2  333.37   20.70
   1 -13  -2  314.87   22.10
  -1  13   2  308.67   21.80
   1  13  -2  319.17   25.20
   1  13  -2  327.57   21.00
   1 -13   2  791.62   56.19
   1 -13   2  926.81   54.49
  -1 -13  -2  930.11   54.69
  -1  13  -2  754.52   56.39
  -1  13  -2  904.81   54.29
  -3 -13  -2   26.20    5.50
  -3  13  -2   15.00    3.30
   3  13   2   15.80    6.00
  -5 -13  -2   20.80   10.10
  -5  13  -2   19.40    4.90
   5  13   2    7.50   10.70
  -6  14   2  586.74   42.70
  -6  14   2  561.94   46.10
   6  14  -2  592.24   46.40
  -4 -14   2 1411.76   86.59
   4  14  -2 1355.46   85.89
  -4  14   2 1210.38   84.79
  -2 -14   2 1310.17   88.39
  -2 -14   2 1368.46   85.99
   2 -14  -2 1470.55   87.49
   2  14  -2 1303.47   88.49
  -2  14   2 1425.06   87.19
   2  14  -2 1369.26   86.79
   0 -14   2 1999.10  120.79
   0 -14   2 1763.02  122.69
   0 -14  -2 2013.00  121.49
   0  14   2 2097.09  121.49
   0  14  -2 1811.02  122.89
   0  14  -2 1976.30  120.89
   2 -14   2 1743.93  100.09
  -2  14  -2 1423.06  101.19
   2  14   2 1571.94  100.09
  -2  14  -2 1637.04   99.59
  -4 -14  -2  787.62   51.19
  -4  14  -2  739.93   49.60
   4  14   2  775.52   51.99
  -6 -14  -2  440.06   38.80
  -6  14  -2  452.95   34.30
   6  14   2  541.25   41.90
  -6  14  -2  491.45   43.50
  -5 -15   2   66.89   14.70
  -5 -15   2   50.19   10.50
  -5  15   2   79.09   11.80
   5  15  -2   47.50   13.20
  -5  15   2   72.19   13.90
   3 -15  -2   29.40    7.90
  -3 -15   2   26.90   10.20
   3  15  -2   21.20    6.20
  -3  15   2   27.10    6.70
   3  15  -2   21.10   10.50
  -1 -15   2  689.23   44.10
   1 -15  -2  562.64   41.60
   1  15  -2  755.82   40.90
  -1  15   2  579.74   41.40
   1  15  -2  683.53   44.20
  -1  15   2  570.24   40.50
  -1 -15  -2  196.38   13.60
   1 -15   2  165.98   17.70
   1 -15   2  193.38   13.10
  -1  15  -2  189.08   12.90
  -1  15  -2  153.78   18.40
  -3  15  -2  128.59   10.20
  -3  15  -2  121.09   10.80
   3  15   2  103.39   12.50
   5  15   2   25.30   12.50
  -5  15  -2   10.90    4.40
  -6  16   2  802.62   55.39
   6  16  -2  808.42   58.49
  -6  16   2  767.42   58.39
   4 -16  -2  754.42   56.79
   4 -16  -2  831.82   55.29
   4  16  -2  919.91   56.39
  -4  16   2  830.42   55.49
   2 -16  -2 1713.23  106.59
  -2 -16   2 1596.44  107.79
  -2 -16   2 1696.23  105.19
   2  16  -2 1642.24  108.09
  -2  16   2 1777.72  106.49
   0 -16  -2 1750.32  104.29
   0 -16   2 1688.13  103.39
   0 -16   2 1526.45  105.89
   0  16  -2 1451.35  105.69
   0  16   2 1821.82  104.19
   0  16  -2 1711.33  103.49
   2 -16   2 2024.70  125.79
   2 -16   2 2191.08  126.09
   2 -16   2 1884.11  126.89
  -2  16  -2 2062.49  125.59
  -2  16  -2 1811.32  127.59
   2  16   2 2109.99  126.09
  -4 -16  -2  595.74   39.90
  -4  16  -2  584.14   38.70
   4  16   2  572.54   41.40
  -6 -16  -2  372.56   34.10
  -6  16  -2  369.56   29.20
   6  16   2  415.26   37.40
  -6  16  -2  389.76   38.90
  -5 -17   2    3.60   12.80
  -5  17   2   -1.00    8.30
   5  17  -2    3.00   10.10
  -5  17   2    1.90   11.10
   3 -17  -2  205.38   18.30
  -3 -17   2  207.88   21.90
  -3 -17   2  213.08   15.30
  -3  17   2  210.88   17.50
   3  17  -2  206.18   17.20
   3  17  -2  200.48   22.00
  -1 -17   2  626.74   47.20
  -1 -17   2  672.13   43.20
   1 -17  -2  705.83   44.70
  -1  17   2  743.73   43.50
   1  17  -2  641.94   43.50
   1  17  -2  624.34   47.40
  -1  17   2  746.73   44.70
   1 -17   2  994.70   58.99
   1 -17   2  828.12   61.39
   1 -17   2  959.30   59.49
  -1 -17  -2 1032.90   59.59
  -1  17  -2  953.20   58.79
  -1  17  -2  811.02   61.89
   3 -17   2    2.90    3.90
   3  17   2   11.50    6.30
  -3  17  -2    4.30    2.80
  -3  17  -2   11.40   10.70
  -5 -17  -2   32.10   10.20
   5  17   2   25.50   12.10
  -5  17  -2   21.00    5.50
  -6 -18   2  424.56   38.80
  -6  18   2  412.36   34.10
  -6  18   2  386.16   38.80
   6  18  -2  435.66   38.30
   4 -18  -2 1664.93  108.39
   4 -18  -2 1538.05  109.39
  -4 -18   2 1811.32  107.09
  -4 -18   2 1800.02  109.99
  -4  18   2 1651.63  108.19
   4  18  -2 1722.23  108.99
   2 -18  -2  598.64   40.60
  -2 -18   2  618.84   38.60
  -2 -18   2  581.74   43.30
  -2  18   2  608.14   40.10
  -2  18   2  619.04   39.10
   2  18  -2  574.44   43.90
   0 -18  -2 4332.97  256.47
   0 -18   2 4052.39  255.47
   0 -18   2 3974.80  257.97
   0  18  -2 4037.00  255.57
   0  18  -2 3928.71  258.17
   0  18   2 4447.35  256.37
   2 -18   2  735.43   44.30
   2 -18   2  685.33   44.20
   2 -18   2  670.13   46.60
  -2  18  -2  673.93   43.60
  -2  18  -2  626.24   47.90
  -4  18  -2  881.61   60.69
  -4  18  -2  866.01   55.99
   4  18   2  827.12   58.09
  -4  18  -2  883.21   56.29
  -6 -18  -2  315.97   30.20
   6  18   2  314.37   34.70
  -6  18  -2  313.67   25.80
  -5 -19   2   -9.50   13.80
  -5  19   2   24.80    9.30
   5  19  -2   11.40   11.60
  -5  19   2   23.50    6.20
  -3 -19   2    5.00    2.90
  -3 -19   2    5.90   10.40
   3 -19  -2    3.00    7.50
  -3  19   2    2.90    3.30
   3  19  -2   10.90   11.30
   3  19  -2    5.30    5.90
  -3  19   2    3.00    6.00
   1 -19  -2    5.10    5.00
  -1 -19   2    2.20    2.10
  -1 -19   2    6.40    9.50
   1  19  -2    3.30   10.90
  -1  19   2    3.90    4.20
   1  19  -2    1.70    2.50
  -1  19   2    2.70    2.10
   1 -19   2   35.60    6.00
   1 -19   2   22.00    3.60
  -1 -19  -2   28.50    5.30
   1 -19   2   20.00   10.00
  -1  19  -2   16.70   11.30
  -1  19  -2   19.80    3.30
   3 -19   2  162.08   14.00
   3  19   2  175.18   14.70
  -3  19  -2  126.79   22.30
  -3  19  -2  145.59   12.50
  -5  19  -2    3.80    4.60
   5  19   2   -4.20   11.50
  -6 -20   2  402.56   39.60
  -6  20   2  395.96   32.50
  -6  20   2  440.26   34.50
   6  20  -2  377.56   38.70
  -4 -20   2 1015.40   68.29
   4 -20  -2  987.90   65.79
   4 -20  -2  898.31   67.49
  -4 -20   2 1035.40   63.59
  -4  20   2  999.80   65.39
  -4  20   2 1011.10   64.49
   4  20  -2  978.20   65.79
  -2 -20   2 1398.56   88.49
  -2 -20   2 1271.37   91.99
   2 -20  -2 1450.95   90.39
  -2  20   2 1469.45   90.09
   2  20  -2 1389.76   92.79
  -2  20   2 1490.65   89.09
   0 -20   2 1774.02  105.49
   0 -20  -2 1553.24  106.29
   0 -20   2 1661.63  108.99
   0  20  -2 1660.03  109.19
   0  20  -2 1794.62  105.59
   2 -20   2 1523.95   96.09
   2 -20   2 1618.14   96.09
   2 -20   2 1439.66   97.79
  -2  20  -2 1520.15   95.49
   2  20   2 1637.74   96.19
  -2  20  -2 1384.66   98.99
   4  20   2  679.53   48.10
  -4  20  -2  688.23   46.00
  -4  20  -2  684.33   45.50
  -4  20  -2  709.13   51.99
   6  20   2  552.74   47.30
  -6  20  -2  541.45   39.10
  -5 -21   2  -17.90   14.50
  -5 -21   2   -2.50    5.10
   5  21  -2    0.80   11.00
  -5  21   2    2.90    8.90
  -5  21   2    6.80    5.60
  -3 -21   2   -0.30    2.90
  -3 -21   2    7.70   11.80
   3 -21  -2    1.50    8.00
   3  21  -2    0.50    6.00
  -3  21   2    4.10    5.70
   3  21  -2    0.30   12.30
  -3  21   2    6.40    3.60
  -1 -21   2   10.70   11.00
  -1 -21   2   11.60    2.70
   1 -21  -2   27.00    6.70
  -1  21   2   22.40    5.60
   1  21  -2    9.60    3.00
  -1  21   2   18.10    2.80
   1  21  -2   12.90   12.40
   1 -21   2   21.80   10.80
   1 -21   2   22.00    3.90
   1 -21   2   30.80    6.30
  -1 -21  -2   37.10    6.30
  -1  21  -2   24.90    3.70
  -1  21  -2   26.00   12.60
   3 -21   2  121.49   13.00
  -3  21  -2  116.89   11.10
  -3  21  -2  134.79   19.20
   5  21   2   -5.10   12.00
  -5  21  -2    5.40    4.80
  -6 -22   2  322.87   27.20
  -6 -22   2  318.57   38.30
   6  22  -2  326.17   36.10
  -6  22   2  399.46   31.90
  -6  22   2  333.57   28.50
  -4 -22   2 1103.59   68.09
   4 -22  -2 1061.59   70.49
   4 -22  -2  992.10   72.59
  -4 -22   2 1093.59   73.09
  -4  22   2 1092.49   68.99
  -4  22   2 1057.79   69.89
   4  22  -2 1037.90   70.49
   2 -22  -2  639.34   44.90
  -2 -22   2  645.24   48.60
  -2 -22   2  693.73   42.70
   2  22  -2  684.23   49.80
  -2  22   2  655.13   44.50
  -2  22   2  675.73   43.20
   0 -22  -2 2059.59  139.29
   0 -22   2 2201.88  141.89
   0 -22   2 2380.16  138.29
   0  22   2 2121.99  137.59
   0  22  -2 2347.47  138.39
   0  22  -2 2208.78  142.29
   2 -22   2  646.34   44.40
   2 -22   2  664.73   44.00
  -2 -22  -2  744.33   44.60
   2 -22   2  650.13   47.60
   2  22   2  720.63   44.20
  -2  22  -2  624.34   49.70
  -2  22  -2  639.94   43.30
  -4 -22  -2  846.72   61.39
  -4  22  -2  919.81   57.29
   4  22   2  865.31   59.39
   6  22   2  703.73   52.09
  -6  22  -2  553.24   44.00
  -5 -23   2   -1.50    5.60
  -5 -23   2    4.00   16.60
  -5  23   2    5.30    5.70
  -5  23   2   -3.70    9.50
   5  23  -2    3.90   11.60
  -3 -23   2   97.09   16.90
   3 -23  -2   72.49   14.70
  -3 -23   2   76.79    8.80
   3 -23  -2   81.29   17.00
  -3  23   2   73.09    9.30
  -3  23   2   74.79   12.70
   3  23  -2   82.39   16.90
   3  23  -2   81.89   12.20
  -1 -23   2   25.60    3.60
   1 -23  -2   18.40    6.80
  -1 -23   2   26.10   12.50
   1  23  -2   18.60    3.90
   1  23  -2   31.40   14.40
  -1  23   2   15.00    2.90
  -1  23   2   28.60    6.50
   1 -23   2   55.59    7.00
   1 -23   2   50.09    9.20
  -1 -23  -2   36.70    7.10
   1 -23   2   54.99   13.10
  -1  23  -2   51.49    6.40
  -1  23  -2   40.00   14.20
   3 -23   2   30.10    6.10
  -3  23  -2   18.50   16.70
  -3  23  -2   19.20    4.40
   3  23   2   12.80    7.00
  -5  23  -2   -1.60    8.10
   5  23   2  -12.70   12.60
  -5  23  -2   -1.90    5.00
   4 -24  -2  684.13   48.90
  -4 -24   2  698.93   52.69
   4 -24  -2  686.63   52.49
  -4 -24   2  720.73   45.70
  -4  24   2  680.53   46.70
   4  24  -2  656.43   48.60
  -4  24   2  737.93   48.50
  -2 -24   2 1105.29   79.99
   2 -24  -2 1189.78   77.09
  -2 -24   2 1225.58   74.79
  -2  24   2 1234.68   76.59
   2  24  -2 1137.39   80.69
  -2  24   2 1216.98   75.19
   0 -24   2  409.06   35.50
   0 -24   2  421.16   28.20
   0  24  -2  459.05   37.80
   0  24  -2  421.06   28.20
  -2 -24  -2 1270.07   82.89
   2 -24   2 1406.56   82.79
   2 -24   2 1244.18   85.69
   2 -24   2 1313.07   83.09
  -2  24  -2 1257.57   87.49
   2  24   2 1279.17   82.59
  -2  24  -2 1310.67   81.89
  -4  24  -2  602.44   42.20
   4  24   2  664.53   45.30
  -5 -25   2   -2.50   17.00
  -5  25   2   -0.40   10.00
  -5  25   2   -3.60    5.50
   5  25  -2   -5.60   11.50
   3 -25  -2   52.39   16.70
  -3 -25   2   49.30   15.90
   3 -25  -2   70.09   12.20
  -3  25   2   52.79    8.60
   3  25  -2   36.80    9.30
  -3  25   2   54.49    9.70
  -1 -25   2    9.40    3.10
   1 -25  -2    5.20    6.50
  -1 -25   2   15.30   12.60
  -1  25   2   10.90    2.80
  -1  25   2   13.00    6.00
   1  25  -2   10.70    3.70
   1  25  -2    9.40   14.40
   1 -25   2   37.40   14.00
   1 -25   2   21.80    4.20
   1 -25   2   36.30    7.40
  -1 -25  -2   28.80    6.90
  -1  25  -2   30.70   15.70
  -1  25  -2   21.80    4.20
   3 -25   2   16.60    6.50
   3 -25   2   23.90    8.20
   3 -25   2   15.10   12.70
  -3 -25  -2   13.80   14.30
  -3  25  -2   12.00    4.20
   3  25   2    9.80    7.00
  -3  25  -2    6.60   18.00
   5  25   2    5.20   14.10
  -5  25  -2   -4.70    5.30
  -4 -26   2  666.03   51.79
   4 -26  -2  636.44   46.60
   4 -26  -2  624.64   51.09
  -4 -26   2  658.73   43.30
  -4  26   2  664.23   44.30
  -4  26   2  669.13   46.40
  -2 -26   2  871.71   54.89
   2 -26  -2  857.41   61.69
   2 -26  -2  865.01   57.69
  -2 -26   2  835.02   62.09
   2  26  -2  846.92   62.89
   2  26  -2  839.92   55.59
  -2  26   2  878.51   55.29
  -2  26   2  889.11   57.19
   0 -26   2 1522.45   89.39
   0 -26  -2 1245.08   90.59
   0 -26   2 1368.56   94.19
   0  26  -2 1469.15   89.39
   0  26  -2 1494.75   95.59
   2 -26   2  805.72   55.59
  -2 -26  -2  893.71   55.79
   2 -26   2  841.82   55.09
   2 -26   2  861.11   59.89
  -2  26  -2  812.22   54.19
  -2  26  -2  859.01   62.79
  -4 -26  -2  487.85   43.20
   4  26   2  501.65   38.30
  -4  26  -2  530.25   35.30
  -5 -27   2   -8.50   19.40
  -5 -27   2   -1.60    5.70
   5  27  -2  -11.50   12.90
  -5  27   2    2.80    5.70
  -5  27   2    8.80   11.40
   3 -27  -2    2.60   15.80
   3 -27  -2   -0.60    9.50
  -3 -27   2    0.20    3.40
  -3 -27   2   -5.20   15.80
  -3  27   2    2.40    7.40
   3  27  -2   -0.40    7.70
  -3  27   2    4.90    3.70
  -1 -27   2  119.09   24.20
  -1 -27   2  144.49   11.10
   1 -27  -2  121.29   15.40
  -1  27   2  120.09   10.30
   1  27  -2  124.79   11.70
   1  27  -2  148.79   28.30
  -1 -27  -2   45.00    8.70
   1 -27   2   65.09   16.20
   1 -27   2   43.80    6.00
   1 -27   2   64.49    9.80
  -1  27  -2   41.40    5.50
  -1  27  -2   54.99   18.80
   3 -27   2   40.20    9.70
   3 -27   2   33.90    7.10
  -3 -27  -2   40.00   16.80
   3 -27   2   46.30   14.70
  -3  27  -2   22.00    5.20
   3  27   2   42.70    9.30
  -3  27  -2   32.00   21.50
  -5 -27  -2   -6.20   19.40
  -5  27  -2   -2.10    5.70
   5  27   2   -7.30   14.40
   4 -28  -2  550.34   41.80
  -4 -28   2  551.94   37.30
  -4 -28   2  486.15   47.30
   4 -28  -2  591.14   48.30
  -4  28   2  581.84   41.00
  -4  28   2  590.94   38.70
   4  28  -2  515.85   40.90
  -2 -28   2  876.21   67.49
   2 -28  -2  945.51   63.09
  -2 -28   2  966.30   59.99
   2 -28  -2  965.40   68.09
   2  28  -2  915.51   60.69
  -2  28   2  930.21   60.19
   2  28  -2  963.90   69.39
  -2  28   2  966.50   62.49
   0 -28  -2 1539.65  112.89
   0 -28   2 1981.10  111.69
   0 -28   2 1825.42  117.09
   0  28   2 1539.25  110.59
   0  28  -2 1892.31  111.59
   0  28  -2 1911.21  118.49
  -2 -28  -2 1253.37   86.79
   2 -28   2 1283.67   86.49
   2 -28   2 1305.77   82.39
  -2 -28  -2 1311.57   82.59
   2 -28   2 1245.58   82.39
  -2  28  -2 1233.58   80.89
  -2  28  -2 1315.07   89.29
  -4 -28  -2  508.45   42.70
   4  28   2  437.16   35.50
  -4  28  -2  438.16   32.40
   5 -29  -2   -9.90   11.90
  -5 -29   2    0.90   21.10
  -5 -29   2   -0.90    5.80
   5  29  -2    2.40   13.50
  -5  29   2    5.50    6.50
  -5  29   2    8.60   11.90
   3 -29  -2  175.18   25.20
   3 -29  -2  165.68   20.70
  -3 -29   2  115.09   23.10
  -3  29   2  155.18   14.10
  -3  29   2  153.18   17.70
  -1 -29   2   -1.40    3.10
  -1 -29   2   -4.10   15.30
   1 -29  -2  -10.00   14.80
   1 -29  -2    0.60    8.30
  -1  29   2    0.50    2.60
   1  29  -2    0.90    3.60
   1  29  -2  -18.10   17.90
   1 -29   2    9.20    4.50
   1 -29   2   15.70    7.80
  -1 -29  -2   21.30    8.20
  -1 -29  -2   23.30   15.60
   1 -29   2   26.80   15.50
  -1  29  -2    8.10    3.60
  -1  29  -2   13.80   19.70
   3 -29   2  238.88   29.60
   3 -29   2  266.87   22.90
   3 -29   2  254.57   22.10
  -3 -29  -2  232.28   32.60
  -3  29  -2  248.38   19.70
   3  29   2  261.77   22.40
  -5 -29  -2    2.70   21.70
  -5  29  -2    2.50    6.50
   5  29   2   -7.50   15.90
  -4 -30   2  302.27   36.60
   4 -30  -2  245.38   27.00
   4 -30  -2  338.57   37.60
  -4 -30   2  218.48   19.50
  -4  30   2  259.67   25.00
   4  30  -2  227.88   25.30
  -4  30   2  245.88   20.90
  -2 -30   2 1368.66   97.49
  -2 -30   2 1565.04   90.09
   2 -30  -2 1403.06   94.79
   2 -30  -2 1376.96   97.49
  -2  30   2 1420.46   92.29
  -2  30   2 1403.06   90.09
   2  30  -2 1439.16   90.69
   0 -30   2  992.60   68.39
   0 -30   2 1013.40   59.99
   0 -30  -2  845.62   66.89
   0 -30  -2  839.12   61.89
   0  30  -2  978.80   59.89
   0  30   2  871.71   58.89
   0  30  -2 1002.80   70.39
  -2 -30  -2  909.41   67.29
   2 -30   2 1024.80   71.09
  -2 -30  -2  907.21   71.39
   2 -30   2 1068.59   65.09
   2 -30   2  983.00   65.69
  -2  30  -2  993.10   63.79
  -2  30  -2 1087.99   75.69
  -4 -30  -2  933.11   64.99
   4  30   2  855.11   58.49
  -4  30  -2  754.32   55.39
   3 -31  -2  269.57   30.70
   3 -31  -2  277.87   37.90
  -3 -31   2  301.77   21.10
  -3 -31   2  308.67   38.20
   3  31  -2  278.97   25.30
  -3  31   2  280.27   25.70
  -3  31   2  294.67   21.90
  -1 -31   2    6.10    3.60
  -1 -31   2    4.90   16.70
   1 -31  -2   -7.40   17.40
  -1  31   2    5.20    3.10
   1  31  -2    3.60    4.20
   1  31  -2    8.90   21.40
   1 -31   2    0.40    4.30
   1 -31   2   -1.80   16.00
   1 -31   2    6.40    7.70
  -1 -31  -2  -11.50   16.50
  -1  31  -2    4.80   20.80
  -1  31  -2    0.90    3.60
  -3 -31  -2  242.08   34.30
  -3 -31  -2  233.18   23.30
   3 -31   2  217.08   30.60
   3 -31   2  260.97   21.60
   3 -31   2  217.78   22.40
  -3  31  -2  232.38   18.90
   3  31   2  213.18   21.90
  -4 -32   2  779.42   65.59
   4 -32  -2  848.22   59.39
   4 -32  -2  883.91   65.69
  -4  32   2  833.82   54.49
  -4  32   2  883.01   57.49
   4  32  -2  667.93   57.19
   2 -32  -2  246.98   35.80
   2 -32  -2  241.48   25.20
  -2 -32   2  346.77   38.60
  -2 -32   2  311.47   19.90
   2  32  -2  297.37   21.20
  -2  32   2  214.48   19.30
  -2  32   2  229.38   23.30
   0 -32  -2 1196.98   80.79
   0 -32   2 1290.57   78.79
   0 -32  -2 1148.99   86.29
   0 -32   2 1219.58   86.89
   0  32  -2 1278.57   88.59
   0  32  -2 1248.08   78.59
   0  32   2 1259.97   77.79
   2 -32   2  201.68   19.40
   2 -32   2  199.78   20.90
  -2 -32  -2  239.88   33.90
   2 -32   2  265.47   33.40
  -2 -32  -2  207.88   21.50
  -2  32  -2  200.78   17.20
  -4 -32  -2 1258.67   86.09
   4  32   2 1169.18   79.59
  -4  32  -2 1138.19   76.79
   3 -33  -2  180.88   28.90
   3 -33  -2  137.59   23.50
  -3 -33   2  159.28   27.60
  -3 -33   2  163.08   14.40
  -3  33   2  175.48   20.40
   3  33  -2  159.78   20.80
  -3  33   2  163.88   15.40
   1 -33  -2   76.29   13.60
  -1 -33   2   64.49    9.90
  -1 -33   2   57.09   20.50
   1 -33  -2   82.69   22.30
  -1  33   2   79.29    8.40
   1  33  -2   52.09    7.80
  -1 -33  -2   12.60    9.70
   1 -33   2   28.10    6.30
   1 -33   2   58.89   20.60
  -1 -33  -2   -5.10   18.60
   1 -33   2   43.60   11.50
  -1  33  -2   31.80    5.40
  -3 -33  -2   -5.90   20.40
   3 -33   2    5.30   10.80
   3 -33   2   -7.50   17.90
  -3 -33  -2    3.40   10.80
   3 -33   2   -2.10    7.00
  -3  33  -2   10.80    5.10
   3  33   2  -14.20    9.20
  -4 -34   2  893.71   56.99
   4 -34  -2  855.01   62.99
   4 -34  -2  909.41   70.99
  -4 -34   2  874.01   70.09
  -4  34   2  857.51   57.99
  -4  34   2  882.51   61.59
   4  34  -2  857.31   62.39
   2 -34  -2  543.75   48.80
  -2 -34   2  493.95   33.10
  -2 -34   2  483.65   49.40
   2 -34  -2  491.15   38.30
   2  34  -2  437.56   34.20
  -2  34   2  506.65   33.20
   0 -34   2  327.17   28.20
   0 -34   2  387.26   41.20
   0 -34  -2  312.77   28.70
   0 -34  -2  355.36   40.00
   0  34   2  341.37   23.30
   0  34  -2  349.87   24.70
  -2 -34  -2  510.25   39.60
   2 -34   2  547.65   37.90
   2 -34   2  499.75   41.40
  -2 -34  -2  535.75   50.09
   2 -34   2  597.04   49.20
  -2  34  -2  525.35   36.30
  -4 -34  -2  665.23   57.49
   4  34   2  602.44   46.40
  -4  34  -2  580.44   42.30
   3 -35  -2   71.79   15.70
  -3 -35   2   19.70   24.30
   3 -35  -2  102.49   27.20
  -3  35   2   66.19   13.80
  -3  35   2   72.59   11.60
   3  35  -2   36.30   13.10
   1 -35  -2   56.99   13.20
   1 -35  -2   50.49   22.60
  -1 -35   2   63.49   22.60
  -1 -35   2   38.40    7.20
  -1  35   2   51.19    8.10
   1  35  -2   38.00    6.90
   1 -35   2    4.30    5.50
   1 -35   2   18.10   20.70
  -1 -35  -2    1.10   20.50
   1 -35   2    4.40   10.10
  -1 -35  -2    1.90   10.30
  -1  35  -2    4.10    4.60
  -3 -35  -2   44.70   12.70
  -3 -35  -2   12.70   23.50
   3 -35   2   44.40    9.70
   3 -35   2   47.10   21.60
  -3  35  -2   36.90    7.10
   3  35   2   32.30   12.50
  -2 -36   2  475.45   49.30
   2 -36  -2  478.15   49.70
   2 -36  -2  412.66   36.50
  -2  36   2  447.16   31.20
   2  36  -2  463.15   32.60
   0 -36  -2  934.31   70.19
   0 -36  -2  917.81   61.09
   0 -36   2  872.11   57.89
   0 -36   2  824.52   60.09
   0 -36   2  829.62   69.39
   0  36   2  961.80   56.79
   0  36  -2  865.81   57.69
   2 -36   2  338.87   27.70
  -2 -36  -2  333.17   30.00
   2 -36   2  324.47   29.30
   2 -36   2  424.96   43.60
  -2 -36  -2  374.66   43.40
  -2  36  -2  336.17   25.90
   3 -37  -2   12.70   26.10
   3 -37  -2   31.70   14.90
  -3 -37   2    2.90    5.40
  -3 -37   2    8.40   24.90
  -3  37   2   14.90    5.90
   3  37  -2    8.60   13.40
   1 -37  -2  126.79   27.40
  -1 -37   2  152.48   27.60
   1 -37  -2  109.19   21.50
  -1 -37   2  119.49   13.30
  -1  37   2  124.69   12.00
   1  37  -2  121.39   14.30
  -1 -37  -2  199.98   30.80
   1 -37   2  178.28   21.30
   1 -37   2  197.38   18.30
   1 -37   2  211.88   31.30
  -1 -37  -2  154.98   22.10
  -1  37  -2  167.48   16.40
  -3 -37  -2   29.20   13.80
   3 -37   2   11.30   22.80
   3 -37   2   19.60   13.10
   3 -37   2   20.20    9.60
  -3 -37  -2    4.90   25.60
  -3  37  -2   17.90    6.50
   3  37   2   16.00   12.60
  -2 -38   2  659.43   45.10
   2 -38  -2  694.83   50.49
  -2 -38   2  632.64   62.39
   2 -38  -2  746.83   63.09
   2  38  -2  623.44   46.30
  -2  38   2  733.03   45.40
   0 -38  -2  678.53   58.19
   0 -38   2  577.44   46.00
   0 -38   2  720.43   59.49
   0 -38   2  635.54   43.20
   0  38   2  650.93   41.80
   0  38  -2  608.14   42.70
   2 -38   2  811.92   62.39
   2 -38   2  667.03   49.90
  -2 -38  -2  649.74   62.19
   2 -38   2  758.22   49.00
  -2 -38  -2  602.54   50.39
  -2  38  -2  731.33   47.30
  -3 -39   2   53.99    7.20
   3 -39  -2   30.30   29.60
   3 -39  -2   28.70   16.40
  -3 -39   2   38.30   28.70
  -3  39   2   40.50    7.60
   3  39  -2   36.00   15.80
  -1 -39   2   17.10    5.90
   1 -39  -2   12.50   23.70
  -1 -39   2   31.60   25.30
   1 -39  -2   16.30   13.30
   1  39  -2   12.20    6.10
  -1  39   2   16.20    5.00
   1 -39   2   54.29   26.80
  -1 -39  -2   15.60   12.80
   1 -39   2   44.20   12.90
   1 -39   2   37.80    8.10
  -1 -39  -2   35.20   24.70
  -1  39  -2   40.10    7.10
  -2 -40   2  652.73   62.19
  -2 -40   2  612.74   41.20
   2 -40  -2  592.54   59.49
   2 -40  -2  590.44   61.09
   2  40  -2  582.24   42.50
  -2  40   2  614.54   41.00
   0 -40   2  643.14   57.89
   0 -40   2  552.84   38.80
   0 -40   2  520.55   42.60
   0 -40  -2  569.34   57.39
   0  40   2  571.74   37.20
   0  40  -2  528.75   38.30
  -2 -40  -2  683.73   48.20
   2 -40   2  680.33   60.59
   2 -40   2  604.54   45.20
  -2 -40  -2  757.82   63.49
   2 -40   2  559.44   46.60
  -2  40  -2  586.94   43.30
  -1 -41   2    6.30    6.00
   1 -41  -2   -8.00   27.40
  -1 -41   2   16.50   27.80
   1  41  -2    4.30    6.30
  -1  41   2   12.10    5.00
   1 -41   2   -3.90   11.80
   1 -41   2  -27.80   27.30
  -1 -41  -2   12.70   26.80
   1 -41   2    3.40    7.20
  -1 -41  -2    5.80   13.30
   0 -42  -2  406.36   52.69
   0 -42   2  423.06   31.20
   0 -42   2  510.95   54.59
   0  42  -2  399.66   30.60
   0  42   2  390.26   29.00
  -6   0   3  654.93   48.50
  -6   0   3  645.24   47.10
   4   0  -3 2033.40  130.39
  -4   0   3 2000.50  130.39
  -4   0   3 2135.09  130.39
  -2   0   3 2023.50  126.99
   2   0  -3 1972.00  126.79
  -2   0   3 2085.99  126.09
   2   0  -3 1991.00  126.09
   0   0   3 2096.79  125.09
   0   0   3 1944.51  125.99
  -2   0  -3 1890.21  122.19
   2   0   3 2054.89  122.49
  -4   0  -3  940.81   62.59
  -4   0  -3  939.81   59.69
  -6   0  -3 1400.06   93.29
  -6   0  -3 1348.97   87.79
  -7  -1   3    6.30   13.80
  -7   1   3    1.50   12.70
  -5  -1   3    0.20    8.20
  -5  -1   3   -6.70    8.10
  -5   1   3    1.50    8.30
   5   1  -3   -5.60    8.60
  -5   1   3    1.40    8.30
  -3  -1   3   49.30    7.40
   3  -1  -3   39.70    7.40
   3  -1  -3   49.99    9.00
  -3  -1   3   53.89    9.60
   3   1  -3   58.09    8.20
  -3   1   3   36.80    8.10
  -3   1   3   42.70    7.50
   3   1  -3   57.59    9.50
   1  -1  -3  190.28   14.80
   1  -1  -3  210.38   13.00
  -1   1   3  189.98   14.90
   1   1  -3  149.79   12.60
  -1  -1  -3   26.50    5.20
   1  -1   3   28.60    3.00
  -1   1  -3   23.70    3.10
  -3  -1  -3   77.39   10.70
  -3  -1  -3   90.69    7.10
  -3   1  -3   85.49    7.20
  -3   1  -3   79.89   10.90
  -5  -1  -3   36.70   12.50
  -5  -1  -3   31.70    4.90
  -5   1  -3   34.30   11.50
  -5   1  -3   23.60    4.60
  -6  -2   3 1253.47   82.79
  -6  -2   3 1230.78   82.39
  -6   2   3 1219.28   82.99
  -4  -2   3  600.84   46.50
  -4  -2   3  689.13   45.50
   4   2  -3  675.63   45.80
  -4   2   3  670.13   46.00
  -4   2   3  720.93   46.00
   2  -2  -3 1990.70  130.69
   2  -2  -3 2043.70  131.39
  -2  -2   3 2138.29  131.79
  -2  -2   3 2207.48  130.69
  -2   2   3 2072.79  130.69
   2   2  -3 2148.98  130.89
   2   2  -3 2036.60  131.39
  -2   2   3 2110.19  131.49
   0  -2  -3  454.95   29.40
   0  -2   3  419.26   28.00
   0   2  -3  407.06   28.10
   0   2   3  495.05   29.40
  -2  -2  -3 2253.37  149.29
   2  -2   3 2497.45  148.89
  -2   2  -3 2307.97  148.59
   2   2   3 2537.85  148.69
  -4  -2  -3 1093.59   68.59
  -4  -2  -3 1108.59   71.49
  -4   2  -3 1102.79   71.59
  -4   2  -3 1042.40   68.59
  -6  -2  -3  464.95   42.60
  -6   2  -3  458.15   34.30
  -6   2  -3  553.74   43.70
  -7   3   3   16.60   13.80
  -5  -3   3   13.20   12.50
  -5  -3   3   17.90   10.20
   5   3  -3   15.30    9.60
  -5   3   3   20.00   10.50
  -5   3   3   19.70   10.00
  -3  -3   3  693.83   43.30
  -3  -3   3  694.33   44.60
   3  -3  -3  647.84   43.90
   3   3  -3  655.43   43.50
  -3   3   3  628.94   43.90
   3   3  -3  625.04   43.90
  -3   3   3  642.94   43.30
   1  -3   3  386.66   23.10
  -1  -3  -3  370.56   23.70
  -1   3  -3  372.66   23.00
  -1   3  -3  306.97   24.10
  -3  -3  -3  463.15   29.80
  -3  -3  -3  497.75   32.10
  -3   3  -3  442.26   30.10
  -5  -3  -3   57.29   13.20
  -5  -3  -3   33.40    5.00
  -5   3  -3   21.10    4.50
  -5   3  -3   47.40   12.90
  -6  -4   3  540.75   39.00
  -6  -4   3  444.76   38.70
   6   4  -3  504.45   39.90
  -6   4   3  457.95   39.80
  -6   4   3  470.45   38.00
  -4  -4   3 1599.24   97.99
  -4  -4   3 1495.55   98.69
  -4   4   3 1467.95   98.19
   4   4  -3 1563.44   98.39
  -4   4   3 1535.25   98.19
  -2  -4   3 2190.78  132.19
  -2  -4   3 2030.70  133.19
   2  -4  -3 2178.18  132.89
   2   4  -3 1940.71  132.89
  -2   4   3 2214.98  133.09
  -2   4   3 2195.68  132.29
   2   4  -3 2074.39  132.29
   0  -4   3   56.09    4.60
   0   4  -3   37.50    7.10
   0   4  -3   54.89    5.00
   2  -4   3  886.01   55.29
  -2  -4  -3  914.81   55.79
  -2   4  -3  831.02   54.89
  -4  -4  -3 1180.38   75.29
  -4  -4  -3 1119.09   72.49
  -4   4  -3 1210.08   75.69
  -4   4  -3 1108.39   72.79
  -6  -4  -3 1827.62  111.79
  -6  -4  -3 1681.83  106.89
  -6   4  -3 1627.64  111.59
  -6   4  -3 1614.34  106.99
  -7  -5   3   53.89   15.60
  -7   5   3    7.60   22.80
  -7   5   3   65.79   15.90
  -5  -5   3   25.50   11.10
   5   5  -3   21.30   10.40
  -5   5   3   33.10   10.90
  -5   5   3   35.70   10.90
  -3  -5   3  201.18   19.40
  -3  -5   3  204.68   16.70
   3  -5  -3  245.48   18.90
   3   5  -3  209.58   17.60
  -3   5   3  240.78   18.50
  -3   5   3  224.48   17.30
   3   5  -3  201.18   19.20
  -1  -5   3 1450.85   85.09
  -1  -5   3 1395.76   86.59
   1   5  -3 1441.46   85.09
  -1   5   3 1169.38   85.79
   1   5  -3 1354.46   86.49
   1  -5   3  388.86   23.20
  -1   5  -3  374.66   23.20
  -1   5  -3  315.07   24.50
  -3   5  -3   91.29    7.80
  -5  -5  -3    6.60    3.50
  -5  -5  -3   -3.90   10.10
  -5   5  -3   12.90   13.30
  -5   5  -3    2.60    3.50
  -6  -6   3  574.44   40.00
  -6  -6   3  454.15   40.00
  -6   6   3  440.36   41.30
   6   6  -3  533.15   41.30
  -6   6   3  526.85   39.40
  -4  -6   3 1453.35   90.39
  -4  -6   3 1361.76   91.09
  -4   6   3 1417.96   90.79
   4   6  -3 1359.76   90.59
  -4   6   3 1448.06   90.89
  -2  -6   3  676.43   45.70
   2  -6  -3  653.23   44.60
  -2   6   3  686.23   44.70
   2   6  -3  698.53   44.00
   2   6  -3  685.83   45.60
  -2   6   3  682.33   43.90
   0  -6   3 4966.00  303.87
   0  -6   3 4788.82  304.97
   0   6  -3 5055.49  303.97
   0   6  -3 4875.21  305.17
   2  -6   3 1318.37   78.89
  -2  -6  -3 1327.27   79.09
  -2   6  -3 1227.98   78.49
   2   6   3 1158.68   78.99
  -4  -6  -3 1151.18   73.19
  -4   6  -3 1087.79   70.79
  -6  -6  -3  780.62   46.60
  -6   6  -3  649.43   46.70
  -6   6  -3  634.64   54.09
  -5  -7   3  124.59   16.70
  -5  -7   3   90.19   15.40
  -5   7   3   68.69   16.80
   5   7  -3   93.29   14.70
  -5   7   3   71.69   13.00
  -3  -7   3   52.59    7.60
  -3  -7   3   51.89   10.10
   3  -7  -3   63.09    9.40
   3   7  -3   39.20    9.80
  -3   7   3   51.39    8.50
  -3   7   3   42.20    7.50
   3   7  -3   30.30    7.20
   1  -7  -3   25.40    5.40
  -1  -7   3   25.50    7.30
  -1  -7   3   25.60    4.00
  -1   7   3   27.80    5.40
   1   7  -3   28.80    7.50
   1  -7   3   13.90    4.70
   1  -7   3   19.70    3.30
  -1  -7  -3   10.40    3.20
  -1   7  -3   23.60    5.90
  -1   7  -3   17.60    2.50
  -3  -7  -3   12.80    5.10
   3   7   3    8.20    4.80
  -3   7  -3    3.70    2.20
  -5  -7  -3   47.00    7.90
  -5  -7  -3   69.09   13.10
  -6  -8   3  361.46   31.10
  -6  -8   3  296.47   31.50
  -6   8   3  311.67   29.40
   6   8  -3  396.46   32.60
  -6   8   3  293.27   32.60
   4  -8  -3 1678.73  110.59
  -4  -8   3 1682.93  111.39
  -4  -8   3 1815.72  110.69
  -4   8   3 1750.92  111.19
   4   8  -3 1777.32  111.29
  -4   8   3 1733.13  110.89
  -2  -8   3 1197.18   72.49
   2  -8  -3 1047.30   71.39
   2   8  -3 1185.18   70.89
   2   8  -3 1181.88   72.39
  -2   8   3 1059.79   71.29
  -2   8   3 1031.20   70.59
   0  -8  -3 4826.22  323.47
   0  -8   3 5607.54  322.87
   0  -8   3 5157.08  324.07
   0   8  -3 5619.84  322.97
   0   8  -3 5173.28  324.17
   0   8   3 4981.40  323.27
  -2  -8  -3 1132.59   74.69
   2  -8   3 1321.57   74.79
   2   8   3 1063.99   74.79
  -2   8  -3 1238.08   74.39
  -4  -8  -3 1334.17   81.89
  -4   8  -3 1200.48   79.79
  -6  -8  -3  367.36   25.50
  -6   8  -3  350.46   36.80
  -6   8  -3  312.87   26.00
  -5  -9   3   28.80   12.00
  -5  -9   3   27.10    9.20
  -5   9   3   29.30   10.20
   5   9  -3    9.50    9.70
  -3  -9   3   17.70    5.00
  -3  -9   3   21.00    8.80
   3  -9  -3   10.30    6.50
  -3   9   3    8.70    6.40
   3   9  -3   23.80    9.60
  -3   9   3   14.40    5.70
   3   9  -3   12.90    5.60
  -1  -9   3 1098.19   71.29
  -1  -9   3 1164.08   69.09
   1  -9  -3 1090.19   70.29
   1   9  -3 1034.00   70.99
  -1   9   3 1124.29   70.09
  -1  -9  -3  398.16   30.10
   1  -9   3  458.65   31.40
   1  -9   3  537.95   30.00
  -1   9  -3  527.05   30.00
  -1   9  -3  461.75   32.10
   1   9   3  414.96   29.80
  -3  -9  -3   16.70    5.10
   3   9   3    6.70    5.30
  -5  -9  -3   35.40   11.90
  -5   9  -3   36.30    5.80
  -5   9  -3   72.69   15.40
  -6 -10   3  656.83   50.09
  -6  10   3  649.64   48.70
   6  10  -3  728.23   51.09
  -6  10   3  657.13   51.19
  -4 -10   3  848.02   55.49
   4 -10  -3  795.62   54.39
  -4 -10   3  856.31   53.69
  -4  10   3  791.52   54.19
   4  10  -3  798.62   54.39
  -4  10   3  756.12   54.39
  -2 -10   3 2113.79  126.09
   2 -10  -3 1960.70  127.19
  -2 -10   3 2056.29  127.99
  -2  10   3 1964.80  126.99
   2  10  -3 2055.59  126.59
   2  10  -3 1979.20  127.89
   0 -10   3 2780.72  171.58
   0 -10   3 2574.54  173.18
   0 -10  -3 3000.80  172.58
   0  10   3 3002.90  172.28
   0  10  -3 2449.66  172.98
   0  10  -3 2806.72  171.68
  -2 -10  -3 1900.21  119.29
   2 -10   3 2019.50  119.49
   2  10   3 1830.62  119.69
  -2  10  -3 1907.61  119.09
  -4 -10  -3  569.74   37.90
   4  10   3  553.04   38.20
  -4  10  -3  504.15   35.50
  -6 -10  -3  245.68   28.80
  -6  10  -3  247.78   32.50
  -6  10  -3  250.77   21.10
  -5 -11   3   48.30    9.90
  -5 -11   3   64.59   14.10
  -5  11   3   32.90   10.40
  -5  11   3   35.90   19.70
   5  11  -3   52.99   12.20
  -3 -11   3  343.57   27.10
   3 -11  -3  341.87   25.00
  -3  11   3  331.47   24.70
   3  11  -3  329.47   27.60
  -3  11   3  347.47   24.70
   3  11  -3  311.37   24.10
  -1 -11   3   31.10    8.50
  -1 -11   3   32.40    4.20
   1  11  -3   20.00    3.20
   1  11  -3   33.20    8.70
   1 -11   3  110.59   12.80
   1 -11   3  130.29    9.20
  -1 -11  -3  118.39   10.00
  -1  11  -3  125.39    9.10
  -1  11  -3  104.99   14.10
   3 -11   3   85.99    9.20
  -3  11  -3   70.49    7.50
  -5 -11  -3   48.40   12.10
  -5  11  -3   66.59   10.10
  -6 -12   3  479.55   40.80
   6  12  -3  555.14   42.40
  -6  12   3  485.05   39.00
  -6  12   3  492.25   41.10
  -4 -12   3 1392.16   83.69
  -4 -12   3 1293.27   85.29
  -4  12   3 1255.47   84.39
  -4  12   3 1244.18   83.89
   4  12  -3 1312.77   84.49
   2 -12  -3 1254.57   77.39
  -2 -12   3 1160.68   78.39
  -2 -12   3 1197.18   75.79
   2  12  -3 1204.48   76.49
   2  12  -3 1175.68   78.49
  -2  12   3 1235.68   77.09
   0 -12   3 1926.21  112.29
   0 -12  -3 1725.93  113.09
   0 -12   3 1709.03  114.19
   0  12   3 1870.81  112.99
   0  12  -3 1962.30  112.49
   0  12  -3 1628.44  114.09
   2 -12   3 1700.33  100.79
  -2  12  -3 1448.16  101.79
   2  12   3 1717.43  101.09
  -2  12  -3 1564.44  100.29
  -4 -12  -3  632.24   42.20
  -4  12  -3  598.74   40.40
   4  12   3  625.54   43.10
  -6 -12  -3  320.07   32.30
  -6  12  -3  314.47   25.70
  -6  12  -3  374.26   37.40
  -5 -13   3   56.69   14.60
  -5 -13   3   68.19   11.60
   5  13  -3   61.89   13.40
  -5  13   3   70.59   12.70
  -5  13   3   68.29   13.40
   3 -13  -3   28.30    8.30
  -3 -13   3   13.10    9.70
  -3  13   3   19.40    6.90
   3  13  -3    5.20    5.50
   3  13  -3   15.10   10.90
   1 -13  -3 1019.90   65.79
  -1 -13   3 1071.59   64.49
  -1 -13   3 1017.10   67.29
   1  13  -3 1028.90   64.69
  -1  13   3 1023.80   65.49
   1  13  -3  986.70   67.29
   1 -13   3  431.26   30.10
  -1 -13  -3  383.66   27.80
  -1  13  -3  415.66   30.80
  -1  13  -3  477.55   27.50
   1  13   3  394.16   27.00
  -3 -13  -3   40.20    6.50
   3 -13   3   39.00    5.40
  -3  13  -3   31.10    4.40
   3  13   3   31.80    7.00
  -3  13  -3   38.30   10.40
  -5 -13  -3   11.00   10.20
  -5  13  -3   11.40    4.70
   5  13   3   20.80   11.70
  -6 -14   3  596.34   47.90
   6  14  -3  649.83   48.30
  -6  14   3  588.94   45.20
  -6  14   3  589.14   47.60
  -4 -14   3  570.54   41.50
   4 -14  -3  539.85   39.30
  -4  14   3  560.44   39.70
  -4  14   3  541.65   39.00
   4  14  -3  538.55   39.00
  -2 -14   3 2176.38  143.49
  -2 -14   3 2249.47  140.99
   2 -14  -3 2406.86  142.69
   2  14  -3 2136.59  143.39
   2  14  -3 2238.48  141.69
  -2  14   3 2381.86  142.29
   0 -14  -3 2138.09  143.49
   0 -14   3 2229.88  144.99
   0 -14   3 2520.65  142.89
   0  14  -3 2461.45  142.99
   0  14   3 2296.37  143.39
   0  14  -3 2138.59  144.99
   2 -14   3 1531.75   90.09
  -2 -14  -3 1386.36   89.69
  -2  14  -3 1405.56   91.79
  -2  14  -3 1422.56   89.59
   2  14   3 1407.36   90.09
  -4 -14  -3  475.25   33.70
  -4  14  -3  479.05   31.60
   4  14   3  448.56   34.50
  -6 -14  -3  336.27   34.20
  -6  14  -3  450.85   40.20
  -6  14  -3  371.06   28.90
  -5 -15   3   44.10   15.10
  -5  15   3   69.79   13.50
   5  15  -3   25.80   12.10
  -5  15   3   52.29   11.80
  -3 -15   3   60.89   12.90
   3 -15  -3   64.39   10.80
  -3 -15   3   51.49    7.90
   3  15  -3   65.99    9.70
  -3  15   3   54.69   11.10
   3  15  -3   68.39   14.10
  -1 -15   3  145.79   17.80
   1 -15  -3  148.59   13.50
  -1 -15   3  144.59   10.70
   1  15  -3  151.38   11.40
  -1  15   3  132.49   12.70
   1  15  -3  132.19   19.00
   1 -15   3  240.28   15.80
   1 -15   3  189.28   19.90
  -1  15  -3  233.68   15.70
   3 -15   3   35.60    5.70
  -3  15  -3   26.50    4.20
  -3  15  -3   41.30   11.20
  -5 -15  -3   58.39   13.80
   5  15   3   36.50   12.90
  -5  15  -3   35.60    6.30
  -6 -16   3  397.96   38.80
  -6  16   3  399.76   34.40
   6  16  -3  427.96   37.80
  -6  16   3  388.26   36.90
  -4 -16   3  772.12   51.99
   4 -16  -3  688.63   49.50
   4  16  -3  728.23   49.80
  -4  16   3  715.03   49.40
  -2 -16   3 1171.08   75.69
   2 -16  -3 1292.77   77.79
  -2 -16   3 1119.39   78.99
   2  16  -3 1136.29   79.39
  -2  16   3 1289.17   77.29
   0 -16  -3 4249.77  254.57
   0 -16   3 3856.71  255.57
   0 -16   3 4276.17  253.47
   0  16  -3 3698.13  255.57
   0  16   3 4310.97  254.27
   0  16  -3 4170.18  253.57
   2 -16   3 1576.04   88.29
  -2 -16  -3 1232.38   87.79
   2  16   3 1261.97   87.99
  -2  16  -3 1481.55   87.79
  -2  16  -3 1444.96   90.69
  -4 -16  -3  627.04   42.00
  -4  16  -3  621.24   40.80
   4  16   3  604.84   43.30
  -6 -16  -3  248.58   29.90
  -6  16  -3  300.37   24.50
   6  16   3  302.97   34.90
  -5 -17   3   -2.40   13.80
   5  17  -3    6.80   11.00
  -5  17   3   14.50   12.00
  -5  17   3    2.40    9.60
  -3 -17   3    8.50   10.90
   3 -17  -3   -0.40    7.80
  -3 -17   3    1.70    3.30
   3  17  -3    2.20   12.20
  -3  17   3    4.30    6.10
   3  17  -3   10.00    6.30
   1 -17  -3  206.08   17.70
  -1 -17   3  223.98   22.40
  -1 -17   3  238.18   15.50
   1  17  -3  196.18   23.30
   1  17  -3  228.88   16.00
  -1  17   3  217.98   17.20
   1 -17   3    9.90    9.20
   1 -17   3   13.40    2.90
  -1  17  -3    9.90    2.70
  -1  17  -3   11.50   10.90
   3 -17   3   35.30    5.60
  -3  17  -3   29.60    4.50
   3  17   3   24.20    7.60
  -3  17  -3   36.60   13.40
   5  17   3   33.30   13.60
  -5  17  -3   37.40    6.40
  -6 -18   3  380.46   39.30
  -6  18   3  387.56   33.60
  -6  18   3  328.77   35.20
   6  18  -3  307.67   35.80
  -4 -18   3  536.65   33.70
   4 -18  -3  419.36   36.30
  -4 -18   3  591.94   40.50
   4  18  -3  514.85   35.90
  -4  18   3  409.56   35.40
   2 -18  -3 2247.78  135.29
  -2 -18   3 2000.20  136.39
  -2 -18   3 2135.49  133.29
   2  18  -3 2001.20  136.69
  -2  18   3 2305.07  134.89
   0 -18   3 1379.96   94.29
   0 -18  -3 1527.25   92.49
   0 -18   3 1488.35   91.09
   0  18   3 1589.74   92.19
   0  18  -3 1317.27   94.79
   0  18  -3 1421.56   91.19
   2 -18   3 2476.45  149.69
   2 -18   3 2271.87  150.68
   2 -18   3 2509.75  149.79
  -2 -18  -3 2408.86  149.69
  -2  18  -3 2339.67  149.19
   2  18   3 2458.55  149.69
  -2  18  -3 2310.57  151.88
  -4  18  -3  251.47   18.10
   4  18   3  194.68   21.80
  -6 -18  -3  514.85   43.30
   6  18   3  551.24   48.00
  -6  18  -3  593.24   40.20
  -5 -19   3    1.40   14.80
  -5 -19   3   -9.10    4.80
   5  19  -3   -9.40   11.50
  -5  19   3   20.20   11.60
  -5  19   3   -6.90    9.20
   3 -19  -3   40.60   10.00
  -3 -19   3   24.90   12.70
  -3 -19   3   32.20    5.10
   3  19  -3   26.40    7.60
  -3  19   3   42.80    8.60
   3  19  -3   42.40   15.20
  -1 -19   3  109.99   19.10
   1 -19  -3  106.69   12.80
  -1 -19   3  129.59    9.60
  -1  19   3  106.69   11.70
   1  19  -3  121.79   10.20
  -1  19   3  106.49    9.20
   1  19  -3  125.09   20.60
   1 -19   3   46.00   10.80
   1 -19   3   48.00    6.40
  -1  19  -3   35.70    5.90
  -1  19  -3   36.60   13.20
   3 -19   3   22.40    5.20
  -3  19  -3   11.40    3.90
   3  19   3   32.60    7.70
  -3  19  -3   18.30   14.30
  -5  19  -3   13.40    5.70
   5  19   3   29.70   13.60
  -6 -20   3  481.05   47.70
   6  20  -3  573.34   46.30
  -6  20   3  544.85   42.30
   4 -20  -3  796.62   58.59
  -4 -20   3  944.81   56.29
  -4 -20   3  926.11   61.59
   4  20  -3  863.91   58.29
  -4  20   3  787.12   57.99
  -2 -20   3  986.30   71.29
   2 -20  -3 1158.78   69.39
  -2 -20   3 1015.20   66.79
  -2  20   3 1166.58   68.69
   2  20  -3  947.01   72.19
   0 -20  -3  976.60   62.59
   0 -20   3  936.61   65.49
   0 -20   3  992.40   61.09
   0  20  -3  858.21   65.59
   0  20   3 1033.90   62.29
   0  20  -3  982.70   61.29
  -2 -20  -3  979.00   57.39
   2 -20   3  839.32   56.89
   2 -20   3  880.71   56.89
   2 -20   3  842.12   59.39
  -2  20  -3  878.91   61.19
  -2  20  -3  823.52   56.19
   2  20   3  938.51   56.99
   4  20   3  629.14   47.40
  -4  20  -3  688.53   52.29
  -4  20  -3  721.93   45.10
  -5 -21   3   -2.30    5.40
  -5 -21   3   13.00   16.50
   5  21  -3   -5.30   11.20
  -5  21   3   15.00   10.30
  -3 -21   3    5.60    3.50
  -3 -21   3   -5.90   12.30
   3 -21  -3    9.50    8.70
   3  21  -3   -2.40    6.30
   3  21  -3    2.00   14.30
  -3  21   3    3.80    7.10
   1 -21  -3   11.00    6.60
  -1 -21   3   15.70   11.50
  -1 -21   3   18.10    3.20
  -1  21   3    9.90    2.80
   1  21  -3   12.10   13.30
   1  21  -3   20.70    3.90
  -1  21   3    7.90    5.50
   1 -21   3    6.20   10.30
  -1 -21  -3    8.30    5.50
   1 -21   3   -2.80    2.60
  -1  21  -3   -1.80   12.40
  -1  21  -3    0.60    2.40
  -3 -21  -3   59.89   10.70
   3 -21   3   63.59   10.50
  -3  21  -3   52.99   17.20
   3  21   3   56.79    9.30
  -5  21  -3   -3.90    5.10
   5  21   3   -7.10   13.00
  -5  21  -3  -15.80   21.20
  -6 -22   3  513.85   40.80
  -6 -22   3  569.64   51.19
  -6  22   3  598.54   53.09
  -6  22   3  653.83   46.40
  -4 -22   3  840.42   58.19
   4 -22  -3  755.92   54.79
  -4 -22   3  862.11   51.99
   4  22  -3  786.32   54.09
  -4  22   3  706.43   53.69
   2 -22  -3 1269.57   80.29
  -2 -22   3 1209.18   77.69
  -2 -22   3 1123.39   82.39
  -2  22   3 1323.87   79.79
  -2  22   3 1265.27   78.09
   2  22  -3 1197.48   83.69
   0 -22  -3  387.16   29.90
   0 -22   3  417.16   35.20
   0 -22   3  463.55   28.20
   0  22  -3  428.56   36.20
   0  22   3  397.06   29.40
   0  22  -3  448.06   28.30
   2 -22   3 1332.37   92.99
   2 -22   3 1413.96   90.99
  -2 -22  -3 1529.15   91.19
   2 -22   3 1451.45   90.79
  -2  22  -3 1367.36   94.99
   2  22   3 1579.84   90.99
  -2  22  -3 1350.06   90.09
  -4  22  -3  411.26   28.00
  -4  22  -3  409.76   40.20
   4  22   3  347.17   31.10
  -5 -23   3   -9.30   17.50
   5 -23  -3   13.50   17.20
  -5 -23   3    2.50    5.90
  -5  23   3   10.00   11.00
  -5  23   3    5.80    6.20
   5  23  -3  -11.70   12.10
  -3 -23   3   15.30    4.40
  -3 -23   3   22.70   14.80
   3 -23  -3    0.00    9.50
   3  23  -3   14.30   15.90
   3  23  -3   15.60    8.20
  -3  23   3   11.80    7.70
  -3  23   3    2.60    4.00
  -1 -23   3    8.50   12.60
   1 -23  -3   15.80    7.50
  -1 -23   3   11.30    3.20
  -1  23   3   20.00    5.90
   1  23  -3    8.60   15.40
   1  23  -3    8.10    3.70
  -1  23   3   11.40    2.80
   1 -23   3   20.60    4.10
   1 -23   3   28.80   12.60
  -1  23  -3   17.70    3.60
  -1  23  -3   23.50   16.00
   3 -23   3   28.40    7.30
  -3 -23  -3   11.20    6.80
  -3  23  -3   19.40    4.30
  -3  23  -3   30.60   18.40
   3  23   3    3.70    6.80
   5  23   3    5.60   14.00
  -5  23  -3   -5.50   23.30
  -5  23  -3   12.10    6.00
   4 -24  -3  630.24   47.60
  -4 -24   3  690.23   44.10
  -4 -24   3  690.63   51.89
  -4  24   3  645.74   44.60
  -4  24   3  647.94   46.60
   4  24  -3  644.34   46.80
  -2 -24   3 1045.80   72.59
  -2 -24   3 1056.99   66.39
   2 -24  -3 1046.00   69.19
   2  24  -3 1012.00   73.59
  -2  24   3 1046.70   66.69
  -2  24   3 1062.09   68.39
   0 -24   3 1096.69   67.39
   0 -24   3 1040.20   72.59
   0 -24  -3 1053.49   69.09
   0  24  -3 1067.89   67.49
   0  24  -3 1050.69   74.19
  -2 -24  -3  723.83   50.69
   2 -24   3  758.02   50.69
   2 -24   3  767.22   50.19
   2 -24   3  834.82   54.69
  -2  24  -3  742.33   49.50
  -2  24  -3  864.81   57.89
   2  24   3  707.33   49.99
   4  24   3  650.73   47.70
  -4  24  -3  662.43   54.79
  -4  24  -3  684.73   44.70
  -5 -25   3  -31.10   18.20
   5 -25  -3   -1.60   18.40
  -5 -25   3   -2.00    6.20
   5 -25  -3   -0.90   11.80
   5  25  -3  -23.30   12.50
  -5  25   3    1.40   11.00
  -5  25   3    9.20    6.20
   3 -25  -3    5.20   10.70
  -3 -25   3   14.20   15.50
  -3 -25   3    9.90    4.10
  -3  25   3   11.40    8.30
   3  25  -3    9.00   16.80
   3  25  -3   11.80    7.90
  -3  25   3   11.80    4.40
   1 -25  -3    6.80    7.20
  -1 -25   3    7.50    3.10
  -1 -25   3    9.00   13.40
  -1  25   3    0.40    5.60
   1  25  -3   -3.90   16.00
   1  25  -3   -0.30    3.30
  -1  25   3    1.60    2.20
  -1 -25  -3    7.30    6.60
   1 -25   3   15.40   13.20
   1 -25   3    1.80    3.30
  -1  25  -3   -1.50   15.80
  -1  25  -3   -1.10    2.80
   3 -25   3   31.80    6.70
  -3 -25  -3   22.30    8.00
  -3  25  -3   24.40   20.00
   3  25   3   14.90    7.90
  -3  25  -3   23.90    4.90
   5  25   3   -9.40   14.80
  -5  25  -3   -4.10    5.60
  -4 -26   3  474.85   41.80
   4 -26  -3  436.96   36.30
   4 -26  -3  417.06   42.30
  -4  26   3  444.36   31.80
  -4  26   3  462.95   34.80
   4  26  -3  406.26   34.30
   4  26  -3  433.96   40.70
  -2 -26   3 1217.98   88.69
   2 -26  -3 1290.87   85.49
  -2 -26   3 1350.06   82.59
   2  26  -3 1342.47   90.39
   2  26  -3 1276.47   83.29
  -2  26   3 1340.67   84.79
  -2  26   3 1334.17   82.89
   0 -26   3  729.53   53.69
   0 -26  -3  611.24   48.10
   0 -26   3  766.42   46.40
   0  26  -3  729.63   46.50
   0  26  -3  750.12   55.39
  -2 -26  -3 1270.07   81.99
   2 -26   3 1271.67   81.79
   2 -26   3 1255.17   84.99
   2 -26   3 1280.07   82.79
   2  26   3 1294.47   81.29
  -2  26  -3 1287.27   88.49
  -2  26  -3 1250.97   80.69
  -4  26  -3  397.56   28.70
   4  26   3  391.76   32.60
   5 -27  -3    2.50   20.00
   5 -27  -3   -2.70   12.30
  -5 -27   3   -6.70   20.00
  -5 -27   3   -2.70    6.00
  -5  27   3   -5.90   11.50
   5  27  -3   -4.00   13.10
  -5  27   3   -8.50    5.80
  -3 -27   3  158.88   23.50
  -3 -27   3  147.49   13.00
   3 -27  -3  121.79   20.60
   3  27  -3  143.09   23.50
  -3  27   3  124.99   13.20
  -3  27   3  137.49   18.00
   3  27  -3  132.79   16.50
   1 -27  -3    3.20    8.20
  -1 -27   3   36.10   15.80
  -1 -27   3   26.80    4.50
   1  27  -3   37.70   18.60
  -1  27   3   11.80    6.90
   1  27  -3   16.20    4.60
  -1  27   3   14.10    3.30
   1 -27   3   -6.50   14.10
   1 -27   3    7.70    4.10
  -1 -27  -3    9.20    7.70
   1 -27   3   10.20    7.00
  -1  27  -3   23.10   18.90
  -1  27  -3    4.80    3.30
  -3 -27  -3  334.87   28.50
   3 -27   3  412.86   28.40
   3  27   3  322.37   27.70
  -3  27  -3  394.36   26.40
  -5 -27  -3   -6.40   20.80
   5  27   3   24.20   16.10
  -5  27  -3    8.00    6.40
   4 -28  -3  449.95   42.10
   4 -28  -3  457.95   45.60
  -4 -28   3  495.35   32.80
  -4 -28   3  490.25   44.90
  -4  28   3  495.05   37.20
   4  28  -3  444.36   36.70
  -4  28   3  443.46   33.60
  -2 -28   3 1143.99   71.89
   2 -28  -3 1148.59   77.09
  -2 -28   3 1025.20   79.09
   2  28  -3 1140.09   81.19
  -2  28   3 1165.58   74.29
  -2  28   3 1205.28   72.19
   2  28  -3 1089.89   72.79
   0 -28   3  386.86   37.00
   0 -28   3  381.66   26.60
   0  28  -3  431.16   42.10
   0  28  -3  371.96   26.60
   2 -28   3  751.92   55.79
   2 -28   3  778.02   50.29
  -2 -28  -3  783.42   51.49
   2 -28   3  736.83   50.79
   2  28   3  751.92   49.99
  -2  28  -3  739.63   49.30
  -4 -28  -3  899.11   65.89
  -4 -28  -3  861.81   61.09
  -4  28  -3  851.81   57.89
   4  28   3  926.51   61.19
  -4  28  -3  864.21   70.39
  -5 -29   3   18.90   22.10
   5 -29  -3   17.60   16.80
  -5 -29   3   14.60    6.80
   5 -29  -3   23.60   22.00
   5  29  -3   21.60   15.70
  -5  29   3    8.30    6.70
  -5  29   3   25.80   13.60
   3 -29  -3  397.66   38.60
  -3 -29   3  416.66   42.60
  -3 -29   3  443.46   29.50
   3 -29  -3  371.86   42.30
  -3  29   3  428.26   33.00
   3  29  -3  447.26   32.80
  -3  29   3  443.26   30.00
   3  29  -3  386.46   43.80
  -1 -29   3    2.70   16.40
  -1 -29   3    0.70    3.40
   1  29  -3    6.40   19.60
   1  29  -3   -0.60    4.00
  -1  29   3    2.00    2.90
  -1  29   3    4.90    7.30
   1 -29   3  -16.60   14.80
  -1 -29  -3   15.00    9.00
   1 -29   3    3.70    7.70
   1 -29   3   -1.50    4.60
  -1  29  -3    0.30    3.60
  -3 -29  -3  105.29   20.50
   3 -29   3  120.59   15.70
   3 -29   3  102.79   15.90
  -3  29  -3  132.69   27.40
  -3  29  -3  113.39   12.70
   3  29   3   93.19   15.50
  -4 -30   3  958.70   64.09
  -4 -30   3  935.91   73.79
   4 -30  -3 1059.79   75.39
   4 -30  -3  990.20   68.89
  -4  30   3  998.10   65.19
   4  30  -3  930.31   67.89
  -4  30   3 1054.19   67.89
  -2 -30   3  195.38   15.70
   2 -30  -3  181.98   22.00
  -2 -30   3  229.28   32.80
   2  30  -3  248.18   41.90
   2  30  -3  215.38   17.60
  -2  30   3  187.18   19.80
  -2  30   3  173.18   15.30
   0 -30   3  932.61   58.29
   0 -30   3  871.01   66.29
   0  30  -3  883.01   58.29
   0  30  -3  935.81   79.99
   2 -30   3  151.08   15.70
   2 -30   3  143.19   17.20
   2 -30   3  183.08   28.70
  -2  30  -3  151.28   14.20
  -2  30  -3  173.78   28.80
  -4 -30  -3 1269.47   89.49
  -4 -30  -3 1217.28   83.09
   4  30   3 1332.87   84.19
  -4  30  -3 1255.37   81.19
  -4  30  -3 1211.18   92.09
   3 -31  -3   43.60   14.40
  -3 -31   3   54.59   21.50
  -3 -31   3   47.20    7.30
   3 -31  -3   47.20   22.20
   3  31  -3   72.39   13.80
  -3  31   3   40.90   11.10
   3  31  -3   54.69   32.70
  -3  31   3   28.40    6.10
  -1 -31   3   -4.70   17.10
   1 -31  -3    3.70   10.10
  -1 -31   3   -2.40    3.80
   1  31  -3   -1.90    4.40
  -1  31   3    3.60    3.00
   1  31  -3   26.60   22.00
   1 -31   3    7.40    4.70
  -1 -31  -3   15.50   10.00
   1 -31   3   17.20   17.90
   1 -31   3    5.70    8.70
  -1  31  -3    4.10   23.20
  -1  31  -3    4.70    4.10
   3 -31   3    8.90    9.10
   3 -31   3    6.50    6.70
  -3 -31  -3   10.50   11.20
   3 -31   3   -3.30   16.40
  -3 -31  -3   14.10   19.90
  -3  31  -3  -18.70   25.10
   3  31   3    4.90    9.20
  -3  31  -3    5.70    5.20
   4 -32  -3  938.01   69.29
  -4 -32   3  979.40   64.09
   4 -32  -3 1070.89   76.79
  -4 -32   3  931.71   75.09
   4  32  -3  991.10   68.69
  -4  32   3 1011.80   68.39
  -4  32   3  993.40   65.09
   2 -32  -3  295.37   29.90
   2 -32  -3  360.36   40.10
  -2 -32   3  363.36   40.30
   2  32  -3  340.77   43.90
  -2  32   3  353.16   28.60
   2  32  -3  318.57   25.70
  -2  32   3  357.16   24.20
   0 -32   3  450.55   33.50
   0 -32   3  488.55   45.00
   0  32  -3  461.45   32.50
   0  32  -3  526.45   49.99
   2 -32   3  700.13   46.00
   2 -32   3  657.43   54.19
   2 -32   3  663.63   47.00
  -2 -32  -3  694.53   47.80
  -2  32  -3  632.34   60.49
  -2  32  -3  676.93   45.00
  -4 -32  -3  535.35   42.80
  -4 -32  -3  601.44   52.99
   4  32   3  528.65   42.60
  -4  32  -3  528.75   38.30
   3 -33  -3   35.00   14.40
  -3 -33   3   17.80    5.60
   3 -33  -3   26.00   24.20
  -3 -33   3    6.90   21.90
  -3  33   3   45.90   11.90
   3  33  -3   37.50   13.60
  -3  33   3   25.10    5.70
  -1 -33   3    1.30   19.70
  -1 -33   3    8.00    5.20
   1 -33  -3   -6.80   11.10
   1  33  -3   -8.30   23.70
  -1  33   3    7.80    3.40
   1  33  -3    5.40    5.00
   1 -33   3    5.10    9.70
  -1 -33  -3   19.80   10.80
   1 -33   3   -1.80   19.00
   1 -33   3    7.80    5.10
  -1  33  -3   -1.30   23.40
  -1  33  -3    3.60    4.30
  -3 -33  -3   66.49   13.90
   3 -33   3   51.09   12.20
   3 -33   3   44.10    9.40
   3 -33   3   60.29   19.80
  -3 -33  -3   54.79   23.50
   3  33   3   61.49   12.50
  -3  33  -3   38.80    7.30
  -3  33  -3   44.80   28.30
   4 -34  -3  567.84   53.19
   4 -34  -3  430.06   41.60
  -4 -34   3  492.65   33.70
  -4 -34   3  513.05   51.49
  -4  34   3  439.96   34.30
   4  34  -3  503.05   40.70
  -4  34   3  457.75   38.90
   2 -34  -3  616.04   49.50
   2 -34  -3  706.13   58.69
  -2 -34   3  724.23   45.20
  -2 -34   3  689.03   58.79
  -2  34   3  682.83   44.90
  -2  34   3  660.63   48.60
   2  34  -3  676.83   46.30
   2  34  -3  708.53   62.19
   0 -34  -3  877.01   59.99
   0 -34   3  841.62   67.39
   0 -34   3  841.32   56.29
   0  34  -3  853.01   56.39
   0  34  -3  917.01   71.59
   2 -34   3  422.06   37.30
  -2 -34  -3  479.05   36.50
  -2 -34  -3  514.75   47.40
   2 -34   3  470.55   34.00
   2 -34   3  457.75   45.90
  -2  34  -3  464.85   33.00
  -2  34  -3  476.15   51.69
   3 -35  -3   -0.60   14.40
  -3 -35   3   -0.80    5.10
   3 -35  -3  -27.30   24.90
  -3 -35   3  -11.90   22.60
  -3  35   3   -9.70   10.50
   3  35  -3  -14.80   12.20
  -3  35   3    4.10    5.00
   1 -35  -3  131.39   17.80
  -1 -35   3   85.49   12.40
  -1 -35   3   82.29   25.00
   1 -35  -3  114.29   25.90
  -1  35   3  116.79   10.60
   1  35  -3   69.19   28.30
   1  35  -3   90.99   13.30
  -1 -35  -3   86.59   14.40
   1 -35   3   90.29   13.20
   1 -35   3   86.89   14.00
  -1 -35  -3   85.79   23.70
   1 -35   3   67.69   23.70
  -1  35  -3   94.49   28.80
  -1  35  -3   71.29   12.00
   3 -35   3   18.90    8.90
   3 -35   3   24.00   21.60
  -3 -35  -3   29.10   25.40
  -3 -35  -3   43.20   13.80
   3 -35   3   22.50   21.10
   3  35   3   35.20   12.50
  -3  35  -3   24.70    7.20
   2 -36  -3  574.94   53.89
  -2 -36   3  508.25   36.10
  -2 -36   3  584.94   53.59
   2 -36  -3  513.75   42.00
   2  36  -3  491.95   37.70
  -2  36   3  544.15   35.90
   0 -36   3  923.01   67.69
   0 -36   3  818.42   54.19
   0 -36  -3  710.03   65.49
   0  36  -3  881.71   72.49
   0  36  -3  799.52   54.19
  -2 -36  -3  688.43   47.10
   2 -36   3  622.64   44.40
  -2 -36  -3  635.54   57.99
   2 -36   3  601.24   45.90
   2 -36   3  636.64   56.39
  -2  36  -3  603.04   43.10
  -2  36  -3  685.73   61.89
   3 -37  -3   -9.70   14.80
  -3 -37   3   -3.80    5.20
   3 -37  -3   19.50   27.70
  -3 -37   3   -2.60   25.70
  -3  37   3    1.40   11.20
   3  37  -3    4.80   12.40
  -3  37   3   -1.10    5.30
   1 -37  -3   22.90   15.00
  -1 -37   3   14.50    5.40
  -1 -37   3    6.10   23.80
   1 -37  -3   11.90   23.20
   1  37  -3   10.50   27.20
   1  37  -3   -3.50    5.40
  -1  37   3   12.90    4.30
  -1 -37  -3   30.10   24.80
   1 -37   3   30.70    7.10
   1 -37   3   47.30   12.10
   1 -37   3   11.10   23.70
  -1 -37  -3   61.19   13.80
  -1  37  -3   32.80    6.60
   3 -37   3   44.80   14.50
   3 -37   3   42.20   24.00
  -3 -37  -3   40.30   14.30
   3 -37   3   28.60    9.60
  -3 -37  -3   66.69   28.50
   3  37   3   37.70   13.50
  -3  37  -3   36.80    8.30
  -2 -38   3  643.24   59.99
   2 -38  -3  700.23   61.79
   2 -38  -3  593.04   47.90
  -2 -38   3  601.74   41.60
  -2  38   3  646.14   41.40
   2  38  -3  559.64   43.30
   0 -38  -3  473.15   50.89
   0 -38   3  531.05   52.49
   0 -38   3  459.55   33.40
   0 -38   3  453.05   36.70
   0  38  -3  460.95   33.50
   2 -38   3  431.26   34.10
   2 -38   3  470.85   50.09
  -2 -38  -3  501.15   52.19
   2 -38   3  448.56   36.00
  -2 -38  -3  436.36   37.50
  -2  38  -3  435.06   32.40
  -1 -39   3   18.30    6.20
  -1 -39   3   20.60   26.20
   1 -39  -3   33.30   26.70
   1  39  -3   23.70    7.30
  -1  39   3   27.20    5.20
  -1 -39  -3   83.09   27.90
  -1 -39  -3   77.79   15.60
   1 -39   3   85.29   14.20
   1 -39   3   75.09   10.20
   1 -39   3   88.29   28.30
  -1  39  -3   57.79    9.00
   2 -40  -3  616.84   60.09
  -2 -40   3  523.25   37.30
  -2 -40   3  629.44   62.19
  -2  40   3  508.35   37.00
   2  40  -3  510.35   39.30
   0 -40   3  378.46   29.70
   0 -40  -3  433.96   50.19
   0 -40   3  429.26   50.99
   0  40  -3  385.26   29.60
  -2 -40  -3  699.73   62.69
   2 -40   3  610.44   44.20
  -2 -40  -3  574.54   47.20
   2 -40   3  626.54   60.59
   2 -40   3  594.54   45.80
  -2  40  -3  598.84   42.40
   1 -41  -3    8.00   28.90
  -1 -41   3    4.60    6.10
  -1 -41   3    1.20   28.40
   1  41  -3   17.90    7.50
  -1  41   3    7.60    5.00
   1 -41   3    9.10    7.50
   1 -41   3   -4.40   28.00
   1 -41   3   -2.40   23.50
  -1 -41  -3   34.40   28.50
  -1  41  -3    1.90    6.20
   0 -42   3  334.07   27.20
   0 -42   3  393.16   71.79
   0  42  -3  339.77   27.30
  -6   0   4  965.70   68.69
  -6   0   4  999.70   67.99
   4   0  -4  359.76   27.70
   4   0  -4  351.36   29.60
  -4   0   4  327.47   29.40
  -4   0   4  378.46   27.20
  -2   0   4 3844.92  248.28
  -2   0   4 4241.28  247.08
   2   0  -4 3804.62  248.18
   2   0  -4 4042.50  247.28
   0   0   4  300.07   22.40
   0   0   4  354.46   20.50
   0   0  -4  284.27   22.40
  -2   0  -4 2213.68  141.89
   2   0   4 2367.16  142.09
  -4   0  -4  800.32   50.69
  -4   0  -4  791.22   54.39
  -6   0  -4  882.11   56.09
  -6   0  -4  815.42   63.39
  -5  -1   4   32.40   11.40
   5   1  -4   32.40   11.10
  -5   1   4   35.20   12.00
   3  -1  -4  358.36   25.80
   3  -1  -4  343.17   23.70
  -3  -1   4  277.27   22.70
  -3  -1   4  291.37   25.10
  -3   1   4  327.67   24.60
   3   1  -4  280.87   25.60
  -3   1   4  361.76   23.30
   3   1  -4  282.27   23.30
   1  -1  -4  269.67   16.40
   1  -1  -4  241.58   18.90
  -1  -1   4  217.28   18.20
  -1   1   4  237.08   18.60
   1   1  -4  216.98   19.10
   1   1  -4  238.08   16.20
  -1  -1  -4  232.08   19.30
   1  -1   4  276.77   17.80
  -1  -1  -4  284.57   17.80
  -1   1  -4  273.47   17.90
   1   1   4  288.17   17.70
  -3  -1  -4  300.37   20.90
  -3   1  -4  242.08   17.80
  -5  -1  -4   24.80   12.70
  -5  -1  -4    3.80    3.60
  -5   1  -4    0.10    3.40
  -5   1  -4   -2.80   11.70
  -6  -2   4  800.52   60.59
  -6  -2   4  880.71   60.49
  -6   2   4  851.41   60.49
  -6   2   4  884.81   61.09
  -4  -2   4 1746.33  109.99
   4  -2  -4 1626.34  109.29
  -4  -2   4 1813.22  108.79
  -4   2   4 1578.54  109.49
  -4   2   4 1678.53  108.79
   4   2  -4 1713.73  109.09
   4   2  -4 1783.02  109.39
  -2  -2   4  646.94   40.40
   2  -2  -4  621.94   42.70
   2  -2  -4  653.53   40.80
  -2  -2   4  559.94   42.40
  -2   2   4  673.83   40.50
   2   2  -4  527.85   42.50
   2   2  -4  616.64   40.70
  -2   2   4  665.93   42.60
   0  -2   4  338.27   24.50
   0  -2  -4  310.57   24.40
   0  -2   4  388.96   22.50
   0   2  -4  380.16   22.80
   0   2   4  358.86   22.40
   0   2  -4  330.37   24.90
   0   2   4  316.77   24.10
   2  -2   4 1751.22  104.79
  -2  -2  -4 1652.13  105.29
  -2   2  -4 1643.04  104.49
  -4  -2  -4 1157.28   73.49
  -4  -2  -4 1119.99   70.09
  -4   2  -4 1114.09   73.49
  -4   2  -4 1072.49   70.29
  -6  -2  -4  709.53   49.10
  -6  -2  -4  746.43   57.79
  -6   2  -4  788.72   57.99
  -6   2  -4  744.43   49.50
  -5  -3   4   19.50   15.00
  -5  -3   4   -0.60   10.00
  -5   3   4    0.70    9.80
   5   3  -4   -4.50    9.10
  -3  -3   4   21.60    8.80
  -3  -3   4    9.70    5.50
   3   3  -4   39.50   10.00
  -3   3   4   24.80    6.50
   3   3  -4   14.30    6.50
  -3   3   4   35.90    8.80
  -1  -3   4   16.50    2.80
  -1  -3   4   16.80    6.20
   1  -3  -4   23.40    6.10
  -1   3   4   22.40    5.90
   1   3  -4   13.80    7.40
   1   3  -4   19.40    3.60
   1  -3   4   74.09    5.80
  -1   3  -4   52.39    9.30
  -1   3  -4   71.29    6.00
   3  -3   4  106.29    9.20
  -3  -3  -4   68.49   10.80
  -3   3  -4   90.29    7.90
  -5  -3  -4   12.90   11.90
  -5  -3  -4    1.60    3.40
  -5   3  -4    6.90   12.80
  -5   3  -4    7.10    3.80
  -6  -4   4 1013.10   73.79
  -6  -4   4 1123.19   73.19
  -6   4   4 1082.99   73.69
  -6   4   4 1049.40   74.19
   6   4  -4 1109.59   74.39
   4  -4  -4 1180.78   78.19
  -4  -4   4 1269.37   77.49
  -4  -4   4 1153.28   79.19
  -4   4   4 1228.68   77.99
  -4   4   4 1200.28   78.79
   4   4  -4 1195.18   78.09
   4   4  -4 1147.09   78.49
   2  -4  -4 1809.12  119.09
  -2  -4   4 1898.81  119.69
   2   4  -4 1806.52  119.49
  -2   4   4 1939.01  117.89
   2   4  -4 1953.10  118.09
  -2   4   4 1885.51  119.19
   0  -4   4   30.80    6.70
   0  -4   4   55.19    4.80
   0  -4  -4   33.60    7.00
   0   4  -4   48.80    5.10
   0   4  -4   49.10    8.30
   0   4   4   39.50    6.60
   0   4   4   47.10    4.40
   2  -4   4  749.62   46.30
  -2   4  -4  707.53   46.00
  -4  -4  -4 1017.20   61.99
  -4   4  -4  845.32   58.69
  -4   4  -4  928.31   62.19
  -6  -4  -4  665.43   53.59
  -6  -4  -4  652.73   45.70
  -6   4  -4  753.52   54.79
  -6   4  -4  707.93   46.60
  -5  -5   4   74.59   12.40
  -5  -5   4   63.79   14.10
   5   5  -4   59.99   13.00
  -5   5   4   82.99   14.70
   3  -5  -4  191.78   17.90
  -3  -5   4  157.68   17.90
  -3  -5   4  143.59   13.70
  -3   5   4  180.58   16.60
   3   5  -4  147.19   18.60
   3   5  -4  124.89   14.50
  -3   5   4  176.28   14.90
  -1  -5   4  240.28   16.80
  -1  -5   4  213.78   19.70
   1  -5  -4  259.47   19.40
   1   5  -4  252.07   16.80
  -1   5   4  292.27   19.20
   1   5  -4  221.88   20.20
   1  -5   4  106.29    7.60
  -1  -5  -4   81.79    9.70
  -1   5  -4   87.19   11.40
  -1   5  -4  104.79    7.80
  -3  -5  -4    8.90    5.70
   3  -5   4    3.50    3.10
  -3   5  -4   -0.20    2.20
  -5  -5  -4   61.49   14.00
  -5  -5  -4   57.39    8.30
  -5   5  -4   59.99    9.80
  -6  -6   4  714.03   56.49
  -6  -6   4  750.82   53.89
   6   6  -4  753.82   56.49
  -6   6   4  751.62   56.39
  -6   6   4  862.71   55.89
  -4  -6   4 1513.05   94.79
   4  -6  -4 1531.85   95.89
  -4  -6   4 1422.56   96.39
   4   6  -4 1488.65   95.99
   4   6  -4 1398.36   95.19
  -4   6   4 1521.95   95.99
  -4   6   4 1483.05   95.19
   2  -6  -4 1448.06   89.89
  -2  -6   4 1320.87   90.39
   2   6  -4 1230.78   89.99
  -2   6   4 1568.04   88.59
  -2   6   4 1535.85   89.99
   2   6  -4 1318.87   88.49
   0  -6   4  359.26   22.80
   0  -6   4  347.47   25.40
   0   6  -4  328.67   25.50
   0   6  -4  359.96   23.00
   2  -6   4 2306.07  140.29
  -2   6  -4 2203.58  139.99
  -4  -6  -4  632.74   40.50
  -4   6  -4  510.65   36.70
  -6  -6  -4  851.81   61.29
  -6   6  -4  879.11   63.49
  -6   6  -4  796.02   55.39
  -5  -7   4   42.20    9.90
  -5  -7   4   50.49   13.50
   5   7  -4   55.29   12.60
  -5   7   4   40.50   11.80
  -3  -7   4  103.79   16.40
   3  -7  -4  108.39   15.40
  -3   7   4   88.09   11.70
   3   7  -4  131.89   17.30
  -3   7   4   88.39   13.30
   3   7  -4  115.59   12.30
   1  -7  -4    8.20    5.80
  -1  -7   4   10.10    2.60
  -1  -7   4   15.40    7.50
  -1   7   4    5.70    5.00
   1   7  -4   27.50    8.30
  -1  -7  -4    1.90    4.10
   1  -7   4    1.40    1.80
   1  -7   4    4.30    5.00
  -1   7  -4   -0.50    1.80
  -1   7  -4    8.10    6.20
   3  -7   4    8.60    3.40
  -3  -7  -4   23.80    5.90
  -3   7  -4    3.10    2.40
  -5  -7  -4   16.50   11.40
  -5   7  -4    2.90    4.20
  -5   7  -4   10.80   15.20
  -6  -8   4  381.06   38.90
  -6  -8   4  461.55   35.00
  -6   8   4  484.55   37.00
   6   8  -4  469.95   38.70
  -6   8   4  397.46   38.20
  -4  -8   4  641.34   42.20
   4  -8  -4  643.24   44.50
  -4  -8   4  617.04   45.30
  -4   8   4  585.24   43.10
   4   8  -4  594.04   43.10
  -4   8   4  618.94   43.60
   4   8  -4  616.44   45.10
  -2  -8   4 2029.10  136.59
   2  -8  -4 2274.97  136.29
  -2  -8   4 2102.29  134.59
   2   8  -4 2075.09  134.89
  -2   8   4 2304.87  134.89
  -2   8   4 2357.96  136.29
   2   8  -4 1955.40  136.39
   0  -8   4 1437.46   92.29
   0  -8   4 1487.05   90.39
   0   8  -4 1403.26   92.49
   0   8  -4 1467.75   90.59
   2  -8   4 1656.13  100.79
  -2   8  -4 1565.94  100.49
  -4  -8  -4  439.96   32.10
  -4   8  -4  427.76   29.00
  -6  -8  -4  937.31   59.79
  -6   8  -4  745.83   61.59
  -6   8  -4  756.12   53.69
   5  -9  -4   37.20   12.30
  -5  -9   4   38.20   13.60
  -5  -9   4   37.30    9.60
   5   9  -4   25.40   11.40
  -5   9   4   27.20   11.10
  -3  -9   4   52.19   11.10
   3  -9  -4   36.80    9.20
   3   9  -4   47.10    8.50
   3   9  -4   58.09   12.50
  -3   9   4   41.80    9.30
  -3   9   4   26.30    6.90
  -1  -9   4   19.90    3.20
  -1  -9   4   38.10    8.80
   1   9  -4   31.90    8.80
   1  -9   4   38.70    5.10
   1  -9   4   49.80    9.70
  -1   9  -4   35.10    8.40
  -1   9  -4   34.90    5.10
   3  -9   4    6.50    3.60
  -3   9  -4    2.80    2.60
  -5  -9  -4   36.00   12.20
  -5   9  -4   27.60    5.80
  -5   9  -4   41.40   15.20
  -6 -10   4  236.48   31.10
  -6 -10   4  244.98   25.00
  -6  10   4  221.08   29.00
   6  10  -4  305.97   30.00
  -6  10   4  296.07   29.00
   4 -10  -4  717.83   51.79
  -4 -10   4  734.43   52.59
  -4 -10   4  775.42   49.60
   4  10  -4  740.03   50.69
  -4  10   4  751.72   50.49
  -4  10   4  722.33   51.09
   4  10  -4  740.63   52.69
  -2 -10   4  946.51   63.29
   2 -10  -4  995.80   62.39
  -2 -10   4  921.11   60.19
   2  10  -4  878.21   63.09
  -2  10   4  942.91   60.59
   2  10  -4  950.80   60.79
  -2  10   4 1000.30   61.99
   0 -10  -4 2990.50  207.18
   0 -10   4 3567.04  206.28
   0 -10   4 3430.96  208.08
   0  10  -4 3325.17  208.28
   0  10   4 2999.00  206.78
   0  10  -4 3661.53  206.48
   2 -10   4 1538.35   89.99
  -2  10  -4 1468.65   89.59
   2  10   4 1267.77   89.69
  -2  10  -4 1454.05   91.59
  -4 -10  -4  623.44   43.60
  -4  10  -4  644.64   41.50
  -6 -10  -4  347.77   32.30
  -6  10  -4  256.07   23.30
  -6  10  -4  245.78   35.60
  -5 -11   4   -0.10    8.70
   5 -11  -4   18.50   13.20
  -5 -11   4    7.40   12.70
  -5  11   4    1.40   11.20
  -5  11   4    0.40    9.60
   5  11  -4   -1.00   11.30
  -3 -11   4   27.90   10.80
   3 -11  -4    0.80    7.40
  -3  11   4   15.60    7.20
   3  11  -4   11.80   11.10
   3  11  -4   14.50    6.30
  -3  11   4    6.10    6.00
   1 -11  -4  261.77   22.40
  -1 -11   4  333.57   20.30
  -1 -11   4  314.67   25.10
  -1  11   4  262.77   21.90
   1  11  -4  303.27   25.20
   1  11  -4  319.17   20.80
   1 -11   4  239.58   20.10
   1 -11   4  263.17   16.90
  -1  11  -4  245.48   16.90
  -1  11  -4  222.58   21.20
  -3 -11  -4   27.60    6.30
  -3  11  -4   47.30    6.40
   3  11   4   30.70    6.80
  -5 -11  -4    0.00   10.60
  -5  11  -4    7.50    4.80
  -6 -12   4  388.16   31.50
  -6 -12   4  357.96   37.00
  -6  12   4  334.87   35.10
   6  12  -4  458.35   37.40
  -6  12   4  358.56   34.00
  -4 -12   4  466.25   36.50
   4 -12  -4  418.66   35.20
  -4  12   4  443.86   33.30
   4  12  -4  462.05   33.50
   4  12  -4  478.65   37.10
  -4  12   4  433.76   33.80
  -2 -12   4 2092.79  127.89
   2 -12  -4 2059.29  129.69
  -2 -12   4 1989.40  130.49
   2  12  -4 1921.91  130.29
  -2  12   4 2088.19  129.39
   2  12  -4 2131.79  128.59
   0 -12   4 3181.18  186.98
   0 -12  -4 2804.52  188.08
   0 -12   4 3038.60  189.08
   0  12  -4 3254.67  187.38
   0  12   4 2849.51  187.68
   0  12  -4 2965.70  189.38
   2 -12   4 2005.60  119.39
  -2  12  -4 1865.91  120.99
  -2  12  -4 1913.11  119.09
   2  12   4 1850.71  119.29
  -4 -12  -4  601.84   40.60
  -4  12  -4  579.84   38.60
   4  12   4  573.64   41.20
  -6 -12  -4  157.48   21.20
  -6  12  -4  147.19   24.90
  -6  12  -4  162.58   18.10
  -5 -13   4   37.80   15.00
   5  13  -4   36.00   13.40
  -5  13   4   39.20   12.10
  -5  13   4   52.39   12.90
  -3 -13   4    7.30    3.80
  -3 -13   4    7.30   10.10
   3 -13  -4    3.30    8.70
   3  13  -4    7.20    5.90
  -3  13   4    7.00    7.10
  -3  13   4    4.90    6.20
   3  13  -4   15.30   12.70
  -1 -13   4   65.79   12.00
  -1 -13   4   51.49    6.40
   1  13  -4   77.89   13.00
   1  13  -4   52.49    7.10
   1 -13   4   73.19    7.10
   1 -13   4   61.59   10.50
  -1  13  -4   74.29   12.50
  -1  13  -4   68.69    7.10
   3 -13   4    8.80    4.20
  -3 -13  -4   15.10    5.20
  -3  13  -4   11.90   11.10
   3  13   4    5.00    5.90
  -3  13  -4   11.60    3.20
  -5 -13  -4   10.90   10.60
  -5  13  -4   19.00    5.50
  -6 -14   4  305.67   33.40
  -6  14   4  291.97   30.70
   6  14  -4  314.07   32.60
  -6  14   4  261.37   31.30
   4 -14  -4  664.73   47.90
  -4 -14   4  673.43   49.80
  -4  14   4  672.23   47.40
   4  14  -4  739.13   50.99
  -4  14   4  666.13   47.60
   4  14  -4  669.73   47.10
  -2 -14   4 1274.77   84.19
   2 -14  -4 1328.97   83.09
  -2 -14   4 1272.27   80.69
   2  14  -4 1231.18   84.39
  -2  14   4 1292.27   82.39
   2  14  -4 1281.97   81.39
   0 -14  -4 4623.04  284.17
   0 -14   4 4452.55  285.07
   0 -14   4 4689.13  282.87
   0  14  -4 4208.48  285.07
   0  14   4 4711.53  283.67
   0  14  -4 4742.13  283.17
   2 -14   4 1245.08   76.99
  -2 -14  -4 1225.88   77.09
  -2  14  -4 1206.08   76.69
   2  14   4 1279.37   77.19
  -2  14  -4 1129.29   79.29
  -4 -14  -4  486.25   33.80
   4  14   4  454.65   34.50
  -4  14  -4  460.45   31.60
  -6 -14  -4  193.98   29.40
  -6  14  -4  332.57   38.30
  -6  14  -4  263.67   22.70
  -5 -15   4   11.70   15.20
   5 -15  -4    2.90   12.80
  -5  15   4    9.60   11.40
   5  15  -4   12.40   11.50
  -5  15   4   14.30   11.10
   3 -15  -4    5.60    8.70
  -3 -15   4    0.20    3.40
  -3 -15   4    6.60   11.00
  -3  15   4   -2.30    6.70
   3  15  -4   10.30   13.30
   3  15  -4   -1.20    5.50
  -1 -15   4   24.10    3.60
  -1 -15   4   23.30   10.60
   1  15  -4   32.30   12.10
   1  15  -4   19.60    4.00
  -1  15   4   37.40    7.10
   1 -15   4   93.19    8.40
   1 -15   4   69.29   14.50
  -1  15  -4   91.69    8.40
  -1  15  -4   93.39   17.90
   3 -15   4   23.10    5.40
  -3  15  -4   25.20    4.30
  -3  15  -4   30.00   13.10
   3  15   4    8.20    6.90
  -5 -15  -4   -7.70   10.70
   5  15   4   -0.10   12.10
  -5  15  -4    0.40    4.90
  -6 -16   4  364.06   36.10
   6  16  -4  331.57   34.50
  -6  16   4  341.87   33.70
  -6  16   4  290.37   32.70
   4 -16  -4  447.56   35.60
  -4 -16   4  483.95   32.80
  -4 -16   4  441.66   39.60
  -4  16   4  468.35   35.20
   4  16  -4  476.95   35.00
  -4  16   4  461.45   35.30
   4  16  -4  496.95   40.20
  -2 -16   4 2064.39  127.69
  -2 -16   4 1985.10  130.89
   2 -16  -4 2090.39  129.79
   2  16  -4 1978.00  131.19
  -2  16   4 2094.29  129.19
   0 -16   4 1314.17   79.79
   0 -16   4 1201.28   82.99
   0 -16  -4 1459.85   81.59
   0  16  -4 1089.79   83.19
   0  16  -4 1269.47   79.99
   2 -16   4 1427.56   84.89
  -2 -16  -4 1216.28   84.79
   2  16   4 1302.57   84.79
  -2  16  -4 1389.16   84.49
  -2  16  -4 1376.66   87.89
   4  16   4  277.37   26.00
  -4  16  -4  325.67   22.40
  -6 -16  -4  579.34   47.60
  -6  16  -4  636.14   43.00
  -5 -17   4    8.30   15.80
  -5  17   4   -7.10   10.30
   5  17  -4   -6.40   11.60
  -5  17   4    8.60   11.50
  -3 -17   4   40.80   13.40
  -3 -17   4   30.10    5.30
   3 -17  -4   47.50   11.90
  -3  17   4   44.90    9.50
   3  17  -4   43.10    8.20
   3  17  -4   51.39   16.00
  -1 -17   4   63.29   13.30
   1 -17  -4   75.89   12.30
  -1 -17   4   70.89    7.60
  -1  17   4   85.99   10.60
   1  17  -4   72.99    8.40
   1  17  -4   80.59   15.60
   1 -17   4   13.60   10.10
   1 -17   4   17.50    3.60
  -1  17  -4   31.70   12.80
  -1  17  -4   14.60    3.40
   3 -17   4    6.50    4.50
  -3  17  -4    5.50    3.30
  -3  17  -4   12.80   14.10
   3  17   4    9.50    7.30
  -5 -17  -4   20.30   16.70
   5  17   4   19.50   13.40
  -5  17  -4    7.70    5.70
  -6 -18   4  618.04   51.79
  -6  18   4  606.64   47.90
  -6  18   4  630.24   49.90
   6  18  -4  641.84   50.79
  -4 -18   4  338.57   27.50
  -4 -18   4  392.96   34.50
   4 -18  -4  358.76   29.90
   4  18  -4  372.66   35.50
  -4  18   4  335.97   29.20
   4  18  -4  322.17   28.20
  -4  18   4  368.96   29.40
  -2 -18   4 1583.54   97.49
  -2 -18   4 1568.84  101.59
   2 -18  -4 1575.84   99.99
   2  18  -4 1532.05  102.09
  -2  18   4 1502.15   99.09
   0 -18  -4 1118.49   68.69
   0 -18   4  984.40   70.69
   0 -18   4 1053.49   66.79
   0  18  -4 1056.09   67.09
   0  18   4 1168.38   68.09
   0  18  -4  952.20   71.39
  -2 -18  -4  774.32   57.19
   2 -18   4  938.31   57.29
   2 -18   4  943.91   57.19
  -2  18  -4 1021.60   62.09
  -2  18  -4  914.41   56.69
   2  18   4  753.52   56.79
  -4  18  -4  547.25   37.40
   4  18   4  567.04   40.80
  -5 -19   4    6.90   18.30
  -5 -19   4    1.70    6.00
   5 -19  -4    7.30   12.80
  -5  19   4    6.10   11.90
   5  19  -4    4.40   12.10
  -5  19   4   -2.40   10.80
  -3 -19   4   -5.60   11.80
  -3 -19   4    0.10    3.80
   3 -19  -4   -3.60    9.30
   3  19  -4   -2.60    6.00
   3  19  -4   -4.80   15.10
  -3  19   4    0.60    7.20
   1 -19  -4    1.80    7.20
  -1 -19   4   13.30   11.10
  -1 -19   4    1.20    2.60
  -1  19   4    3.60    5.30
   1  19  -4   -1.40    2.90
   1  19  -4   -3.30   12.70
   1 -19   4   76.29   13.60
  -1 -19  -4   84.39   11.40
   1 -19   4   71.59    8.10
  -1  19  -4   64.49    7.90
  -1  19  -4   74.69   15.60
  -3 -19  -4   16.00    6.50
   3 -19   4   16.70    5.40
  -3  19  -4   12.20    3.90
   3  19   4   11.70    7.70
  -3  19  -4   16.60   15.80
  -5  19  -4   -6.40    5.10
   5  19   4  -12.00   13.30
  -6 -20   4  553.84   47.20
  -6 -20   4  438.76   36.90
  -6  20   4  531.15   42.60
  -4 -20   4  601.04   42.30
  -4 -20   4  651.13   48.20
   4 -20  -4  551.34   43.80
   4  20  -4  595.04   42.60
   4  20  -4  669.63   49.80
  -4  20   4  529.55   42.80
  -2 -20   4 1494.35   95.89
   2 -20  -4 1568.34   98.59
  -2 -20   4 1510.15  100.69
   2  20  -4 1479.65  100.99
  -2  20   4 1572.54   97.79
   0 -20   4  666.43   42.20
   0 -20   4  642.34   47.80
   0 -20  -4  669.03   44.40
   0  20   4  669.43   43.40
   0  20  -4  664.13   42.60
   0  20  -4  601.54   48.30
   2 -20   4 1637.44  105.69
   2 -20   4 1711.13  104.09
   2 -20   4 1722.33  103.99
  -2 -20  -4 1593.74  104.19
   2  20   4 1599.94  103.69
  -2  20  -4 1631.54  107.69
  -2  20  -4 1635.84  103.49
  -4  20  -4  267.77   20.70
  -4  20  -4  336.17   34.40
   4  20   4  222.98   24.30
  -5 -21   4    5.30    6.30
  -5 -21   4  -20.10   17.20
   5 -21  -4   -0.90   12.60
  -5  21   4   -1.30   11.30
   5  21  -4   -4.70   11.70
  -5  21   4    7.20   12.70
  -3 -21   4    9.10   13.50
   3 -21  -4    5.40   10.10
  -3 -21   4    3.30    4.00
   3  21  -4   -1.80    6.90
   3  21  -4    2.10   16.30
  -3  21   4   -1.60    7.80
  -1 -21   4   41.90   14.20
   1 -21  -4   27.30    9.00
  -1  21   4   24.50    3.80
   1  21  -4   43.50   15.90
  -1  21   4   35.00    7.70
   1 -21   4    1.00    3.00
   1 -21   4   -1.00   10.70
  -1 -21  -4    0.80    6.40
  -1  21  -4  -16.80   13.90
  -1  21  -4   -1.30    3.00
   3 -21   4    7.30    6.00
  -3 -21  -4   14.60    7.10
  -3  21  -4   -1.00    3.60
  -3  21  -4   -2.50   17.50
   3  21   4   10.30    7.30
  -5  21  -4   23.00    6.70
   5  21   4   16.60   15.30
  -4 -22   4  414.86   37.90
  -4 -22   4  373.66   28.00
   4 -22  -4  367.36   33.50
   4  22  -4  404.66   39.30
  -4  22   4  394.86   31.90
   4  22  -4  352.16   30.70
  -2 -22   4 1321.47   83.59
   2 -22  -4 1335.57   86.49
  -2 -22   4 1296.67   89.09
   2  22  -4 1321.37   90.09
  -2  22   4 1340.37   85.49
   0 -22   4 1116.99   70.49
   0 -22  -4 1089.09   72.29
   0 -22   4 1102.09   75.69
   0  22  -4 1136.29   70.89
   0  22  -4 1053.39   76.39
   0  22   4 1178.58   71.89
  -2 -22  -4 1356.56   86.39
   2 -22   4 1326.57   85.89
   2 -22   4 1294.87   88.19
   2 -22   4 1371.86   85.79
  -2  22  -4 1351.96   85.29
  -2  22  -4 1424.26   91.39
   2  22   4 1318.47   85.49
   4 -22   4  485.05   36.50
  -4  22  -4  494.55   34.60
  -4  22  -4  561.04   47.90
   4  22   4  479.25   38.10
  -5 -23   4   21.20   19.60
  -5 -23   4    2.20    6.20
   5 -23  -4    7.90   13.00
  -5  23   4   14.60   12.90
  -5  23   4   20.40   13.80
   5  23  -4   11.20   13.80
  -3 -23   4    1.10   15.30
  -3 -23   4    7.00    4.40
   3 -23  -4   -1.30   10.40
  -3  23   4   -2.20    8.70
   3  23  -4    6.60    8.00
   3  23  -4   13.70   18.50
   1 -23  -4   -4.80    7.70
  -1 -23   4    2.00    3.00
  -1 -23   4    6.30   13.60
  -1  23   4   -1.90    5.70
   1  23  -4   -0.10    3.40
   1  23  -4    0.50   16.40
  -1  23   4    1.70    2.60
   1 -23   4    3.80    3.30
  -1 -23  -4    2.40    6.70
   1 -23   4   -3.90   12.20
  -1  23  -4   -0.80    3.10
  -1  23  -4   -5.50   16.10
  -3 -23  -4   30.90    8.30
   3 -23   4   24.90    6.60
  -3  23  -4   17.70    4.70
  -3  23  -4   46.90   20.90
   3  23   4   20.80    8.50
  -5  23  -4   -2.50    5.80
   5  23   4    4.60   15.90
  -4 -24   4  533.85   36.40
   4 -24  -4  515.65   41.80
  -4 -24   4  547.25   46.40
   4  24  -4  554.54   39.60
   4  24  -4  505.95   46.60
  -4  24   4  478.85   39.40
  -2 -24   4 1218.58   85.29
  -2 -24   4 1268.67   79.09
   2 -24  -4 1248.48   82.19
  -2  24   4 1278.87   81.39
   2  24  -4 1200.88   86.59
  -2  24   4 1259.87   79.19
   0 -24  -4  562.94   39.00
   0 -24   4  522.95   36.20
   0 -24   4  551.34   43.80
   0  24  -4  543.25   36.70
   0  24   4  577.54   37.90
   0  24  -4  553.54   46.00
  -2 -24  -4 1148.59   70.29
   2 -24   4 1051.09   72.39
   2 -24   4 1027.30   69.39
  -2  24  -4 1082.49   76.19
   2  24   4 1072.89   68.79
  -2  24  -4 1055.19   68.59
   4 -24   4  402.66   31.80
  -4  24  -4  435.36   29.50
  -4  24  -4  416.36   49.10
   4  24   4  367.06   33.40
  -5 -25   4    4.80    6.90
   5 -25  -4   -2.80   14.10
  -5 -25   4   15.20   20.40
  -5  25   4   -0.40   12.50
   5  25  -4  -12.40   13.10
  -5  25   4    0.70    6.80
   3 -25  -4  121.29   24.70
  -3 -25   4  167.88   29.20
  -3  25   4  130.79   13.80
  -3  25   4  113.19   17.80
   3  25  -4  174.28   17.20
  -1 -25   4    2.10    3.10
   1 -25  -4   -2.20    8.60
  -1 -25   4    0.30   14.30
  -1  25   4    1.90    6.40
  -1  25   4    1.40    2.80
   1  25  -4    0.10    3.70
   1  25  -4  -20.50   17.50
  -1 -25  -4   23.00    8.80
   1 -25   4    2.60   14.10
   1 -25   4   12.50    4.40
  -1  25  -4    5.80    3.90
  -1  25  -4   24.50   18.90
   3 -25   4  165.68   16.50
  -3 -25  -4  145.89   17.80
   3  25   4  128.09   16.70
  -3  25  -4  137.69   13.90
  -3  25  -4  149.99   28.20
  -5  25  -4   27.30    7.50
  -5  25  -4   19.50   27.30
   5  25   4   31.00   16.80
  -4 -26   4  581.04   49.50
   4 -26  -4  504.55   46.80
  -4 -26   4  533.65   37.70
   4  26  -4  530.75   41.20
  -4  26   4  547.65   38.60
   4  26  -4  530.85   49.20
  -4  26   4  575.34   41.70
  -2 -26   4  798.52   49.99
  -2 -26   4  758.72   58.59
   2  26  -4  796.62   62.09
  -2  26   4  738.63   49.90
  -2  26   4  757.12   52.49
   0 -26  -4  268.27   24.60
   0 -26   4  317.27   31.80
   0 -26   4  269.37   20.30
   0  26   4  283.67   22.50
   0  26  -4  338.57   35.70
   0  26  -4  269.47   20.70
   2 -26   4  438.96   35.80
   2 -26   4  382.36   29.50
   2 -26   4  354.76   28.70
  -2 -26  -4  452.95   31.70
  -2  26  -4  431.86   47.10
   2  26   4  426.66   28.80
  -2  26  -4  385.36   28.30
  -4 -26  -4  944.51   64.59
   4 -26   4  934.21   64.59
  -4  26  -4  964.70   62.79
   4  26   4  958.30   65.69
  -4  26  -4 1016.60   75.39
   5 -27  -4   80.39   25.60
   5 -27  -4   49.30   16.10
  -5 -27   4   77.39    9.80
  -5 -27   4   78.29   24.80
  -5  27   4   43.80    9.30
   5  27  -4   73.19   16.90
  -5  27   4   54.39   15.10
  -3 -27   4  256.77   33.40
   3 -27  -4  206.08   26.70
  -3 -27   4  270.77   19.10
  -3  27   4  210.78   23.50
   3  27  -4  266.37   22.70
  -3  27   4  219.18   19.20
   3  27  -4  254.37   37.10
  -1 -27   4   14.80    4.30
  -1 -27   4   -1.40   16.70
   1  27  -4    9.80   23.60
   1  27  -4    7.40    4.50
  -1 -27  -4   35.10   10.50
   1 -27   4   29.10   16.30
   3 -27   4   11.50    6.40
  -3 -27  -4   11.60    9.70
   3  27   4   -3.40    7.90
  -3  27  -4   -0.10    4.50
  -3  27  -4    2.60   23.60
   4 -28  -4 1233.78   89.29
  -4 -28   4 1395.16   84.89
  -4 -28   4 1361.26   93.69
  -4  28   4 1291.87   85.69
   4  28  -4 1314.77   93.49
  -4  28   4 1292.27   87.99
   4  28  -4 1379.26   88.39
   2 -28  -4  259.57   26.80
  -2 -28   4  322.57   35.80
  -2  28   4  275.07   20.70
  -2  28   4  260.97   24.40
   2  28  -4  310.17   22.70
   0 -28   4  452.25   40.90
   0  28  -4  413.46   29.50
   0  28  -4  415.56   52.79
  -2 -28  -4  237.88   26.60
   2 -28   4  213.18   28.90
   2 -28   4  205.18   19.30
   2 -28   4  192.18   18.00
  -2  28  -4  209.98   38.90
   2  28   4  204.48   17.90
  -2  28  -4  190.68   16.90
  -4  28  -4 1014.40   80.69
  -4  28  -4  995.90   67.09
   4  28   4 1078.29   70.49
  -3 -29   4   -5.20    4.50
   3 -29  -4    0.50   14.00
  -3 -29   4   -2.00   18.70
   3  29  -4    6.80   25.10
   3  29  -4   -6.90    8.70
  -3  29   4    7.40    4.90
  -3  29   4   -0.90    9.80
   1 -29  -4   -1.40    9.90
  -1 -29   4  -14.50   17.40
  -1  29   4    1.70    2.90
  -1  29   4   -0.90    7.60
   1  29  -4   -9.70   22.50
   1  29  -4   -3.90    4.20
   1 -29   4   -6.70   16.60
   1 -29   4   -0.40    4.50
  -1 -29  -4   16.80   11.40
  -1  29  -4    2.30    4.00
  -1  29  -4   15.60   23.00
  -3 -29  -4   58.99   13.90
  -3  29  -4   45.30   28.00
   3  29   4   57.39   10.90
  -3  29  -4   33.50    7.10
   4 -30  -4  882.91   63.59
  -4 -30   4  878.51   57.59
  -4 -30   4  843.52   69.49
  -4  30   4  968.00   62.29
   4  30  -4  736.73   82.19
  -4  30   4  874.91   58.69
   4  30  -4  881.61   61.89
  -2 -30   4  462.25   32.00
  -2 -30   4  488.25   46.40
   2 -30  -4  450.65   37.70
  -2  30   4  471.15   31.80
   2  30  -4  459.15   33.50
  -2  30   4  465.25   35.40
   2  30  -4  495.75   50.69
   0 -30   4  302.47   35.50
   0 -30   4  264.77   21.00
   0  30  -4  274.17   21.30
   0  30  -4  314.47   42.70
   2 -30   4  784.42   53.49
   2 -30   4  742.93   60.29
   2 -30   4  800.02   54.49
  -2 -30  -4  875.91   55.99
   2  30   4  854.31   53.59
  -2  30  -4  767.92   52.69
  -2  30  -4  810.92   67.49
  -4 -30  -4  327.87   32.20
  -4  30  -4  400.96   49.80
   4  30   4  339.37   32.50
  -4  30  -4  337.57   27.00
   3 -31  -4   64.49   16.00
  -3 -31   4   45.20   22.00
   3  31  -4   50.69   25.00
  -3  31   4   51.09    7.60
  -3  31   4   53.39   12.80
   3  31  -4   41.90   12.50
   1 -31  -4    1.40   10.80
  -1 -31   4    9.70   19.30
  -1 -31   4   -1.50    4.20
   1  31  -4   -4.30   23.90
   1  31  -4    0.30    4.90
  -1  31   4    4.80    8.20
  -1 -31  -4   12.20   11.60
   1 -31   4    5.00    5.10
   1 -31   4    0.30   18.80
  -1  31  -4   26.20   24.50
  -1  31  -4    2.90    4.60
   3 -31   4   55.39   11.10
   3 -31   4   41.70   18.50
  -3  31  -4   37.90    7.80
  -3  31  -4   77.89   28.90
  -4 -32   4  483.75   34.00
   4 -32  -4  438.66   41.40
   4 -32  -4  487.15   52.79
  -4 -32   4  481.45   51.69
   4  32  -4  501.75   52.19
   4  32  -4  471.35   39.80
  -4  32   4  477.75   35.00
  -4  32   4  482.75   39.50
   2 -32  -4  731.63   53.49
  -2 -32   4  728.83   48.30
  -2 -32   4  678.23   60.59
   2  32  -4  688.53   49.50
  -2  32   4  774.02   48.00
   2  32  -4  717.43   64.59
  -2  32   4  785.22   51.89
   0 -32   4  622.64   51.59
   0 -32  -4  477.35   42.00
   0 -32   4  556.94   37.80
   0  32  -4  554.24   38.10
   0  32  -4  623.94   55.49
   2 -32   4  631.34   50.49
  -2 -32  -4  592.34   43.80
   2 -32   4  555.44   42.20
   2 -32   4  569.24   40.70
  -2  32  -4  647.94   57.99
  -2  32  -4  572.04   39.70
   2  32   4  566.64   40.30
  -3 -33   4   -6.10   22.20
  -3 -33   4   -0.10    4.70
   3 -33  -4   -5.20   14.40
  -3  33   4    1.40    5.10
  -3  33   4   10.20   10.60
   3  33  -4    3.90   12.10
   3  33  -4   -2.70   24.70
   1 -33  -4    2.50   11.50
  -1 -33   4   16.30   21.20
  -1 -33   4    0.20    4.70
   1  33  -4   -2.10    5.40
   1  33  -4    5.00   24.70
  -1  33   4    6.80    9.30
  -1 -33  -4   20.70   12.20
   1 -33   4  -20.70   19.90
   1 -33   4   18.90   10.20
   1 -33   4    1.20    5.10
  -1  33  -4    2.80    4.90
  -1  33  -4   -2.20   25.40
   3 -33   4    8.40    9.90
   3 -33   4    6.80   19.50
  -3 -33  -4   12.00   12.60
  -3  33  -4   28.20   29.40
  -3  33  -4   -1.80    6.10
   3  33   4   -0.50   10.30
   2 -34  -4  398.86   36.30
  -2 -34   4  411.06   29.20
  -2 -34   4  383.66   46.90
   2  34  -4  389.06   31.10
   2  34  -4  435.16   51.49
  -2  34   4  417.46   28.60
  -2  34   4  432.46   34.20
   0 -34   4  911.71   56.79
   0 -34   4  950.00   69.69
   0 -34  -4  718.53   60.39
   0  34  -4  902.11   57.19
   2 -34   4  562.44   42.00
   2 -34   4  535.95   43.40
   2 -34   4  614.24   52.89
  -2 -34  -4  639.34   45.40
  -2  34  -4  592.94   41.10
   2  34   4  648.24   42.30
  -2  34  -4  643.44   61.09
  -3 -35   4   -1.80   23.70
   3 -35  -4  -13.20   25.40
   3 -35  -4    1.50   16.10
  -3 -35   4   -6.60    5.10
  -3  35   4    3.50    5.30
   3  35  -4    5.20   11.70
  -3  35   4   -0.90   11.40
   3  35  -4   11.30   27.00
  -1 -35   4    1.90    5.00
  -1 -35   4   11.50   22.80
   1  35  -4   -0.80    6.10
   1  35  -4   -0.50   25.80
  -1  35   4   13.10    4.00
   1 -35   4   22.80   11.00
   1 -35   4   13.90    6.00
   1 -35   4   37.30   23.80
  -1  35  -4   17.10    6.20
  -1  35  -4   11.30   29.00
   3 -35   4   23.20   22.20
   3 -35   4   24.70   14.00
  -3  35  -4   30.00   32.80
  -3  35  -4   16.90    7.40
   3  35   4   29.20   12.80
  -2 -36   4  639.64   58.49
  -2 -36   4  619.44   40.70
   2 -36  -4  536.45   47.00
  -2  36   4  579.94   40.00
   2  36  -4  653.73   60.79
   2  36  -4  587.54   42.40
  -2  36   4  601.84   45.20
   0 -36   4  484.15   48.60
   0 -36   4  364.06   28.30
   0  36  -4  372.36   28.80
  -2 -36  -4  635.24   48.40
   2 -36   4  695.63   57.19
   2 -36   4  637.34   45.00
   2 -36   4  590.54   46.40
  -2  36  -4  699.43   65.49
   2  36   4  657.13   45.40
  -2  36  -4  639.44   44.10
  -1 -37   4   19.20    5.80
  -1 -37   4   35.70   26.50
   1  37  -4    1.60   29.20
   1  37  -4   18.70    7.20
  -1 -37  -4   28.90   15.40
   1 -37   4   25.10   25.50
   1 -37   4   23.50    6.90
   1 -37   4   34.30   12.60
   2 -38  -4  589.84   57.69
  -2 -38   4  512.55   37.40
  -2 -38   4  570.34   57.59
   2  38  -4  628.44   61.59
  -2  38   4  517.25   36.90
   2  38  -4  535.15   40.00
  -2  38   4  529.95   42.40
   0 -38   4  441.76   33.10
   0 -38   4  539.75   52.49
   0  38  -4  442.46   33.50
   2 -38   4  441.76   37.60
   2 -38   4  522.25   52.19
  -2 -38  -4  490.45   40.80
   2 -38   4  436.86   35.90
  -2  38  -4  486.65   59.89
   2  38   4  497.15   37.00
  -2  38  -4  504.95   35.10
  -1 -39   4    9.00    6.20
  -1 -39   4  -15.60   26.80
   1 -39  -4   -6.90   25.80
   1  39  -4   15.90    7.50
  -1 -39  -4   12.00   15.60
   1 -39   4    8.40    7.00
   1 -39   4    0.70   13.00
   1 -39   4   -7.30   27.20
  -1  39  -4    1.00    6.40
   0 -40   4  527.95   39.20
   0 -40  -4  582.34   57.69
   0 -40   4  653.03   60.29
   0  40  -4  514.35   39.30
  -6   0   5  936.31   63.39
  -6   0   5  875.11   65.09
  -4   0   5 1314.07   82.59
  -4   0   5 1243.28   83.89
   4   0  -5 1273.57   84.09
   4   0  -5 1266.37   82.99
  -2   0   5  930.91   57.69
   2   0  -5  903.81   60.99
  -2   0   5  892.81   60.59
   2   0  -5  890.41   58.19
   0   0  -5 1007.00   68.69
   0   0   5 1142.89   66.49
   0   0   5 1030.20   68.29
   2   0   5  315.47   20.90
  -4   0  -5  959.10   63.49
  -4   0  -5  927.31   59.59
  -6   0  -5  566.04   51.29
  -6   0  -5  654.53   42.10
   5  -1  -5   46.00   14.50
  -5  -1   5   27.30   12.10
  -5  -1   5   32.80   11.40
  -5   1   5   42.60   13.40
  -5   1   5   36.20   13.40
   5   1  -5   33.30   12.30
  -3  -1   5   24.10    6.30
   3  -1  -5   33.20   11.10
   3  -1  -5   25.30    7.40
  -3  -1   5   19.60    8.80
  -3   1   5   21.50    9.70
   3   1  -5   30.80   11.00
  -3   1   5   26.30    6.30
   3   1  -5   26.70    7.30
  -1  -1   5   18.00    7.90
   1  -1  -5   22.10    8.60
  -1  -1   5   20.60    3.30
  -1   1   5   18.20    7.50
   1   1  -5   19.00    8.60
  -1  -1  -5   38.60    5.20
   1  -1   5   36.60    4.80
  -1  -1  -5   32.00    7.00
   1   1   5   43.60    4.70
  -1   1  -5   25.60    7.20
   1   1   5   38.80    6.40
  -3  -1  -5   33.90    8.10
   3  -1   5   48.10    7.10
  -3  -1  -5   30.80    5.30
  -3   1  -5   27.30    3.80
  -3   1  -5   42.60    8.50
   3   1   5   32.50    4.50
  -5  -1  -5    3.00   13.10
  -5   1  -5   -2.30    3.90
  -5   1  -5   -2.00   13.60
  -6  -2   5  898.01   64.59
  -6  -2   5  872.21   66.19
  -6   2   5  978.20   65.59
  -6   2   5  977.60   66.79
  -4  -2   5 1045.20   71.09
  -4  -2   5 1051.99   68.89
   4  -2  -5 1086.39   70.99
   4   2  -5 1029.20   69.59
   4   2  -5 1017.90   70.69
  -4   2   5 1045.30   68.99
  -4   2   5 1096.79   71.09
   2  -2  -5 1810.42  120.59
  -2  -2   5 1902.81  120.89
   2  -2  -5 1891.51  118.79
  -2   2   5 1948.80  118.49
   2   2  -5 1852.21  120.79
   2   2  -5 1982.60  118.99
  -2   2   5 1861.91  120.59
   0  -2  -5   -2.50    6.80
   0  -2   5  -11.60    7.00
   0   2   5  -10.00    6.20
   0   2  -5   -5.50    8.30
   2  -2   5 1452.05   88.89
  -2   2  -5 1389.56   88.69
  -4  -2  -5  832.72   53.59
  -4   2  -5  736.73   49.60
  -4   2  -5  769.42   53.79
  -6  -2  -5  638.64   43.00
  -6  -2  -5  600.24   52.69
  -6   2  -5  659.53   43.50
  -6   2  -5  656.93   53.29
  -5  -3   5   -4.10   11.50
   5  -3  -5   18.30   13.30
  -5  -3   5   -0.40    8.90
  -5   3   5    5.80   11.60
   5   3  -5    5.80   10.60
   5   3  -5    3.40   13.00
   3  -3  -5    3.90   10.00
  -3  -3   5    6.70    8.40
   3  -3  -5    0.50    5.90
  -3  -3   5   -7.00    4.70
   3   3  -5   -3.10    5.90
  -3   3   5    1.10    8.10
  -3   3   5    6.40    5.90
   3   3  -5    5.80   10.50
  -1  -3   5   28.40    8.00
  -1  -3   5   45.30    6.10
   1  -3  -5   69.39   12.10
  -1   3   5   68.09   11.20
   1   3  -5   50.99    6.10
   1   3  -5   39.80   10.10
   1  -3   5   93.89    7.40
  -1   3  -5   82.59    7.70
  -1   3  -5   69.99   12.20
   3  -3   5   45.10    7.30
  -3  -3  -5   37.40    7.30
  -3   3  -5   27.90    4.00
  -5  -3  -5    6.20   13.40
  -5  -3  -5    3.30    3.80
  -5   3  -5    1.80    4.30
  -5   3  -5    6.00   16.90
  -6  -4   5  742.03   55.89
  -6  -4   5  757.42   59.19
  -6   4   5  826.82   57.89
   6   4  -5  816.42   58.99
  -6   4   5  848.92   59.09
  -4  -4   5  881.21   62.29
  -4  -4   5  893.01   59.69
   4  -4  -5  969.30   62.29
  -4   4   5  939.71   60.39
   4   4  -5  853.81   62.09
  -4   4   5  957.30   62.09
   4   4  -5  840.92   60.59
  -2  -4   5 1027.70   64.69
   2  -4  -5  909.51   63.99
  -2   4   5  923.41   63.69
  -2   4   5  902.31   61.29
   2   4  -5  999.40   64.89
   2   4  -5 1021.40   61.89
   0  -4   5 1018.70   65.29
   0   4   5  924.01   62.69
   0   4  -5 1157.98   63.49
   0   4   5  879.41   64.39
   0   4  -5 1039.20   65.99
   2  -4   5 1507.95   86.99
  -2   4  -5 1222.58   88.29
  -2   4  -5 1427.86   86.79
  -4  -4  -5  547.75   38.10
  -4   4  -5  495.15   33.90
  -4   4  -5  512.45   38.80
  -6  -4  -5  452.65   45.50
  -6  -4  -5  512.55   35.40
  -6   4  -5  550.44   36.40
  -6   4  -5  516.35   46.90
  -5  -5   5    8.10   12.30
  -5  -5   5   11.60    8.90
   5  -5  -5    7.90   14.30
   5   5  -5   10.80   13.80
   5   5  -5   12.50   10.90
  -5   5   5    4.40   11.50
  -3  -5   5  103.89   11.30
  -3  -5   5   90.89   17.20
   3  -5  -5  138.09   18.40
  -3   5   5  125.49   12.90
   3   5  -5   92.09   12.80
   3   5  -5  103.89   18.50
   1  -5  -5   59.59   11.30
  -1  -5   5   38.60    9.20
  -1  -5   5   46.30    6.40
   1   5  -5   44.80    6.40
  -1   5   5   60.09    9.60
   1   5  -5   48.90   10.70
   1  -5   5   56.49    9.60
  -1  -5  -5   46.80    8.10
   1  -5   5   65.29    6.20
  -1   5  -5   71.69   12.50
   1   5   5   46.10    8.00
   3  -5   5   61.69    8.70
  -3   5  -5   55.19    7.10
  -5  -5  -5   -7.60   13.40
  -5   5  -5   -3.50    4.50
  -6  -6   5  721.23   54.09
  -6  -6   5  714.83   57.19
  -6   6   5  767.22   56.19
  -6   6   5  843.82   57.09
   6   6  -5  770.22   57.19
  -4  -6   5  650.13   45.70
   4  -6  -5  774.72   49.70
  -4  -6   5  637.44   48.90
   4   6  -5  616.64   49.10
  -4   6   5  717.53   48.40
  -4   6   5  700.53   46.70
   4   6  -5  629.74   46.80
  -2  -6   5 2239.68  133.99
  -2  -6   5 2272.17  131.39
   2  -6  -5 1917.41  132.89
   2   6  -5 2178.58  131.49
  -2   6   5 1946.51  132.69
  -2   6   5 1999.80  130.99
   2   6  -5 2130.69  133.89
   0  -6  -5  520.65   40.00
   0  -6   5  620.74   40.50
   0   6   5  529.65   39.30
   0   6  -5  617.14   41.30
   0   6  -5  680.83   38.10
   0   6   5  550.84   37.10
   2  -6   5 1842.52  108.29
  -2   6  -5 1750.92  107.99
  -2   6  -5 1598.34  109.69
  -4  -6  -5  752.72   46.60
  -4   6  -5  593.24   42.90
  -6  -6  -5  384.76   42.00
  -6   6  -5  459.05   32.60
  -6   6  -5  492.35   44.70
   5  -7  -5    7.30   13.10
  -5  -7   5    3.30    8.70
  -5  -7   5   -0.40   13.20
   5   7  -5   12.00   11.40
   5   7  -5   13.90   14.90
  -5   7   5   -4.00   10.70
   3  -7  -5   17.00   10.20
  -3  -7   5   14.60    9.50
   3   7  -5   17.40    7.00
  -3   7   5   16.90    8.30
  -3   7   5    7.60    6.40
   3   7  -5   28.00   12.40
   1  -7  -5  471.85   32.70
  -1  -7   5  420.06   32.90
  -1  -7   5  437.16   29.50
  -1   7   5  476.65   31.90
   1   7  -5  438.96   34.20
   1  -7   5   72.19   10.90
   1  -7   5   66.19    6.60
  -1  -7  -5   53.59    8.80
  -1   7  -5   72.29    7.10
   1   7   5   46.90    8.20
  -1   7  -5   85.59   13.80
  -3  -7  -5   13.40    5.90
   3  -7   5    7.40    3.90
  -3   7  -5    7.80    3.10
  -5  -7  -5   29.90   13.00
  -5   7  -5   10.30    5.40
  -5   7  -5   23.20   15.90
  -6  -8   5  601.54   52.29
  -6  -8   5  635.64   47.70
  -6   8   5  707.53   50.79
  -6   8   5  661.83   50.49
   6   8  -5  679.33   51.69
  -4  -8   5  505.25   41.50
  -4  -8   5  537.95   37.10
   4  -8  -5  578.44   41.60
  -4   8   5  561.94   40.00
   4   8  -5  512.85   38.70
   4   8  -5  509.75   41.50
  -4   8   5  523.25   38.20
  -2  -8   5 1871.31  116.69
   2  -8  -5 1778.92  115.59
  -2  -8   5 1837.72  113.69
  -2   8   5 1882.41  115.59
   2   8  -5 1717.03  116.29
  -2   8   5 1823.72  113.69
   2   8  -5 1776.62  113.99
   0  -8   5 1231.48   71.69
   0  -8   5 1164.88   74.09
   0   8  -5 1156.78   74.89
   0   8  -5 1198.48   71.99
   0   8   5  946.11   72.69
   2  -8   5 1258.47   76.59
  -2   8  -5 1172.28   76.29
  -4  -8  -5  435.86   30.00
  -4   8  -5  342.57   26.00
  -6  -8  -5  502.35   46.80
  -6   8  -5  548.65   38.60
  -6   8  -5  582.44   49.70
  -5  -9   5   11.00    8.50
  -5  -9   5    4.80   13.10
   5  -9  -5    5.80   13.20
   5   9  -5   -2.30   15.00
  -5   9   5   -0.20   10.70
   5   9  -5    7.50   11.60
  -5   9   5    1.10   11.50
  -3  -9   5   35.50   11.60
   3  -9  -5   30.20   10.60
  -3   9   5   27.00    9.20
   3   9  -5   23.10   12.80
   3   9  -5   26.40    7.70
  -3   9   5   25.60    7.20
  -1  -9   5  239.68   21.70
  -1  -9   5  218.18   16.00
   1   9  -5  212.48   22.30
  -1  -9  -5   11.80    6.60
   1  -9   5   14.40    6.60
   1  -9   5   12.80    3.00
  -1   9  -5   12.70    3.10
   1   9   5   14.30    4.70
  -1   9  -5   18.20    9.80
   3  -9   5    7.80    4.30
  -3  -9  -5    7.50    5.60
  -3   9  -5    6.00    3.10
  -5  -9  -5   48.90   13.30
  -5   9  -5   17.30   16.30
  -5   9  -5    5.70    5.10
  -6 -10   5  323.07   31.70
  -6 -10   5  265.17   36.70
  -6  10   5  330.87   33.60
   6  10  -5  359.56   35.70
  -6  10   5  399.66   34.70
   4 -10  -5  479.45   37.50
  -4 -10   5  476.55   37.90
  -4  10   5  454.55   35.80
   4  10  -5  448.86   34.60
   4  10  -5  474.85   38.40
  -4  10   5  423.56   33.90
  -2 -10   5 1480.25  101.89
  -2 -10   5 1515.65   98.79
   2 -10  -5 1747.43  101.39
  -2  10   5 1659.93   98.99
   2  10  -5 1366.36  101.59
  -2  10   5 1743.43  100.99
   2  10  -5 1486.05   99.19
   0 -10   5 1242.48   78.69
   0 -10   5 1245.98   81.29
   0  10  -5 1293.07   82.09
   0  10  -5 1236.38   78.99
  -2 -10  -5 1376.26   92.19
   2 -10   5 1577.74   91.69
  -2  10  -5 1436.46   93.79
  -2  10  -5 1436.96   91.29
  -4 -10  -5  338.47   27.30
  -4  10  -5  352.96   24.30
  -5 -11   5   -1.10   13.60
   5 -11  -5   13.10   14.40
  -5  11   5   11.80   11.90
   5  11  -5   -0.40   11.60
  -5  11   5   23.90   11.80
  -3 -11   5   14.50    4.60
   3 -11  -5    0.10    8.60
  -3 -11   5   19.90   11.60
  -3  11   5    2.30    8.20
   3  11  -5   16.10   12.90
  -3  11   5    8.00    6.30
   3  11  -5    5.60    6.50
   1 -11  -5  189.38   18.10
  -1 -11   5  159.88   13.50
  -1 -11   5  175.38   20.20
  -1  11   5  214.98   16.90
   1  11  -5  160.98   21.70
   1 -11   5  139.29   11.30
  -1 -11  -5  151.08   14.60
   1 -11   5  129.39   15.50
   1  11   5  166.78   12.50
  -1  11  -5  138.09   11.50
  -1  11  -5  133.69   18.90
   3 -11   5   24.80    5.10
  -3  11  -5   18.30    3.90
  -5 -11  -5   77.89   14.90
  -5  11  -5   88.99   13.10
  -6 -12   5  172.38   31.10
  -6  12   5  201.08   28.40
  -6  12   5  161.28   26.80
   6  12  -5  251.37   31.00
  -4 -12   5  543.25   42.90
   4 -12  -5  602.04   42.50
   4  12  -5  544.15   39.50
   4  12  -5  479.15   43.20
  -4  12   5  552.34   40.80
  -4  12   5  522.75   38.90
   2 -12  -5  793.52   49.10
  -2 -12   5  687.03   45.60
  -2 -12   5  684.53   50.39
  -2  12   5  734.43   48.00
  -2  12   5  695.23   45.80
   2  12  -5  653.93   46.10
   2  12  -5  671.83   50.79
   0 -12   5 3469.45  204.18
   0 -12   5 3366.16  206.58
   0 -12  -5 3041.90  205.68
   0  12  -5 3521.85  204.58
   0  12  -5 3287.07  206.88
   0  12   5 3059.99  204.98
  -2 -12  -5  914.21   64.79
   2 -12   5 1048.20   64.09
  -2  12  -5 1073.09   67.49
  -2  12  -5  994.60   63.69
   4 -12   5  629.74   41.30
  -4 -12  -5  577.14   41.50
  -4  12  -5  586.14   39.50
  -5 -13   5   -7.60   14.90
   5 -13  -5    4.10   14.20
   5  13  -5    3.90   11.40
  -5  13   5    2.40   11.60
  -5  13   5    3.40   11.00
  -3 -13   5   -1.40   11.60
   3 -13  -5    6.90    9.50
  -3  13   5   10.80    8.50
  -3  13   5   13.30    6.70
   3  13  -5    0.00    6.40
   3  13  -5   11.40   13.40
  -1 -13   5  155.08   20.20
  -1 -13   5  160.98   12.50
   1  13  -5  166.38   21.90
   1  13  -5  161.28   13.40
   1 -13   5   54.59   10.50
   1 -13   5   61.49    7.30
  -1  13  -5   93.39   18.10
  -1  13  -5   58.19    7.30
   3 -13   5  133.09   13.20
  -3  13  -5  124.19   11.40
  -3  13  -5  118.99   21.10
  -5 -13  -5   42.80   13.30
  -6 -14   5  257.87   34.40
   6  14  -5  317.27   33.30
  -6  14   5  237.28   31.30
  -6  14   5  241.48   30.50
   4 -14  -5  392.66   32.80
  -4 -14   5  364.86   27.40
  -4 -14   5  378.56   34.80
   4  14  -5  356.96   29.90
   4  14  -5  339.07   35.70
  -4  14   5  373.66   29.70
  -4  14   5  384.46   31.40
  -2 -14   5 1366.46   85.79
  -2 -14   5 1352.96   81.69
   2 -14  -5 1217.08   84.19
   2  14  -5 1331.07   86.49
   2  14  -5 1334.17   82.29
  -2  14   5 1241.38   83.39
  -2  14   5 1192.38   81.69
   0 -14   5 1500.05   98.29
   0 -14   5 1509.25   94.99
   0 -14  -5 1588.74   97.19
   0  14   5 1535.75   96.09
   0  14  -5 1438.86   98.89
   0  14  -5 1520.45   95.39
  -2 -14  -5 1743.03  114.69
   2 -14   5 1922.81  114.19
  -2  14  -5 1844.82  117.09
  -2  14  -5 1765.12  113.79
  -4 -14  -5  384.96   28.40
   4 -14   5  313.27   33.10
  -4  14  -5  379.56   26.00
   5 -15  -5    6.90   14.50
  -5 -15   5   17.90   15.90
  -5  15   5   15.50   12.20
   5  15  -5   11.40   13.00
   5  15  -5   29.10   17.40
  -5  15   5   21.70   13.10
   3 -15  -5    8.30   10.20
  -3 -15   5   -0.10    4.10
  -3 -15   5    1.10   12.40
   3  15  -5    9.60    7.10
  -3  15   5    6.60    8.40
  -3  15   5   11.30    7.40
   3  15  -5   17.60   14.70
   1 -15  -5   21.40    8.80
  -1 -15   5   42.40    6.60
  -1 -15   5   50.99   12.80
  -1  15   5   22.80    7.30
   1  15  -5   43.50   13.90
   1  15  -5   32.40    5.00
   1 -15   5   39.20    6.30
   1 -15   5   33.00   10.40
  -1  15  -5   21.80    4.10
  -1  15  -5   48.30   13.70
   3 -15   5   -0.40    4.60
  -3  15  -5    0.60    3.20
   3  15   5   -0.20    6.60
  -3  15  -5    4.00   14.30
  -5 -15  -5    7.30   11.80
  -5  15  -5   -0.70    5.30
  -6 -16   5  492.15   46.30
  -6  16   5  404.76   41.70
  -6  16   5  512.45   43.20
   6  16  -5  520.95   43.90
  -4 -16   5  421.46   36.70
   4 -16  -5  364.56   33.90
  -4 -16   5  400.56   28.90
  -4  16   5  363.86   32.60
   4  16  -5  400.16   31.50
  -4  16   5  378.76   31.10
   4  16  -5  421.96   37.90
  -2 -16   5 1484.55   98.29
  -2 -16   5 1484.75   94.09
   2 -16  -5 1581.14   97.29
   2  16  -5 1460.55   94.89
   2  16  -5 1460.45   98.89
  -2  16   5 1489.85   96.09
   0 -16  -5 1052.79   63.69
   0 -16   5  902.11   64.89
   0 -16   5  953.40   61.19
   0  16  -5  923.41   61.49
   0  16  -5  846.32   66.09
   0  16   5 1088.89   62.69
   2 -16   5  879.11   56.29
  -2 -16  -5  860.21   57.19
  -2  16  -5  915.31   61.39
  -2  16  -5  845.42   55.89
   4 -16   5  501.45   35.70
  -4  16  -5  482.75   33.80
   4  16   5  506.35   37.20
   5 -17  -5   20.70   15.40
  -5 -17   5   12.00   16.00
  -5 -17   5   10.30    6.70
  -5  17   5   18.20   12.20
   5  17  -5    3.00   12.80
  -5  17   5   19.10   13.20
  -3 -17   5   43.00   14.80
  -3 -17   5   26.00    5.90
   3 -17  -5   33.80   12.70
  -3  17   5   31.60   10.10
   3  17  -5   42.50   16.70
  -3  17   5   33.60    8.70
   3  17  -5   22.10    7.80
   1 -17  -5   15.80    9.20
  -1 -17   5   36.40   13.10
  -1 -17   5   34.40    4.70
   1  17  -5   43.80   15.20
   1  17  -5   31.90    5.20
  -1 -17  -5    9.90    7.20
   1 -17   5    1.60    3.00
   1 -17   5   -1.70    9.80
   1  17   5    3.60    5.00
  -1  17  -5    1.40    3.00
  -1  17  -5   24.40   13.60
   3 -17   5   10.20    5.50
  -3  17  -5   20.60   16.60
  -3  17  -5    7.80    3.90
   3  17   5   17.40    7.80
  -5  17  -5   48.50    7.80
  -4 -18   5  561.04   40.40
   4 -18  -5  627.24   45.30
  -4 -18   5  595.34   47.90
   4  18  -5  593.64   49.90
  -4  18   5  587.54   42.90
  -4  18   5  633.34   44.10
   4  18  -5  542.95   42.40
  -2 -18   5  959.30   64.99
   2 -18  -5 1059.89   68.69
  -2 -18   5 1013.90   70.79
   2  18  -5 1010.60   71.39
  -2  18   5 1060.69   67.49
   0 -18   5  840.82   53.79
   0 -18   5  807.22   58.49
   0 -18  -5  880.11   56.49
   0  18  -5  804.12   54.09
   0  18   5  894.51   55.29
   0  18  -5  809.82   60.29
   2 -18   5 1132.69   74.39
   2 -18   5 1158.78   72.69
  -2 -18  -5 1067.59   73.59
  -2  18  -5 1100.89   72.19
  -2  18  -5 1241.78   78.29
   4 -18   5  276.57   24.50
  -4  18  -5  317.97   22.60
   4  18   5  287.27   27.00
  -5 -19   5    1.50    6.30
   5 -19  -5  -13.90   14.80
  -5 -19   5    1.40   17.60
  -5  19   5   15.10   12.90
   5  19  -5  -16.60   12.40
  -5  19   5   -4.10   12.40
  -3 -19   5   16.90   15.60
   3 -19  -5    9.60   12.20
   3  19  -5    5.40    7.10
  -3  19   5   -2.70    8.40
   3  19  -5    4.10   17.20
   1 -19  -5   24.40    9.40
  -1 -19   5   19.10    3.90
  -1 -19   5   17.30   13.70
   1  19  -5   16.60    4.40
  -1  19   5   18.00    7.30
   1  19  -5   17.20   16.30
   1 -19   5   25.40    4.40
  -1 -19  -5    5.50    7.60
   1 -19   5   27.60   11.90
   1  19   5   16.00    5.70
  -1  19  -5   19.60    4.20
  -1  19  -5   27.80   16.70
  -3 -19  -5    5.70    8.00
   3 -19   5    6.40    5.50
   3  19   5   -2.90    7.10
  -3  19  -5   17.30   18.10
  -3  19  -5    4.90    4.10
  -5  19  -5   -1.50    6.20
   5  19   5   -4.20   14.70
  -4 -20   5  228.18   30.60
   4 -20  -5  184.28   28.00
  -4 -20   5  161.38   18.00
  -4  20   5  196.08   22.10
   4  20  -5  164.58   20.90
  -4  20   5  211.88   23.40
   4  20  -5  178.88   34.00
  -2 -20   5 1467.45   93.89
   2 -20  -5 1544.85   97.39
  -2 -20   5 1465.25   99.59
  -2  20   5 1513.95   96.09
   2  20  -5 1449.55  100.29
   0 -20   5  893.21   65.09
   0 -20  -5 1024.50   62.59
   0 -20   5  880.21   59.49
   0  20  -5  919.11   66.89
   0  20  -5  823.82   59.79
   0  20   5 1059.09   61.29
   2 -20   5 1127.29   71.19
  -2 -20  -5 1051.09   72.09
   2 -20   5 1118.49   71.09
   2  20   5 1031.20   70.69
  -2  20  -5 1232.28   77.89
  -2  20  -5 1105.39   70.59
   4 -20   5  420.76   33.00
  -4  20  -5  458.95   30.80
   4  20   5  418.96   34.90
  -5 -21   5   40.80    8.60
  -5 -21   5   69.19   21.30
   5  21  -5   51.69   17.00
  -5  21   5   79.39   16.70
  -5  21   5   74.79   15.60
  -3 -21   5  132.49   13.20
   3 -21  -5   95.19   19.00
  -3 -21   5  116.69   21.80
   3  21  -5  142.59   24.90
   3  21  -5  119.39   15.90
  -3  21   5   94.59   17.50
  -1 -21   5    5.80    3.30
   1 -21  -5   -3.00    9.30
  -1 -21   5    2.50   14.10
   1  21  -5   10.90   16.00
   1  21  -5    3.10    4.10
  -1  21   5    7.20    7.10
   1 -21   5    3.30    3.50
   1 -21   5    5.20   12.20
  -1 -21  -5    0.70    7.90
  -1  21  -5   19.20   16.80
  -1  21  -5   -1.30    3.30
   3 -21   5  143.19   15.50
  -3 -21  -5  146.19   17.40
   3  21   5  146.09   16.80
  -3  21  -5  128.69   13.50
  -3  21  -5  119.99   24.60
  -5  21  -5   -1.30    6.60
   5  21   5   -6.00   15.90
  -5  21  -5   -5.80   33.20
  -4 -22   5  496.35   46.30
   4 -22  -5  443.96   44.30
  -4 -22   5  513.05   35.30
   4  22  -5  518.95   47.50
   4  22  -5  490.25   38.60
  -4  22   5  515.75   38.90
  -4  22   5  497.95   39.30
  -2 -22   5  894.81   61.69
  -2 -22   5  928.91   69.19
   2 -22  -5 1058.99   66.59
  -2  22   5  985.90   64.29
   2  22  -5  940.61   71.59
   0 -22   5  566.94   44.20
   0 -22   5  493.05   35.70
   0 -22  -5  586.04   39.50
   0  22  -5  498.45   36.20
   0  22   5  577.74   37.70
   0  22  -5  545.75   46.10
   2 -22   5 1081.19   74.39
   2 -22   5 1036.40   72.49
  -2 -22  -5 1145.79   72.89
   2 -22   5 1118.49   71.69
  -2  22  -5 1111.09   70.99
  -2  22  -5 1181.98   78.59
   4 -22   5  432.26   34.20
  -4  22  -5  440.86   48.40
  -4  22  -5  479.55   32.10
   4  22   5  432.36   36.00
  -5 -23   5    4.90   20.30
  -5 -23   5   12.50    7.30
   5 -23  -5    9.30   16.10
  -5  23   5   17.70   14.00
   5  23  -5   26.80   22.70
  -5  23   5   13.00   14.40
   5  23  -5   -5.20   14.60
   3 -23  -5   49.70   15.00
  -3 -23   5   42.40   19.00
  -3 -23   5   26.70    5.90
  -3  23   5   51.19   12.00
   3  23  -5   44.10   23.80
   3  23  -5   30.40   10.40
  -1 -23   5    3.00    3.40
  -1 -23   5    2.40   15.30
   1 -23  -5    2.90   10.10
   1  23  -5    1.00    4.20
  -1  23   5   -4.50    6.70
   1  23  -5   -6.90   18.40
   1 -23   5   53.99   16.50
  -1 -23  -5   52.69   10.70
   1 -23   5   40.60    7.00
  -1  23  -5   53.29    8.70
  -1  23  -5   64.79   20.50
  -3 -23  -5  115.79   17.60
  -3  23  -5   72.59   25.70
  -3  23  -5   86.49   11.90
   3  23   5   91.39   12.90
   4 -24  -5  351.26   36.90
  -4 -24   5  397.76   29.30
  -4 -24   5  447.96   43.00
   4  24  -5  448.96   68.49
   4  24  -5  396.46   33.60
  -4  24   5  362.36   34.10
  -2 -24   5  991.50   65.39
   2 -24  -5 1007.70   71.09
  -2 -24   5 1001.20   72.29
  -2  24   5 1009.90   66.89
   0 -24   5  278.77   31.20
   0 -24   5  218.18   19.00
   0 -24  -5  292.07   24.00
   0  24  -5  307.77   38.50
   0  24  -5  221.98   19.40
   0  24   5  269.87   21.40
  -2 -24  -5  464.25   32.00
   2 -24   5  384.56   29.00
   2 -24   5  335.47   28.10
   2 -24   5  400.86   34.90
  -2  24  -5  493.45   52.09
   2  24   5  399.16   27.90
  -2  24  -5  369.06   27.60
  -4 -24  -5  776.32   53.59
   4 -24   5  704.33   52.69
  -4  24  -5  783.72   50.99
  -4  24  -5  779.32   65.39
   4  24   5  770.02   54.09
   5 -25  -5  100.39   20.30
  -5 -25   5   98.09   17.00
  -5 -25   5  124.69   27.00
  -5  25   5  140.79   21.10
   5  25  -5  105.49   28.00
   5  25  -5  141.29   21.80
  -5  25   5   95.19   18.40
   3 -25  -5  106.29   19.00
  -3 -25   5  149.49   14.00
  -3 -25   5  163.98   25.20
  -3  25   5   96.69   18.90
   3  25  -5  114.59   17.70
   3  25  -5  134.59   29.50
  -1 -25   5   15.60   17.30
   1 -25  -5   35.80   13.40
   1  25  -5   21.90    5.70
   1  25  -5    4.20   30.00
  -1  25   5   16.60    8.10
  -1 -25  -5   24.30   10.80
   1 -25   5    8.40    4.30
   1 -25   5   10.50   15.60
  -1  25  -5    7.00    4.20
   3 -25   5   45.00    8.50
  -3 -25  -5   39.00   11.60
  -3  25  -5   73.59   26.70
  -3  25  -5   40.20    7.10
   3  25   5   34.50   10.70
  -4 -26   5 1646.74   97.89
  -4 -26   5 1536.45  105.69
   4 -26  -5 1437.36  102.19
  -4  26   5 1456.15  100.89
   4  26  -5 1563.94  107.39
   4  26  -5 1531.85  100.69
   2 -26  -5  309.27   29.00
  -2 -26   5  236.38   20.60
  -2 -26   5  266.47   35.50
  -2  26   5  324.87   25.70
  -2  26   5  268.27   20.70
   2  26  -5  250.17   39.80
   0 -26   5  377.76   37.30
   0 -26   5  375.16   26.00
   0 -26  -5  339.37   34.60
   0  26  -5  368.66   26.60
   0  26  -5  390.16   42.30
   0  26   5  372.16   28.30
  -2 -26  -5  309.37   29.60
   2 -26   5  279.37   23.40
   2 -26   5  269.87   22.20
   2 -26   5  299.77   31.40
  -2  26  -5  274.97   21.60
   2  26   5  276.17   22.00
  -2  26  -5  326.17   42.70
  -4 -26  -5  651.03   53.29
   4  26   5  630.74   48.10
  -4  26  -5  690.83   62.49
  -4  26  -5  646.74   44.70
  -3 -27   5  205.08   36.00
   3 -27  -5  202.48   27.20
  -3 -27   5  195.88   17.60
   3  27  -5  223.18   22.40
   3  27  -5  222.58   33.10
  -3  27   5  203.68   23.00
  -3  27   5  179.08   17.80
   1 -27  -5    0.60   11.20
  -1 -27   5  -22.40   18.10
  -1 -27   5    1.10    4.00
   1  27  -5   -0.70    4.90
  -1  27   5    6.30    7.80
   1  27  -5    7.00   23.10
  -1  27   5   -0.10    3.00
   1 -27   5    1.10   17.20
  -1 -27  -5    4.10   11.40
   1 -27   5   -0.80    4.30
  -1  27  -5    7.50   23.90
  -1  27  -5    0.80    4.20
   3 -27   5  207.78   21.40
  -3  27  -5  209.58   19.30
   3  27   5  230.48   22.20
  -3  27  -5  228.38   43.00
   4 -28  -5  562.44   46.60
  -4 -28   5  605.34   53.99
  -4 -28   5  523.15   38.70
   4  28  -5  551.24   55.69
  -4  28   5  527.15   39.80
   4  28  -5  550.34   43.40
  -4  28   5  598.94   44.40
   2 -28  -5  698.93   54.69
  -2 -28   5  791.02   61.39
  -2 -28   5  806.42   49.90
  -2  28   5  708.43   49.50
   2  28  -5  874.91   65.39
  -2  28   5  710.83   52.49
   0 -28   5  300.07   23.80
   0 -28  -5  331.67   29.60
   0 -28   5  391.36   38.50
   0  28  -5  315.07   24.60
   0  28  -5  367.86   43.10
   0  28   5  338.37   26.80
   2 -28   5  792.82   53.19
   2 -28   5  781.12   53.79
   2 -28   5  816.92   60.09
  -2 -28  -5  810.62   55.89
  -2  28  -5  842.62   68.19
   2  28   5  790.52   52.39
  -2  28  -5  756.22   52.29
  -4 -28  -5  261.37   30.90
  -4  28  -5  329.57   50.39
   4  28   5  263.17   29.80
  -4  28  -5  303.17   24.30
  -3 -29   5   18.10   22.40
   3 -29  -5   50.59   16.10
   3  29  -5   23.80   11.50
  -3  29   5   43.20    7.20
  -3  29   5   58.39   13.80
   3  29  -5   19.50   25.60
   1 -29  -5    7.00   12.80
  -1 -29   5   34.60    5.80
  -1 -29   5   27.90   21.50
  -1  29   5   23.70    9.70
   1  29  -5   28.80    6.60
   1  29  -5   23.70   25.20
   1 -29   5   11.50    5.10
   1 -29   5   10.60   19.40
  -1 -29  -5   15.70   12.40
  -1  29  -5   10.40    5.00
  -1  29  -5   12.40   24.40
  -3 -29  -5   36.90   13.80
  -3  29  -5   19.00   27.80
   3  29   5   25.20   11.10
  -3  29  -5   13.10    6.50
   4 -30  -5  414.96   42.80
  -4 -30   5  497.25   51.69
  -4 -30   5  492.15   34.10
   4  30  -5  495.35   39.50
   4  30  -5  483.75   52.79
  -4  30   5  426.66   34.80
  -4  30   5  496.85   40.40
  -2 -30   5  662.63   47.00
  -2 -30   5  762.02   61.09
   2 -30  -5  694.33   52.99
  -2  30   5  731.33   47.20
   2  30  -5  734.23   65.49
  -2  30   5  724.53   50.79
   0 -30   5  461.95   33.30
   0 -30   5  584.64   48.10
   0 -30  -5  427.56   38.00
   0  30  -5  583.74   53.59
   0  30  -5  460.65   33.90
  -2 -30  -5  662.03   49.80
   2 -30   5  663.13   47.10
   2 -30   5  710.63   54.89
  -2  30  -5  674.63   45.30
  -2  30  -5  736.33   63.29
   2  30   5  629.24   45.40
   3 -31  -5    4.80   15.50
  -3 -31   5    1.70    5.40
  -3 -31   5   -5.30   23.00
   3  31  -5    9.10   11.20
  -3  31   5   11.30    5.70
   3  31  -5   30.20   26.10
  -3  31   5   16.90   11.90
  -1 -31   5   -0.90    4.60
  -1 -31   5   -9.30   21.60
   1 -31  -5   -5.10   15.30
   1  31  -5  -17.00   26.20
  -1  31   5    2.40    9.40
   1  31  -5   -1.20    5.70
  -1 -31  -5   -4.50   12.30
   1 -31   5   -4.50    5.20
   1 -31   5    1.30   20.20
  -1  31  -5    2.00    5.00
  -1  31  -5  -13.40   26.30
  -3 -31  -5  -12.60   13.40
  -3  31  -5   -3.50    6.00
   3  31   5   -4.50   10.50
  -3  31  -5  -33.90   30.40
   2 -32  -5  538.45   45.90
  -2 -32   5  604.04   56.19
  -2 -32   5  584.94   39.30
  -2  32   5  567.84   43.10
   2  32  -5  650.13   60.19
  -2  32   5  565.34   38.80
   0 -32   5  482.85   34.50
   0 -32   5  600.84   51.19
   0 -32  -5  478.75   40.10
   0  32  -5  486.75   35.30
  -2 -32  -5  508.05   41.30
   2 -32   5  572.44   48.00
  -2  32  -5  530.05   56.99
  -2  32  -5  457.15   35.30
   2  32   5  490.25   35.90
  -3 -33   5  -16.80   24.70
  -3 -33   5   -2.10    5.60
   3 -33  -5   -2.00   17.20
  -3  33   5    2.80   12.10
  -3  33   5    5.40    5.60
   3  33  -5   21.80   28.60
   3  33  -5    6.90   11.90
  -1 -33   5   11.80    5.30
  -1 -33   5    1.40   24.20
   1  33  -5    0.80   27.40
  -1  33   5    9.70   10.30
   1  33  -5    7.10    6.50
   1 -33   5   23.70   22.60
  -1 -33  -5   11.60   13.90
   1 -33   5   -2.40    5.30
  -1  33  -5  -10.80   28.70
  -1  33  -5   -4.40    5.40
  -3 -33  -5   15.20   15.40
  -3  33  -5    8.30    8.30
   3  33   5   29.10   11.90
  -3  33  -5   19.40   32.60
  -2 -34   5  645.84   59.89
   2 -34  -5  642.14   49.70
  -2 -34   5  618.24   42.30
  -2  34   5  618.14   41.60
   2  34  -5  594.34   44.30
  -2  34   5  629.74   46.50
   0 -34   5  219.88   19.00
   0 -34   5  260.47   42.00
   0 -34  -5  174.98   26.90
   0  34  -5  236.48   20.20
   2 -34   5  580.14   45.10
   2 -34   5  629.74   55.39
  -2 -34  -5  643.14   49.00
   2  34   5  623.14   43.50
  -2  34  -5  657.33   64.49
  -2  34  -5  623.04   43.00
  -3 -35   5    7.30   39.40
  -3 -35   5   -0.30    5.70
   3  35  -5   -3.40   22.90
  -3  35   5   11.00    6.00
   3  35  -5   14.10   30.70
  -1 -35   5   -4.30    5.10
  -1 -35   5   -2.10   24.60
   1  35  -5    2.60    6.60
   1  35  -5   30.00   29.90
  -1  35   5   -6.20   10.40
   1 -35   5   15.00   11.00
   1 -35   5   12.90   23.90
   1 -35   5   16.70    6.30
  -1 -35  -5    5.00   15.00
  -1  35  -5    5.70    6.00
  -1  35  -5   32.50   31.00
  -2 -36   5  474.15   34.40
  -2 -36   5  477.65   54.39
   2  36  -5  459.05   36.90
  -2  36   5  480.95   33.50
  -2  36   5  522.25   39.90
   0 -36   5  457.85   32.80
   0 -36  -5  356.36   47.20
   0 -36   5  523.95   52.39
   0  36  -5  480.05   33.60
   2 -36   5  480.15   49.20
  -2 -36  -5  426.96   40.00
   2 -36   5  388.26   35.00
  -2  36  -5  411.66   34.30
   2  36   5  432.16   33.20
  -2  36  -5  499.25   60.69
  -1 -37   5    3.40    5.80
  -1 -37   5    7.20   27.90
   1  37  -5   10.10    7.60
   1 -37   5   -5.20   11.60
  -1 -37  -5   -4.30   16.00
   1 -37   5    2.20    6.30
   1 -37   5  -35.40   25.70
  -1  37  -5   56.59   41.00
  -1  37  -5   10.90    6.90
   0 -38   5  704.93   62.79
   0 -38   5  594.74   43.30
   0  38  -5  619.84   44.10
  -6   0   6  702.23   56.69
  -6   0   6  734.33   53.09
  -4   0   6  940.71   65.49
  -4   0   6 1028.20   68.69
   4   0  -6  947.51   66.49
   4   0  -6 1071.49   69.69
  -2   0   6  990.50   66.09
   2   0  -6  946.51   66.79
   2   0  -6 1012.30   63.29
   0   0   6  839.32   49.00
   0   0  -6  719.43   52.49
   0   0   6  741.63   51.39
   2   0   6 1462.15   88.59
  -2   0  -6 1366.96   88.49
  -4   0  -6  375.76   31.80
   5  -1  -6   -6.60   14.70
  -5  -1   6   -9.80   13.30
  -5  -1   6  -10.60    8.90
  -5   1   6    8.10   10.40
   5   1  -6    0.90   15.40
   5   1  -6   -3.90   12.10
  -5   1   6    5.90   13.60
  -3  -1   6  216.58   17.60
   3  -1  -6  214.48   19.60
  -3  -1   6  174.78   22.70
   3  -1  -6  244.88   25.20
  -3   1   6  253.37   23.10
  -3   1   6  241.78   18.10
   3   1  -6  194.98   24.20
   3   1  -6  187.18   19.40
   1  -1  -6   46.50   11.20
  -1  -1   6   23.40    4.20
  -1  -1   6   16.00    8.90
   1   1  -6   32.40   11.20
  -1   1   6   37.00    9.40
  -1  -1  -6   35.00    5.60
  -1  -1  -6   17.70    8.50
   1  -1   6   20.80    3.40
  -1   1  -6   11.60    9.00
  -1   1  -6   15.60    3.50
  -3  -1  -6  153.08   16.90
   3  -1   6  145.89   12.80
  -3   1  -6  161.78   17.30
  -3   1  -6  127.89   11.50
  -5  -1  -6    3.80    4.70
  -5  -1  -6   -4.10   14.70
  -5   1  -6    8.40   15.80
  -5   1  -6   -3.80    4.70
  -6  -2   6  613.44   47.00
  -6  -2   6  614.94   52.49
  -6   2   6  612.34   51.19
  -6   2   6  675.43   48.80
   4  -2  -6 1026.90   65.29
  -4  -2   6  855.81   61.29
  -4  -2   6  863.01   64.29
  -4   2   6  970.70   61.99
   4   2  -6  895.31   64.89
  -4   2   6 1015.10   65.09
   4   2  -6  885.81   62.59
   2  -2  -6  896.01   62.49
   2  -2  -6  911.61   58.89
  -2  -2   6  943.91   62.19
  -2   2   6  910.91   61.69
   2   2  -6  934.31   59.09
   2   2  -6  879.51   62.69
   0  -2   6  979.70   69.59
   0  -2  -6 1016.50   70.19
   0  -2   6 1121.19   67.19
   0   2   6 1181.38   67.19
   0   2   6 1121.09   69.69
   0   2  -6  969.50   70.49
  -2  -2  -6  362.86   23.90
   2  -2   6  400.06   24.40
  -2   2  -6  281.17   28.90
  -2   2  -6  380.66   24.20
  -4  -2  -6  688.73   51.69
  -4   2  -6  739.63   47.60
  -4   2  -6  789.62   52.69
  -5  -3   6    2.80   12.90
  -5  -3   6    2.70   10.10
   5  -3  -6  -13.30   14.30
  -5   3   6   -5.90   10.40
  -5   3   6    0.10   13.10
   5   3  -6   12.80   16.10
   5   3  -6    2.60   11.80
   3  -3  -6   29.00    8.30
  -3  -3   6   16.60    9.80
   3  -3  -6   39.60   13.60
  -3   3   6   33.60    7.10
   3   3  -6   18.50   13.60
  -3   3   6   29.30   10.70
   3   3  -6   10.60    7.90
  -1  -3   6    1.10    8.30
   1  -3  -6   -1.00    8.70
  -1  -3   6    7.20    3.20
  -1   3   6    4.40    3.10
  -1   3   6   -3.10    6.70
   1   3  -6    1.90   10.10
   1   3  -6    7.10    4.00
   1  -3   6   13.80    3.10
  -1  -3  -6   15.00    8.40
   1  -3   6   12.50    6.70
  -1   3  -6    9.50    3.20
  -1   3  -6    5.70    9.20
  -3   3  -6   72.89    8.30
  -5  -3  -6    5.00   14.70
  -5   3  -6   -4.60    4.60
   6  -4  -6  548.85   48.10
  -6  -4   6  589.64   50.09
  -6  -4   6  520.45   44.60
  -6   4   6  591.34   46.40
  -6   4   6  615.94   49.20
   6   4  -6  715.23   49.99
  -4  -4   6  522.45   40.60
  -4  -4   6  561.74   45.10
   4  -4  -6  660.53   45.60
   4   4  -6  551.24   45.30
  -4   4   6  597.54   41.50
  -4   4   6  674.53   45.40
   4   4  -6  555.44   42.40
   2  -4  -6  850.31   61.39
  -2  -4   6  950.80   61.79
  -2  -4   6  987.70   58.39
   2   4  -6  907.31   58.39
   2   4  -6  886.61   62.19
  -2   4   6  864.51   57.69
  -2   4   6  874.51   60.79
   0  -4  -6  545.15   40.20
   0  -4   6  639.34   36.90
   0  -4   6  521.85   39.90
   0   4   6  614.54   36.60
   0   4   6  574.04   39.40
   0   4  -6  500.25   41.40
   2  -4   6 1333.17   80.39
  -2   4  -6 1194.58   82.79
  -2   4  -6 1297.57   80.19
  -4  -4  -6  392.96   33.70
  -4   4  -6  422.56   35.10
  -4   4  -6  447.56   28.80
  -5  -5   6   -1.80   14.10
  -5  -5   6   -6.30    8.70
   5  -5  -6    0.00   15.70
   5   5  -6   -0.10   15.70
   5   5  -6   -0.60   11.80
  -5   5   6    5.70   12.90
  -5   5   6    3.40   10.50
  -3  -5   6   24.00   11.00
   3  -5  -6   45.20   13.70
   3   5  -6   27.80   13.70
   3   5  -6   32.00    8.50
  -3   5   6   48.60    8.20
  -3   5   6   51.59   11.90
  -1  -5   6   -5.40    7.50
   1  -5  -6    4.80    8.60
  -1  -5   6    5.30    3.00
   1   5  -6   -3.80   10.50
  -1   5   6   -3.20    7.20
   1   5  -6    2.10    3.90
   1  -5   6  109.09    9.20
   1  -5   6   99.99   12.70
  -1   5  -6  100.49    9.50
  -1   5  -6   96.29   16.60
   3  -5   6   33.60    5.60
  -3   5  -6   33.50    4.70
  -5  -5  -6   -2.70   14.20
  -5   5  -6   16.90   17.20
  -5   5  -6    3.80    5.30
   6  -6  -6  625.14   49.30
  -6  -6   6  578.64   51.39
  -6  -6   6  588.24   45.30
  -6   6   6  590.24   47.40
   6   6  -6  603.44   49.30
  -6   6   6  661.23   50.29
  -4  -6   6  445.36   38.90
   4  -6  -6  528.05   40.40
  -4   6   6  489.85   38.10
   4   6  -6  486.45   40.50
  -4   6   6  433.86   34.50
   4   6  -6  448.46   35.70
  -2  -6   6 1200.08   75.79
  -2  -6   6 1241.98   72.39
   2  -6  -6 1011.50   74.79
  -2   6   6 1032.40   71.69
   2   6  -6 1220.88   76.89
  -2   6   6 1073.79   74.49
   2   6  -6 1148.39   72.29
   0  -6   6 1393.46   79.49
   0  -6   6 1286.07   82.09
   0  -6  -6 1134.59   81.79
   0   6   6 1197.58   78.89
   0   6  -6 1369.16   79.89
   0   6  -6 1250.27   82.79
   0   6   6 1203.28   80.99
   2  -6   6 1083.59   64.49
  -2  -6  -6  966.90   66.39
  -2   6  -6 1022.30   64.29
  -2   6  -6  984.30   67.79
  -4  -6  -6  606.44   42.70
  -4   6  -6  580.64   39.00
   5  -7  -6   12.00   15.50
  -5  -7   6   -7.80   14.10
  -5  -7   6    6.70    8.40
  -5   7   6    3.30   11.30
   5   7  -6  -10.00   16.80
   5   7  -6   14.90   13.60
  -5   7   6    5.00   12.90
   3  -7  -6    4.20   12.30
  -3  -7   6   -3.00   11.20
   3   7  -6  -10.00    6.90
   3   7  -6    4.50   13.50
  -3   7   6    6.10    9.40
  -3   7   6   -4.60    6.40
   1  -7  -6   -4.70    9.10
  -1  -7   6   -3.30    2.80
  -1  -7   6   -0.70    8.10
   1   7  -6    2.40    3.80
   1   7  -6    3.60   11.30
  -1   7   6   -1.50    7.00
   1  -7   6  142.19   15.40
   1  -7   6  158.78   12.10
  -1   7  -6  145.69   19.30
  -1   7  -6  155.98   12.50
  -3  -7  -6   36.20    7.20
   3  -7   6   14.60    4.70
  -3   7  -6   14.60    3.60
  -5  -7  -6   30.90   14.10
  -5   7  -6   21.60   16.90
   6  -8  -6  357.36   38.40
  -6  -8   6  365.16   39.90
   6   8  -6  485.05   39.70
  -6   8   6  405.66   39.10
  -6   8   6  338.57   36.30
   4  -8  -6  556.74   45.80
  -4  -8   6  574.44   45.90
   4   8  -6  567.94   46.80
  -4   8   6  566.04   41.10
  -4   8   6  595.54   44.00
   4   8  -6  599.34   42.30
  -2  -8   6 1333.27   81.39
  -2  -8   6 1285.17   77.19
   2  -8  -6 1078.99   79.79
  -2   8   6 1103.99   79.29
   2   8  -6 1217.38   77.39
   2   8  -6 1261.07   81.49
   0  -8   6 1172.18   71.69
   0  -8  -6 1211.18   74.69
   0   8  -6 1107.39   71.99
   0   8   6 1176.18   73.39
   0   8  -6 1008.80   74.99
  -2  -8  -6 1305.67   82.39
   2  -8   6 1323.87   80.59
  -2   8  -6 1178.78   83.49
  -2   8  -6 1288.77   80.39
   4  -8   6  430.66   31.60
  -4  -8  -6  437.06   33.40
  -4   8  -6  440.56   29.90
  -5  -9   6   -7.20   15.70
   5  -9  -6    3.20   15.30
   5   9  -6    9.80   13.20
  -5   9   6    1.70   13.00
   5   9  -6   -2.40   16.70
  -5   9   6   13.20   11.30
  -3  -9   6   -4.70   11.30
  -3  -9   6    1.70    4.90
   3  -9  -6   14.00   12.40
   3   9  -6    4.70    7.20
  -3   9   6    7.80    7.10
   3   9  -6    6.50   13.80
  -3   9   6    9.10    9.70
  -1  -9   6   46.90   11.40
  -1  -9   6   32.60    4.90
  -1   9   6   55.79   10.10
   1   9  -6   58.09   13.50
  -1  -9  -6   25.80    8.90
   1  -9   6   19.90    8.30
   1  -9   6    9.80    3.20
  -1   9  -6    9.80    3.40
  -1   9  -6   17.90   11.90
   3  -9   6   14.70    4.90
  -3   9  -6    5.90    3.40
  -5  -9  -6    3.10   13.00
  -5   9  -6   -3.60    5.40
  -5   9  -6   18.30   17.90
  -6 -10   6  555.24   51.89
  -6  10   6  617.24   48.60
  -6  10   6  599.14   49.99
   6  10  -6  625.54   50.49
  -4 -10   6  394.26   37.50
   4 -10  -6  476.75   38.70
  -4  10   6  386.36   31.90
  -4  10   6  412.76   35.00
   4  10  -6  410.46   33.20
   4  10  -6  425.66   38.60
  -2 -10   6 1349.16   84.99
  -2 -10   6 1352.76   80.79
   2 -10  -6 1225.78   83.59
  -2  10   6 1186.58   80.39
   2  10  -6 1290.37   81.09
  -2  10   6 1214.48   82.89
   2  10  -6 1279.17   85.19
   0 -10   6  612.34   46.50
   0 -10   6  668.43   43.30
   0  10   6  801.32   45.50
   0  10  -6  649.43   43.70
   0  10  -6  619.44   48.80
  -2 -10  -6  852.01   56.79
   2 -10   6  860.91   54.59
  -2  10  -6  805.62   54.29
  -2  10  -6  884.51   59.09
   4 -10   6  451.65   32.70
  -4 -10  -6  455.35   33.60
  -4  10  -6  433.06   30.60
   5 -11  -6   39.70   18.00
  -5 -11   6   20.70   17.40
   5  11  -6   22.20   14.20
  -5  11   6   20.90   11.80
   5  11  -6   25.40   18.10
  -5  11   6   35.90   14.40
  -3 -11   6   24.20   13.40
  -3 -11   6   15.50    5.70
   3 -11  -6    2.80   11.70
  -3  11   6    7.80   10.10
   3  11  -6   26.80   16.50
   3  11  -6   20.20    7.90
  -3  11   6   10.20    6.90
  -1 -11   6  448.66   30.20
  -1 -11   6  453.85   35.40
   1  11  -6  460.05   36.80
   1 -11   6  162.18   12.50
   1 -11   6  166.58   16.80
  -1 -11  -6  107.59   17.40
  -1  11  -6  168.18   22.00
  -1  11  -6  156.68   12.80
   3 -11   6    5.40    4.80
  -3  11  -6   30.10   14.90
  -3  11  -6    3.30    3.50
  -5 -11  -6   16.80   13.00
   4 -12  -6  538.05   42.60
  -4 -12   6  517.05   42.50
  -4 -12   6  524.35   35.80
   4  12  -6  475.75   38.00
   4  12  -6  515.45   44.00
  -4  12   6  439.96   36.50
  -4  12   6  485.15   39.50
   2 -12  -6 1519.15   94.99
  -2 -12   6 1480.25   96.09
  -2 -12   6 1420.16   91.49
  -2  12   6 1501.65   94.09
   2  12  -6 1372.96   91.99
   2  12  -6 1393.96   96.29
   0 -12  -6  253.47   23.10
   0 -12   6  284.07   24.80
   0 -12   6  274.67   18.40
   0  12   6  220.58   20.80
   0  12  -6  264.27   27.50
   0  12  -6  252.27   18.90
   2 -12   6 1342.47   81.99
  -2 -12  -6 1283.27   83.59
  -2  12  -6 1284.97   85.89
  -2  12  -6 1260.27   81.69
   4 -12   6  203.98   22.90
  -4  12  -6  213.98   17.60
  -5 -13   6   17.10   16.30
   5 -13  -6   19.50   20.70
  -5  13   6    0.90   11.40
   5  13  -6   -1.40   13.50
   5  13  -6   19.60   18.70
  -5  13   6    3.40   13.30
   3 -13  -6    3.20   11.60
  -3 -13   6   25.00   14.20
   3  13  -6   -1.30   16.50
  -3  13   6    1.40    6.70
   3  13  -6   13.70    7.70
  -3  13   6   -5.40   10.00
   1 -13  -6  279.87   25.60
  -1 -13   6  276.27   20.10
  -1 -13   6  282.87   27.60
  -1  13   6  291.57   23.40
   1  13  -6  291.17   30.00
  -1 -13  -6   60.19   11.40
   1 -13   6   58.49   11.40
   1 -13   6   65.89    8.00
  -1  13  -6   59.99   15.80
  -1  13  -6   62.79    8.50
   3 -13   6    5.20    5.20
  -3  13  -6    0.60    3.70
  -5 -13  -6   40.60   13.90
  -5  13  -6   19.80    6.80
  -4 -14   6  443.56   32.70
  -4 -14   6  447.76   40.70
   4 -14  -6  478.45   42.50
   4  14  -6  432.56   43.30
   4  14  -6  437.36   35.40
  -4  14   6  467.15   37.00
  -4  14   6  420.96   34.10
  -2 -14   6 1036.40   67.49
  -2 -14   6 1048.70   72.89
   2 -14  -6 1125.49   71.79
  -2  14   6 1059.09   70.09
   2  14  -6 1019.00   68.19
   2  14  -6 1046.00   73.79
   0 -14   6  763.52   49.80
   0 -14   6  778.32   54.39
   0  14  -6  803.72   56.59
   0  14  -6  765.42   50.39
  -2 -14  -6  902.01   59.79
   2 -14   6  888.61   57.69
  -2  14  -6  938.81   63.39
  -2  14  -6  856.91   57.39
   4 -14   6  543.15   35.70
  -4 -14  -6  404.46   34.60
  -4  14  -6  508.55   33.60
  -5 -15   6   19.90   17.40
  -5 -15   6    1.70    7.00
   5  15  -6   26.60   19.60
  -5  15   6   15.50   12.70
   5  15  -6   -7.90   14.10
  -5  15   6    6.70   13.90
   3 -15  -6   42.30   14.00
  -3 -15   6   48.90   16.00
  -3 -15   6   30.60    6.50
   3  15  -6   41.90    9.80
  -3  15   6   43.50    9.00
   3  15  -6   54.49   18.80
  -3  15   6   51.89   12.90
  -1 -15   6   15.10    4.00
  -1 -15   6   20.40   13.00
   1 -15  -6   37.30   10.70
  -1  15   6   21.60    8.40
   1  15  -6   12.40    4.80
   1  15  -6   12.40   14.70
   1 -15   6   34.80    5.30
   1 -15   6   40.00   11.10
  -1 -15  -6   54.09   10.70
  -1  15  -6   33.00    5.40
   1  15   6   46.70    7.50
  -1  15  -6   42.40   15.60
  -3  15  -6   -2.70   17.30
  -3  15  -6   -2.60    3.80
  -5 -15  -6    5.20   12.80
  -5  15  -6    6.20    6.30
   4 -16  -6  408.86   42.30
  -4 -16   6  390.36   39.90
  -4 -16   6  407.26   31.10
  -4  16   6  439.86   33.00
  -4  16   6  481.55   36.90
   4  16  -6  391.86   43.20
   4  16  -6  424.56   34.20
  -2 -16   6  968.90   66.49
  -2 -16   6  923.71   59.99
   2 -16  -6  909.71   64.39
   2  16  -6  967.00   67.89
   2  16  -6  893.11   60.69
  -2  16   6  928.31   62.89
   0 -16   6 1045.20   68.59
   0 -16   6 1030.60   63.89
   0 -16  -6  937.71   66.99
   0  16  -6 1016.70   70.09
   0  16  -6 1024.10   64.49
   0  16   6  966.60   65.29
  -2 -16  -6 1116.09   75.59
   2 -16   6 1157.38   73.89
  -2  16  -6 1085.89   73.49
  -2  16  -6 1281.07   80.29
   4 -16   6  422.06   32.90
  -4  16  -6  459.85   31.40
   5 -17  -6   -2.20   18.70
  -5 -17   6   -4.40   18.50
  -5 -17   6    1.90    7.20
  -5  17   6    8.30   14.80
   5  17  -6   14.70   23.20
   5  17  -6    7.60   15.50
  -5  17   6    9.90   12.60
  -3 -17   6    7.10    5.30
  -3 -17   6   22.00   16.20
   3  17  -6    7.30    8.00
  -3  17   6   -3.10    7.70
  -3  17   6   11.80   10.30
   3  17  -6   -6.90   18.80
   1 -17  -6   42.10   12.00
  -1 -17   6   21.30   14.20
  -1 -17   6   25.60    4.80
  -1  17   6   39.30    9.20
   1  17  -6   13.80   16.90
  -1 -17  -6   32.00   10.10
   1 -17   6   13.80    4.00
   1 -17   6   22.30   12.10
   1  17   6   22.90    6.40
  -1  17  -6    7.20    4.00
  -1  17  -6   18.80   17.20
   3 -17   6   13.60    6.00
  -3  17  -6   14.00    4.80
  -3  17  -6    5.50   19.50
  -5  17  -6    1.80    6.40
  -4 -18   6  272.47   23.30
  -4 -18   6  303.67   34.80
   4 -18  -6  296.57   31.90
   4  18  -6  279.77   26.90
  -4  18   6  305.97   30.00
  -4  18   6  265.97   26.00
  -2 -18   6 1114.99   78.69
   2 -18  -6 1144.09   84.79
  -2  18   6 1104.89   72.19
   2  18  -6 1071.09   72.99
  -2  18   6 1211.38   74.99
   2  18  -6 1124.79   79.89
   0 -18   6  613.94   42.90
   0 -18  -6  659.43   47.00
   0 -18   6  702.63   49.60
   0  18  -6  594.44   43.40
   0  18  -6  750.82   52.99
   0  18   6  670.53   44.90
  -2 -18  -6 1027.90   70.29
  -2  18  -6 1194.58   76.19
  -2  18  -6  988.50   67.89
   4 -18   6  527.35   39.50
  -4  18  -6  584.34   51.29
  -4  18  -6  549.15   37.90
   5 -19  -6    2.60   18.00
  -5 -19   6   -7.90   18.00
  -5 -19   6    0.50    7.40
  -5  19   6    1.40   13.20
   5  19  -6  -11.90   14.60
  -5  19   6   15.10   14.30
  -3 -19   6  103.79   13.70
  -3 -19   6  118.89   21.30
   3 -19  -6  131.39   23.80
  -3  19   6  123.99   15.90
  -3  19   6  104.59   19.20
   3  19  -6   98.09   16.00
  -1 -19   6    2.60   14.40
   1 -19  -6    8.30   12.00
  -1 -19   6    4.10    3.90
   1  19  -6   -5.30   18.40
  -1  19   6    9.90    7.80
   1  19  -6    2.50    4.30
   1 -19   6   22.10   12.90
   1 -19   6   16.60    4.60
  -1 -19  -6   22.70   11.10
   1  19   6   27.20    7.40
  -1  19  -6   32.30   19.40
  -1  19  -6   14.00    4.60
  -3 -19  -6   39.70   11.10
   3 -19   6   25.80    6.80
  -3  19  -6   29.50    5.90
  -3  19  -6   46.40   22.30
   4 -20  -6  605.04   47.20
  -4 -20   6  631.74   41.30
  -4 -20   6  557.64   50.39
  -4  20   6  571.04   43.00
   4  20  -6  562.54   53.89
   4  20  -6  540.65   43.60
  -4  20   6  615.94   46.50
   2 -20  -6  623.24   46.30
  -2 -20   6  550.34   39.60
  -2 -20   6  598.94   49.20
  -2  20   6  583.44   43.20
   2  20  -6  687.33   72.99
   0 -20   6  785.72   56.89
   0 -20  -6  815.42   54.29
   0 -20   6  753.92   50.39
   0  20  -6  689.23   50.59
   0  20  -6  812.22   61.49
   0  20   6  812.82   52.09
   2 -20   6  424.26   32.30
   2 -20   6  409.56   36.10
  -2 -20  -6  550.54   36.30
  -2  20  -6  443.66   32.00
  -2  20  -6  543.95   46.70
   4 -20   6  452.35   38.30
  -4  20  -6  575.84   37.10
   4  20   6  546.65   40.50
  -4  20  -6  532.35   64.29
   5 -21  -6    6.20   18.00
  -5 -21   6   32.40   20.00
  -5 -21   6    4.20    7.30
  -5  21   6    6.50   14.30
   5  21  -6   -1.40   24.90
   5  21  -6   13.30   15.00
  -5  21   6    3.50   16.20
   3 -21  -6    9.80   15.00
  -3 -21   6   12.00    5.70
  -3 -21   6   34.80   19.10
   3  21  -6   15.70    9.60
  -3  21   6   21.00   11.90
  -3  21   6   18.20    9.60
   3  21  -6   33.70   21.70
  -1 -21   6   18.50    5.10
  -1 -21   6   16.90   16.90
  -1  21   6   29.20    8.90
   1  21  -6   13.40    5.30
   1  21  -6    3.30   28.60
   1 -21   6    9.10    4.30
  -1 -21  -6    7.20   11.00
   1 -21   6   19.90   14.40
  -1  21  -6    5.50    4.50
  -1  21  -6    8.00   25.40
   1  21   6    4.80    6.70
   3 -21   6   10.60    6.50
  -3 -21  -6   23.90   11.80
  -3  21  -6   -2.10   40.60
  -3  21  -6   11.20    5.00
   4 -22  -6  499.45   45.90
  -4 -22   6  585.84   50.39
  -4 -22   6  538.85   39.30
  -4  22   6  538.55   41.90
  -4  22   6  548.75   44.60
   4  22  -6  582.84   42.90
   4  22  -6  598.14   54.39
  -2 -22   6  885.81   67.19
   2 -22  -6  939.81   64.39
  -2 -22   6  883.21   58.89
   2  22  -6  884.61   69.89
  -2  22   6  940.21   61.99
   0 -22   6  205.88   18.80
   0 -22   6  275.07   31.20
   0  22  -6  347.07   44.40
   0  22  -6  222.08   19.50
   0  22   6  288.27   21.80
   2 -22   6  298.07   29.30
   2 -22   6  281.37   22.50
  -2 -22  -6  273.87   27.20
  -2  22  -6  372.16   62.59
  -2  22  -6  293.87   21.90
   4 -22   6  604.24   49.10
  -4  22  -6  720.53   47.90
   4  22   6  804.02   51.59
  -4  22  -6  715.33   64.29
  -3 -23   6   73.79   21.30
  -3 -23   6   40.70    7.10
   3  23  -6   69.59   13.20
   3  23  -6   64.39   25.30
  -1 -23   6  133.39   22.90
   1 -23  -6  107.09   21.90
  -1 -23   6  127.99   12.40
   1  23  -6  139.89   26.50
   1  23  -6  120.59   14.20
   1 -23   6   10.30   15.80
   1 -23   6   20.00    5.20
  -1  23  -6   19.00    5.30
  -1  23  -6   17.70   23.80
   3 -23   6   87.39   11.50
  -3  23  -6  109.99   27.90
  -3  23  -6   87.29   12.90
   4 -24  -6 1056.39   74.19
  -4 -24   6 1073.19   78.59
  -4 -24   6 1013.20   68.69
   4  24  -6  988.20   71.69
   4  24  -6 1045.40   80.49
  -4  24   6 1125.59   73.19
  -4  24   6 1025.40   74.69
  -2 -24   6  230.88   19.70
   2 -24  -6  244.88   29.10
  -2 -24   6  251.77   36.00
  -2  24   6  263.67   25.20
   2  24  -6  291.07   40.20
   0 -24   6  699.03   53.09
   0 -24   6  634.04   43.70
   0 -24  -6  628.84   48.50
   0  24   6  664.13   45.70
   0  24  -6  649.54   44.40
   0  24  -6  742.73   58.79
   2 -24   6  356.76   28.10
   2 -24   6  427.46   35.30
   2 -24   6  359.36   27.50
  -2  24  -6  410.66   45.30
  -2  24  -6  354.96   27.00
  -4  24  -6  508.85   57.19
   4  24   6  522.85   40.30
  -4  24  -6  464.35   35.80
  -3 -25   6  359.96   41.50
   3 -25  -6  340.97   36.00
  -3 -25   6  363.36   26.50
   3  25  -6  387.46   47.20
  -3  25   6  342.27   32.00
   3  25  -6  333.87   30.20
  -1 -25   6   41.90    6.10
  -1 -25   6   38.40   20.30
   1 -25  -6   29.20   13.60
  -1  25   6   40.40   10.70
   1  25  -6   36.00   24.60
   1  25  -6   28.40    6.70
  -1 -25  -6    5.30   12.10
   1 -25   6   10.80    5.00
   1 -25   6   35.90   18.20
  -1  25  -6   10.90   24.60
  -1  25  -6   23.00    5.80
   3 -25   6  148.69   17.90
  -3 -25  -6  113.49   22.80
  -3  25  -6  178.88   32.90
  -3  25  -6  142.59   15.80
  -4 -26   6  322.97   27.10
  -4 -26   6  408.46   45.80
   4 -26  -6  344.77   37.80
  -4  26   6  257.07   31.80
  -4  26   6  418.86   35.20
   4  26  -6  376.96   48.10
   4  26  -6  325.27   33.10
  -2 -26   6 1111.69   73.59
   2 -26  -6 1142.49   79.19
  -2 -26   6 1181.28   84.39
   2  26  -6 1148.09   86.29
  -2  26   6 1156.38   76.79
   0 -26   6  288.37   35.50
   0 -26   6  198.38   19.00
   0 -26  -6  282.27   27.60
   0  26  -6  305.47   42.50
   0  26  -6  213.18   20.30
   0  26   6  295.37   23.40
  -2 -26  -6  874.31   65.99
   2 -26   6  940.91   63.79
   2 -26   6 1010.70   69.09
   2 -26   6  983.30   63.49
  -2  26  -6 1068.99   78.69
  -2  26  -6  964.50   63.09
  -4 -26  -6  246.78   30.30
  -4  26  -6  255.57   23.00
   4  26   6  244.68   29.20
  -4  26  -6  206.78   37.90
  -3 -27   6   18.10   24.00
   3 -27  -6    8.50   16.00
  -3 -27   6    5.40    5.50
  -3  27   6   20.40   12.80
   3  27  -6    8.30   11.90
   3  27  -6   -8.80   25.10
   1 -27  -6   71.29   16.50
  -1 -27   6  136.19   26.60
  -1 -27   6  115.29   12.60
  -1  27   6   90.99   16.90
   1  27  -6  102.69   14.40
   1  27  -6  106.09   28.60
   1 -27   6   34.40   19.30
   1 -27   6   24.60    6.00
  -1 -27  -6   19.20   13.40
  -1  27  -6   24.90    6.50
  -1  27  -6   31.30   26.80
   3 -27   6   -2.10    8.70
  -3 -27  -6    9.80   14.50
  -3  27  -6    3.10    5.90
  -3  27  -6   10.20   29.30
   3  27   6   -0.90   10.70
  -4 -28   6  421.86   48.20
  -4 -28   6  370.66   29.00
   4 -28  -6  378.26   39.90
   4  28  -6  423.76   53.49
   4  28  -6  379.16   35.30
  -4  28   6  347.77   36.10
   2 -28  -6  521.55   43.40
  -2 -28   6  551.04   51.49
  -2 -28   6  413.06   34.50
  -2  28   6  577.34   40.20
  -2  28   6  484.75   34.60
   2  28  -6  530.35   55.39
   0 -28   6  838.22   62.29
   0 -28   6  754.92   49.70
   0 -28  -6  673.43   54.29
   0  28  -6  854.11   67.49
   0  28   6  740.73   52.19
   0  28  -6  728.33   50.49
   2 -28   6  597.24   44.40
  -2 -28  -6  686.13   48.40
   2 -28   6  652.53   51.99
  -2  28  -6  596.04   43.20
  -2  28  -6  690.53   62.59
   3 -29  -6   78.09   19.30
  -3 -29   6   70.99   28.30
  -3 -29   6   66.99    9.40
  -3  29   6   72.99    9.60
   3  29  -6   77.49   28.50
  -3  29   6   98.19   17.10
   3  29  -6   74.69   15.20
  -1 -29   6   29.50    6.30
  -1 -29   6   30.60   24.00
  -1  29   6   47.80   11.60
   1  29  -6   20.60    7.30
   1  29  -6   43.50   28.50
  -1 -29  -6    2.60   12.90
   1 -29   6   20.10   21.30
  -1  29  -6    6.30    5.80
  -1  29  -6  -10.90   26.90
  -3 -29  -6    4.70   15.00
  -3  29  -6    6.80    6.40
   3  29   6    4.10   11.40
  -3  29  -6   16.50   31.80
  -2 -30   6  654.43   44.30
  -2 -30   6  696.73   59.89
   2 -30  -6  614.94   51.99
  -2  30   6  646.94   44.20
  -2  30   6  657.33   48.60
   2  30  -6  722.33   64.99
   0 -30   6  325.37   26.90
   0 -30   6  436.06   46.10
   0 -30  -6  406.96   34.90
   0  30   6  427.76   31.50
   0  30  -6  329.27   28.10
   2 -30   6  536.95   46.50
   2 -30   6  440.26   36.30
  -2 -30  -6  481.95   40.60
  -2  30  -6  535.35   57.89
  -2  30  -6  455.85   34.20
  -3 -31   6   -1.90    5.90
  -3 -31   6  -37.50   24.70
   3  31  -6    8.00   12.50
  -3  31   6    8.70    6.40
  -3  31   6   12.00   13.20
   3  31  -6  -15.60   30.60
  -1 -31   6   11.30    5.50
  -1 -31   6    4.20   24.50
   1  31  -6   -1.10    6.50
  -1  31   6    0.70   10.30
  -1 -31  -6  -16.70   13.50
   1 -31   6    5.40   22.70
  -1  31  -6   -2.30    6.10
  -1  31  -6    8.30   30.00
  -2 -32   6  568.54   41.30
  -2 -32   6  631.84   59.49
  -2  32   6  621.94   46.20
   2  32  -6  654.13   63.49
  -2  32   6  596.04   41.10
   0 -32   6  310.47   43.60
   0 -32  -6  279.07   31.10
   0 -32   6  249.78   21.30
   0  32  -6  260.17   22.80
   2 -32   6  575.14   51.09
  -2 -32  -6  536.75   43.90
   2 -32   6  434.86   40.20
  -2  32  -6  502.65   36.60
  -2  32  -6  573.44   61.79
  -1 -33   6   -5.30    5.10
  -1 -33   6  -25.80   25.10
  -1  33   6    2.00   11.30
   1  33  -6   -2.40    6.90
  -1 -33  -6   18.70   15.40
   1 -33   6   -6.60   25.10
  -1  33  -6   17.90   31.70
  -1  33  -6   -1.80    6.50
  -2 -34   6  570.54   61.39
  -2 -34   6  537.45   38.10
  -2  34   6  564.94   42.80
  -2  34   6  514.15   37.10
   0 -34   6  397.66   31.30
   0 -34  -6  438.16   39.80
   0 -34   6  508.85   52.39
   0  34  -6  436.36   32.80
   2 -34   6  426.26   35.20
   2 -34   6  424.66   48.40
  -2 -34  -6  411.66   40.30
  -2  34  -6  429.46   59.49
  -1 -35   6  -24.50   27.90
  -1 -35   6    4.30    5.80
  -1  35   6    7.80   12.50
   1  35  -6   -7.50    7.60
  -1 -35  -6  -16.30   16.10
   1 -35   6  -15.10   27.70
  -1  35  -6  -31.40   32.00
  -1  35  -6    0.70    7.30
   0 -36   6  481.65   35.60
   0 -36  -6  488.35   43.60
   0 -36   6  561.34   57.39
   0  36  -6  501.45   37.20
  -4   0   7  495.55   37.10
   4   0  -7  509.35   39.50
  -4   0   7  561.24   43.60
   2   0  -7  952.70   61.99
   2   0  -7  980.10   67.39
  -2   0   7  955.90   61.99
  -2   0   7  942.41   65.79
   0   0   7 1013.50   66.69
   0   0   7 1033.50   63.89
   0   0  -7  978.10   68.09
  -2   0  -7  852.51   63.69
  -2   0  -7  932.51   59.89
   2   0   7 1036.40   59.99
  -4   0  -7  474.75   37.40
  -4   0  -7  443.26   30.60
  -5  -1   7    2.70   10.50
  -5  -1   7  -12.00   15.40
   5  -1  -7   -3.50   19.70
  -5   1   7    5.60   15.60
   5   1  -7   12.40   24.40
  -5   1   7   16.60   10.80
   5   1  -7    0.30   13.40
  -3  -1   7   57.59   15.00
   3  -1  -7   58.59   18.10
   3  -1  -7   75.69   11.60
   3   1  -7   53.19   11.10
   3   1  -7   67.09   17.90
  -3   1   7   65.29   15.00
  -1  -1   7   42.30   11.60
   1  -1  -7   80.79   15.60
  -1  -1   7   52.39    8.70
  -1   1   7   85.99   15.30
   1   1  -7   45.90   14.50
   1  -1   7   -3.30    6.90
   1  -1   7    3.70    3.10
  -1  -1  -7    4.50   10.30
   1   1   7    2.80    3.00
  -1   1  -7    2.40   11.00
  -1   1  -7    1.20    3.20
   3  -1   7   29.60    5.70
   3   1   7   39.20    5.70
  -3   1  -7   31.70   10.90
  -5  -1  -7  -21.40   16.60
  -5   1  -7   -8.20    5.70
  -5   1  -7   15.50   19.70
  -4  -2   7  558.44   38.60
  -4  -2   7  544.35   45.00
   4   2  -7  551.64   41.10
  -4   2   7  596.74   45.20
  -4   2   7  492.95   38.70
  -2  -2   7  951.20   60.09
   2  -2  -7  914.61   64.89
  -2  -2   7  897.31   63.99
  -2   2   7  923.91   63.59
   2   2  -7  919.31   65.49
   2   2  -7  946.41   60.29
   0  -2  -7  941.81   65.89
   0  -2   7  993.30   61.99
   0  -2   7  971.20   64.79
   0   2   7 1003.50   64.59
   0   2  -7  933.11   66.29
   0   2   7 1007.80   61.79
   2  -2   7  873.71   52.79
  -2  -2  -7  883.31   56.99
  -2   2  -7  693.43   57.09
  -2   2  -7  838.32   52.89
  -4  -2  -7  210.68   26.10
  -4   2  -7  230.98   18.00
  -4   2  -7  265.77   28.70
  -5  -3   7   -4.20   16.40
   5  -3  -7  -14.30   19.50
  -5  -3   7    8.10   10.30
  -5   3   7   -6.70   10.50
   5   3  -7   -3.80   33.40
  -5   3   7   19.80   16.30
   5   3  -7   -5.60   13.80
  -3  -3   7   12.60   13.70
   3  -3  -7   40.20   17.70
  -3   3   7   42.40   13.60
   3   3  -7   32.30   16.80
   3   3  -7   19.10    9.50
  -3   3   7   56.79    8.20
   1  -3  -7    3.10   12.50
  -1  -3   7    1.20    3.40
  -1  -3   7   -5.20    9.10
  -1   3   7   -6.40    3.30
  -1   3   7    3.30    9.00
   1   3  -7   -8.90   12.70
   1  -3   7   -2.50    7.40
   1  -3   7    2.40    3.10
  -1  -3  -7   -1.50   10.10
  -1   3  -7    0.90    3.50
   1   3   7    4.80    6.80
  -1   3  -7    7.50   11.50
   3  -3   7   19.80    5.30
  -3   3  -7   15.10    4.10
  -5  -3  -7    9.40   16.60
  -5   3  -7    6.40    5.90
  -4  -4   7  588.44   45.90
   4  -4  -7  562.64   51.19
   4   4  -7  530.25   42.30
  -4   4   7  608.04   45.70
  -4   4   7  532.25   39.90
  -2  -4   7  699.23   44.90
  -2  -4   7  656.53   49.90
   2  -4  -7  701.83   50.99
  -2   4   7  664.23   48.60
   2   4  -7  685.93   45.20
   2   4  -7  648.14   51.39
   0  -4   7  906.11   64.29
   0  -4   7  966.50   61.49
   0  -4  -7 1014.10   65.59
   0   4   7 1038.00   61.29
   0   4   7 1011.70   63.89
   0   4  -7  859.51   65.49
  -2  -4  -7  539.15   37.90
   2  -4   7  497.95   32.40
  -2   4  -7  408.16   38.70
  -2   4  -7  490.35   32.40
   4  -4   7  553.44   36.60
  -4  -4  -7  474.45   39.50
  -4   4  -7  565.14   42.40
  -4   4  -7  505.95   35.10
   5  -5  -7   -4.10   19.20
  -5  -5   7   -4.70   15.10
   5   5  -7  -11.40   13.30
   5   5  -7    0.80   22.50
  -5   5   7   -4.50   10.90
  -5   5   7    3.10   15.20
   3  -5  -7    1.90   17.40
  -3  -5   7   15.90   12.70
  -3  -5   7    1.50    6.30
   3   5  -7    7.10    9.00
  -3   5   7   -2.70   10.80
  -3   5   7   13.20    6.60
   3   5  -7   32.00   17.60
   1  -5  -7   31.20   12.30
  -1  -5   7    6.80   10.50
  -1  -5   7   12.60    4.00
   1   5  -7    6.10   12.60
  -1   5   7   22.10    4.60
  -1   5   7   20.00    9.60
   1  -5   7    2.00    7.50
  -1  -5  -7   -1.50   10.90
   1  -5   7   -1.80    3.20
   1   5   7    4.90    6.40
  -1   5  -7   -1.20   12.00
  -1   5  -7   -7.60    3.30
   3  -5   7   26.70    5.80
  -3   5  -7   15.20    4.30
  -5  -5  -7    8.30   15.90
  -5   5  -7   17.40   19.90
  -5   5  -7    9.00    6.30
   4  -6  -7  678.63   52.49
  -4  -6   7  632.84   51.19
  -4   6   7  671.93   46.00
  -4   6   7  725.63   50.79
   4   6  -7  565.14   47.20
   2  -6  -7  694.63   53.99
  -2  -6   7  791.02   53.99
  -2  -6   7  794.62   49.00
   2   6  -7  759.62   56.09
  -2   6   7  672.03   52.39
   2   6  -7  736.33   49.00
   0  -6   7  948.51   60.79
   0  -6   7  899.91   63.89
   0  -6  -7  989.10   64.59
   0   6  -7  797.72   64.99
   0   6   7 1058.89   63.39
   0   6   7 1019.80   60.39
  -2  -6  -7  663.93   50.59
   2  -6   7  765.72   46.70
  -2   6  -7  679.33   51.99
  -2   6  -7  750.62   46.60
   4  -6   7  361.26   27.70
  -4  -6  -7  327.87   30.20
  -4   6  -7  377.76   25.70
   5  -7  -7    8.90   18.90
  -5  -7   7    7.70   17.30
   5   7  -7   -3.40   20.70
  -5   7   7   35.60   12.60
   5   7  -7    3.60   15.30
  -5   7   7   33.80   16.50
  -3  -7   7   -2.80    5.50
  -3  -7   7    0.70   13.30
  -3   7   7   -3.90    6.40
   3   7  -7    1.40    8.60
   3   7  -7   -3.20   19.20
  -3   7   7   -5.10   11.30
  -1  -7   7   50.69    8.20
  -1  -7   7   41.20   11.50
   1  -7  -7   20.20   11.60
   1   7  -7   45.80    6.90
   1   7  -7   74.49   15.60
   1  -7   7   -3.10    8.30
  -1  -7  -7   -6.80   10.80
   1  -7   7    3.40    3.50
  -1   7  -7   -0.40    3.60
  -1   7  -7   -4.60   13.10
   3  -7   7   33.50    6.20
  -3   7  -7   21.40    4.80
  -3   7  -7   38.50   15.50
  -5  -7  -7    1.90   14.70
  -5   7  -7    0.50    6.50
  -5   7  -7   16.80   19.50
  -4  -8   7  301.87   32.70
   4  -8  -7  321.87   35.30
  -4   8   7  271.57   25.00
  -4   8   7  294.57   31.00
   4   8  -7  243.88   27.90
   4   8  -7  282.07   40.60
   2  -8  -7  993.90   73.79
  -2  -8   7 1187.48   74.99
  -2  -8   7 1175.88   69.79
  -2   8   7 1005.00   72.59
   2   8  -7 1045.30   69.89
   2   8  -7 1095.19   75.69
   0  -8  -7  618.84   41.10
   0  -8   7  472.75   39.60
   0  -8   7  507.15   35.30
   0   8   7  625.64   38.40
   0   8   7  589.84   34.90
   0   8  -7  451.45   42.20
   0   8  -7  482.65   35.90
   2  -8   7  821.92   51.99
  -2  -8  -7  785.92   55.99
  -2   8  -7  820.52   51.99
  -2   8  -7  782.12   57.39
   4  -8   7  420.16   31.10
  -4  -8  -7  347.77   31.80
  -4   8  -7  420.96   28.30
   5  -9  -7   45.80   20.60
  -5  -9   7   25.30   17.70
  -5   9   7   40.70   17.70
  -5   9   7   54.89   13.40
   5   9  -7   29.20   16.50
   5   9  -7   69.99   23.00
  -3  -9   7    0.20   13.30
   3  -9  -7   30.20   20.70
  -3  -9   7   -3.90    5.30
   3   9  -7   -1.90    8.20
  -3   9   7    6.90    7.20
  -3   9   7   15.40   12.00
   1  -9  -7   38.30   12.90
  -1  -9   7   22.50    4.70
  -1  -9   7   23.90   11.50
   1   9  -7   22.60   15.40
  -1   9   7   33.30   10.10
   1  -9   7    9.60    3.70
  -1  -9  -7   -0.60   10.80
   1  -9   7   15.10    9.20
  -1   9  -7    3.50    4.00
  -1   9  -7   16.10   14.70
   3  -9   7    6.60    5.10
  -3   9  -7    4.90    4.20
  -5  -9  -7    9.70   14.50
  -5   9  -7   19.10   20.20
  -5   9  -7    5.20    6.60
  -4 -10   7  550.74   49.20
   4 -10  -7  590.24   49.60
  -4 -10   7  683.33   48.10
   4  10  -7  513.65   49.80
   4  10  -7  630.44   45.00
  -4  10   7  618.34   42.90
  -4  10   7  603.94   47.20
  -2 -10   7  925.81   60.29
  -2 -10   7  899.51   54.29
   2 -10  -7  744.63   61.09
   2  10  -7  803.72   54.29
  -2  10   7  781.12   57.19
   2  10  -7  791.02   61.69
   0 -10   7  299.27   21.90
   0 -10   7  288.07   27.40
   0 -10  -7  359.96   29.10
   0  10  -7  270.47   32.20
   0  10   7  354.76   25.20
   0  10  -7  288.77   22.60
  -2 -10  -7  821.02   54.89
   2 -10   7  767.42   50.79
  -2  10  -7  774.92   57.59
  -2  10  -7  767.32   50.79
   4 -10   7  375.36   30.50
  -4  10  -7  407.26   28.20
   5 -11  -7   -0.40   19.90
  -5 -11   7   19.80   19.10
   5  11  -7   17.10   21.80
   5  11  -7    6.40   15.90
  -5  11   7    9.80   12.70
  -5  11   7   21.60   16.40
  -3 -11   7   43.80    7.70
  -3 -11   7   64.69   17.80
   3 -11  -7   42.20   16.90
   3  11  -7   45.90   10.60
   3  11  -7   42.80   21.40
  -3  11   7   32.80    8.80
  -3  11   7   45.10   13.80
   1 -11  -7    6.20   12.80
  -1 -11   7   -0.10    3.50
  -1 -11   7    8.30   11.40
   1  11  -7    9.20   15.20
  -1  11   7   11.70    9.20
   1 -11   7    4.20    9.80
   1 -11   7    3.60    3.70
  -1 -11  -7    6.00   12.00
  -1  11  -7    0.60    4.10
   1  11   7   -1.80    6.40
  -1  11  -7   -4.10   15.50
   3 -11   7   11.40    6.00
  -3  11  -7   18.40   17.60
  -3  11  -7   10.50    4.60
   4 -12  -7  313.27   36.70
  -4 -12   7  239.68   34.10
  -4  12   7  256.77   26.10
   4  12  -7  284.57   28.70
   4  12  -7  291.37   37.60
  -4  12   7  325.17   31.20
  -2 -12   7 1228.68   80.89
  -2  12   7 1140.49   78.19
   2  12  -7 1154.58   75.69
   0 -12  -7  317.97   29.40
   0 -12   7  276.27   27.80
   0 -12   7  302.67   21.80
   0  12  -7  300.87   22.70
   0  12   7  323.97   25.20
   0  12  -7  330.27   33.30
  -2 -12  -7  714.53   51.19
   2 -12   7  683.03   46.90
  -2  12  -7  682.43   46.80
  -2  12  -7  800.92   54.89
   4 -12   7  518.25   37.80
  -4  12  -7  518.45   35.80
  -5 -13   7   43.40   20.20
  -5 -13   7   26.00    9.20
   5 -13  -7   21.70   20.60
  -5  13   7   45.60   14.40
  -5  13   7   18.70   16.50
   5  13  -7   26.30   22.90
   5  13  -7   25.90   18.00
  -3 -13   7    7.40   15.60
   3 -13  -7  -13.90   15.30
  -3 -13   7    4.80    5.50
  -3  13   7   -0.50   11.70
   3  13  -7  -10.10    8.00
   3  13  -7   17.80   18.50
  -3  13   7   -7.40    7.30
   1 -13  -7    9.00   13.70
  -1 -13   7   12.10   13.30
  -1 -13   7    7.30    4.00
   1  13  -7   15.20   18.30
  -1  13   7   19.60    9.40
  -1 -13  -7    9.40   11.40
   1 -13   7    4.30   10.10
   1 -13   7   10.60    4.00
  -1  13  -7    1.60    4.40
  -1  13  -7    8.80   16.30
   3 -13   7    4.10    6.70
  -3  13  -7   -1.60    4.40
  -4 -14   7  517.15   45.70
   4 -14  -7  502.65   44.90
   4  14  -7  504.45   47.70
   4  14  -7  486.05   39.30
  -4  14   7  494.25   42.00
  -4  14   7  448.76   36.90
   2 -14  -7 1004.60   63.49
  -2 -14   7  831.22   56.69
  -2 -14   7  911.41   64.09
   2  14  -7  801.32   57.39
   2  14  -7  829.62   66.39
   0 -14   7  317.07   29.80
   0 -14  -7  290.97   29.70
   0 -14   7  306.77   22.30
   0  14   7  295.87   25.20
   0  14  -7  339.87   34.60
   0  14  -7  325.47   23.30
   2 -14   7  865.71   59.69
  -2 -14  -7  947.01   63.59
  -2  14  -7  965.70   67.39
  -2  14  -7  903.01   59.29
   4 -14   7  341.67   28.50
  -4  14  -7  344.77   26.00
  -5 -15   7   -2.20    8.00
   5 -15  -7   -9.80   19.70
  -5 -15   7    9.50   19.70
   5  15  -7   -0.30   15.20
   5  15  -7  -21.00   22.50
  -5  15   7  -14.60   15.70
  -5  15   7   -2.00   12.60
   3 -15  -7   45.00   16.90
  -3 -15   7   24.80    6.70
  -3 -15   7   16.30   17.30
   3  15  -7   55.49   21.80
  -3  15   7    6.70    8.20
   3  15  -7   39.70   10.50
  -3  15   7   13.40   12.40
  -1 -15   7   42.50   15.70
   1  15  -7   58.79   34.90
  -1  15   7   41.60   10.70
   1 -15   7   17.80   11.50
   1 -15   7   20.20    5.00
  -1 -15  -7   51.39   13.60
  -1  15  -7   44.40   19.60
  -1  15  -7   19.80    5.30
  -3 -15  -7   17.60   13.30
   3 -15   7   -9.70    5.80
  -3  15  -7   -3.00   22.00
  -3  15  -7    3.40    4.70
  -4 -16   7  310.57   28.20
  -4 -16   7  354.36   38.70
   4 -16  -7  335.07   36.40
   4  16  -7  327.77   30.60
   4  16  -7  322.67   40.80
  -4  16   7  273.77   27.90
  -4  16   7  374.66   34.80
  -2 -16   7  775.62   58.99
   2 -16  -7  865.61   57.89
  -2 -16   7  703.93   50.49
   2  16  -7  688.13   60.29
  -2  16   7  904.01   55.19
   2  16  -7  701.53   51.59
   0 -16   7  366.66   31.40
   0 -16   7  304.87   23.60
   0 -16  -7  249.58   30.30
   0  16   7  282.07   24.90
   0  16  -7  337.87   23.50
   2 -16   7  622.54   44.30
  -2  16  -7  733.03   55.29
  -2  16  -7  653.13   44.00
   4 -16   7  532.45   39.30
  -4  16  -7  563.64   37.20
  -4  16  -7  472.75   53.39
   5 -17  -7    9.20   22.10
  -5 -17   7   -8.10    7.60
  -5 -17   7   18.80   21.90
   5  17  -7   22.00   16.90
  -5  17   7    3.60   17.00
  -5  17   7   -7.10   13.90
   5  17  -7    7.10   24.30
  -3 -17   7   18.40   18.30
  -3 -17   7   12.80    5.90
   3 -17  -7   15.40   16.20
  -3  17   7   11.80    8.60
   3  17  -7    8.20    9.60
  -3  17   7   33.00   13.30
   3  17  -7   24.70   21.70
  -1 -17   7   44.70   17.30
   1 -17  -7   48.70   15.90
  -1 -17   7   38.80    6.30
   1  17  -7   39.20   20.40
  -1  17   7   47.00   11.30
  -1 -17  -7    6.50   13.10
   1 -17   7   14.50    5.40
   1 -17   7    4.50   12.80
  -1  17  -7   11.30    5.10
   1  17   7    8.20    6.80
   3 -17   7    8.50    6.60
  -3 -17  -7   18.40   14.10
  -3  17  -7   49.70   30.30
  -3  17  -7    7.30    5.30
  -4 -18   7  557.04   39.00
   4 -18  -7  468.05   46.60
  -4 -18   7  622.04   50.89
   4  18  -7  553.54   42.30
  -4  18   7  515.35   44.50
  -4  18   7  489.85   40.00
   4  18  -7  555.94   52.59
   2 -18  -7  528.75   43.50
  -2 -18   7  475.75   34.40
  -2 -18   7  509.55   45.30
  -2  18   7  535.15   39.10
   2  18  -7  482.65   35.70
   2  18  -7  487.95   48.20
   0 -18  -7  459.05   49.80
   0 -18   7  468.45   32.10
   0 -18   7  499.85   41.10
   0  18  -7  472.55   32.90
   0  18   7  437.86   34.30
   0  18  -7  491.25   45.20
   2 -18   7  230.78   19.20
  -2  18  -7  219.98   18.60
   4 -18   7  673.13   49.80
  -4  18  -7  746.73   48.10
   3 -19  -7   37.90   17.50
  -3 -19   7   25.40    7.00
  -3 -19   7    8.30   19.60
  -3  19   7   40.40   14.30
  -3  19   7   37.40   10.00
   3  19  -7   30.90   11.10
   3  19  -7   29.80   23.00
  -1 -19   7   12.90    4.90
  -1 -19   7   26.20   16.70
   1  19  -7    7.90   21.30
   1  19  -7   13.90    6.20
   1 -19   7   13.50    4.90
   1 -19   7   11.20   14.20
  -1  19  -7   26.70   22.50
   1  19   7   22.70    7.90
  -1  19  -7    7.50    5.30
  -3 -19  -7   -4.40   14.80
   3 -19   7   17.60    6.90
  -3  19  -7   32.60   26.60
  -3  19  -7   14.90    6.00
  -4 -20   7  797.22   52.49
   4 -20  -7  716.83   59.39
  -4 -20   7  846.42   63.99
   4  20  -7  746.63   55.59
   4  20  -7  744.73   64.09
  -4  20   7  785.22   58.19
  -4  20   7  727.83   53.69
  -2 -20   7  456.25   33.70
   2 -20  -7  494.65   42.70
  -2 -20   7  517.35   46.00
  -2  20   7  499.65   38.60
   2  20  -7  498.75   50.29
   2  20  -7  487.65   35.70
   0 -20  -7  416.76   37.50
   0 -20   7  515.05   40.40
   0 -20   7  410.96   29.10
   0  20  -7  409.66   30.00
   0  20   7  373.96   31.70
   2 -20   7  347.87   27.10
  -2  20  -7  366.46   26.70
  -2  20  -7  396.26   44.90
   4 -20   7  470.05   40.60
  -4  20  -7  581.74   37.90
  -4  20  -7  531.25   58.49
  -3 -21   7   40.20   20.90
  -3 -21   7   18.00    6.30
   3 -21  -7   23.20   18.20
  -3  21   7   21.20   13.80
   3  21  -7   29.50   11.90
  -3  21   7    8.70   10.00
   3  21  -7   63.79   24.90
  -1 -21   7   32.80    6.10
   1 -21  -7   51.09   16.20
  -1 -21   7   38.10   19.20
  -1  21   7   39.60   11.30
   1  21  -7   38.90   24.70
   1 -21   7    2.80   15.50
  -1 -21  -7   10.70   13.90
   1 -21   7    1.10    4.50
  -1  21  -7   -9.00   24.40
   1  21   7    4.90    7.60
  -1  21  -7    6.20    5.30
   3 -21   7   74.89   10.40
  -3  21  -7  109.39   30.70
  -3  21  -7   55.69    8.60
  -4 -22   7  669.43   59.99
  -4 -22   7  664.13   48.20
   4 -22  -7  755.92   56.49
  -4  22   7  706.53   50.29
   4  22  -7  683.93   51.89
   4  22  -7  721.03   63.69
  -2 -22   7  413.06   28.80
   2 -22  -7  353.36   38.20
  -2 -22   7  444.56   43.90
   2  22  -7  456.85   46.80
  -2  22   7  347.57   33.50
   0 -22  -7 1008.80   66.59
   0 -22   7  847.82   60.09
   0 -22   7  967.20   68.99
   0  22   7  982.50   62.49
   0  22  -7  980.10   73.29
   0  22  -7  825.42   60.89
  -2 -22  -7  273.97   31.80
   2 -22   7  307.07   24.40
  -2  22  -7  329.67   24.00
  -3 -23   7  127.29   27.20
   3 -23  -7  156.48   24.30
  -3 -23   7  123.49   15.40
   3  23  -7  128.89   21.00
   3  23  -7  124.59   29.70
  -3  23   7  140.29   18.90
  -3  23   7  153.18   24.60
   1 -23  -7   44.20   17.00
  -1 -23   7   17.00   20.80
   1  23  -7   43.90   25.70
  -1  23   7   75.29   13.60
   1 -23   7   68.49   19.90
   1 -23   7   72.59   11.20
  -1  23  -7   52.99    8.30
  -1  23  -7   32.50   26.70
  -3 -23  -7  133.59   26.60
   3 -23   7  124.09   17.50
  -3  23  -7  109.99   15.60
  -3  23  -7  125.19   32.90
   4 -24  -7  370.26   39.30
  -4 -24   7  297.67   27.20
  -4 -24   7  338.97   45.50
   4  24  -7  307.17   32.80
  -4  24   7  334.97   31.20
   4  24  -7  319.57   50.09
  -2 -24   7  819.52   57.49
  -2 -24   7  925.81   69.09
   2 -24  -7  873.91   64.29
   2  24  -7  857.71   70.49
  -2  24   7  840.52   60.19
   0 -24  -7  353.36   32.50
   0 -24   7  252.97   22.00
   0  24  -7  256.87   23.40
   0  24   7  343.37   26.00
  -2 -24  -7  892.81   68.59
   2 -24   7  997.60   64.49
   2 -24   7  994.00   69.09
  -2  24  -7 1047.60   78.99
  -2  24  -7  987.30   64.29
   3 -25  -7  -18.80   18.20
  -3 -25   7  -18.30   23.30
  -3 -25   7   -9.20    5.60
  -3  25   7    2.40   13.40
   3  25  -7   -2.70   12.00
  -3  25   7  -14.40   10.00
   3  25  -7  -23.60   27.40
  -1 -25   7   66.69   24.30
   1 -25  -7   84.69   21.80
  -1  25   7   91.59   15.00
  -1 -25  -7   93.09   18.90
   1 -25   7  175.68   26.10
   1 -25   7  147.79   15.00
  -1  25  -7  129.89   16.10
  -1  25  -7  208.08   33.70
  -3 -25  -7   12.20   17.50
  -3  25  -7   -0.40    6.30
  -3  25  -7    4.10   31.30
  -2 -26   7  582.74   52.49
  -2 -26   7  464.35   36.00
  -2  26   7  504.75   40.90
   2  26  -7  567.14   55.29
   0 -26   7 1018.50   73.39
   0 -26  -7 1016.90   68.19
   0  26  -7  822.72   62.69
   0  26   7  981.70   64.49
   0  26  -7  956.20   77.89
   2 -26   7  405.26   38.20
  -2 -26  -7  372.06   35.80
   2 -26   7  288.27   26.70
  -2  26  -7  340.37   26.90
  -2  26  -7  376.56   51.19
  -3 -27   7   10.00    6.70
  -3 -27   7   -6.70   24.70
  -3  27   7   23.90   14.90
   3  27  -7   25.20   13.70
   3  27  -7   37.30   30.70
  -3  27   7   47.90   12.50
  -1 -27   7   69.29   25.60
  -1  27   7   77.29   14.10
   1  27  -7   47.10    9.40
   1 -27   7   36.90   22.40
  -1 -27  -7   17.80   15.40
  -1  27  -7   64.19   30.10
  -1  27  -7   22.60    7.40
  -3 -27  -7    6.30   17.30
  -3  27  -7   23.40    7.60
  -3  27  -7   59.79   34.30
  -2 -28   7  597.44   44.90
  -2 -28   7  736.03   62.59
   2  28  -7  748.93   67.19
  -2  28   7  653.03   50.19
   0 -28  -7  420.36   36.90
   0 -28   7  373.56   46.10
   0  28   7  347.67   31.20
  -2 -28  -7  559.94   50.59
   2 -28   7  722.93   54.89
   2 -28   7  620.74   45.50
  -2  28  -7  654.53   44.50
  -2  28  -7  696.73   67.19
  -3 -29   7    5.70    6.70
  -3 -29   7   23.20   49.20
   3  29  -7    6.20   14.60
  -3  29   7   18.40   23.10
  -1 -29   7   45.80   26.70
   1  29  -7    9.30    7.80
  -1  29   7   22.90   11.80
  -1 -29  -7    5.90   16.20
   1 -29   7   37.00   24.90
  -1  29  -7    3.90   32.90
  -1  29  -7   17.10    7.60
  -2 -30   7  699.13   60.19
  -2 -30   7  568.14   41.20
  -2  30   7  613.84   47.00
  -2  30   7  569.44   41.10
   0 -30   7  484.65   50.99
   0 -30  -7  446.06   39.80
   0  30  -7  382.86   32.00
   0  30   7  414.06   34.40
   2 -30   7  461.25   47.00
  -2 -30  -7  456.95   41.20
  -2  30  -7  384.66   33.70
  -2  30  -7  479.75   61.39
  -1 -31   7    0.60    7.20
  -1 -31   7   17.90   27.70
  -1  31   7    7.20   11.50
   1  31  -7  -11.80    7.70
   1 -31   7   -6.00   25.00
  -1 -31  -7  -16.10   16.50
  -1  31  -7    4.80    7.30
  -1  31  -7    3.90   34.20
  -2 -32   7  426.56   33.00
  -2  32   7  491.35   42.30
   0 -32  -7  470.75   43.30
   0  32   7  499.05   38.50
   0  32  -7  455.75   35.70
  -1 -33   7    4.10   30.10
  -1 -33   7   -3.80    5.80
  -1  33   7   22.50   13.80
   1  33  -7   -4.80    9.80
  -4   0   8  319.87   35.70
   4   0  -8  336.37   31.20
   4   0  -8  321.47   40.10
   2   0  -8  937.01   65.99
  -2   0   8  949.40   64.39
   2   0  -8  854.31   58.89
  -2   0   8  865.41   58.89
   0   0  -8 1039.40   70.39
   0   0   8  936.51   63.99
   0   0   8 1051.39   67.59
   2   0   8  714.13   44.50
  -2   0  -8  643.94   51.49
  -4   0  -8  378.56   34.40
   5  -1  -8  -13.30   20.10
  -5  -1   8    4.10   18.30
  -5  -1   8  -11.70   10.40
   5   1  -8  -11.00   15.80
  -5   1   8   -4.50   11.10
  -5   1   8    3.40   18.50
   5   1  -8    2.10   21.10
   3  -1  -8   -6.80   18.50
   3  -1  -8   21.10   10.90
  -3  -1   8   24.60   15.30
   3   1  -8   -5.40   18.60
   3   1  -8   30.10   10.50
  -3   1   8    6.90   14.80
  -1  -1   8    4.90    4.40
  -1  -1   8   16.50   11.40
  -1   1   8   16.50   11.10
  -1   1   8   -0.10    4.10
   1  -1   8   21.50    9.90
   1  -1   8   22.40    4.70
  -1  -1  -8   25.90   15.80
  -1   1  -8   47.30   16.30
   1   1   8   20.60    4.70
  -3   1  -8    9.60    4.90
   3   1   8    5.40    5.50
  -4  -2   8  314.87   34.40
   4  -2  -8  268.67   36.40
   4   2  -8  308.57   29.00
  -4   2   8  305.77   34.20
  -4   2   8  227.58   23.40
   4   2  -8  292.17   37.10
   2  -2  -8  842.42   60.59
  -2  -2   8  726.33   53.19
  -2   2   8  804.12   53.39
   2   2  -8  805.82   60.69
  -2   2   8  858.01   58.29
   0  -2   8 1027.00   68.99
   0  -2  -8 1182.88   72.29
   0  -2   8  966.00   65.69
   0   2  -8  941.21   71.49
   0   2   8 1055.09   65.59
   2  -2   8  642.04   41.20
  -2  -2  -8  648.54   48.30
  -2   2  -8  624.64   49.20
  -2   2  -8  593.94   41.30
   4  -2   8  370.86   28.60
  -4  -2  -8  328.47   32.80
  -4   2  -8  399.96   35.40
  -4   2  -8  387.56   27.00
   5  -3  -8    5.70   23.20
  -5  -3   8    2.20   18.70
  -5   3   8   26.00   12.10
  -5   3   8   28.10   19.00
   5   3  -8    2.70   22.30
   5   3  -8    7.40   16.90
  -3  -3   8   32.90    8.10
   3  -3  -8   46.60   20.50
  -3  -3   8   45.50   17.20
  -3   3   8   66.09   16.60
   3   3  -8   29.40   11.20
   3   3  -8   41.40   20.20
  -1  -3   8   34.80    5.80
  -1  -3   8   37.50   12.90
   1  -3  -8   55.39   26.50
   1   3  -8   24.20   22.60
  -1   3   8   39.40   12.60
  -1   3   8   27.40    5.50
   1  -3   8   17.20    9.80
   1  -3   8   12.70    4.10
  -1  -3  -8   26.10   15.10
  -1   3  -8   37.40   16.80
  -1   3  -8    7.80    4.70
   3  -3   8   12.90    5.90
  -3   3  -8   10.70    5.30
  -3   3  -8   13.70   18.00
   4  -4  -8  417.56   42.80
  -4  -4   8  452.05   41.60
   4   4  -8  450.45   36.90
   4   4  -8  417.16   43.30
  -4   4   8  424.26   40.20
  -4   4   8  416.26   32.40
  -2  -4   8  681.13   48.40
   2  -4  -8  603.14   49.50
   2   4  -8  559.34   41.60
  -2   4   8  572.64   41.30
  -2   4   8  644.54   46.80
   2   4  -8  589.64   49.70
   0  -4   8  747.73   58.59
   0  -4  -8 1001.00   65.59
   0   4   8  915.91   58.59
   0   4   8 1038.00   62.29
   2  -4   8  598.54   39.80
  -2  -4  -8  673.53   47.50
  -2   4  -8  561.74   47.80
  -2   4  -8  580.34   39.90
   4  -4   8  314.27   26.70
  -4   4  -8  307.07   24.00
  -4   4  -8  356.46   34.90
  -5  -5   8   -4.80   18.80
   5  -5  -8  -33.50   21.10
   5   5  -8  -21.50   21.70
   5   5  -8  -13.30   16.60
  -5   5   8   16.50   12.00
  -5   5   8    5.40   17.50
  -3  -5   8   10.60   15.80
   3  -5  -8    3.90   19.30
  -3  -5   8  -10.60    6.20
   3   5  -8   -3.30   10.70
  -3   5   8    3.70   13.80
   3   5  -8    6.50   19.50
  -1  -5   8   37.00    6.00
  -1  -5   8   45.00   13.70
   1  -5  -8   64.39   18.90
   1   5  -8   35.60    7.30
  -1   5   8   57.79   13.20
  -1   5   8   47.90    6.30
   1   5  -8   39.20   18.80
   1  -5   8   89.59   10.60
  -1  -5  -8   92.79   18.30
   1  -5   8   93.09   16.40
  -1   5  -8   93.39   19.30
  -1   5  -8   69.69   11.50
   1   5   8  108.59   14.40
   3  -5   8   16.90    6.30
  -3   5  -8   30.90   18.90
  -3   5  -8   19.00    5.60
  -4  -6   8  382.16   39.20
  -4  -6   8  394.76   31.60
   4  -6  -8  389.26   42.30
  -4   6   8  364.66   37.70
   4   6  -8  434.66   42.90
  -4   6   8  332.57   30.00
   4   6  -8  431.66   34.90
  -2  -6   8  851.11   57.09
   2  -6  -8  894.91   63.29
  -2  -6   8  860.91   61.99
   2   6  -8  800.12   63.69
  -2   6   8  855.81   60.39
   2   6  -8  837.62   56.29
   0  -6  -8  667.43   54.79
   0   6   8  741.73   47.80
   0   6   8  629.34   43.80
  -2  -6  -8  631.64   44.90
   2  -6   8  548.85   36.50
  -2   6  -8  477.45   45.60
  -2   6  -8  516.65   36.50
   4  -6   8  347.47   35.10
  -4   6  -8  325.67   36.20
  -4   6  -8  331.77   25.40
   5  -7  -8   38.00   22.30
  -5  -7   8   18.80   18.90
  -5   7   8   39.90   19.40
  -5   7   8   32.90   13.30
   5   7  -8    6.00   23.70
   5   7  -8   25.40   17.80
  -3  -7   8   33.30   15.90
  -3  -7   8   31.80    7.40
   3   7  -8    9.60   20.00
   3   7  -8   39.60   11.60
  -1  -7   8   34.40    6.00
  -1  -7   8   49.20   14.30
   1   7  -8   49.80   19.50
   1   7  -8   48.90    7.80
  -1  -7  -8   27.80   15.90
   1  -7   8    7.40    9.60
   1  -7   8    6.50    4.20
  -1   7  -8   10.20   17.30
  -1   7  -8    5.60    5.10
   3  -7   8    3.40    6.30
  -3   7  -8    1.60   18.80
  -3   7  -8    5.20    5.30
   4  -8  -8  522.65   49.70
  -4  -8   8  540.85   48.30
   4   8  -8  507.15   49.70
   4   8  -8  600.84   43.70
  -4   8   8  524.45   39.50
  -4   8   8  572.24   46.90
  -2  -8   8  555.74   38.30
   2  -8  -8  612.44   47.50
   2   8  -8  591.04   49.00
   2   8  -8  487.15   38.40
  -2   8   8  557.84   43.50
   0  -8   8  484.55   36.20
   0   8   8  597.34   35.70
   2  -8   8  399.96   29.10
  -2  -8  -8  445.46   38.40
  -2   8  -8  399.66   40.50
  -2   8  -8  420.46   29.50
   4  -8   8  402.86   31.80
  -4   8  -8  402.86   29.50
   5  -9  -8   -4.50   21.20
  -5  -9   8   32.70   20.30
   5   9  -8  -15.90   17.00
  -5   9   8   18.50   13.50
   5   9  -8  -28.60   22.10
  -5   9   8   25.60   18.40
   3  -9  -8   30.60   19.50
  -3  -9   8   42.60    8.20
  -3  -9   8   43.10   17.90
   3   9  -8   25.30   11.40
   3   9  -8   60.69   21.40
  -3   9   8   17.80   14.80
  -1  -9   8   -0.90    5.60
  -1  -9   8   14.10   12.30
   1  -9  -8   11.40   16.20
  -1   9   8   -1.70    4.40
   1   9  -8   11.50    6.30
  -1   9   8    4.20   11.20
   1   9  -8    5.50   18.10
   1  -9   8    1.50   11.10
  -1  -9  -8   21.60   16.10
   1  -9   8   -0.10    4.20
   1   9   8    6.50    8.30
  -1   9  -8   -5.70    4.60
  -1   9  -8    6.80   24.10
   3  -9   8   -2.60   11.30
  -3  -9  -8   12.40   17.00
  -3   9  -8    0.50   21.10
  -3   9  -8   -5.80    5.10
  -4 -10   8  398.06   40.40
   4 -10  -8  321.07   40.40
   4  10  -8  365.16   41.70
  -4  10   8  307.37   29.30
  -4  10   8  293.77   36.20
   4  10  -8  412.86   34.30
   2 -10  -8  857.81   61.49
  -2 -10   8  792.92   53.59
  -2 -10   8  842.52   60.99
   2  10  -8  743.83   62.09
   2  10  -8  744.43   54.09
  -2  10   8  899.51   58.29
   0 -10   8  249.48   20.40
   0 -10   8  271.87   28.70
   0 -10  -8  322.87   40.70
   0  10  -8  280.77   36.40
  -2 -10  -8  561.54   44.10
   2 -10   8  522.85   35.80
  -2  10  -8  438.26   47.50
  -2  10  -8  544.45   36.00
   4 -10   8  500.95   37.00
  -4  10  -8  476.95   34.70
   3 -11  -8   66.99   20.40
  -3 -11   8   20.90   16.50
  -3 -11   8   11.00    6.60
   3  11  -8   19.90   11.20
   3  11  -8   31.10   21.10
  -1 -11   8   45.90    6.90
   1 -11  -8   97.59   19.50
  -1 -11   8   56.49   15.40
  -1  11   8   79.39   14.00
   1  11  -8   69.19   19.60
  -1  11   8   52.29    7.10
   1  11  -8   47.60    9.00
  -1 -11  -8   13.80   18.50
   1 -11   8    0.40    4.50
   1 -11   8   -6.90   11.80
  -1  11  -8  -16.70   29.20
  -1  11  -8    1.00    5.00
   3 -11   8    5.00    6.50
  -3  11  -8   11.50   23.10
  -3  11  -8    1.70    5.50
   4 -12  -8  449.06   48.10
  -4 -12   8  537.65   47.90
  -4  12   8  501.35   38.20
  -4  12   8  509.55   45.20
   4  12  -8  544.85   41.80
   4  12  -8  465.25   49.30
  -2 -12   8  282.17   24.40
   2 -12  -8  374.66   36.50
  -2 -12   8  362.56   35.50
   2  12  -8  278.37   25.40
  -2  12   8  359.66   31.60
   0 -12  -8  633.54   46.90
   0 -12   8  508.05   43.80
   0  12  -8  569.14   49.99
   0  12   8  624.04   41.80
   0  12  -8  539.45   39.40
   2 -12   8  475.85   38.20
  -2 -12  -8  641.14   45.50
  -2  12  -8  531.45   37.30
   4 -12   8  509.05   38.70
  -4  12  -8  521.05   36.70
   3 -13  -8   20.60   18.60
  -3 -13   8   38.90    8.90
  -3 -13   8   47.50   20.10
  -3  13   8   13.20   15.10
   3  13  -8   68.69   23.30
   3  13  -8   19.60   11.20
  -1 -13   8   -8.90   14.30
  -1 -13   8    7.30    4.90
   1 -13  -8    3.50   16.30
   1  13  -8   25.00   20.20
  -1  13   8   -1.20   10.70
   1 -13   8   -3.30    4.70
   1 -13   8  -11.40   12.40
  -1  13  -8  -10.50   20.50
  -1  13  -8   -5.80    5.30
   1  13   8    1.60    8.00
   3 -13   8   -2.30    6.70
  -3  13  -8    7.50   32.50
  -3  13  -8    1.50    5.60
  -4 -14   8  525.95   46.70
   4 -14  -8  422.36   45.90
   4  14  -8  454.55   38.60
  -4  14   8  379.76   34.50
  -4  14   8  411.86   41.70
   4  14  -8  451.05   48.70
   2 -14  -8  603.64   50.99
  -2 -14   8  659.23   53.09
  -2 -14   8  650.03   43.10
   2  14  -8  630.54   44.20
   2  14  -8  654.63   54.69
  -2  14   8  612.84   47.40
   0 -14   8  322.87   25.10
   0 -14   8  343.67   34.00
   0  14  -8  379.46   41.50
   0  14  -8  314.07   26.40
   0  14   8  411.36   29.60
   2 -14   8  359.96   27.90
  -2  14  -8  397.16   28.20
  -2  14  -8  393.86   42.70
   4 -14   8  528.25   39.70
  -4  14  -8  523.75   37.50
  -3 -15   8   22.10   20.00
   3 -15  -8  -17.10   18.60
   3  15  -8   19.70   22.20
  -3  15   8   -0.30   14.80
   3  15  -8    8.60   10.70
   1 -15  -8   20.10   18.10
  -1 -15   8   31.80   18.40
  -1 -15   8   45.00    6.70
   1  15  -8   42.70   23.10
  -1  15   8   25.80   11.80
  -1 -15  -8   -2.20   17.00
   1 -15   8   -4.00   11.90
   1 -15   8    1.10    4.50
  -1  15  -8   -0.10    5.60
  -1  15  -8   19.10   22.70
   3 -15   8    3.00    6.90
  -3 -15  -8   47.50   25.40
  -3  15  -8   -0.90    6.00
  -3  15  -8   10.30   24.90
  -4 -16   8  654.33   56.59
   4 -16  -8  556.94   54.59
   4  16  -8  696.83   49.20
  -4  16   8  630.54   51.79
  -4  16   8  551.34   45.20
   4  16  -8  662.63   58.29
   2 -16  -8  468.65   40.50
  -2 -16   8  377.86   29.00
  -2 -16   8  414.46   42.10
   2  16  -8  339.37   30.80
   2  16  -8  462.35   44.90
   0 -16  -8  254.47   34.70
   0 -16   8  295.57   22.90
   0 -16   8  348.17   33.50
   0  16  -8  306.67   24.20
   0  16   8  288.27   26.90
   0  16  -8  351.16   40.20
   2 -16   8  179.58   18.40
  -2 -16  -8  223.48   31.30
  -2  16  -8  203.68   19.10
  -2  16  -8  288.57   39.90
  -3 -17   8   16.70   20.70
   3 -17  -8   30.50   19.50
   3  17  -8    4.90   24.50
  -3  17   8    0.50   14.80
   3  17  -8  -10.50   10.90
   1 -17  -8   13.10   16.90
  -1 -17   8    7.40    5.10
  -1 -17   8   17.10   18.70
  -1  17   8   -7.00   11.00
   1  17  -8    9.50   23.00
   1 -17   8   -1.90    4.60
   1 -17   8   -5.60   13.50
  -1 -17  -8    3.50   16.40
  -1  17  -8    4.40   23.30
  -1  17  -8   -3.60    5.30
   1  17   8   -2.20    8.10
   3 -17   8   55.19    9.90
  -3 -17  -8   49.20   26.30
  -3  17  -8   58.69    9.00
  -3  17  -8   88.69   29.20
   4 -18  -8  724.43   61.89
  -4 -18   8  792.92   64.29
   4  18  -8  719.13   66.69
  -4  18   8  693.23   53.29
  -4  18   8  855.21   59.89
   4  18  -8  754.62   56.69
  -2 -18   8  292.07   39.10
  -2 -18   8  267.77   25.30
  -2  18   8  334.47   31.10
   2  18  -8  306.87   26.60
   2  18  -8  357.56   44.10
   0 -18   8  393.36   26.60
   0 -18  -8  361.96   38.00
   0  18  -8  379.16   28.00
   0  18   8  307.27   29.60
   2 -18   8  258.47   21.30
  -2 -18  -8  230.28   34.30
  -2  18  -8  330.47   42.70
  -2  18  -8  244.08   22.00
   3 -19  -8   60.49   20.30
  -3 -19   8   90.39   25.20
   3  19  -8   75.49   14.70
  -3  19   8   70.99   18.10
   3  19  -8   64.79   27.70
  -1 -19   8   25.70   20.40
   1 -19  -8   45.20   18.50
  -1 -19   8   31.30    6.40
  -1  19   8   26.80   12.90
   1 -19   8   33.20   16.80
   1 -19   8   12.30    5.40
  -1 -19  -8   19.70   18.40
   1  19   8    4.60    8.80
  -1  19  -8   31.30   25.40
  -1  19  -8   22.00    6.70
  -3 -19  -8   65.89   21.30
   3 -19   8   61.99   10.10
  -3  19  -8   45.70    8.80
  -3  19  -8   83.99   30.20
  -2 -20   8  330.67   42.60
   2  20  -8  355.46   45.20
   2  20  -8  303.27   27.60
  -2  20   8  344.97   32.80
   0 -20   8  681.13   51.69
   0 -20  -8  537.25   48.90
   0 -20   8  569.84   39.70
   0  20  -8  575.64   41.30
   0  20   8  544.25   43.10
   0  20  -8  659.03   55.99
  -2 -20  -8  389.86   42.30
   2 -20   8  438.96   31.80
  -2  20  -8  459.35   32.40
   3 -21  -8   71.19   26.40
  -3 -21   8   66.39   26.60
  -3  21   8  106.69   19.30
   3  21  -8   60.29   29.50
   3  21  -8   61.69   15.30
  -1 -21   8   -1.00   21.10
  -1 -21   8    2.10    5.10
   1 -21  -8    0.90   18.00
  -1  21   8   27.80   12.70
   1 -21   8   48.80   19.70
  -1  21  -8   24.90    7.40
  -1  21  -8   49.40   27.20
  -3  21  -8   45.90    8.80
  -3  21  -8   82.59   34.10
  -2 -22   8  514.75   49.80
   2  22  -8  418.06   35.10
   2  22  -8  482.65   52.29
  -2  22   8  436.56   39.00
   0 -22   8  510.45   34.50
   0 -22  -8  506.45   45.10
   0  22  -8  511.15   36.00
   0  22   8  441.76   38.00
   2 -22   8  776.72   54.39
  -2 -22  -8  870.91   62.49
  -2  22  -8  817.52   72.29
  -2  22  -8  798.22   54.79
  -3 -23   8    0.50   25.80
   3  23  -8  -18.00   12.50
  -3  23   8   -5.60   15.40
  -1 -23   8  -22.00   23.20
  -1  23   8    7.90   12.20
   1 -23   8   22.80   21.00
  -1 -23  -8   26.20   18.90
   1 -23   8    8.60    6.00
  -1  23  -8   10.60   28.80
   1  23   8   23.30   10.10
  -1  23  -8    9.70    7.30
  -2 -24   8  455.55   50.59
   2  24  -8  382.16   34.30
  -2  24   8  439.96   38.30
   0 -24  -8  715.63   53.89
   0 -24   8  566.34   43.60
   0  24   8  648.34   46.90
   0  24  -8  774.62   65.69
   0  24  -8  594.24   44.90
  -2 -24  -8  312.47   37.10
   3  25  -8    4.70   14.00
  -1 -25   8   30.80   26.70
  -1  25   8   36.90   14.10
   1  25  -8    9.20    8.40
   1 -25   8   15.90   22.10
  -1  25  -8   16.00    8.00
  -1  25  -8    8.20   32.10
  -2 -26   8  555.44   54.59
  -2  26   8  421.26   40.20
   0 -26   8  521.15   49.10
   0 -26  -8  420.56   43.10
   0  26  -8  360.16   32.00
   0  26   8  393.76   34.10
   0  26  -8  452.05   59.69
   2 -26   8  500.55   47.00
  -2 -26  -8  467.95   45.70
  -2  26  -8  481.85   36.40
  -2  26  -8  515.75   66.19
  -1 -27   8    4.40   28.00
  -1  27   8   -5.10   12.90
   1  27  -8  -13.10    8.00
   1 -27   8  -22.50   24.20
  -1 -27  -8   15.80   19.20
  -1  27  -8  -26.00   33.70
  -1  27  -8   12.20    8.00
  -2  28   8  508.05   44.40
   0 -28   8  512.75   52.99
   0 -28  -8  525.25   46.20
   0  28   8  437.46   36.40
   0  28  -8  358.86   33.70
   0  28  -8  405.56   72.19
  -1 -29   8   14.00   30.50
  -1  29   8    5.60   13.20
   1  29  -8  -10.10   11.40
   4   0  -9  335.37   45.40
  -4   0   9  360.56   41.10
  -2   0   9  496.05   41.90
   2   0  -9  453.15   48.80
  -2   0   9  442.06   33.50
   0   0   9  928.91   63.79
   0   0  -9  951.40   68.09
   0   0   9  882.61   59.09
  -2   0  -9  442.56   41.90
  -2   0  -9  393.06   29.70
  -3  -1   9    1.80    7.60
   3  -1  -9    2.60   20.70
  -3  -1   9  -16.50   16.80
   3   1  -9   13.00   12.50
  -3   1   9   10.60    7.30
  -3   1   9    8.40   16.80
   3   1  -9    0.50   21.10
  -1  -1   9   14.40    5.90
   1  -1  -9   32.30   20.40
  -1  -1   9   29.30   14.50
  -1   1   9   31.50   14.80
   1   1  -9   20.90   20.50
  -1   1   9   30.10    6.20
  -1  -1  -9   22.90   19.50
   1  -1   9   10.70    4.90
   1  -1   9   11.00   11.20
  -1   1  -9   24.90   19.20
   1   1   9   27.10   11.10
   1   1   9   12.80    4.70
   3  -1   9    3.60    6.30
   4  -2  -9  325.77   43.00
  -4  -2   9  306.27   40.10
   4   2  -9  286.87   42.20
  -4   2   9  334.87   40.10
   4   2  -9  327.67   32.80
  -2  -2   9  417.36   39.50
   2  -2  -9  427.06   49.70
  -2  -2   9  408.06   30.70
   2   2  -9  430.66   45.40
  -2   2   9  433.46   38.80
  -2   2   9  387.16   30.80
   0  -2  -9  976.70   64.39
   0  -2   9  749.33   54.29
   0   2   9  881.31   58.79
   0   2  -9  755.82   63.49
   0   2   9  845.22   54.19
  -2  -2  -9  503.65   43.50
   2  -2   9  423.06   30.30
  -2   2  -9  417.16   31.30
  -2   2  -9  431.96   41.60
  -3  -3   9   -6.00    7.10
  -3  -3   9  -21.10   17.00
   3  -3  -9  -36.80   21.50
   3   3  -9   -7.60   12.60
  -3   3   9   -0.90   15.60
   3   3  -9   -8.20   21.70
  -1  -3   9    9.30   14.40
   1  -3  -9    1.80   18.80
  -1   3   9   10.40   13.70
   1   3  -9    9.40   20.10
  -1   3   9    3.40    4.90
  -1  -3  -9    3.30   19.10
   1  -3   9    1.40    4.50
   1   3   9   15.50   10.10
  -1   3  -9   18.70   20.00
   1   3   9    1.20    4.40
   3  -3   9    0.80    6.80
  -3   3  -9    3.60    6.30
  -3   3  -9   -4.20   27.30
   4  -4  -9  315.57   43.10
  -4  -4   9  369.76   41.70
   4   4  -9  331.27   45.20
  -4   4   9  374.26   40.30
   4   4  -9  359.46   34.90
  -2  -4   9  521.45   35.70
  -2  -4   9  521.25   44.20
  -2   4   9  461.95   37.70
   2   4  -9  496.25   50.79
   2   4  -9  495.25   36.80
  -2   4   9  513.85   43.10
   0  -4   9  496.75   37.50
   0  -4   9  498.15   42.90
   0   4  -9  579.04   49.80
   0   4   9  661.53   43.40
   0   4   9  559.74   37.10
   2  -4   9  417.16   30.90
  -2  -4  -9  482.55   43.60
  -2   4  -9  432.16   31.70
  -2   4  -9  466.05   43.90
   3  -5  -9  -10.80   22.30
  -3  -5   9   -1.00    6.90
  -3  -5   9   -0.80   18.30
   3   5  -9   -0.10   12.50
   3   5  -9   16.60   23.40
  -3   5   9   11.50   16.70
   1  -5  -9   83.79   22.30
  -1  -5   9   19.00   15.70
  -1   5   9   52.69    7.30
   1   5  -9   29.80   20.20
  -1   5   9   68.09   16.50
  -1  -5  -9   29.10   20.00
  -1   5  -9   -1.50   20.70
   1   5   9   13.50    9.80
   3  -5   9    4.30    7.50
  -3   5  -9    6.10   22.80
  -3   5  -9   -5.30    6.40
  -4  -6   9  342.67   42.20
   4  -6  -9  292.17   43.10
  -4   6   9  318.67   39.00
   4   6  -9  275.27   43.40
   4   6  -9  379.96   35.30
  -2  -6   9  519.15   44.40
  -2  -6   9  477.55   35.30
  -2   6   9  515.95   42.90
   2   6  -9  533.85   61.79
   2   6  -9  469.25   36.50
   0  -6  -9  745.23   53.79
   0  -6   9  550.34   48.30
   0  -6   9  580.44   45.00
   0   6   9  680.33   42.40
   0   6  -9  553.14   53.19
   0   6   9  758.52   48.20
  -2  -6  -9  449.95   41.30
   2  -6   9  358.76   28.10
  -2   6  -9  399.66   41.50
  -2   6  -9  379.46   28.80
  -3  -7   9    3.70    7.10
   3  -7  -9   -2.90   22.20
  -3  -7   9   -3.10   19.00
   3   7  -9    8.40   12.70
  -3   7   9    7.30   16.50
   3   7  -9  -21.90   21.90
   1  -7  -9   11.30   19.00
  -1  -7   9   29.90   16.70
  -1  -7   9   28.40    6.40
   1   7  -9   36.00   20.30
  -1   7   9   30.50   15.10
  -1  -7  -9   -0.40   19.20
   1  -7   9   -2.20    5.70
  -1   7  -9   20.20   21.80
  -1   7  -9   -9.40    5.80
   3  -7   9    5.40    7.80
  -3  -7  -9   -0.60   27.50
  -3   7  -9   11.30    7.50
  -3   7  -9   37.30   24.20
  -4  -8   9  499.25   49.50
   4  -8  -9  461.25   56.79
   4   8  -9  519.85   42.00
  -4   8   9  411.16   35.00
  -4   8   9  512.45   46.70
   4   8  -9  440.76   50.89
  -2  -8   9  440.66   32.30
  -2  -8   9  457.85   42.50
   2   8  -9  434.86   33.40
  -2   8   9  453.25   42.40
   0  -8   9  402.76   35.80
   0  -8   9  346.57   28.10
   0   8  -9  454.45   43.20
   2  -8   9  384.66   29.40
  -2   8  -9  331.07   42.70
  -2   8  -9  391.66   28.70
  -3  -9   9    4.10   17.70
  -3  -9   9   -1.80    7.40
   3  -9  -9   32.40   23.70
   3   9  -9    9.10   13.00
  -3   9   9   19.40   17.40
   3   9  -9   22.30   22.40
   1  -9  -9   31.10   19.90
  -1  -9   9   31.50   17.30
  -1  -9   9   13.10    5.70
  -1   9   9   15.50    5.50
   1   9  -9   13.90    8.20
   1   9  -9   24.30   21.80
  -1   9   9   14.10   14.10
   1  -9   9    7.10   12.50
   1  -9   9    0.80    5.10
  -1  -9  -9   25.80   19.90
  -1   9  -9   23.10   22.70
  -1   9  -9    8.10    6.90
   1   9   9   20.00   10.20
  -3  -9  -9    2.90   23.60
   3  -9   9   -1.90    7.20
  -3   9  -9    4.60    7.00
  -3   9  -9   28.50   26.50
  -4 -10   9  382.06   49.40
   4  10  -9  406.16   37.70
   4  10  -9  304.57   52.69
  -4  10   9  320.17   29.90
  -4  10   9  424.86   51.39
  -2 -10   9  292.17   35.10
  -2 -10   9  270.67   23.70
   2  10  -9  308.97   25.30
   0 -10   9  519.05   35.00
   0 -10   9  498.65   42.40
   0  10  -9  506.85   49.50
   2 -10   9  178.88   18.30
  -2 -10  -9  271.27   36.90
  -2  10  -9  159.98   31.10
  -2  10  -9  216.78   19.60
  -3 -11   9   18.50   20.30
  -3 -11   9   17.80    7.90
   3 -11  -9   18.90   24.20
   3  11  -9   11.40   24.40
   3  11  -9   16.00   12.80
  -3  11   9    6.00   17.70
  -1 -11   9   40.30   19.00
  -1 -11   9    2.00    5.60
   1 -11  -9   40.40   20.10
   1  11  -9   44.50   22.10
   1  11  -9   20.50    8.30
  -1  11   9   13.90    5.60
  -1  11   9   13.60   13.90
  -1 -11  -9   74.19   22.70
   1 -11   9   86.79   12.10
  -1  11  -9   48.30   25.50
  -1  11  -9   59.49    9.60
   1  11   9   82.09   16.20
  -3 -11  -9   19.30   23.60
   3 -11   9   -7.40    7.90
  -3  11  -9   11.60   26.70
  -3  11  -9    3.30    7.40
  -2 -12   9  312.57   25.50
  -2 -12   9  353.36   38.40
  -2  12   9  346.17   34.20
   2  12  -9  293.87   27.40
   0 -12   9  238.38   21.50
   0 -12  -9  314.47   37.70
   0 -12   9  259.77   32.10
   0  12   9  333.07   28.20
   0  12  -9  239.08   38.50
  -2 -12  -9  304.57   39.60
   2 -12   9  285.77   23.60
  -2  12  -9  288.37   42.20
  -2  12  -9  303.97   24.40
  -3 -13   9   -0.60   21.00
   3 -13  -9   10.70   28.10
  -3  13   9  -14.70   17.20
   3  13  -9    8.60   26.80
   3  13  -9   -3.30   12.50
  -1 -13   9   12.70   17.80
   1 -13  -9   16.50   19.70
  -1 -13   9   10.00    6.00
  -1  13   9    4.10    5.10
   1  13  -9    8.90    8.10
  -1  13   9    2.40   13.80
  -1 -13  -9   12.80   21.30
   1 -13   9    2.80    5.20
   1 -13   9    8.90   14.40
  -1  13  -9   25.20   24.20
  -1  13  -9    1.00    6.80
  -3 -13  -9   -6.30   23.00
   3 -13   9   20.40    8.70
  -3  13  -9   14.20    8.10
  -3  13  -9   30.30   28.70
  -2 -14   9  356.86   39.50
  -2 -14   9  295.27   24.50
  -2  14   9  293.27   33.30
   2  14  -9  288.07   26.40
   0 -14  -9  478.45   46.70
   0 -14   9  469.45   33.10
   0 -14   9  496.35   43.00
   0  14   9  441.26   38.00
   0  14  -9  492.45   48.60
  -2 -14  -9  101.79   26.10
   2 -14   9  126.99   16.40
  -2  14  -9  208.48   40.50
  -2  14  -9  165.98   17.90
  -3 -15   9  -10.70   21.80
  -3  15   9   -9.60   17.50
   3  15  -9    1.80   13.30
  -1 -15   9    7.20   19.90
  -1 -15   9   12.90    6.40
   1 -15  -9   20.00   21.00
  -1  15   9   13.90    6.00
  -1  15   9   39.80   14.90
  -1 -15  -9    9.10   20.90
   1 -15   9    8.70   16.40
   1 -15   9   -0.10    5.30
  -1  15  -9   29.40   26.30
  -1  15  -9    6.50    7.20
  -2 -16   9  419.66   42.30
  -2 -16   9  304.67   25.90
  -2  16   9  334.97   35.10
   2  16  -9  312.67   28.90
   0 -16   9  310.67   26.70
   0 -16  -9  434.46   42.20
   0 -16   9  376.26   38.10
   0  16  -9  343.27   29.30
   0  16  -9  418.66   46.20
   0  16   9  363.36   32.30
   2 -16   9  274.57   24.00
  -2  16  -9  288.27   25.50
  -2  16  -9  342.87   45.90
  -3 -17   9   36.90   26.00
   3  17  -9   12.60   14.20
  -3  17   9   18.20   18.10
  -1 -17   9    2.70    6.20
  -1 -17   9   30.00   21.40
   1 -17  -9    0.10   22.50
  -1  17   9    1.50   14.30
  -1 -17  -9   -0.20   22.20
   1 -17   9    8.60   18.20
   1 -17   9   16.80    6.20
  -1  17  -9   13.40    7.90
  -1  17  -9   10.10   27.80
  -2 -18   9  554.94   51.59
  -2  18   9  438.06   41.50
   2  18  -9  481.55   37.80
   0 -18   9  353.36   39.30
   0 -18  -9  386.36   41.70
   0 -18   9  286.67   25.10
   0  18  -9  419.66   48.80
   0  18  -9  303.67   27.80
   0  18   9  319.47   30.50
   2 -18   9  435.26   34.60
  -2 -18  -9  435.66   48.00
  -2  18  -9  507.65   35.90
  -2  18  -9  553.44   56.19
  -3  19   9   78.79   37.50
  -1 -19   9    8.20    6.40
   1 -19  -9   -2.00   29.50
  -1 -19   9    8.90   22.10
  -1  19   9   20.70   15.10
  -1 -19  -9  -23.50   21.80
   1 -19   9   -3.10    5.70
   1 -19   9    0.40   17.90
  -1  19  -9   -9.70    7.50
  -1  19  -9   28.60   29.60
  -2 -20   9  535.65   54.09
  -2  20   9  473.35   42.40
   2  20  -9  443.06   38.00
   0 -20   9  397.36   41.80
   0 -20   9  335.87   26.80
   0 -20  -9  310.47   42.00
   0  20   9  328.67   32.20
   0  20  -9  457.55   51.99
   0  20  -9  350.56   29.40
  -2 -20  -9  539.85   50.09
  -2  20  -9  488.55   59.69
  -2  20  -9  465.05   37.00
  -1 -21   9   -1.80   25.10
  -1  21   9   -6.70   14.30
   1 -21   9   10.50   20.80
  -1 -21  -9    7.50   22.90
   1  21   9   -9.00   11.00
  -1  21  -9   -6.20    7.70
  -1  21  -9  -14.20   31.50
  -2 -22   9  399.86   51.69
   2  22  -9  357.56   33.10
  -2  22   9  338.47   37.70
   0 -22   9  520.55   50.19
   0 -22  -9  425.36   47.30
   0  22  -9  549.85   58.99
   0  22   9  387.36   36.70
   0  22  -9  434.06   34.90
  -1 -23   9   44.20   28.00
  -1  23   9   19.90   14.70
  -1 -23  -9   -3.80   23.60
   1 -23   9  -11.70   23.60
  -1  23  -9   -8.80    8.30
  -1  23  -9   17.20   34.20
   0 -24  -9  381.96   46.50
   0 -24   9  481.65   51.09
   0  24  -9  406.26   33.50
   0  24  -9  488.55   57.99
   0  24   9  344.17   34.80
  -2   0  10  385.56   39.90
  -2   0  10  381.46   29.90
   0   0 -10  374.36   43.90
   0   0  10  348.47   35.00
   0   0  10  358.36   28.80
  -2   0 -10  290.57   43.70
   2   0  10  313.97   23.90
  -3  -1  10   -1.60    8.20
  -3  -1  10   12.80   21.00
   3   1 -10   19.30   14.80
  -3   1  10    0.70   20.10
  -3   1  10  -13.10    8.30
  -1  -1  10    6.40    6.10
   1  -1 -10   21.10   24.30
  -1  -1  10   13.30   17.80
  -1   1  10    4.60    6.00
   1   1 -10    8.20   24.10
  -1   1  10   19.70   17.70
   1  -1  10    8.50    5.60
  -1  -1 -10   24.80   23.90
   1  -1  10   -1.80   14.20
   1   1  10   -3.00   13.40
  -1   1 -10   -2.60   23.80
   1   1  10   -1.00    5.40
  -2  -2  10  304.07   26.80
  -2  -2  10  339.07   38.90
  -2   2  10  315.97   26.80
  -2   2  10  395.26   37.90
   0  -2 -10  373.86   44.70
   0  -2  10  388.06   28.40
   0  -2  10  376.56   36.80
   0   2 -10  393.16   44.60
   0   2  10  373.76   27.80
   0   2  10  349.17   36.30
  -2  -2 -10  290.07   43.40
   2  -2  10  297.17   23.10
  -2   2 -10  239.88   40.90
  -3  -3  10  -16.40   21.50
  -3   3  10   -5.70    8.40
   3   3 -10   -6.20   14.70
  -3   3  10   -2.30   20.50
   1  -3 -10   52.69   25.40
  -1  -3  10   14.20   17.80
  -1   3  10   14.30    6.40
  -1   3  10   20.50   17.80
   1   3 -10   12.70   23.50
  -1  -3 -10   25.90   24.20
  -1   3 -10   -1.90   24.80
   1   3  10   17.60    5.70
  -2  -4  10  290.07   27.20
  -2  -4  10  301.87   39.60
  -2   4  10  416.56   38.50
  -2   4  10  385.76   28.20
   0  -4 -10  398.86   46.70
   0  -4  10  419.06   38.70
   0  -4  10  432.76   30.40
   0   4  10  394.16   29.50
   0   4  10  405.56   38.00
   0   4 -10  420.66   45.00
   2  -4  10  235.28   23.70
  -2  -4 -10  240.78   42.80
  -2   4 -10  264.27   23.90
  -2   4 -10  295.07   42.90
  -3  -5  10   -8.60   23.90
  -3   5  10   -5.70    9.10
   3   5 -10   -4.10   15.20
  -3   5  10    3.60   21.30
   1  -5 -10  -10.20   23.40
  -1  -5  10    3.60    6.10
  -1  -5  10    8.50   18.20
   1   5 -10   -6.80   27.40
  -1   5  10  -10.40   16.10
   1  -5  10    0.10    5.50
  -1  -5 -10  -10.60   23.50
   1  -5  10   -4.60   14.40
  -1   5 -10   14.70   24.50
  -2  -6  10  184.38   21.80
  -2  -6  10  236.98   36.40
  -2   6  10  319.57   35.10
  -2   6  10  269.77   23.20
   0  -6  10  442.46   40.10
   0  -6  10  444.16   31.00
   0  -6 -10  383.76   47.30
   0   6 -10  494.05   47.30
   0   6  10  390.16   30.00
   0   6  10  419.96   37.80
  -2  -6 -10  396.56   44.80
   2  -6  10  312.67   25.40
  -2   6 -10  250.97   42.60
  -2   6 -10  325.17   27.50
   3   7 -10    6.20   15.90
  -3   7  10   -3.60   24.70
  -3   7  10   -4.40    9.00
   1  -7 -10  -26.70   23.40
  -1  -7  10   -0.20   19.40
  -1  -7  10   -3.10    5.80
   1   7 -10    9.30   40.70
  -1   7  10   -0.50   16.20
  -1   7  10    3.80    6.20
   1  -7  10    2.80    5.90
   1  -7  10   13.90   15.40
  -1  -7 -10    2.40   24.30
  -1   7 -10   18.60   25.30
  -2  -8  10  345.57   41.20
  -2  -8  10  305.97   27.40
   2   8 -10  321.87   30.50
  -2   8  10  384.36   28.40
  -2   8  10  373.16   38.90
   0  -8 -10  405.86   46.20
   0  -8  10  383.36   28.40
   0  -8  10  386.46   38.50
   0   8  10  362.76   35.90
   0   8  10  359.46   27.40
   0   8 -10  440.86   47.90
   2  -8  10  190.48   20.00
  -2  -8 -10  262.67   43.10
  -2   8 -10  205.38   22.30
   1  -9 -10    0.00   23.50
  -1  -9  10   -0.70    6.10
  -1  -9  10    0.80   20.50
  -1   9  10    5.90    5.70
  -1   9  10  -19.40   15.70
   1  -9  10   17.20    6.20
   1  -9  10   44.20   17.00
  -1  -9 -10   17.30   25.60
  -1   9 -10    9.40   26.90
  -2 -10  10  216.38   37.50
  -2 -10  10  153.18   20.30
  -2  10  10  198.48   21.50
   2  10 -10  197.38   23.60
  -2  10  10  254.07   34.10
   0 -10  10  471.85   41.40
   0 -10 -10  383.26   47.80
   0 -10  10  416.36   30.50
   0  10  10  370.66   36.80
   0  10 -10  443.86   50.29
   2 -10  10  185.58   19.30
  -2  10 -10  186.48   22.10
  -2  10 -10  180.48   34.20
   1 -11 -10    7.90   24.60
  -1 -11  10    0.40    6.50
  -1 -11  10    5.00   21.10
  -1  11  10   10.90   16.90
  -1  11  10    4.60    6.30
   1  11 -10    5.80    9.70
   1 -11  10   -0.40    5.90
  -1 -11 -10  -21.10   25.40
  -1  11 -10    0.60    9.10
  -1  11 -10   -7.00   27.50
  -2 -12  10  334.67   43.00
  -2  12  10  300.37   27.00
   2  12 -10  303.07   28.60
  -2  12  10  289.97   37.70
   0 -12 -10  427.36   50.09
   0 -12  10  425.66   32.70
   0 -12  10  486.05   43.80
   0  12 -10  504.45   52.89
   0  12  10  452.05   39.40
  -1 -13  10   14.10   22.50
   1 -13 -10   -7.30   25.00
  -1 -13  10  -11.00    6.30
   1  13 -10   -2.70    9.90
  -1  13  10   -5.60   16.20
  -1  13  10   -4.90    6.00
   1 -13  10    2.60   18.40
  -1 -13 -10   -2.00   26.10
   1 -13  10   -3.70    6.20
  -1  13 -10  -16.40    8.80
  -1  13 -10   26.60   28.30
  -2 -14  10  211.28   39.80
   2  14 -10  232.38   26.00
  -2  14  10  253.37   35.40
  -2  14  10  193.48   23.10
   0 -14  10  510.05   46.40
   0 -14 -10  535.55   52.19
   0 -14  10  430.46   34.20
   0  14  10  513.15   41.00
   0  14 -10  401.16   53.69
  -1 -15  10  -19.10   23.80
   1 -15 -10    1.70   24.60
  -1  15  10    4.00   17.10
   1  15 -10  -11.80   10.40
  -1 -15 -10   27.80   26.50
   1 -15  10   -1.90    6.40
   1 -15  10   -6.00   19.20
  -1  15 -10   19.50   30.80
  -1  15 -10    1.60    9.10
   0 -16  10  368.36   43.40
   0 -16 -10  420.26   48.60
   0  16 -10  334.67   53.69
   0  16  10  368.26   35.30
  -1 -17  10  -17.20   24.70
   1 -17 -10   17.50   25.80
  -1  17  10    3.10   17.40
   1  17 -10    8.40   11.30
   0   0   0    0.00    0.00

_computing_structure_solution     'SHELXT 2014/5 (Sheldrick, 2014)'
;
_shelx_hkl_checksum              1781
_shelx_fab_file
;
    2    0    0    -47.40      0.00
    4    0    0     13.10      0.00
    6    0    0     -0.58      0.00
    1    1    0     10.46      0.00
    3    1    0     -8.47      0.00
    5    1    0      2.02      0.00
    7    1    0      3.56      0.00
    2    2    0    -46.10      0.00
    4    2    0      7.54      0.00
    6    2    0     -1.68      0.00
    1    3    0     57.76      0.00
    3    3    0     -5.15      0.00
    5    3    0      4.19      0.00
    7    3    0      4.62      0.00
    2    4    0    -25.43      0.00
    4    4    0      4.40      0.00
    6    4    0     -1.33      0.00
    1    5    0      7.30      0.00
    3    5    0    -11.41      0.00
    5    5    0      3.41      0.00
    7    5    0      4.12      0.00
    0    6    0     98.43      0.00
    2    6    0    -17.79      0.00
    4    6    0      8.61      0.00
    6    6    0     -0.35      0.00
    1    7    0    -24.96      0.00
    3    7    0     -4.04      0.00
    5    7    0      0.47      0.00
    7    7    0      3.57      0.00
    0    8    0     58.76      0.00
    2    8    0    -34.45      0.00
    4    8    0      6.07      0.00
    6    8    0     -1.34      0.00
    1    9    0     -5.78      0.00
    3    9    0      8.75      0.00
    5    9    0      1.17      0.00
    7    9    0     -1.26      0.00
    0   10    0    -22.15      0.00
    2   10    0    -14.71      0.00
    4   10    0      1.13      0.00
    6   10    0     -0.09      0.00
    1   11    0     -6.77      0.00
    3   11    0      4.18      0.00
    5   11    0      1.26      0.00
    0   12    0    -17.86      0.00
    2   12    0      8.84      0.00
    4   12    0      1.20      0.00
    6   12    0      1.07      0.00
    1   13    0     -4.83      0.00
    3   13    0      0.68      0.00
    5   13    0     -0.91      0.00
    0   14    0      0.32      0.00
    2   14    0     -0.31      0.00
    4   14    0      1.70      0.00
    6   14    0     -0.27      0.00
    1   15    0     -8.96      0.00
    3   15    0      5.56      0.00
    5   15    0     -2.15      0.00
    0   16    0      4.08      0.00
    2   16    0     -0.08      0.00
    4   16    0     -0.40      0.00
    6   16    0     -0.61      0.00
    1   17    0     -8.10      0.00
    3   17    0      8.10      0.00
    5   17    0     -1.94      0.00
    0   18    0    -15.74      0.00
    2   18    0      9.00      0.00
    4   18    0     -2.41      0.00
    6   18    0      0.07      0.00
    1   19    0      7.49      0.00
    3   19    0      4.72      0.00
    5   19    0     -0.83      0.00
    0   20    0    -19.13      0.00
    2   20    0      7.40      0.00
    4   20    0      0.08      0.00
    6   20    0     -0.16      0.00
    1   21    0      0.01      0.00
    3   21    0     -0.69      0.00
    5   21    0     -2.14      0.00
    0   22    0      3.42      0.00
    2   22    0      2.84      0.00
    4   22    0      1.82      0.00
    6   22    0     -0.35      0.00
    1   23    0     -7.48      0.00
    3   23    0      0.86      0.00
    5   23    0     -3.78      0.00
    0   24    0      0.38      0.00
    2   24    0     -1.98      0.00
    4   24    0     -1.25      0.00
    6   24    0     -1.02      0.00
    1   25    0      1.51      0.00
    3   25    0      2.61      0.00
    5   25    0     -0.85      0.00
    0   26    0     -5.51      0.00
    2   26    0     -1.67      0.00
    4   26    0     -2.24      0.00
    1   27    0     -0.18      0.00
    3   27    0     -4.73      0.00
    5   27    0     -0.69      0.00
    0   28    0      5.81      0.00
    2   28    0      0.30      0.00
    4   28    0      1.62      0.00
    1   29    0     -1.10      0.00
    3   29    0     -7.22      0.00
    5   29    0     -2.16      0.00
    0   30    0      5.79      0.00
    2   30    0     -3.98      0.00
    4   30    0      1.52      0.00
    1   31    0      3.14      0.00
    3   31    0     -1.92      0.00
    5   31    0      1.15      0.00
    0   32    0      3.19      0.00
    2   32    0     -4.64      0.00
    4   32    0     -0.73      0.00
    1   33    0      0.50      0.00
    3   33    0     -6.59      0.00
    0   34    0      6.03      0.00
    2   34    0     -1.31      0.00
    4   34    0      0.24      0.00
    1   35    0     -0.29      0.00
    3   35    0    -10.18      0.00
    0   36    0      3.56      0.00
    2   36    0     -1.04      0.00
    4   36    0     -0.85      0.00
    1   37    0      1.55      0.00
    3   37    0     -2.29      0.00
    0   38    0      0.32      0.00
    2   38    0     -0.75      0.00
    1   39    0      0.74      0.00
    3   39    0      0.59      0.00
    0   40    0      0.98      0.00
    2   40    0     -0.60      0.00
    1   41    0     -0.81      0.00
    0   42    0      1.27      0.00
    2   42    0     -0.32      0.00
    1   43    0     -0.72      0.00
   -6    0    1     -0.65      0.00
   -4    0    1     -2.13      0.00
   -2    0    1    -18.11      0.00
    4    0    1      5.28      0.00
    6    0    1     -4.65      0.00
   -5    1    1      3.91      0.00
   -3    1    1    -19.10      0.00
   -1    1    1     84.58      0.00
    1    1    1     10.59      0.00
    3    1    1      9.19      0.00
    5    1    1      0.49      0.00
    7    1    1     -0.03      0.00
   -6    2    1      0.22      0.00
   -4    2    1      0.72      0.00
   -2    2    1    -11.67      0.00
    2    2    1    -33.31      0.00
    4    2    1     11.61      0.00
    6    2    1     -3.29      0.00
   -5    3    1      1.23      0.00
   -3    3    1    -12.32      0.00
   -1    3    1     -3.64      0.00
    1    3    1    -33.18      0.00
    3    3    1     -3.11      0.00
    5    3    1     -2.14      0.00
    7    3    1      0.14      0.00
   -6    4    1      0.16      0.00
   -4    4    1      1.23      0.00
   -2    4    1    -19.76      0.00
    2    4    1    -43.00      0.00
    4    4    1     14.12      0.00
    6    4    1     -2.17      0.00
   -5    5    1      0.92      0.00
   -3    5    1     -2.80      0.00
   -1    5    1      3.25      0.00
    1    5    1     -3.05      0.00
    3    5    1      5.87      0.00
    5    5    1     -1.23      0.00
    7    5    1      2.10      0.00
   -6    6    1      0.06      0.00
   -4    6    1     -1.75      0.00
   -2    6    1    -23.31      0.00
    0    6    1    -11.78      0.00
    2    6    1    -36.36      0.00
    4    6    1      6.13      0.00
    6    6    1     -1.81      0.00
   -5    7    1      3.03      0.00
   -3    7    1     -6.14      0.00
   -1    7    1     20.38      0.00
    1    7    1     -1.47      0.00
    3    7    1      8.82      0.00
    5    7    1      0.95      0.00
    7    7    1      0.29      0.00
   -6    8    1      0.72      0.00
   -4    8    1      2.14      0.00
   -2    8    1     -3.93      0.00
    0    8    1    -23.12      0.00
    2    8    1     -2.73      0.00
    4    8    1      3.87      0.00
    6    8    1     -0.40      0.00
   -7    9    1      0.87      0.00
   -5    9    1      1.14      0.00
   -3    9    1     -6.09      0.00
   -1    9    1    -11.42      0.00
    1    9    1    -21.88      0.00
    3    9    1     -2.94      0.00
    5    9    1     -0.81      0.00
   -6   10    1     -1.32      0.00
   -4   10    1      6.11      0.00
   -2   10    1     -9.21      0.00
    0   10    1     26.75      0.00
    2   10    1     -4.65      0.00
    4   10    1      4.19      0.00
    6   10    1     -0.55      0.00
   -5   11    1     -0.95      0.00
   -3   11    1      6.74      0.00
   -1   11    1    -28.84      0.00
    1   11    1      0.05      0.00
    3   11    1     -0.52      0.00
    5   11    1     -0.64      0.00
   -6   12    1     -2.36      0.00
   -4   12    1      2.40      0.00
   -2   12    1    -15.92      0.00
    0   12    1     10.28      0.00
    2   12    1    -15.43      0.00
    4   12    1      0.43      0.00
    6   12    1     -0.81      0.00
   -5   13    1      0.11      0.00
   -3   13    1     10.27      0.00
   -1   13    1    -24.05      0.00
    1   13    1      3.88      0.00
    3   13    1      5.27      0.00
    5   13    1      0.99      0.00
   -6   14    1     -1.07      0.00
   -4   14    1     -0.37      0.00
   -2   14    1     -1.30      0.00
    0   14    1    -12.60      0.00
    2   14    1      4.87      0.00
    4   14    1     -3.31      0.00
    6   14    1      0.66      0.00
   -5   15    1      0.46      0.00
   -3   15    1      4.78      0.00
   -1   15    1     -5.62      0.00
    1   15    1      6.34      0.00
    3   15    1      0.18      0.00
    5   15    1      0.43      0.00
   -6   16    1     -0.56      0.00
   -4   16    1      3.09      0.00
   -2   16    1      1.22      0.00
    0   16    1    -16.46      0.00
    2   16    1     14.00      0.00
    4   16    1     -3.72      0.00
    6   16    1      1.41      0.00
   -5   17    1     -0.99      0.00
   -3   17    1      3.06      0.00
   -1   17    1     -7.78      0.00
    1   17    1     16.84      0.00
    3   17    1     -5.53      0.00
    5   17    1     -1.01      0.00
   -6   18    1     -0.55      0.00
   -4   18    1      4.40      0.00
   -2   18    1     -2.82      0.00
    0   18    1      3.22      0.00
    2   18    1      5.48      0.00
    4   18    1     -0.03      0.00
    6   18    1      1.09      0.00
   -5   19    1     -2.61      0.00
   -3   19    1      6.82      0.00
   -1   19    1    -21.80      0.00
    1   19    1      6.99      0.00
    3   19    1     -3.48      0.00
    5   19    1     -2.93      0.00
   -6   20    1      0.03      0.00
   -4   20    1     -0.10      0.00
   -2   20    1     -1.18      0.00
    0   20    1      7.75      0.00
    2   20    1      1.71      0.00
    4   20    1      0.56      0.00
    6   20    1      0.07      0.00
   -5   21    1     -2.40      0.00
   -3   21    1      8.01      0.00
   -1   21    1     -9.16      0.00
    1   21    1      6.80      0.00
    3   21    1      2.91      0.00
    5   21    1     -2.01      0.00
   -6   22    1     -0.80      0.00
   -4   22    1     -0.69      0.00
   -2   22    1     -0.65      0.00
    0   22    1    -10.35      0.00
    2   22    1      1.37      0.00
    4   22    1     -2.82      0.00
    6   22    1     -0.95      0.00
   -5   23    1     -0.77      0.00
   -3   23    1      1.12      0.00
   -1   23    1     -0.83      0.00
    1   23    1      8.13      0.00
    3   23    1      1.05      0.00
    5   23    1     -0.93      0.00
   -6   24    1     -2.64      0.00
   -4   24    1      1.43      0.00
   -2   24    1      0.32      0.00
    0   24    1     -4.14      0.00
    2   24    1      3.26      0.00
    4   24    1     -0.99      0.00
   -5   25    1     -2.01      0.00
   -3   25    1     -2.63      0.00
   -1   25    1     -6.77      0.00
    1   25    1     -2.86      0.00
    3   25    1     -4.70      0.00
    5   25    1     -3.24      0.00
   -4   26    1      0.05      0.00
   -2   26    1     -1.26      0.00
    0   26    1      6.06      0.00
    2   26    1     -0.07      0.00
    4   26    1      2.48      0.00
   -5   27    1     -2.47      0.00
   -3   27    1      0.57      0.00
   -1   27    1     -1.54      0.00
    1   27    1     -1.05      0.00
    3   27    1      0.07      0.00
    5   27    1     -0.24      0.00
   -4   28    1     -2.06      0.00
   -2   28    1     -2.61      0.00
    0   28    1      0.52      0.00
    2   28    1     -5.06      0.00
    4   28    1      0.11      0.00
   -5   29    1      0.68      0.00
   -3   29    1     -1.91      0.00
   -1   29    1      1.66      0.00
    1   29    1      1.15      0.00
    3   29    1      2.21      0.00
    5   29    1      1.26      0.00
   -4   30    1     -0.84      0.00
   -2   30    1      0.57      0.00
    0   30    1      2.60      0.00
    2   30    1     -1.47      0.00
    4   30    1      0.73      0.00
   -5   31    1     -0.08      0.00
   -3   31    1     -9.37      0.00
   -1   31    1      0.55      0.00
    1   31    1     -2.99      0.00
    3   31    1     -5.37      0.00
    5   31    1     -4.15      0.00
   -4   32    1     -0.02      0.00
   -2   32    1     -0.51      0.00
    0   32    1      5.42      0.00
    2   32    1     -0.25      0.00
    4   32    1      2.75      0.00
   -3   33    1     -6.80      0.00
   -1   33    1      4.65      0.00
    1   33    1     -0.41      0.00
    3   33    1     -3.45      0.00
   -4   34    1     -2.26      0.00
   -2   34    1     -3.22      0.00
    0   34    1      2.38      0.00
    2   34    1     -3.13      0.00
    4   34    1      1.24      0.00
   -3   35    1     -1.87      0.00
   -1   35    1      3.69      0.00
    1   35    1      1.65      0.00
    3   35    1      0.31      0.00
   -4   36    1     -0.80      0.00
   -2   36    1     -0.96      0.00
    0   36    1      2.02      0.00
    2   36    1     -2.27      0.00
    4   36    1      3.02      0.00
   -3   37    1     -3.37      0.00
   -1   37    1     -1.09      0.00
    1   37    1      0.96      0.00
    3   37    1     -2.83      0.00
   -2   38    1      0.08      0.00
    0   38    1      2.42      0.00
    2   38    1     -0.53      0.00
   -3   39    1     -0.44      0.00
   -1   39    1     -1.10      0.00
    1   39    1      0.15      0.00
    3   39    1      0.01      0.00
   -2   40    1     -0.76      0.00
    0   40    1      1.16      0.00
    2   40    1      1.00      0.00
   -1   41    1      1.69      0.00
    1   41    1     -0.73      0.00
    0   42    1      0.00      0.00
   -1   43    1      1.45      0.00
    1   43    1      0.07      0.00
   -6    0    2      1.83      0.00
   -4    0    2     -8.06      0.00
   -2    0    2     17.62      0.00
    0    0    2    116.64      0.00
    2    0    2    -17.03      0.00
    4    0    2     10.27      0.00
    6    0    2     -4.35      0.00
   -5    1    2     -2.64      0.00
   -3    1    2     -3.61      0.00
   -1    1    2     -0.90      0.00
    1    1    2    -23.48      0.00
    3    1    2      5.98      0.00
    5    1    2     -4.72      0.00
   -6    2    2      0.70      0.00
   -4    2    2     -7.97      0.00
   -2    2    2      3.86      0.00
    0    2    2      8.04      0.00
    2    2    2    -21.31      0.00
    4    2    2      4.31      0.00
    6    2    2     -3.90      0.00
   -5    3    2     -0.27      0.00
   -3    3    2     -9.60      0.00
   -1    3    2     54.07      0.00
    1    3    2     -0.05      0.00
    3    3    2     22.87      0.00
    5    3    2     -2.89      0.00
   -6    4    2     -0.14      0.00
   -4    4    2     -5.10      0.00
   -2    4    2     -0.65      0.00
    0    4    2    -50.81      0.00
    2    4    2     -8.89      0.00
    4    4    2      1.59      0.00
    6    4    2     -3.00      0.00
   -5    5    2     -0.23      0.00
   -3    5    2     -9.65      0.00
   -1    5    2     11.52      0.00
    1    5    2    -30.03      0.00
    3    5    2      9.59      0.00
    5    5    2     -4.19      0.00
   -6    6    2     -0.49      0.00
   -4    6    2     -1.09      0.00
   -2    6    2      4.27      0.00
    0    6    2     29.11      0.00
    2    6    2     -0.75      0.00
    4    6    2      7.00      0.00
    6    6    2     -1.71      0.00
   -5    7    2     -1.57      0.00
   -3    7    2      1.18      0.00
   -1    7    2    -40.52      0.00
    1    7    2    -18.85      0.00
    3    7    2     -2.66      0.00
    5    7    2     -4.90      0.00
   -6    8    2     -0.88      0.00
   -4    8    2     -1.45      0.00
   -2    8    2     -6.35      0.00
    0    8    2     13.03      0.00
    2    8    2    -20.38      0.00
    4    8    2      4.76      0.00
    6    8    2     -0.87      0.00
   -5    9    2      1.41      0.00
   -3    9    2      4.82      0.00
   -1    9    2    -24.20      0.00
    1    9    2      8.00      0.00
    3    9    2      7.16      0.00
    5    9    2     -0.22      0.00
   -6   10    2     -0.27      0.00
   -4   10    2     -0.47      0.00
   -2   10    2     -6.89      0.00
    0   10    2    -29.58      0.00
    2   10    2    -13.07      0.00
    4   10    2     -0.63      0.00
    6   10    2     -0.10      0.00
   -5   11    2      3.72      0.00
   -3   11    2     -0.73      0.00
   -1   11    2     -0.32      0.00
    1   11    2     -8.54      0.00
    3   11    2      4.37      0.00
    5   11    2      1.00      0.00
   -6   12    2     -0.93      0.00
   -4   12    2      5.07      0.00
   -2   12    2     -5.36      0.00
    0   12    2    -10.12      0.00
    2   12    2      7.74      0.00
    4   12    2     -1.47      0.00
    6   12    2      0.79      0.00
   -5   13    2      1.30      0.00
   -3   13    2     -0.31      0.00
   -1   13    2     -6.94      0.00
    1   13    2      2.10      0.00
    3   13    2     -8.13      0.00
    5   13    2     -0.03      0.00
   -6   14    2     -1.28      0.00
   -4   14    2      5.83      0.00
   -2   14    2     -9.67      0.00
    0   14    2     11.75      0.00
    2   14    2     -0.04      0.00
    4   14    2     -0.61      0.00
    6   14    2      0.68      0.00
   -5   15    2     -0.44      0.00
   -3   15    2      4.34      0.00
   -1   15    2    -25.72      0.00
    1   15    2     18.65      0.00
    3   15    2     -9.12      0.00
    5   15    2      1.28      0.00
   -6   16    2     -0.66      0.00
   -4   16    2     -0.18      0.00
   -2   16    2     -5.75      0.00
    0   16    2     14.50      0.00
    2   16    2     -6.28      0.00
    4   16    2      0.43      0.00
    6   16    2      0.12      0.00
   -5   17    2      0.82      0.00
   -3   17    2      5.42      0.00
   -1   17    2    -12.94      0.00
    1   17    2     11.20      0.00
    3   17    2     -3.68      0.00
    5   17    2      0.33      0.00
   -6   18    2     -0.50      0.00
   -4   18    2     -0.40      0.00
   -2   18    2     -3.54      0.00
    0   18    2      1.68      0.00
    2   18    2      0.08      0.00
    4   18    2     -0.97      0.00
    6   18    2     -0.10      0.00
   -5   19    2      0.79      0.00
   -3   19    2      1.22      0.00
   -1   19    2      4.30      0.00
    1   19    2     12.57      0.00
    3   19    2     -1.71      0.00
    5   19    2     -0.80      0.00
   -6   20    2     -1.10      0.00
   -4   20    2      5.20      0.00
   -2   20    2     -5.19      0.00
    0   20    2     -0.50      0.00
    2   20    2      3.18      0.00
    4   20    2     -1.87      0.00
    6   20    2      1.22      0.00
   -5   21    2     -0.84      0.00
   -3   21    2      0.68      0.00
   -1   21    2     -8.52      0.00
    1   21    2      8.64      0.00
    3   21    2     -4.59      0.00
    5   21    2     -1.72      0.00
   -6   22    2     -1.41      0.00
   -4   22    2      2.60      0.00
   -2   22    2     -4.57      0.00
    0   22    2      9.71      0.00
    2   22    2      2.65      0.00
    4   22    2      1.00      0.00
    6   22    2      2.42      0.00
   -5   23    2     -2.33      0.00
   -3   23    2      4.80      0.00
   -1   23    2    -13.22      0.00
    1   23    2      1.94      0.00
    3   23    2     -3.16      0.00
    5   23    2     -1.94      0.00
   -4   24    2     -1.75      0.00
   -2   24    2     -3.32      0.00
    0   24    2      3.30      0.00
    2   24    2     -2.82      0.00
    4   24    2      0.05      0.00
   -5   25    2     -1.94      0.00
   -3   25    2      2.59      0.00
   -1   25    2     -2.73      0.00
    1   25    2      4.61      0.00
    3   25    2      3.49      0.00
    5   25    2      1.32      0.00
   -4   26    2     -0.14      0.00
   -2   26    2     -0.07      0.00
    0   26    2     -3.11      0.00
    2   26    2     -2.38      0.00
    4   26    2     -2.56      0.00
   -5   27    2     -0.37      0.00
   -3   27    2     -1.32      0.00
   -1   27    2     -1.06      0.00
    1   27    2     -2.07      0.00
    3   27    2      1.46      0.00
    5   27    2     -0.68      0.00
   -4   28    2      1.21      0.00
   -2   28    2      1.20      0.00
    0   28    2      2.28      0.00
    2   28    2      3.28      0.00
    4   28    2      1.79      0.00
   -5   29    2     -1.89      0.00
   -3   29    2      0.30      0.00
   -1   29    2      0.87      0.00
    1   29    2     -5.38      0.00
    3   29    2     -1.51      0.00
    5   29    2     -2.09      0.00
   -4   30    2     -0.28      0.00
   -2   30    2     -0.88      0.00
    0   30    2      1.40      0.00
    2   30    2      0.03      0.00
    4   30    2      2.78      0.00
   -3   31    2      1.84      0.00
   -1   31    2      3.63      0.00
    1   31    2      0.58      0.00
    3   31    2      3.35      0.00
   -4   32    2     -1.54      0.00
   -2   32    2      0.56      0.00
    0   32    2     -1.27      0.00
    2   32    2     -2.19      0.00
    4   32    2      0.47      0.00
   -3   33    2     -2.48      0.00
   -1   33    2      0.74      0.00
    1   33    2      0.59      0.00
    3   33    2      1.02      0.00
   -4   34    2      0.16      0.00
   -2   34    2      1.96      0.00
    0   34    2      0.63      0.00
    2   34    2      0.55      0.00
    4   34    2      1.38      0.00
   -3   35    2     -3.52      0.00
   -1   35    2      1.13      0.00
    1   35    2     -0.49      0.00
    3   35    2     -1.60      0.00
   -2   36    2     -0.90      0.00
    0   36    2      1.95      0.00
    2   36    2     -0.15      0.00
   -3   37    2      2.39      0.00
   -1   37    2      3.58      0.00
    1   37    2      0.04      0.00
    3   37    2      2.88      0.00
   -2   38    2     -1.74      0.00
    0   38    2      1.45      0.00
    2   38    2     -0.98      0.00
   -3   39    2      3.57      0.00
   -1   39    2      2.09      0.00
    1   39    2      0.53      0.00
   -2   40    2     -0.50      0.00
    0   40    2      0.47      0.00
    2   40    2     -0.52      0.00
   -1   41    2     -0.65      0.00
    1   41    2      1.68      0.00
    0   42    2      0.77      0.00
   -6    0    3     -0.53      0.00
   -4    0    3     -3.64      0.00
   -2    0    3      1.63      0.00
    0    0    3    -60.51      0.00
    2    0    3      0.07      0.00
    4    0    3     -4.21      0.00
    6    0    3     -3.16      0.00
   -7    1    3     -2.06      0.00
   -5    1    3     -3.82      0.00
   -3    1    3      0.84      0.00
   -1    1    3     21.96      0.00
    1    1    3      1.97      0.00
    3    1    3     16.24      0.00
    5    1    3     -2.06      0.00
   -6    2    3      0.29      0.00
   -4    2    3     -4.77      0.00
   -2    2    3     13.29      0.00
    0    2    3      4.95      0.00
    2    2    3     10.38      0.00
    4    2    3     -0.32      0.00
    6    2    3     -2.56      0.00
   -7    3    3      1.63      0.00
   -5    3    3     -4.55      0.00
   -3    3    3      6.23      0.00
    1    3    3    -11.89      0.00
    3    3    3     -3.79      0.00
    5    3    3     -4.70      0.00
   -6    4    3      0.27      0.00
   -4    4    3     -6.45      0.00
   -2    4    3     15.09      0.00
    0    4    3     22.96      0.00
    2    4    3      5.46      0.00
    4    4    3      1.24      0.00
    6    4    3     -0.41      0.00
   -7    5    3     -1.94      0.00
   -5    5    3     -1.91      0.00
   -3    5    3      6.41      0.00
   -1    5    3    -33.56      0.00
    1    5    3     11.93      0.00
    3    5    3      5.57      0.00
    5    5    3     -4.18      0.00
   -6    6    3     -0.26      0.00
   -4    6    3     -4.42      0.00
   -2    6    3      0.27      0.00
    0    6    3    -47.96      0.00
    2    6    3     -7.98      0.00
    4    6    3     -1.86      0.00
    6    6    3     -0.42      0.00
   -5    7    3      1.26      0.00
   -3    7    3      1.21      0.00
   -1    7    3      1.70      0.00
    1    7    3      0.02      0.00
    3    7    3     13.42      0.00
    5    7    3     -1.36      0.00
   -6    8    3      0.52      0.00
   -4    8    3      0.93      0.00
   -2    8    3     -2.14      0.00
    0    8    3    -33.53      0.00
    2    8    3      4.98      0.00
    4    8    3     -0.14      0.00
    6    8    3     -0.70      0.00
   -5    9    3      1.02      0.00
   -3    9    3      1.22      0.00
   -1    9    3     -9.52      0.00
    1    9    3    -18.84      0.00
    3    9    3     -1.69      0.00
    5    9    3     -2.96      0.00
   -6   10    3      1.04      0.00
   -4   10    3      2.23      0.00
   -2   10    3      0.70      0.00
    0   10    3      7.13      0.00
    2   10    3      4.50      0.00
    4   10    3      1.16      0.00
    6   10    3      1.73      0.00
   -5   11    3      0.95      0.00
   -3   11    3      3.37      0.00
   -1   11    3    -25.07      0.00
    1   11    3      5.91      0.00
    3   11    3     -5.68      0.00
    5   11    3      0.18      0.00
   -6   12    3      0.98      0.00
   -4   12    3     -0.59      0.00
   -2   12    3      1.71      0.00
    0   12    3      2.15      0.00
    2   12    3    -10.45      0.00
    4   12    3     -0.32      0.00
    6   12    3      1.70      0.00
   -5   13    3      2.66      0.00
   -3   13    3      0.66      0.00
   -1   13    3     -6.76      0.00
    1   13    3      8.24      0.00
    3   13    3      0.22      0.00
    5   13    3      4.93      0.00
   -6   14    3     -0.30      0.00
   -4   14    3     -0.54      0.00
   -2   14    3     -1.17      0.00
    0   14    3     -2.60      0.00
    2   14    3     -6.22      0.00
    4   14    3      0.56      0.00
    6   14    3      0.31      0.00
   -5   15    3      2.83      0.00
   -3   15    3     -2.97      0.00
   -1   15    3     17.65      0.00
    1   15    3     -2.13      0.00
    3   15    3     -1.87      0.00
    5   15    3      1.42      0.00
   -6   16    3     -0.27      0.00
   -4   16    3      2.92      0.00
   -2   16    3     -4.62      0.00
    0   16    3      6.40      0.00
    2   16    3     -0.63      0.00
    4   16    3      1.50      0.00
    6   16    3      0.45      0.00
   -5   17    3      0.11      0.00
   -3   17    3     -1.84      0.00
   -1   17    3      5.37      0.00
    1   17    3      7.96      0.00
    3   17    3     -5.58      0.00
    5   17    3     -0.26      0.00
   -6   18    3      0.65      0.00
   -4   18    3      1.93      0.00
   -2   18    3     -2.03      0.00
    0   18    3     14.44      0.00
    2   18    3     -2.80      0.00
    4   18    3      1.92      0.00
    6   18    3      0.89      0.00
   -5   19    3     -0.19      0.00
   -3   19    3      3.14      0.00
   -1   19    3     -8.91      0.00
    1   19    3      9.07      0.00
    3   19    3     -4.91      0.00
    5   19    3      0.37      0.00
   -6   20    3      0.21      0.00
   -4   20    3     -2.04      0.00
   -2   20    3     -0.76      0.00
    0   20    3      9.71      0.00
    2   20    3     -3.89      0.00
    4   20    3      2.43      0.00
   -5   21    3      0.94      0.00
   -3   21    3      1.45      0.00
   -1   21    3      2.10      0.00
    1   21    3      5.15      0.00
    3   21    3     -0.01      0.00
    5   21    3     -0.17      0.00
   -6   22    3      0.24      0.00
   -4   22    3      0.84      0.00
   -2   22    3     -2.63      0.00
    0   22    3      1.03      0.00
    2   22    3     -4.42      0.00
    4   22    3     -0.45      0.00
   -5   23    3     -0.26      0.00
   -3   23    3     -2.68      0.00
   -1   23    3      4.28      0.00
    1   23    3      3.03      0.00
    3   23    3      2.62      0.00
    5   23    3      1.52      0.00
   -4   24    3      2.76      0.00
   -2   24    3     -3.26      0.00
    0   24    3      3.41      0.00
    2   24    3      1.59      0.00
    4   24    3     -1.12      0.00
   -5   25    3     -1.45      0.00
   -3   25    3      1.49      0.00
   -1   25    3     -3.49      0.00
    1   25    3     -3.27      0.00
    3   25    3     -1.62      0.00
    5   25    3      1.13      0.00
   -4   26    3      0.21      0.00
   -2   26    3     -2.15      0.00
    0   26    3      3.99      0.00
    2   26    3      3.92      0.00
    4   26    3      1.46      0.00
   -5   27    3     -2.37      0.00
   -3   27    3      4.71      0.00
   -1   27    3     -1.75      0.00
    1   27    3     -0.23      0.00
    3   27    3     -0.11      0.00
    5   27    3      2.28      0.00
   -4   28    3      0.44      0.00
   -2   28    3      0.17      0.00
    0   28    3     -2.45      0.00
    2   28    3     -0.96      0.00
    4   28    3     -1.04      0.00
   -5   29    3     -0.63      0.00
   -3   29    3      2.19      0.00
   -1   29    3      0.14      0.00
    1   29    3      2.22      0.00
    3   29    3      4.21      0.00
   -4   30    3      1.49      0.00
   -2   30    3      1.08      0.00
    0   30    3     -2.11      0.00
    2   30    3      1.41      0.00
    4   30    3     -1.40      0.00
   -3   31    3      0.15      0.00
   -1   31    3     -0.22      0.00
    1   31    3     -2.21      0.00
    3   31    3      0.11      0.00
   -4   32    3      0.96      0.00
   -2   32    3     -0.26      0.00
    0   32    3      0.97      0.00
    2   32    3      2.85      0.00
    4   32    3      0.79      0.00
   -3   33    3      1.88      0.00
   -1   33    3      2.75      0.00
    1   33    3     -0.90      0.00
    3   33    3     -0.42      0.00
   -4   34    3     -0.20      0.00
   -2   34    3     -0.29      0.00
    0   34    3     -0.25      0.00
    2   34    3     -1.00      0.00
   -3   35    3      2.51      0.00
   -1   35    3      2.64      0.00
    1   35    3      1.32      0.00
    3   35    3      1.91      0.00
   -2   36    3      0.90      0.00
    0   36    3     -1.01      0.00
    2   36    3     -0.50      0.00
   -3   37    3      0.97      0.00
   -1   37    3     -0.25      0.00
    1   37    3      0.68      0.00
    3   37    3      0.58      0.00
   -2   38    3     -0.31      0.00
    0   38    3      0.17      0.00
    2   38    3      1.02      0.00
   -1   39    3     -0.13      0.00
    1   39    3      0.56      0.00
   -2   40    3     -1.93      0.00
    0   40    3      1.16      0.00
    2   40    3      0.11      0.00
   -1   41    3      1.86      0.00
    1   41    3     -0.05      0.00
    0   42    3      1.49      0.00
   -6    0    4      0.33      0.00
   -4    0    4     -1.43      0.00
   -2    0    4     11.66      0.00
    0    0    4     32.51      0.00
    2    0    4     15.65      0.00
    4    0    4     -2.27      0.00
    6    0    4     -1.10      0.00
   -5    1    4     -2.29      0.00
   -3    1    4      6.60      0.00
   -1    1    4    -35.90      0.00
    1    1    4     15.68      0.00
    3    1    4     -8.15      0.00
    5    1    4      0.34      0.00
   -6    2    4     -0.77      0.00
   -4    2    4      0.34      0.00
   -2    2    4     -2.00      0.00
    0    2    4    -12.94      0.00
    2    2    4      3.30      0.00
    4    2    4     -3.17      0.00
    6    2    4     -0.72      0.00
   -5    3    4     -0.12      0.00
   -3    3    4      4.12      0.00
   -1    3    4      4.61      0.00
    1    3    4     22.16      0.00
    3    3    4      6.72      0.00
    5    3    4      1.77      0.00
   -6    4    4     -0.89      0.00
   -4    4    4      2.69      0.00
   -2    4    4    -11.92      0.00
    0    4    4    -30.98      0.00
    2    4    4      1.84      0.00
    4    4    4     -2.26      0.00
    6    4    4     -1.27      0.00
   -5    5    4     -1.21      0.00
   -3    5    4      4.20      0.00
   -1    5    4    -10.87      0.00
    1    5    4      1.02      0.00
    3    5    4     -1.93      0.00
    5    5    4     -1.17      0.00
   -6    6    4      0.47      0.00
   -4    6    4      0.81      0.00
   -2    6    4     -0.04      0.00
    0    6    4      8.87      0.00
    2    6    4     12.82      0.00
    4    6    4     -1.43      0.00
    6    6    4      1.65      0.00
   -5    7    4     -1.52      0.00
   -3    7    4      7.04      0.00
   -1    7    4    -38.50      0.00
    1    7    4      3.36      0.00
    3    7    4     -7.02      0.00
    5    7    4     -6.02      0.00
   -6    8    4      0.81      0.00
   -4    8    4     -2.19      0.00
   -2    8    4      7.51      0.00
    0    8    4     -2.91      0.00
    2    8    4      1.70      0.00
    4    8    4     -3.31      0.00
    6    8    4      3.12      0.00
   -5    9    4      0.13      0.00
   -3    9    4      5.77      0.00
   -1    9    4    -17.11      0.00
    1    9    4     12.75      0.00
    3    9    4      3.15      0.00
    5    9    4      1.24      0.00
   -6   10    4      0.97      0.00
   -4   10    4     -0.51      0.00
   -2   10    4      2.60      0.00
    0   10    4    -23.20      0.00
    2   10    4     -4.93      0.00
    4   10    4     -1.30      0.00
    6   10    4     -1.02      0.00
   -5   11    4      0.24      0.00
   -3   11    4      0.86      0.00
   -1   11    4     14.14      0.00
    1   11    4     -5.58      0.00
    3   11    4      1.88      0.00
    5   11    4      4.98      0.00
   -6   12    4      1.07      0.00
   -4   12    4      0.99      0.00
   -2   12    4      0.06      0.00
    0   12    4     -5.54      0.00
    2   12    4      2.80      0.00
    4   12    4      2.08      0.00
    6   12    4      0.71      0.00
   -5   13    4     -0.29      0.00
   -3   13    4     -0.76      0.00
   -1   13    4      9.25      0.00
    1   13    4     -5.38      0.00
    3   13    4     -3.95      0.00
    5   13    4     -0.30      0.00
   -6   14    4      1.40      0.00
   -4   14    4     -1.18      0.00
   -2   14    4      6.64      0.00
    0   14    4      7.94      0.00
    2   14    4      0.84      0.00
    4   14    4      1.48      0.00
    6   14    4      2.93      0.00
   -5   15    4     -1.46      0.00
   -3   15    4      1.23      0.00
   -1   15    4     -3.01      0.00
    1   15    4      7.68      0.00
    3   15    4     -1.32      0.00
    5   15    4      2.22      0.00
   -6   16    4      0.80      0.00
   -4   16    4     -2.90      0.00
   -2   16    4      8.56      0.00
    0   16    4      3.46      0.00
    2   16    4     -4.87      0.00
    4   16    4      1.91      0.00
    6   16    4     -0.49      0.00
   -5   17    4     -0.83      0.00
   -3   17    4      0.82      0.00
   -1   17    4     12.63      0.00
    1   17    4      1.46      0.00
    3   17    4      2.31      0.00
    5   17    4      2.61      0.00
   -6   18    4      0.27      0.00
   -4   18    4     -0.50      0.00
   -2   18    4      2.84      0.00
    0   18    4      1.04      0.00
    2   18    4     -5.51      0.00
    4   18    4      3.46      0.00
   -5   19    4      0.08      0.00
   -3   19    4     -2.40      0.00
   -1   19    4     18.51      0.00
    1   19    4     -2.09      0.00
    3   19    4      3.41      0.00
    5   19    4     -0.90      0.00
   -6   20    4      0.75      0.00
   -4   20    4      2.48      0.00
   -2   20    4     -0.06      0.00
    0   20    4      5.16      0.00
    2   20    4     -2.53      0.00
    4   20    4      1.87      0.00
   -5   21    4      0.00      0.00
   -3   21    4     -0.94      0.00
   -1   21    4      2.24      0.00
    1   21    4      0.82      0.00
    3   21    4      1.68      0.00
    5   21    4      1.70      0.00
   -4   22    4     -0.27      0.00
   -2   22    4     -0.07      0.00
    0   22    4      4.86      0.00
    2   22    4      2.00      0.00
    4   22    4      1.52      0.00
   -5   23    4      0.91      0.00
   -3   23    4      1.29      0.00
   -1   23    4     -1.70      0.00
    1   23    4      0.25      0.00
    3   23    4     -0.45      0.00
    5   23    4      3.30      0.00
   -4   24    4     -1.00      0.00
   -2   24    4      0.15      0.00
    0   24    4     -0.78      0.00
    2   24    4     -1.16      0.00
    4   24    4      1.15      0.00
   -5   25    4      0.22      0.00
   -3   25    4     -0.78      0.00
   -1   25    4      3.03      0.00
    1   25    4      2.40      0.00
    3   25    4      2.06      0.00
    5   25    4      3.56      0.00
   -4   26    4      1.94      0.00
   -2   26    4     -1.33      0.00
    0   26    4     -0.78      0.00
    2   26    4     -2.23      0.00
    4   26    4     -1.12      0.00
   -5   27    4      0.07      0.00
   -3   27    4     -0.56      0.00
   -1   27    4      0.63      0.00
    1   27    4      0.57      0.00
    3   27    4      0.73      0.00
   -4   28    4      1.16      0.00
   -2   28    4     -2.58      0.00
    0   28    4      3.22      0.00
    2   28    4      3.73      0.00
    4   28    4      0.25      0.00
   -3   29    4      2.06      0.00
   -1   29    4     -0.51      0.00
    1   29    4     -1.76      0.00
    3   29    4     -3.19      0.00
   -4   30    4     -0.26      0.00
   -2   30    4     -0.87      0.00
    0   30    4      0.57      0.00
    2   30    4      2.59      0.00
    4   30    4      0.36      0.00
   -3   31    4      2.64      0.00
   -1   31    4      1.62      0.00
    1   31    4      1.05      0.00
    3   31    4      0.04      0.00
   -4   32    4     -0.25      0.00
   -2   32    4      0.40      0.00
    0   32    4     -2.01      0.00
    2   32    4     -0.26      0.00
   -3   33    4      0.16      0.00
   -1   33    4      0.75      0.00
    1   33    4      0.81      0.00
    3   33    4      2.06      0.00
   -2   34    4     -0.26      0.00
    0   34    4      1.00      0.00
    2   34    4      0.78      0.00
   -3   35    4      0.23      0.00
   -1   35    4      0.22      0.00
    1   35    4     -0.71      0.00
    3   35    4      0.83      0.00
   -2   36    4     -1.16      0.00
    0   36    4      1.41      0.00
    2   36    4      0.50      0.00
   -1   37    4      1.27      0.00
    1   37    4     -0.29      0.00
   -2   38    4     -1.38      0.00
    0   38    4      0.07      0.00
    2   38    4      0.57      0.00
   -1   39    4      0.82      0.00
    1   39    4     -0.50      0.00
    0   40    4      0.89      0.00
   -6    0    5     -0.68      0.00
   -4    0    5      5.05      0.00
   -2    0    5    -20.53      0.00
    0    0    5     -7.09      0.00
    2    0    5     -9.04      0.00
    4    0    5      2.28      0.00
    6    0    5     -1.58      0.00
   -5    1    5      2.32      0.00
   -3    1    5     -3.12      0.00
   -1    1    5      8.57      0.00
    1    1    5     14.06      0.00
    3    1    5     -3.33      0.00
    5    1    5      4.93      0.00
   -6    2    5     -0.38      0.00
   -4    2    5      3.26      0.00
   -2    2    5     -9.20      0.00
    0    2    5     16.14      0.00
    2    2    5      1.69      0.00
    4    2    5      1.67      0.00
    6    2    5     -1.81      0.00
   -5    3    5     -0.17      0.00
   -3    3    5     -2.02      0.00
   -1    3    5    -22.48      0.00
    1    3    5      6.91      0.00
    3    3    5    -10.53      0.00
    5    3    5     -1.68      0.00
   -6    4    5     -0.63      0.00
   -4    4    5      0.57      0.00
   -2    4    5      0.74      0.00
    0    4    5     19.00      0.00
    2    4    5      4.40      0.00
    4    4    5     -1.61      0.00
    6    4    5      0.48      0.00
   -5    5    5      1.67      0.00
   -3    5    5      1.18      0.00
   -1    5    5    -17.28      0.00
    1    5    5     14.10      0.00
    3    5    5     -2.68      0.00
    5    5    5     -1.95      0.00
   -6    6    5     -1.01      0.00
   -4    6    5      1.36      0.00
   -2    6    5     -7.06      0.00
    0    6    5    -11.92      0.00
    2    6    5     -5.36      0.00
    4    6    5     -2.74      0.00
    6    6    5     -1.53      0.00
   -5    7    5      1.22      0.00
   -3    7    5      2.50      0.00
   -1    7    5      6.30      0.00
    1    7    5      6.53      0.00
    3    7    5     -1.34      0.00
    5    7    5      4.43      0.00
   -6    8    5     -0.48      0.00
   -4    8    5      2.64      0.00
   -2    8    5     -8.68      0.00
    0    8    5     -9.17      0.00
    2    8    5      0.94      0.00
    4    8    5     -0.27      0.00
    6    8    5     -2.61      0.00
   -5    9    5     -2.23      0.00
   -3    9    5      2.67      0.00
   -1    9    5      0.31      0.00
    1    9    5     -5.46      0.00
    3    9    5     -6.79      0.00
    5    9    5     -2.59      0.00
   -6   10    5     -0.28      0.00
   -4   10    5     -0.17      0.00
   -2   10    5      4.69      0.00
    0   10    5      3.72      0.00
    2   10    5      7.09      0.00
    4   10    5     -1.44      0.00
   -5   11    5     -3.55      0.00
   -3   11    5      4.39      0.00
   -1   11    5    -14.10      0.00
    1   11    5      3.10      0.00
    3   11    5     -1.98      0.00
    5   11    5     -4.24      0.00
   -6   12    5     -0.32      0.00
   -4   12    5     -1.86      0.00
   -2   12    5     10.66      0.00
    0   12    5     -4.00      0.00
    2   12    5     -0.08      0.00
    4   12    5     -1.84      0.00
   -5   13    5     -4.85      0.00
   -3   13    5      3.47      0.00
   -1   13    5      3.76      0.00
    1   13    5      4.17      0.00
    3   13    5      2.95      0.00
    5   13    5      6.36      0.00
   -6   14    5     -0.76      0.00
   -4   14    5     -0.20      0.00
   -2   14    5      3.76      0.00
    0   14    5     -7.32      0.00
    2   14    5     -3.58      0.00
    4   14    5      1.72      0.00
   -5   15    5     -3.67      0.00
   -3   15    5     -0.05      0.00
   -1   15    5     21.90      0.00
    1   15    5     -5.40      0.00
    3   15    5      2.09      0.00
    5   15    5      2.07      0.00
   -6   16    5     -0.86      0.00
   -4   16    5      1.15      0.00
   -2   16    5      3.04      0.00
    0   16    5      2.28      0.00
    2   16    5      0.55      0.00
    4   16    5      1.53      0.00
   -5   17    5     -1.62      0.00
   -3   17    5      0.21      0.00
   -1   17    5      7.90      0.00
    1   17    5     -2.00      0.00
    3   17    5      2.17      0.00
    5   17    5     -3.92      0.00
   -4   18    5      0.07      0.00
   -2   18    5      6.74      0.00
    0   18    5      3.39      0.00
    2   18    5      2.77      0.00
    4   18    5     -0.40      0.00
   -5   19    5     -0.71      0.00
   -3   19    5      2.81      0.00
   -1   19    5      0.39      0.00
    1   19    5      1.27      0.00
    3   19    5      3.72      0.00
    5   19    5      0.90      0.00
   -4   20    5     -1.61      0.00
   -2   20    5      4.33      0.00
    0   20    5     -3.57      0.00
    2   20    5     -0.33      0.00
    4   20    5      1.37      0.00
   -5   21    5      0.94      0.00
   -3   21    5      0.50      0.00
   -1   21    5      6.81      0.00
    1   21    5     -2.28      0.00
    3   21    5      4.20      0.00
    5   21    5      2.70      0.00
   -4   22    5      0.71      0.00
   -2   22    5      0.50      0.00
    0   22    5     -2.42      0.00
    2   22    5     -3.56      0.00
    4   22    5      1.80      0.00
   -5   23    5      1.02      0.00
   -3   23    5     -3.35      0.00
   -1   23    5      3.11      0.00
    1   23    5     -2.00      0.00
    3   23    5      2.34      0.00
   -4   24    5      1.36      0.00
   -2   24    5     -1.68      0.00
    0   24    5      2.81      0.00
    2   24    5      0.39      0.00
    4   24    5      1.49      0.00
   -5   25    5      1.05      0.00
   -3   25    5     -2.30      0.00
   -1   25    5     -0.86      0.00
    1   25    5     -2.56      0.00
    3   25    5     -1.53      0.00
   -4   26    5     -0.74      0.00
   -2   26    5     -1.56      0.00
    0   26    5      1.58      0.00
    2   26    5      1.65      0.00
    4   26    5      1.93      0.00
   -3   27    5      1.03      0.00
   -1   27    5      1.13      0.00
    1   27    5     -1.39      0.00
    3   27    5     -1.18      0.00
   -4   28    5      0.55      0.00
   -2   28    5     -1.27      0.00
    0   28    5     -1.33      0.00
    2   28    5     -2.45      0.00
    4   28    5      0.17      0.00
   -3   29    5      1.42      0.00
   -1   29    5      0.93      0.00
    1   29    5      1.62      0.00
    3   29    5      0.52      0.00
   -4   30    5      0.60      0.00
   -2   30    5     -1.77      0.00
    0   30    5      1.15      0.00
    2   30    5     -1.05      0.00
   -3   31    5     -0.18      0.00
   -1   31    5      0.06      0.00
    1   31    5      0.23      0.00
    3   31    5     -1.40      0.00
   -2   32    5     -0.16      0.00
    0   32    5      2.13      0.00
    2   32    5      1.02      0.00
   -3   33    5      1.82      0.00
   -1   33    5      1.55      0.00
    1   33    5     -2.06      0.00
    3   33    5     -1.03      0.00
   -2   34    5      0.97      0.00
    0   34    5     -0.29      0.00
    2   34    5      0.84      0.00
   -3   35    5      1.80      0.00
   -1   35    5      2.06      0.00
    1   35    5     -2.45      0.00
   -2   36    5     -0.27      0.00
    0   36    5      0.82      0.00
    2   36    5      1.13      0.00
   -1   37    5      0.83      0.00
    1   37    5     -1.62      0.00
    0   38    5      1.32      0.00
   -6    0    6     -0.77      0.00
   -4    0    6     -1.67      0.00
   -2    0    6      3.61      0.00
    0    0    6     17.99      0.00
    2    0    6      1.54      0.00
    4    0    6      5.12      0.00
   -5    1    6      0.72      0.00
   -3    1    6     -9.81      0.00
   -1    1    6      1.32      0.00
    1    1    6     -0.33      0.00
    3    1    6     -0.50      0.00
    5    1    6     -0.66      0.00
   -6    2    6     -0.72      0.00
   -4    2    6     -0.41      0.00
   -2    2    6     -6.29      0.00
    0    2    6      5.52      0.00
    2    2    6     -6.44      0.00
    4    2    6      3.32      0.00
   -5    3    6      5.22      0.00
   -3    3    6     -6.87      0.00
   -1    3    6     15.71      0.00
    1    3    6      3.45      0.00
    3    3    6      1.94      0.00
    5    3    6      4.13      0.00
   -6    4    6     -0.67      0.00
   -4    4    6      1.61      0.00
   -2    4    6    -13.67      0.00
    0    4    6      0.35      0.00
    2    4    6     -6.62      0.00
    4    4    6      2.72      0.00
   -5    5    6      2.67      0.00
   -3    5    6     -4.28      0.00
   -1    5    6     10.62      0.00
    1    5    6     -4.44      0.00
    3    5    6     -3.93      0.00
    5    5    6     -0.17      0.00
   -6    6    6     -0.33      0.00
   -4    6    6      1.28      0.00
   -2    6    6     -2.27      0.00
    0    6    6      9.45      0.00
    2    6    6      3.36      0.00
    4    6    6      1.40      0.00
   -5    7    6     -1.13      0.00
   -3    7    6      0.27      0.00
   -1    7    6     -9.46      0.00
    1    7    6     -3.74      0.00
    3    7    6     -2.19      0.00
    5    7    6     -9.19      0.00
   -6    8    6     -0.22      0.00
   -4    8    6     -0.01      0.00
   -2    8    6      4.80      0.00
    0    8    6      2.09      0.00
    2    8    6     -0.32      0.00
    4    8    6     -2.27      0.00
   -5    9    6     -1.58      0.00
   -3    9    6      4.53      0.00
   -1    9    6     -7.95      0.00
    1    9    6      4.13      0.00
    3    9    6      1.23      0.00
    5    9    6      1.03      0.00
   -6   10    6     -1.64      0.00
   -4   10    6      1.09      0.00
   -2   10    6     -2.08      0.00
    0   10    6     -7.97      0.00
    2   10    6     -4.90      0.00
    4   10    6     -0.52      0.00
   -5   11    6     -2.32      0.00
   -3   11    6      2.33      0.00
   -1   11    6     10.38      0.00
    1   11    6     -1.35      0.00
    3   11    6     -1.73      0.00
    5   11    6      6.61      0.00
   -4   12    6      2.38      0.00
   -2   12    6     -3.14      0.00
    0   12    6     -1.39      0.00
    2   12    6      1.62      0.00
    4   12    6      0.73      0.00
   -5   13    6     -1.69      0.00
   -3   13    6     -0.55      0.00
   -1   13    6      6.67      0.00
    1   13    6     -5.88      0.00
    3   13    6     -1.54      0.00
    5   13    6     -4.40      0.00
   -4   14    6      1.90      0.00
   -2   14    6      4.66      0.00
    0   14    6      4.98      0.00
    2   14    6      5.28      0.00
    4   14    6     -2.50      0.00
   -5   15    6     -2.54      0.00
   -3   15    6      2.29      0.00
   -1   15    6     -1.79      0.00
    1   15    6      0.53      0.00
    3   15    6      1.76      0.00
    5   15    6     -2.89      0.00
   -4   16    6      0.70      0.00
   -2   16    6      4.82      0.00
    0   16    6     -1.06      0.00
    2   16    6      0.71      0.00
    4   16    6     -2.30      0.00
   -5   17    6     -2.89      0.00
   -3   17    6      4.17      0.00
   -1   17    6      7.79      0.00
    1   17    6     -0.55      0.00
    3   17    6      3.42      0.00
    5   17    6      2.20      0.00
   -4   18    6      0.97      0.00
   -2   18    6     -0.28      0.00
    0   18    6     -1.76      0.00
    2   18    6     -1.29      0.00
    4   18    6     -1.32      0.00
   -5   19    6     -0.10      0.00
   -3   19    6      0.43      0.00
   -1   19    6      6.26      0.00
    1   19    6     -5.32      0.00
    3   19    6      1.99      0.00
   -4   20    6      2.01      0.00
   -2   20    6     -1.20      0.00
    0   20    6      3.61      0.00
    2   20    6      1.91      0.00
    4   20    6     -1.56      0.00
   -5   21    6      0.45      0.00
   -3   21    6     -1.35      0.00
   -1   21    6     -2.84      0.00
    1   21    6     -4.07      0.00
    3   21    6      0.41      0.00
   -4   22    6     -0.45      0.00
   -2   22    6     -0.95      0.00
    0   22    6      0.16      0.00
    2   22    6      2.93      0.00
    4   22    6      1.76      0.00
   -3   23    6      1.01      0.00
   -1   23    6     -0.72      0.00
    1   23    6     -3.48      0.00
    3   23    6      1.73      0.00
   -4   24    6     -1.13      0.00
   -2   24    6     -0.89      0.00
    0   24    6     -4.59      0.00
    2   24    6     -1.93      0.00
    4   24    6      2.69      0.00
   -3   25    6      0.11      0.00
   -1   25    6      0.64      0.00
    1   25    6     -2.26      0.00
    3   25    6      1.79      0.00
   -4   26    6      1.45      0.00
   -2   26    6     -1.25      0.00
    0   26    6     -1.32      0.00
    2   26    6     -2.75      0.00
    4   26    6      0.66      0.00
   -3   27    6     -3.33      0.00
   -1   27    6     -0.20      0.00
    1   27    6     -1.98      0.00
    3   27    6     -2.76      0.00
   -4   28    6      0.35      0.00
   -2   28    6     -1.47      0.00
    0   28    6      1.63      0.00
    2   28    6      0.67      0.00
   -3   29    6     -0.82      0.00
   -1   29    6      0.24      0.00
    1   29    6     -2.95      0.00
    3   29    6     -3.75      0.00
   -2   30    6     -0.53      0.00
    0   30    6     -0.90      0.00
    2   30    6     -0.76      0.00
   -3   31    6      4.47      0.00
   -1   31    6     -0.20      0.00
    1   31    6     -2.14      0.00
   -2   32    6      0.31      0.00
    0   32    6     -1.60      0.00
    2   32    6     -2.01      0.00
   -1   33    6      0.46      0.00
    1   33    6     -1.66      0.00
   -2   34    6      1.17      0.00
    0   34    6     -0.18      0.00
    2   34    6     -1.21      0.00
   -1   35    6      0.93      0.00
    1   35    6     -2.09      0.00
    0   36    6     -1.66      0.00
   -4    0    7     -3.61      0.00
   -2    0    7     -3.78      0.00
    0    0    7      0.19      0.00
    2    0    7     -4.26      0.00
    4    0    7      3.39      0.00
   -5    1    7      1.86      0.00
   -3    1    7     -6.10      0.00
   -1    1    7     16.78      0.00
    1    1    7     -5.03      0.00
    3    1    7      5.12      0.00
    5    1    7      1.91      0.00
   -4    2    7     -3.35      0.00
   -2    2    7      4.18      0.00
    0    2    7      4.77      0.00
    2    2    7      2.53      0.00
    4    2    7      4.39      0.00
   -5    3    7     -0.17      0.00
   -3    3    7     -5.50      0.00
   -1    3    7      6.90      0.00
    1    3    7     -9.39      0.00
    3    3    7      3.24      0.00
    5    3    7     -4.71      0.00
   -4    4    7     -2.65      0.00
   -2    4    7      9.11      0.00
    0    4    7      4.67      0.00
    2    4    7      2.67      0.00
    4    4    7      2.53      0.00
   -5    5    7      2.32      0.00
   -3    5    7     -2.40      0.00
   -1    5    7      2.67      0.00
    1    5    7     -3.51      0.00
    3    5    7      5.18      0.00
    5    5    7     -3.19      0.00
   -4    6    7     -0.80      0.00
   -2    6    7     -0.85      0.00
    0    6    7     -2.02      0.00
    2    6    7     -4.10      0.00
    4    6    7      0.15      0.00
   -5    7    7      4.12      0.00
   -3    7    7      0.26      0.00
   -1    7    7      8.74      0.00
    1    7    7     -2.23      0.00
    3    7    7      1.75      0.00
    5    7    7      4.03      0.00
   -4    8    7      2.04      0.00
   -2    8    7     -5.85      0.00
    0    8    7      0.61      0.00
    2    8    7      0.78      0.00
    4    8    7      1.57      0.00
   -5    9    7      1.43      0.00
   -3    9    7     -0.32      0.00
   -1    9    7      6.72      0.00
    1    9    7     -8.80      0.00
    3    9    7      0.41      0.00
    5    9    7     -2.78      0.00
   -4   10    7      2.71      0.00
   -2   10    7     -0.69      0.00
    0   10    7      6.57      0.00
    2   10    7      4.06      0.00
    4   10    7      0.96      0.00
   -5   11    7     -0.87      0.00
   -3   11    7      0.86      0.00
   -1   11    7     -4.06      0.00
    1   11    7     -4.20      0.00
    3   11    7      2.29      0.00
   -4   12    7      1.14      0.00
   -2   12    7      1.37      0.00
    0   12    7      2.24      0.00
    2   12    7     -1.31      0.00
    4   12    7      0.71      0.00
   -5   13    7     -1.29      0.00
   -3   13    7      2.70      0.00
   -1   13    7      1.28      0.00
    1   13    7      3.47      0.00
    3   13    7      1.68      0.00
   -4   14    7      1.29      0.00
   -2   14    7     -1.98      0.00
    0   14    7     -0.82      0.00
    2   14    7     -2.84      0.00
    4   14    7      0.87      0.00
   -5   15    7      1.36      0.00
   -3   15    7     -0.56      0.00
   -1   15    7      9.46      0.00
    1   15    7     -2.41      0.00
    3   15    7      0.23      0.00
   -4   16    7      3.37      0.00
   -2   16    7     -3.68      0.00
    0   16    7      6.88      0.00
    2   16    7      1.66      0.00
    4   16    7     -2.98      0.00
   -5   17    7      1.95      0.00
   -3   17    7     -1.66      0.00
   -1   17    7      2.20      0.00
    1   17    7     -5.64      0.00
    3   17    7     -2.45      0.00
   -4   18    7      2.86      0.00
   -2   18    7     -3.24      0.00
    0   18    7      6.15      0.00
    2   18    7      3.32      0.00
    4   18    7     -3.06      0.00
   -3   19    7      4.02      0.00
   -1   19    7     -0.43      0.00
    1   19    7     -1.37      0.00
    3   19    7     -1.19      0.00
   -4   20    7      0.49      0.00
   -2   20    7     -3.60      0.00
    0   20    7     -2.86      0.00
    2   20    7      1.53      0.00
    4   20    7     -0.05      0.00
   -3   21    7      3.71      0.00
   -1   21    7      0.80      0.00
    1   21    7     -1.77      0.00
    3   21    7      2.45      0.00
   -4   22    7      1.16      0.00
   -2   22    7     -2.66      0.00
    0   22    7     -2.48      0.00
    2   22    7      0.44      0.00
   -3   23    7     -3.21      0.00
   -1   23    7     -2.42      0.00
    1   23    7     -4.21      0.00
    3   23    7      0.11      0.00
   -4   24    7      1.03      0.00
   -2   24    7     -1.40      0.00
    0   24    7      1.36      0.00
    2   24    7      2.18      0.00
   -3   25    7     -2.75      0.00
   -1   25    7     -1.23      0.00
    1   25    7     -4.14      0.00
    3   25    7     -2.60      0.00
   -2   26    7     -1.10      0.00
    0   26    7     -1.39      0.00
    2   26    7      1.14      0.00
   -3   27    7      2.20      0.00
   -1   27    7     -0.13      0.00
    1   27    7     -0.47      0.00
    3   27    7     -0.63      0.00
   -2   28    7     -0.74      0.00
    0   28    7     -4.01      0.00
    2   28    7     -2.02      0.00
   -3   29    7      0.78      0.00
   -1   29    7     -0.71      0.00
    1   29    7      0.65      0.00
   -2   30    7     -0.27      0.00
    0   30    7     -1.73      0.00
    2   30    7     -1.02      0.00
   -1   31    7     -0.56      0.00
    1   31    7     -1.76      0.00
   -2   32    7      1.01      0.00
    0   32    7     -1.51      0.00
   -1   33    7     -2.43      0.00
   -4    0    8     -3.30      0.00
   -2    0    8     12.83      0.00
    0    0    8     -1.03      0.00
    2    0    8      5.53      0.00
    4    0    8      2.35      0.00
   -5    1    8     -1.42      0.00
   -3    1    8     -1.30      0.00
   -1    1    8      4.68      0.00
    1    1    8     -5.93      0.00
    3    1    8      1.80      0.00
   -4    2    8     -3.52      0.00
   -2    2    8      6.15      0.00
    0    2    8     -2.39      0.00
    2    2    8      0.81      0.00
    4    2    8      1.25      0.00
   -5    3    8      1.34      0.00
   -3    3    8     -0.90      0.00
   -1    3    8      9.28      0.00
    1    3    8     -3.88      0.00
    3    3    8      2.14      0.00
   -4    4    8     -2.50      0.00
   -2    4    8      0.22      0.00
    0    4    8     -0.55      0.00
    2    4    8      1.33      0.00
    4    4    8      0.65      0.00
   -5    5    8      2.93      0.00
   -3    5    8      0.18      0.00
   -1    5    8      8.31      0.00
    1    5    8     -7.55      0.00
    3    5    8      1.18      0.00
   -4    6    8     -0.38      0.00
   -2    6    8      3.40      0.00
    0    6    8      3.91      0.00
    2    6    8      5.20      0.00
    4    6    8      1.08      0.00
   -5    7    8      1.43      0.00
   -3    7    8      0.04      0.00
   -1    7    8      1.01      0.00
    1    7    8     -7.33      0.00
    3    7    8      2.96      0.00
   -4    8    8     -0.43      0.00
   -2    8    8      3.03      0.00
    0    8    8      1.68      0.00
    2    8    8      0.48      0.00
    4    8    8      1.84      0.00
   -5    9    8      0.49      0.00
   -3    9    8      0.18      0.00
   -1    9    8      0.19      0.00
    1    9    8      1.04      0.00
    3    9    8      2.10      0.00
   -4   10    8     -0.44      0.00
   -2   10    8     -1.38      0.00
    0   10    8     -1.72      0.00
    2   10    8     -1.81      0.00
    4   10    8      3.69      0.00
   -3   11    8     -1.85      0.00
   -1   11    8      6.55      0.00
    1   11    8      1.27      0.00
    3   11    8      2.58      0.00
   -4   12    8      2.09      0.00
   -2   12    8     -3.41      0.00
    0   12    8      5.17      0.00
    2   12    8      0.64      0.00
    4   12    8      3.03      0.00
   -3   13    8     -4.05      0.00
   -1   13    8      5.08      0.00
    1   13    8     -5.76      0.00
    3   13    8      2.29      0.00
   -4   14    8      2.80      0.00
   -2   14    8     -3.31      0.00
    0   14    8      9.45      0.00
    2   14    8      0.28      0.00
    4   14    8      1.47      0.00
   -3   15    8      0.98      0.00
   -1   15    8      1.81      0.00
    1   15    8     -1.46      0.00
    3   15    8     -1.45      0.00
   -4   16    8      1.30      0.00
   -2   16    8     -3.48      0.00
    0   16    8      1.44      0.00
    2   16    8     -2.19      0.00
   -3   17    8      3.66      0.00
   -1   17    8      4.72      0.00
    1   17    8      2.87      0.00
    3   17    8     -0.28      0.00
   -4   18    8      2.59      0.00
   -2   18    8     -5.06      0.00
    0   18    8     -0.37      0.00
    2   18    8     -1.53      0.00
   -3   19    8     -2.29      0.00
   -1   19    8      0.41      0.00
    1   19    8     -1.50      0.00
    3   19    8     -1.10      0.00
   -2   20    8     -5.06      0.00
    0   20    8      4.17      0.00
    2   20    8      0.68      0.00
   -3   21    8     -0.79      0.00
   -1   21    8     -4.45      0.00
    1   21    8     -2.04      0.00
    3   21    8     -4.59      0.00
   -2   22    8     -3.69      0.00
    0   22    8      0.66      0.00
    2   22    8      2.38      0.00
   -3   23    8      5.50      0.00
   -1   23    8     -0.03      0.00
    1   23    8      0.86      0.00
   -2   24    8     -1.30      0.00
    0   24    8     -4.80      0.00
    2   24    8      2.15      0.00
   -3   25    8      0.72      0.00
   -1   25    8      1.91      0.00
    1   25    8      0.64      0.00
   -2   26    8      0.59      0.00
    0   26    8     -2.45      0.00
    2   26    8      1.64      0.00
   -1   27    8      0.64      0.00
    1   27    8     -2.02      0.00
   -2   28    8      0.20      0.00
    0   28    8      1.55      0.00
   -1   29    8     -0.64      0.00
   -4    0    9     -3.26      0.00
   -2    0    9      1.05      0.00
    0    0    9     -3.76      0.00
    2    0    9     -1.39      0.00
   -3    1    9      0.09      0.00
   -1    1    9      1.92      0.00
    1    1    9     -3.88      0.00
    3    1    9     -4.08      0.00
   -4    2    9     -1.97      0.00
   -2    2    9      3.76      0.00
    0    2    9     -3.15      0.00
    2    2    9      1.27      0.00
   -3    3    9      0.63      0.00
   -1    3    9     -2.20      0.00
    1    3    9     -3.57      0.00
    3    3    9     -3.19      0.00
   -4    4    9     -0.78      0.00
   -2    4    9      4.79      0.00
    0    4    9     -3.43      0.00
    2    4    9      0.76      0.00
   -3    5    9     -1.70      0.00
   -1    5    9     -0.59      0.00
    1    5    9     -2.08      0.00
    3    5    9     -2.81      0.00
   -4    6    9     -1.46      0.00
   -2    6    9      0.49      0.00
    0    6    9     -3.53      0.00
    2    6    9     -0.86      0.00
   -3    7    9     -1.92      0.00
   -1    7    9      4.06      0.00
    1    7    9     -0.55      0.00
    3    7    9     -2.40      0.00
   -4    8    9     -0.94      0.00
   -2    8    9     -0.84      0.00
    0    8    9      0.94      0.00
    2    8    9      1.32      0.00
   -3    9    9     -1.33      0.00
   -1    9    9      3.11      0.00
    1    9    9     -3.10      0.00
    3    9    9      2.17      0.00
   -4   10    9     -0.09      0.00
   -2   10    9      1.03      0.00
    0   10    9      5.31      0.00
    2   10    9      0.76      0.00
   -3   11    9     -0.66      0.00
   -1   11    9      0.74      0.00
    1   11    9     -2.31      0.00
    3   11    9      1.43      0.00
   -2   12    9      1.26      0.00
    0   12    9      1.42      0.00
    2   12    9     -2.17      0.00
   -3   13    9      0.26      0.00
   -1   13    9      5.02      0.00
    1   13    9      4.61      0.00
    3   13    9     -0.07      0.00
   -2   14    9     -0.68      0.00
    0   14    9     -0.98      0.00
    2   14    9     -3.59      0.00
   -3   15    9     -3.37      0.00
   -1   15    9      5.99      0.00
    1   15    9      1.70      0.00
   -2   16    9     -2.83      0.00
    0   16    9      4.42      0.00
    2   16    9     -2.54      0.00
   -3   17    9     -2.98      0.00
   -1   17    9     -1.35      0.00
    1   17    9     -2.65      0.00
   -2   18    9     -3.97      0.00
    0   18    9      4.23      0.00
    2   18    9     -2.56      0.00
   -3   19    9      5.00      0.00
   -1   19    9     -0.28      0.00
    1   19    9      0.99      0.00
   -2   20    9     -5.52      0.00
    0   20    9     -0.72      0.00
    2   20    9     -2.06      0.00
   -1   21    9      4.01      0.00
    1   21    9      0.76      0.00
   -2   22    9     -3.75      0.00
    0   22    9     -1.20      0.00
   -1   23    9     -1.13      0.00
    1   23    9     -1.83      0.00
    0   24    9      0.42      0.00
   -2    0   10      1.09      0.00
    0    0   10     -5.27      0.00
    2    0   10     -1.42      0.00
   -3    1   10     -0.58      0.00
   -1    1   10     -5.28      0.00
    1    1   10     -0.17      0.00
   -2    2   10     -0.43      0.00
    0    2   10     -4.15      0.00
    2    2   10     -2.66      0.00
   -3    3   10     -3.25      0.00
   -1    3   10     -0.34      0.00
    1    3   10     -2.05      0.00
   -2    4   10     -1.85      0.00
    0    4   10     -1.47      0.00
    2    4   10     -1.68      0.00
   -3    5   10     -1.53      0.00
   -1    5   10     -0.34      0.00
    1    5   10     -2.18      0.00
   -2    6   10      0.28      0.00
    0    6   10     -0.21      0.00
    2    6   10     -0.29      0.00
   -3    7   10     -0.62      0.00
   -1    7   10     -2.49      0.00
    1    7   10     -1.64      0.00
   -2    8   10      1.86      0.00
    0    8   10     -1.52      0.00
    2    8   10     -1.00      0.00
   -1    9   10      0.84      0.00
    1    9   10      1.94      0.00
   -2   10   10      1.58      0.00
    0   10   10     -1.63      0.00
    2   10   10     -1.25      0.00
   -1   11   10      4.75      0.00
    1   11   10      3.03      0.00
   -2   12   10      2.47      0.00
    0   12   10      2.28      0.00
   -1   13   10      2.01      0.00
    1   13   10     -2.53      0.00
   -2   14   10      2.64      0.00
    0   14   10      4.17      0.00
   -1   15   10      0.81      0.00
    1   15   10     -0.98      0.00
    0   16   10      1.81      0.00
   -1   17   10      5.69      0.00
    8    0    0      1.95      0.00
    0    2    0    113.16      0.00
    8    2    0      1.81      0.00
    0    4    0      8.33      0.00
    8    4    0      2.37      0.00
    8    6    0      2.36      0.00
    8    8    0      1.65      0.00
    8   10    0      0.11      0.00
    7   11    0     -3.52      0.00
    8   12    0     -2.02      0.00
    7   13    0     -0.76      0.00
    8   14    0     -0.79      0.00
    7   15    0     -1.54      0.00
    8   16    0      0.56      0.00
    7   17    0     -1.74      0.00
    8   18    0      0.24      0.00
    7   19    0      0.33      0.00
    8   20    0      0.51      0.00
    7   21    0      0.49      0.00
    8   22    0      0.06      0.00
    7   23    0     -0.23      0.00
    8   24    0     -0.24      0.00
    7   25    0      0.71      0.00
    6   26    0     -2.07      0.00
    8   26    0      0.03      0.00
    7   27    0      0.80      0.00
    6   28    0     -0.27      0.00
    8   28    0     -0.38      0.00
    7   29    0     -0.17      0.00
    6   30    0     -1.25      0.00
    8   30    0     -0.27      0.00
    7   31    0      1.29      0.00
    6   32    0     -2.78      0.00
    5   33    0     -0.43      0.00
    7   33    0      1.35      0.00
    6   34    0     -0.28      0.00
    5   35    0     -1.32      0.00
    7   35    0      0.05      0.00
    6   36    0     -1.28      0.00
    5   37    0      2.44      0.00
    7   37    0      0.29      0.00
    4   38    0      0.73      0.00
    6   38    0     -1.90      0.00
    5   39    0      1.01      0.00
    4   40    0      2.55      0.00
    6   40    0      0.15      0.00
    3   41    0      0.06      0.00
    5   41    0     -0.12      0.00
    4   42    0     -0.11      0.00
    6   42    0      0.25      0.00
    3   43    0      0.96      0.00
    5   43    0      0.72      0.00
    0   44    0     -0.57      0.00
    2   44    0      0.75      0.00
    4   44    0     -0.35      0.00
    6   44    0     -0.06      0.00
   -8    0    1      2.74      0.00
    0    0    1      7.23      0.00
    2    0    1    -35.91      0.00
    8    0    1     -1.49      0.00
   -7    1    1      3.68      0.00
   -8    2    1      2.98      0.00
    0    2    1    122.81      0.00
    8    2    1      0.33      0.00
   -7    3    1      5.40      0.00
   -8    4    1      3.52      0.00
    0    4    1    144.60      0.00
    8    4    1      1.33      0.00
   -7    5    1      3.55      0.00
   -8    6    1      2.99      0.00
    8    6    1      0.71      0.00
   -7    7    1      0.02      0.00
   -8    8    1     -0.01      0.00
    8    8    1      0.14      0.00
    7    9    1     -0.13      0.00
   -8   10    1     -1.16      0.00
    8   10    1     -0.54      0.00
   -7   11    1     -0.97      0.00
    7   11    1     -0.74      0.00
   -8   12    1     -0.39      0.00
    8   12    1      0.70      0.00
   -7   13    1     -4.03      0.00
    7   13    1     -3.83      0.00
   -8   14    1     -1.13      0.00
    8   14    1      0.15      0.00
   -7   15    1     -2.44      0.00
    7   15    1     -1.30      0.00
   -8   16    1     -0.44      0.00
    8   16    1     -1.25      0.00
   -7   17    1     -1.09      0.00
    7   17    1      1.62      0.00
   -8   18    1     -0.20      0.00
    8   18    1     -0.11      0.00
   -7   19    1     -0.08      0.00
    7   19    1      0.62      0.00
   -8   20    1     -0.38      0.00
    8   20    1      0.32      0.00
   -7   21    1      0.55      0.00
    7   21    1      1.27      0.00
   -8   22    1      0.88      0.00
    8   22    1      0.47      0.00
   -7   23    1      0.77      0.00
    7   23    1      2.67      0.00
   -8   24    1      0.18      0.00
    6   24    1      0.39      0.00
    8   24    1      0.63      0.00
   -7   25    1      0.07      0.00
    7   25    1      0.89      0.00
   -8   26    1     -0.70      0.00
   -6   26    1     -0.87      0.00
    6   26    1      0.65      0.00
    8   26    1     -0.74      0.00
   -7   27    1     -0.87      0.00
    7   27    1      0.20      0.00
   -8   28    1     -0.21      0.00
   -6   28    1      0.13      0.00
    6   28    1     -2.20      0.00
    8   28    1     -0.87      0.00
   -7   29    1      0.19      0.00
    7   29    1      1.86      0.00
   -8   30    1      0.03      0.00
   -6   30    1     -0.52      0.00
    6   30    1      0.27      0.00
   -7   31    1     -0.11      0.00
    7   31    1      1.18      0.00
   -6   32    1     -0.37      0.00
    6   32    1      1.06      0.00
   -7   33    1     -0.37      0.00
   -5   33    1     -0.54      0.00
    5   33    1     -0.88      0.00
    7   33    1      0.76      0.00
   -6   34    1     -1.18      0.00
    6   34    1     -3.92      0.00
   -7   35    1      0.34      0.00
   -5   35    1      0.73      0.00
    5   35    1      1.52      0.00
    7   35    1      1.12      0.00
   -6   36    1     -0.11      0.00
    6   36    1     -2.48      0.00
   -7   37    1     -0.10      0.00
   -5   37    1     -0.03      0.00
    5   37    1     -2.30      0.00
    7   37    1      0.50      0.00
   -6   38    1      0.72      0.00
   -4   38    1      0.87      0.00
    4   38    1      1.82      0.00
    6   38    1     -0.11      0.00
   -5   39    1      1.09      0.00
    5   39    1      0.17      0.00
   -6   40    1      0.41      0.00
   -4   40    1      0.99      0.00
    4   40    1     -0.25      0.00
    6   40    1     -0.77      0.00
   -5   41    1      1.32      0.00
   -3   41    1      2.47      0.00
    3   41    1      2.32      0.00
    5   41    1      1.66      0.00
   -6   42    1      0.77      0.00
   -4   42    1      2.09      0.00
   -2   42    1     -0.68      0.00
    2   42    1      0.80      0.00
    4   42    1      1.64      0.00
    6   42    1     -0.18      0.00
   -5   43    1      0.01      0.00
   -3   43    1      0.75      0.00
    3   43    1      0.35      0.00
    5   43    1      0.06      0.00
   -6   44    1      0.35      0.00
   -4   44    1      0.59      0.00
   -2   44    1     -0.30      0.00
    0   44    1      0.05      0.00
    2   44    1     -0.68      0.00
    4   44    1      0.47      0.00
   -8    0    2      0.23      0.00
    8    0    2      0.01      0.00
   -7    1    2      1.89      0.00
    7    1    2     -3.92      0.00
   -8    2    2      1.41      0.00
    8    2    2     -1.08      0.00
   -7    3    2     -1.49      0.00
    7    3    2     -0.93      0.00
   -8    4    2      2.10      0.00
    8    4    2     -0.47      0.00
   -7    5    2      1.32      0.00
    7    5    2     -0.14      0.00
   -8    6    2      1.03      0.00
    8    6    2      0.95      0.00
   -7    7    2      2.56      0.00
    7    7    2      0.34      0.00
   -8    8    2      0.57      0.00
    8    8    2      0.42      0.00
   -7    9    2     -2.89      0.00
    7    9    2     -1.24      0.00
   -8   10    2     -1.35      0.00
    8   10    2      0.31      0.00
   -7   11    2     -3.56      0.00
    7   11    2     -1.87      0.00
   -8   12    2     -2.40      0.00
    8   12    2     -0.64      0.00
   -7   13    2     -2.13      0.00
    7   13    2      0.71      0.00
   -8   14    2     -0.92      0.00
    8   14    2     -0.66      0.00
   -7   15    2     -2.07      0.00
    7   15    2     -0.17      0.00
   -8   16    2     -1.09      0.00
    8   16    2      0.09      0.00
   -7   17    2     -0.25      0.00
    7   17    2     -1.16      0.00
   -8   18    2      0.43      0.00
    8   18    2     -1.02      0.00
   -7   19    2      0.42      0.00
    7   19    2      1.55      0.00
   -8   20    2      1.67      0.00
    8   20    2     -0.62      0.00
   -7   21    2      1.76      0.00
    7   21    2      2.87      0.00
   -8   22    2      0.07      0.00
    8   22    2      0.12      0.00
   -7   23    2      1.25      0.00
    7   23    2      1.72      0.00
   -8   24    2      0.24      0.00
   -6   24    2      0.59      0.00
    6   24    2      0.10      0.00
    8   24    2     -0.81      0.00
   -7   25    2     -0.09      0.00
    7   25    2      1.73      0.00
   -8   26    2      0.14      0.00
   -6   26    2      0.29      0.00
    6   26    2     -0.49      0.00
    8   26    2     -0.37      0.00
   -7   27    2      1.14      0.00
    7   27    2      1.18      0.00
   -8   28    2     -0.59      0.00
   -6   28    2     -0.48      0.00
    6   28    2      2.45      0.00
    8   28    2     -0.07      0.00
   -7   29    2     -0.02      0.00
    7   29    2     -0.48      0.00
   -6   30    2      1.39      0.00
    6   30    2     -0.80      0.00
   -7   31    2     -0.89      0.00
   -5   31    2     -1.40      0.00
    5   31    2      2.65      0.00
    7   31    2      0.38      0.00
   -6   32    2      1.42      0.00
    6   32    2     -2.55      0.00
   -7   33    2     -0.37      0.00
   -5   33    2      0.52      0.00
    5   33    2     -1.61      0.00
    7   33    2      0.91      0.00
   -6   34    2      0.39      0.00
    6   34    2      1.03      0.00
   -7   35    2     -0.83      0.00
   -5   35    2     -0.43      0.00
    5   35    2     -4.47      0.00
    7   35    2      0.12      0.00
   -6   36    2      0.35      0.00
   -4   36    2      0.92      0.00
    4   36    2      0.11      0.00
    6   36    2     -1.14      0.00
   -7   37    2     -0.44      0.00
   -5   37    2     -0.26      0.00
    5   37    2      0.72      0.00
   -6   38    2      1.75      0.00
   -4   38    2      1.88      0.00
    4   38    2      1.78      0.00
    6   38    2     -2.23      0.00
   -5   39    2      0.24      0.00
    3   39    2      1.98      0.00
    5   39    2      0.68      0.00
   -6   40    2      1.91      0.00
   -4   40    2      3.20      0.00
    4   40    2      2.93      0.00
    6   40    2     -0.21      0.00
   -5   41    2     -0.06      0.00
   -3   41    2      2.18      0.00
    3   41    2      0.47      0.00
    5   41    2     -0.23      0.00
   -6   42    2      0.43      0.00
   -4   42    2      1.98      0.00
   -2   42    2     -0.49      0.00
    2   42    2      0.00      0.00
    4   42    2     -0.34      0.00
    6   42    2     -0.25      0.00
   -5   43    2     -0.07      0.00
   -3   43    2      2.27      0.00
   -1   43    2     -0.28      0.00
    1   43    2      0.68      0.00
    3   43    2      1.21      0.00
    5   43    2      0.47      0.00
   -4   44    2      1.18      0.00
   -2   44    2     -1.03      0.00
    0   44    2      1.19      0.00
    2   44    2      0.05      0.00
    4   44    2     -0.30      0.00
   -8    0    3     -0.84      0.00
    8    0    3     -0.20      0.00
    7    1    3     -2.18      0.00
   -8    2    3     -1.06      0.00
    8    2    3      0.41      0.00
   -1    3    3    -43.99      0.00
    7    3    3     -1.20      0.00
   -8    4    3     -0.55      0.00
    8    4    3      0.39      0.00
    7    5    3      0.82      0.00
   -8    6    3      0.43      0.00
    8    6    3      0.14      0.00
   -7    7    3     -3.50      0.00
    7    7    3      1.45      0.00
   -8    8    3     -0.54      0.00
    8    8    3      0.62      0.00
   -7    9    3      0.55      0.00
    7    9    3      0.71      0.00
   -8   10    3     -1.20      0.00
    8   10    3      0.25      0.00
   -7   11    3     -0.81      0.00
    7   11    3     -0.45      0.00
   -8   12    3     -1.41      0.00
    8   12    3      0.27      0.00
   -7   13    3     -2.25      0.00
    7   13    3     -1.44      0.00
   -8   14    3     -1.64      0.00
    8   14    3     -0.36      0.00
   -7   15    3     -1.45      0.00
    7   15    3     -0.65      0.00
   -8   16    3      0.47      0.00
    8   16    3     -1.53      0.00
   -7   17    3     -1.06      0.00
    7   17    3      0.09      0.00
   -8   18    3      0.88      0.00
    8   18    3     -0.65      0.00
   -7   19    3      1.20      0.00
    7   19    3      0.10      0.00
   -8   20    3      0.67      0.00
    6   20    3      0.62      0.00
    8   20    3     -0.50      0.00
   -7   21    3      0.77      0.00
    7   21    3      0.80      0.00
   -8   22    3      1.66      0.00
    6   22    3      0.67      0.00
    8   22    3     -1.01      0.00
   -7   23    3      1.30      0.00
    7   23    3      1.35      0.00
   -8   24    3      0.52      0.00
   -6   24    3     -0.97      0.00
    6   24    3      2.57      0.00
    8   24    3     -0.04      0.00
   -7   25    3      2.50      0.00
    7   25    3      0.07      0.00
   -8   26    3     -0.21      0.00
   -6   26    3     -0.32      0.00
    6   26    3      1.63      0.00
    8   26    3     -0.13      0.00
   -7   27    3     -0.10      0.00
    7   27    3     -0.64      0.00
   -8   28    3      0.20      0.00
   -6   28    3      2.06      0.00
    6   28    3     -2.28      0.00
   -7   29    3     -0.06      0.00
    5   29    3      2.84      0.00
    7   29    3      0.40      0.00
   -6   30    3      1.31      0.00
    6   30    3      0.32      0.00
   -7   31    3      0.26      0.00
   -5   31    3      0.32      0.00
    5   31    3     -1.96      0.00
    7   31    3     -0.05      0.00
   -6   32    3      0.64      0.00
    6   32    3      1.28      0.00
   -7   33    3     -1.01      0.00
   -5   33    3     -1.48      0.00
    5   33    3     -0.05      0.00
    7   33    3     -0.50      0.00
   -6   34    3      1.25      0.00
    4   34    3      0.12      0.00
    6   34    3     -2.89      0.00
   -7   35    3     -0.31      0.00
   -5   35    3     -0.74      0.00
    5   35    3      2.09      0.00
    7   35    3     -0.29      0.00
   -6   36    3      1.37      0.00
   -4   36    3      1.19      0.00
    4   36    3      0.86      0.00
    6   36    3     -1.04      0.00
   -7   37    3      0.23      0.00
   -5   37    3     -0.15      0.00
    5   37    3     -1.48      0.00
   -6   38    3      0.60      0.00
   -4   38    3      3.22      0.00
    4   38    3     -0.65      0.00
    6   38    3      0.47      0.00
   -5   39    3     -0.97      0.00
   -3   39    3      2.76      0.00
    3   39    3      1.80      0.00
    5   39    3     -1.01      0.00
   -6   40    3      0.55      0.00
   -4   40    3      3.14      0.00
    4   40    3     -1.25      0.00
    6   40    3     -0.57      0.00
   -5   41    3     -0.50      0.00
   -3   41    3      2.89      0.00
    3   41    3      1.71      0.00
    5   41    3      0.63      0.00
   -6   42    3      0.96      0.00
   -4   42    3      2.30      0.00
   -2   42    3     -1.77      0.00
    2   42    3     -0.78      0.00
    4   42    3      0.84      0.00
   -5   43    3     -0.01      0.00
   -3   43    3      0.22      0.00
   -1   43    3      2.14      0.00
    1   43    3     -0.24      0.00
    3   43    3     -0.22      0.00
    5   43    3      0.58      0.00
   -4   44    3      0.76      0.00
   -2   44    3     -0.52      0.00
    0   44    3      0.99      0.00
    2   44    3     -0.44      0.00
    4   44    3     -0.04      0.00
   -8    0    4     -1.30      0.00
    8    0    4      1.03      0.00
   -7    1    4      1.37      0.00
    7    1    4     -0.09      0.00
   -8    2    4     -1.15      0.00
    8    2    4      1.10      0.00
   -7    3    4     -2.54      0.00
    7    3    4      0.47      0.00
   -8    4    4     -0.21      0.00
    8    4    4      0.25      0.00
   -7    5    4      0.02      0.00
    7    5    4      1.54      0.00
   -8    6    4      0.19      0.00
    8    6    4     -0.78      0.00
   -7    7    4      1.96      0.00
    7    7    4      0.94      0.00
   -8    8    4      0.10      0.00
    8    8    4      0.07      0.00
   -7    9    4     -0.63      0.00
    7    9    4      0.58      0.00
   -8   10    4     -0.23      0.00
    8   10    4      1.04      0.00
   -7   11    4     -0.10      0.00
    7   11    4      0.56      0.00
   -8   12    4     -0.70      0.00
    8   12    4     -0.05      0.00
   -7   13    4     -0.34      0.00
    7   13    4     -0.59      0.00
   -8   14    4     -0.24      0.00
    8   14    4     -0.63      0.00
   -7   15    4     -1.09      0.00
    7   15    4     -1.55      0.00
   -8   16    4     -0.28      0.00
    8   16    4      0.04      0.00
   -7   17    4     -0.08      0.00
    7   17    4     -1.42      0.00
   -8   18    4      0.41      0.00
    6   18    4     -1.39      0.00
    8   18    4     -0.43      0.00
   -7   19    4     -0.66      0.00
    7   19    4     -0.94      0.00
   -8   20    4      1.26      0.00
    6   20    4      1.43      0.00
    8   20    4     -0.62      0.00
   -7   21    4      0.75      0.00
    7   21    4     -0.20      0.00
   -8   22    4      0.78      0.00
   -6   22    4     -0.51      0.00
    6   22    4      2.88      0.00
    8   22    4      0.03      0.00
   -7   23    4      0.82      0.00
    7   23    4     -0.08      0.00
   -8   24    4      0.53      0.00
   -6   24    4     -0.21      0.00
    6   24    4      0.53      0.00
   -7   25    4     -0.55      0.00
    7   25    4     -0.26      0.00
   -8   26    4      0.16      0.00
   -6   26    4      0.83      0.00
    6   26    4     -0.97      0.00
   -7   27    4      1.08      0.00
    5   27    4      3.14      0.00
    7   27    4     -0.51      0.00
   -6   28    4      0.29      0.00
    6   28    4      1.02      0.00
   -7   29    4      0.34      0.00
   -5   29    4     -0.21      0.00
    5   29    4      2.16      0.00
    7   29    4     -1.04      0.00
   -6   30    4      0.88      0.00
    6   30    4     -1.16      0.00
   -7   31    4     -0.72      0.00
   -5   31    4     -0.87      0.00
    5   31    4      3.48      0.00
    7   31    4     -0.04      0.00
   -6   32    4      0.67      0.00
    4   32    4     -0.83      0.00
    6   32    4     -2.34      0.00
   -7   33    4      0.14      0.00
   -5   33    4      0.29      0.00
    5   33    4      0.30      0.00
    7   33    4      0.51      0.00
   -6   34    4     -0.30      0.00
   -4   34    4      0.12      0.00
    4   34    4     -0.46      0.00
    6   34    4      0.87      0.00
   -7   35    4     -0.09      0.00
   -5   35    4     -0.43      0.00
    5   35    4     -2.10      0.00
   -6   36    4     -0.33      0.00
   -4   36    4      0.71      0.00
    4   36    4     -1.31      0.00
    6   36    4     -0.52      0.00
   -5   37    4     -1.18      0.00
   -3   37    4      2.43      0.00
    3   37    4      1.11      0.00
    5   37    4      0.71      0.00
   -6   38    4      0.21      0.00
   -4   38    4      1.52      0.00
    4   38    4     -0.23      0.00
    6   38    4     -0.91      0.00
   -5   39    4      0.05      0.00
   -3   39    4      0.18      0.00
    3   39    4      0.55      0.00
    5   39    4      1.39      0.00
   -6   40    4      0.30      0.00
   -4   40    4      1.44      0.00
   -2   40    4     -1.49      0.00
    2   40    4      1.40      0.00
    4   40    4     -0.19      0.00
    6   40    4      1.07      0.00
   -5   41    4     -0.31      0.00
   -3   41    4     -1.22      0.00
   -1   41    4      0.35      0.00
    1   41    4     -0.27      0.00
    3   41    4      0.22      0.00
    5   41    4      0.39      0.00
   -4   42    4      0.25      0.00
   -2   42    4     -0.63      0.00
    0   42    4      0.35      0.00
    2   42    4      1.37      0.00
    4   42    4     -1.39      0.00
   -5   43    4     -1.05      0.00
   -3   43    4     -0.01      0.00
   -1   43    4      0.57      0.00
    1   43    4      0.59      0.00
    3   43    4      0.07      0.00
    5   43    4     -0.25      0.00
   -4   44    4     -0.36      0.00
   -2   44    4      0.20      0.00
    0   44    4     -0.27      0.00
    2   44    4      0.47      0.00
    4   44    4     -0.27      0.00
   -8    0    5     -0.05      0.00
    8    0    5      1.37      0.00
   -7    1    5      0.55      0.00
    7    1    5     -0.25      0.00
   -8    2    5      0.70      0.00
    8    2    5      0.02      0.00
   -7    3    5      2.72      0.00
    7    3    5      0.40      0.00
   -8    4    5      0.58      0.00
    8    4    5     -0.32      0.00
   -7    5    5      0.20      0.00
    7    5    5     -0.95      0.00
   -8    6    5      0.61      0.00
    8    6    5      0.66      0.00
   -7    7    5     -1.44      0.00
    7    7    5     -0.11      0.00
   -8    8    5      1.32      0.00
    8    8    5     -0.43      0.00
   -7    9    5      1.64      0.00
    7    9    5      0.65      0.00
   -8   10    5      0.68      0.00
    6   10    5      3.69      0.00
    8   10    5     -1.06      0.00
   -7   11    5      1.92      0.00
    7   11    5      0.07      0.00
   -8   12    5      0.04      0.00
    6   12    5      1.39      0.00
    8   12    5      0.17      0.00
   -7   13    5      0.52      0.00
    7   13    5     -0.28      0.00
   -8   14    5     -0.59      0.00
    6   14    5     -2.83      0.00
    8   14    5      0.42      0.00
   -7   15    5     -0.21      0.00
    7   15    5     -1.06      0.00
   -8   16    5     -0.30      0.00
    6   16    5     -0.01      0.00
    8   16    5     -0.21      0.00
   -7   17    5     -0.86      0.00
    7   17    5     -0.84      0.00
   -8   18    5      0.60      0.00
   -6   18    5     -0.40      0.00
    6   18    5      0.49      0.00
    8   18    5      0.00      0.00
   -7   19    5      0.15      0.00
    7   19    5      0.07      0.00
   -8   20    5      0.45      0.00
   -6   20    5     -0.08      0.00
    6   20    5     -0.46      0.00
   -7   21    5     -0.40      0.00
    7   21    5     -0.66      0.00
   -8   22    5     -0.02      0.00
   -6   22    5      1.27      0.00
    6   22    5      0.30      0.00
   -7   23    5     -0.46      0.00
    5   23    5      3.27      0.00
    7   23    5     -0.92      0.00
   -8   24    5     -0.16      0.00
   -6   24    5      0.73      0.00
    6   24    5      1.05      0.00
   -7   25    5      1.04      0.00
    5   25    5      4.30      0.00
    7   25    5     -0.69      0.00
   -6   26    5     -0.68      0.00
    6   26    5      0.55      0.00
   -7   27    5      0.22      0.00
   -5   27    5      0.62      0.00
    5   27    5      3.28      0.00
    7   27    5     -0.90      0.00
   -6   28    5      0.22      0.00
    6   28    5     -2.30      0.00
   -7   29    5      0.03      0.00
   -5   29    5     -0.09      0.00
    5   29    5      1.70      0.00
    7   29    5      0.32      0.00
   -6   30    5      0.42      0.00
    4   30    5      0.10      0.00
    6   30    5     -1.48      0.00
   -7   31    5      0.11      0.00
   -5   31    5      0.40      0.00
    5   31    5     -0.19      0.00
   -6   32    5     -0.11      0.00
   -4   32    5     -1.56      0.00
    4   32    5     -0.18      0.00
    6   32    5      0.64      0.00
   -7   33    5     -0.67      0.00
   -5   33    5     -0.11      0.00
    5   33    5      0.67      0.00
   -6   34    5     -0.57      0.00
   -4   34    5     -0.82      0.00
    4   34    5     -1.29      0.00
    6   34    5     -0.90      0.00
   -5   35    5     -0.06      0.00
    3   35    5      1.43      0.00
    5   35    5      0.91      0.00
   -6   36    5     -0.95      0.00
   -4   36    5      0.93      0.00
    4   36    5     -0.50      0.00
    6   36    5      0.08      0.00
   -5   37    5      0.33      0.00
   -3   37    5     -1.30      0.00
    3   37    5      2.24      0.00
    5   37    5     -0.64      0.00
   -6   38    5     -0.56      0.00
   -4   38    5      0.35      0.00
   -2   38    5     -1.67      0.00
    2   38    5      1.03      0.00
    4   38    5     -0.85      0.00
    6   38    5      0.77      0.00
   -5   39    5     -0.77      0.00
   -3   39    5     -0.36      0.00
   -1   39    5      0.20      0.00
    1   39    5     -0.34      0.00
    3   39    5      1.13      0.00
    5   39    5     -0.27      0.00
   -6   40    5      0.04      0.00
   -4   40    5     -0.46      0.00
   -2   40    5     -1.16      0.00
    0   40    5     -0.88      0.00
    2   40    5      1.42      0.00
    4   40    5     -0.33      0.00
   -5   41    5     -0.78      0.00
   -3   41    5      0.03      0.00
   -1   41    5     -0.16      0.00
    1   41    5     -0.03      0.00
    3   41    5     -0.36      0.00
    5   41    5      0.40      0.00
   -4   42    5     -0.78      0.00
   -2   42    5     -0.65      0.00
    0   42    5     -0.02      0.00
    2   42    5      1.10      0.00
    4   42    5      0.41      0.00
   -5   43    5      0.01      0.00
   -3   43    5     -1.10      0.00
   -1   43    5      0.09      0.00
    1   43    5     -0.33      0.00
    3   43    5     -0.07      0.00
    5   43    5      0.27      0.00
   -4   44    5     -0.79      0.00
   -2   44    5     -0.65      0.00
    0   44    5      1.00      0.00
    2   44    5      0.31      0.00
    4   44    5     -0.19      0.00
   -8    0    6      1.54      0.00
    6    0    6     -3.59      0.00
    8    0    6      0.50      0.00
   -7    1    6      2.18      0.00
    7    1    6     -1.14      0.00
   -8    2    6      0.95      0.00
    6    2    6     -1.92      0.00
    8    2    6      0.80      0.00
   -7    3    6     -1.53      0.00
    7    3    6     -2.05      0.00
   -8    4    6      1.16      0.00
    6    4    6     -3.67      0.00
    8    4    6     -0.13      0.00
   -7    5    6     -1.12      0.00
    7    5    6     -0.30      0.00
   -8    6    6      0.99      0.00
    6    6    6     -2.39      0.00
    8    6    6     -1.10      0.00
   -7    7    6      1.51      0.00
    7    7    6     -0.52      0.00
   -8    8    6      0.20      0.00
    6    8    6      0.53      0.00
    8    8    6      0.00      0.00
   -7    9    6      0.36      0.00
    7    9    6     -0.78      0.00
   -8   10    6      0.67      0.00
    6   10    6     -2.91      0.00
    8   10    6      0.37      0.00
   -7   11    6     -0.18      0.00
    7   11    6     -0.12      0.00
   -8   12    6      0.42      0.00
   -6   12    6     -3.55      0.00
    6   12    6      0.16      0.00
    8   12    6     -0.60      0.00
   -7   13    6      0.84      0.00
    7   13    6      0.28      0.00
   -8   14    6      0.18      0.00
   -6   14    6     -3.29      0.00
    6   14    6      2.29      0.00
   -7   15    6      0.37      0.00
    7   15    6      1.12      0.00
   -8   16    6      0.19      0.00
   -6   16    6     -1.68      0.00
    6   16    6     -2.30      0.00
   -7   17    6     -0.10      0.00
    7   17    6      0.21      0.00
   -8   18    6     -0.35      0.00
   -6   18    6     -0.43      0.00
    6   18    6     -1.86      0.00
   -7   19    6     -0.21      0.00
    5   19    6     -1.26      0.00
    7   19    6     -0.91      0.00
   -8   20    6     -0.23      0.00
   -6   20    6      0.65      0.00
    6   20    6      0.18      0.00
   -7   21    6      0.74      0.00
    5   21    6     -0.36      0.00
    7   21    6      0.48      0.00
   -6   22    6     -0.27      0.00
    6   22    6     -0.24      0.00
   -7   23    6      1.28      0.00
   -5   23    6      0.59      0.00
    5   23    6      2.44      0.00
    7   23    6      0.18      0.00
   -6   24    6     -0.75      0.00
    6   24    6     -0.46      0.00
   -7   25    6      0.26      0.00
   -5   25    6      0.93      0.00
    5   25    6      1.98      0.00
    7   25    6     -1.20      0.00
   -6   26    6      0.75      0.00
    6   26    6     -1.77      0.00
   -7   27    6      0.36      0.00
   -5   27    6      0.11      0.00
    5   27    6      1.37      0.00
    7   27    6     -0.29      0.00
   -6   28    6      0.35      0.00
    4   28    6      0.60      0.00
    6   28    6     -0.88      0.00
   -7   29    6      0.44      0.00
   -5   29    6     -0.11      0.00
    5   29    6      0.88      0.00
   -6   30    6     -0.65      0.00
   -4   30    6     -0.65      0.00
    4   30    6     -0.56      0.00
    6   30    6      0.31      0.00
   -7   31    6     -0.14      0.00
   -5   31    6     -0.54      0.00
    3   31    6     -0.63      0.00
    5   31    6      0.14      0.00
   -6   32    6     -0.47      0.00
   -4   32    6      1.05      0.00
    4   32    6     -0.64      0.00
    6   32    6     -0.79      0.00
   -5   33    6     -0.46      0.00
   -3   33    6      2.45      0.00
    3   33    6      0.18      0.00
    5   33    6     -1.01      0.00
   -6   34    6     -0.35      0.00
   -4   34    6      0.68      0.00
    4   34    6     -0.32      0.00
    6   34    6     -0.14      0.00
   -5   35    6      0.43      0.00
   -3   35    6      0.43      0.00
    3   35    6      0.15      0.00
    5   35    6     -0.84      0.00
   -6   36    6     -0.34      0.00
   -4   36    6      0.00      0.00
   -2   36    6      0.96      0.00
    2   36    6      0.26      0.00
    4   36    6     -1.33      0.00
   -5   37    6      0.47      0.00
   -3   37    6      1.99      0.00
   -1   37    6     -0.18      0.00
    1   37    6     -2.50      0.00
    3   37    6     -0.23      0.00
    5   37    6      0.05      0.00
   -6   38    6     -0.23      0.00
   -4   38    6      1.13      0.00
   -2   38    6     -0.30      0.00
    0   38    6     -1.62      0.00
    2   38    6      1.54      0.00
    4   38    6     -0.47      0.00
   -5   39    6     -0.05      0.00
   -3   39    6      0.12      0.00
   -1   39    6     -0.67      0.00
    1   39    6     -1.91      0.00
    3   39    6      0.06      0.00
    5   39    6      0.29      0.00
   -4   40    6      0.39      0.00
   -2   40    6     -1.66      0.00
    0   40    6      0.55      0.00
    2   40    6      0.28      0.00
    4   40    6      0.26      0.00
   -5   41    6     -0.73      0.00
   -3   41    6     -1.25      0.00
   -1   41    6      0.30      0.00
    1   41    6     -0.50      0.00
    3   41    6      0.79      0.00
    5   41    6      0.10      0.00
   -4   42    6     -0.79      0.00
   -2   42    6     -1.16      0.00
    0   42    6      0.02      0.00
    2   42    6     -0.38      0.00
    4   42    6      0.55      0.00
   -5   43    6     -0.74      0.00
   -3   43    6     -0.51      0.00
   -1   43    6      0.41      0.00
    1   43    6      0.33      0.00
    3   43    6      0.06      0.00
   -4   44    6     -0.62      0.00
   -2   44    6      0.19      0.00
    0   44    6     -0.46      0.00
    2   44    6      0.16      0.00
    4   44    6      0.41      0.00
   -8    0    7      1.24      0.00
   -6    0    7     -1.77      0.00
    6    0    7     -0.75      0.00
   -7    1    7     -0.96      0.00
    7    1    7     -0.28      0.00
   -8    2    7      0.76      0.00
   -6    2    7     -0.72      0.00
    6    2    7     -3.19      0.00
   -7    3    7      0.14      0.00
    7    3    7     -0.38      0.00
   -8    4    7     -0.39      0.00
   -6    4    7      1.39      0.00
    6    4    7     -2.10      0.00
   -7    5    7     -0.57      0.00
    7    5    7     -1.87      0.00
   -8    6    7      0.02      0.00
   -6    6    7      0.72      0.00
    6    6    7     -1.68      0.00
   -7    7    7     -1.71      0.00
    7    7    7     -0.51      0.00
   -8    8    7      0.90      0.00
   -6    8    7     -1.88      0.00
    6    8    7     -2.47      0.00
   -7    9    7      0.29      0.00
    7    9    7      0.70      0.00
   -8   10    7      0.27      0.00
   -6   10    7     -1.50      0.00
    6   10    7      1.90      0.00
   -7   11    7      1.18      0.00
    5   11    7     -4.15      0.00
    7   11    7      0.66      0.00
   -8   12    7      0.03      0.00
   -6   12    7     -0.40      0.00
    6   12    7      0.47      0.00
   -7   13    7     -0.63      0.00
    5   13    7      5.63      0.00
    7   13    7      0.43      0.00
   -8   14    7     -0.05      0.00
   -6   14    7     -1.83      0.00
    6   14    7     -1.28      0.00
   -7   15    7     -0.66      0.00
    5   15    7      1.97      0.00
    7   15    7     -0.41      0.00
   -8   16    7     -0.10      0.00
   -6   16    7     -2.53      0.00
    6   16    7      0.82      0.00
   -7   17    7      0.62      0.00
    5   17    7     -4.53      0.00
    7   17    7      0.52      0.00
   -6   18    7     -1.19      0.00
    6   18    7     -1.25      0.00
   -7   19    7      1.12      0.00
   -5   19    7     -1.77      0.00
    5   19    7     -1.61      0.00
    7   19    7      1.66      0.00
   -6   20    7     -0.91      0.00
    6   20    7     -2.05      0.00
   -7   21    7      0.73      0.00
   -5   21    7     -1.06      0.00
    5   21    7      0.48      0.00
    7   21    7     -0.26      0.00
   -6   22    7     -0.18      0.00
    4   22    7     -1.25      0.00
    6   22    7      0.17      0.00
   -7   23    7      0.24      0.00
   -5   23    7      0.80      0.00
    5   23    7      0.00      0.00
    7   23    7     -1.00      0.00
   -6   24    7      0.63      0.00
    4   24    7     -0.20      0.00
    6   24    7     -0.57      0.00
   -7   25    7      0.72      0.00
   -5   25    7     -0.73      0.00
    5   25    7      0.10      0.00
   -6   26    7     -1.19      0.00
   -4   26    7     -1.06      0.00
    4   26    7      1.92      0.00
    6   26    7     -0.66      0.00
   -7   27    7      0.88      0.00
   -5   27    7     -1.26      0.00
    5   27    7     -0.31      0.00
   -6   28    7     -1.38      0.00
   -4   28    7     -0.14      0.00
    4   28    7      0.51      0.00
    6   28    7     -0.50      0.00
   -5   29    7     -1.22      0.00
    3   29    7     -1.98      0.00
    5   29    7     -0.42      0.00
   -6   30    7      0.13      0.00
   -4   30    7      0.73      0.00
    4   30    7     -0.27      0.00
    6   30    7     -1.13      0.00
   -5   31    7     -0.85      0.00
   -3   31    7     -2.00      0.00
    3   31    7     -3.41      0.00
    5   31    7      0.09      0.00
   -6   32    7     -0.34      0.00
   -4   32    7     -0.24      0.00
    2   32    7      0.12      0.00
    4   32    7     -1.35      0.00
    6   32    7      0.27      0.00
   -5   33    7      0.21      0.00
   -3   33    7      2.14      0.00
    1   33    7     -2.53      0.00
    3   33    7     -1.04      0.00
    5   33    7     -0.27      0.00
   -6   34    7     -0.69      0.00
   -4   34    7      0.78      0.00
   -2   34    7      1.59      0.00
    0   34    7     -3.88      0.00
    2   34    7      0.54      0.00
    4   34    7     -1.42      0.00
   -5   35    7      0.18      0.00
   -3   35    7      3.97      0.00
   -1   35    7     -2.37      0.00
    1   35    7     -2.33      0.00
    3   35    7     -0.62      0.00
    5   35    7     -0.77      0.00
   -4   36    7      1.99      0.00
   -2   36    7      0.46      0.00
    0   36    7     -2.40      0.00
    2   36    7     -0.35      0.00
    4   36    7     -0.17      0.00
   -5   37    7      0.05      0.00
   -3   37    7     -0.27      0.00
   -1   37    7     -0.51      0.00
    1   37    7     -1.29      0.00
    3   37    7     -0.51      0.00
    5   37    7      0.02      0.00
   -4   38    7      0.77      0.00
   -2   38    7     -1.03      0.00
    0   38    7     -0.47      0.00
    2   38    7     -1.60      0.00
    4   38    7      0.03      0.00
   -5   39    7      0.22      0.00
   -3   39    7     -1.39      0.00
   -1   39    7     -0.39      0.00
    1   39    7     -0.37      0.00
    3   39    7     -0.60      0.00
   -4   40    7      0.13      0.00
   -2   40    7     -0.57      0.00
    0   40    7     -1.49      0.00
    2   40    7     -0.45      0.00
    4   40    7      0.70      0.00
   -3   41    7      0.11      0.00
   -1   41    7     -0.95      0.00
    1   41    7     -0.60      0.00
    3   41    7     -1.15      0.00
   -4   42    7     -0.19      0.00
   -2   42    7      0.21      0.00
    0   42    7     -1.18      0.00
    2   42    7     -0.10      0.00
    4   42    7      0.45      0.00
   -3   43    7      0.64      0.00
   -1   43    7     -0.48      0.00
    1   43    7     -0.68      0.00
    3   43    7     -0.29      0.00
   -4   44    7     -0.60      0.00
   -2   44    7     -0.08      0.00
    0   44    7     -0.06      0.00
    2   44    7     -0.54      0.00
   -8    0    8     -0.15      0.00
   -6    0    8     -1.36      0.00
    6    0    8     -0.19      0.00
   -7    1    8     -0.43      0.00
    5    1    8     -1.65      0.00
    7    1    8      0.14      0.00
   -8    2    8      0.03      0.00
   -6    2    8     -0.82      0.00
    6    2    8      0.84      0.00
   -7    3    8     -0.39      0.00
    5    3    8      2.18      0.00
    7    3    8      0.00      0.00
   -8    4    8      0.19      0.00
   -6    4    8     -0.38      0.00
    6    4    8     -0.87      0.00
   -7    5    8     -0.22      0.00
    5    5    8     -0.29      0.00
    7    5    8      0.93      0.00
   -8    6    8     -0.31      0.00
   -6    6    8      1.47      0.00
    6    6    8     -0.80      0.00
   -7    7    8      0.12      0.00
    5    7    8     -4.85      0.00
    7    7    8      0.23      0.00
   -8    8    8     -0.35      0.00
   -6    8    8      2.95      0.00
    6    8    8      1.03      0.00
   -7    9    8     -0.19      0.00
    5    9    8      3.07      0.00
    7    9    8     -0.17      0.00
   -6   10    8     -0.20      0.00
    6   10    8     -0.19      0.00
   -7   11    8     -0.22      0.00
   -5   11    8      1.95      0.00
    5   11    8      5.92      0.00
    7   11    8     -0.03      0.00
   -6   12    8     -2.50      0.00
    6   12    8      1.72      0.00
   -7   13    8      0.40      0.00
   -5   13    8      2.82      0.00
    5   13    8     -1.02      0.00
    7   13    8     -0.04      0.00
   -6   14    8     -0.56      0.00
    6   14    8      1.42      0.00
   -7   15    8      0.13      0.00
   -5   15    8     -0.23      0.00
    5   15    8     -0.41      0.00
    7   15    8      0.58      0.00
   -6   16    8      0.49      0.00
    4   16    8      1.81      0.00
    6   16    8     -1.93      0.00
   -7   17    8     -0.44      0.00
   -5   17    8     -1.55      0.00
    5   17    8      1.64      0.00
   -6   18    8     -0.90      0.00
    4   18    8     -0.99      0.00
    6   18    8     -0.67      0.00
   -7   19    8     -0.06      0.00
   -5   19    8      1.49      0.00
    5   19    8     -0.93      0.00
   -6   20    8     -0.90      0.00
   -4   20    8      3.95      0.00
    4   20    8     -2.61      0.00
    6   20    8      0.74      0.00
   -7   21    8      0.43      0.00
   -5   21    8      0.08      0.00
    5   21    8     -1.76      0.00
   -6   22    8     -0.49      0.00
   -4   22    8      1.24      0.00
    4   22    8      0.73      0.00
    6   22    8     -0.93      0.00
   -7   23    8      0.57      0.00
   -5   23    8     -2.87      0.00
    3   23    8     -0.75      0.00
    5   23    8     -0.26      0.00
   -6   24    8     -1.31      0.00
   -4   24    8      0.10      0.00
    4   24    8      0.59      0.00
    6   24    8     -0.27      0.00
   -5   25    8     -1.32      0.00
    3   25    8      1.83      0.00
    5   25    8     -0.23      0.00
   -6   26    8     -0.59      0.00
   -4   26    8      1.01      0.00
    4   26    8     -1.01      0.00
    6   26    8      0.39      0.00
   -5   27    8     -0.42      0.00
   -3   27    8     -5.06      0.00
    3   27    8     -1.94      0.00
    5   27    8     -0.56      0.00
   -6   28    8     -0.37      0.00
   -4   28    8     -0.81      0.00
    2   28    8      1.57      0.00
    4   28    8     -0.39      0.00
   -5   29    8     -1.19      0.00
   -3   29    8     -1.56      0.00
    1   29    8     -0.18      0.00
    3   29    8     -1.61      0.00
    5   29    8     -0.11      0.00
   -6   30    8     -1.35      0.00
   -4   30    8     -2.32      0.00
   -2   30    8      0.77      0.00
    0   30    8     -0.76      0.00
    2   30    8      1.22      0.00
    4   30    8     -0.21      0.00
   -5   31    8     -1.36      0.00
   -3   31    8      2.76      0.00
   -1   31    8     -1.82      0.00
    1   31    8      2.15      0.00
    3   31    8     -0.75      0.00
    5   31    8     -0.24      0.00
   -6   32    8     -0.62      0.00
   -4   32    8     -1.03      0.00
   -2   32    8      0.99      0.00
    0   32    8     -2.90      0.00
    2   32    8      1.95      0.00
    4   32    8      0.34      0.00
   -5   33    8     -0.73      0.00
   -3   33    8      0.68      0.00
   -1   33    8     -1.05      0.00
    1   33    8      0.51      0.00
    3   33    8     -1.98      0.00
    5   33    8      0.03      0.00
   -4   34    8      0.06      0.00
   -2   34    8      0.03      0.00
    0   34    8     -0.24      0.00
    2   34    8      0.72      0.00
    4   34    8     -0.49      0.00
   -5   35    8      0.64      0.00
   -3   35    8     -1.70      0.00
   -1   35    8     -1.74      0.00
    1   35    8     -0.13      0.00
    3   35    8     -0.47      0.00
   -4   36    8     -0.13      0.00
   -2   36    8      0.23      0.00
    0   36    8     -0.02      0.00
    2   36    8      0.62      0.00
    4   36    8     -0.68      0.00
   -5   37    8      0.82      0.00
   -3   37    8     -0.20      0.00
   -1   37    8     -2.26      0.00
    1   37    8     -0.68      0.00
    3   37    8     -0.34      0.00
   -4   38    8     -0.07      0.00
   -2   38    8      0.50      0.00
    0   38    8     -1.96      0.00
    2   38    8      1.40      0.00
    4   38    8      0.82      0.00
   -3   39    8      0.09      0.00
   -1   39    8     -0.93      0.00
    1   39    8     -0.86      0.00
    3   39    8     -0.68      0.00
   -4   40    8     -0.18      0.00
   -2   40    8     -0.60      0.00
    0   40    8     -0.48      0.00
    2   40    8     -0.44      0.00
   -3   41    8     -0.83      0.00
   -1   41    8     -0.13      0.00
    1   41    8      0.23      0.00
    3   41    8      0.07      0.00
   -2   42    8     -0.60      0.00
    0   42    8      0.58      0.00
    2   42    8     -0.80      0.00
   -3   43    8     -0.36      0.00
   -1   43    8      0.18      0.00
    1   43    8      0.44      0.00
   -2   44    8      0.48      0.00
    0   44    8     -0.35      0.00
    2   44    8     -0.22      0.00
   -6    0    9     -1.91      0.00
    4    0    9      0.48      0.00
    6    0    9      1.28      0.00
   -7    1    9      0.08      0.00
   -5    1    9     -1.28      0.00
    5    1    9      2.90      0.00
   -6    2    9     -1.43      0.00
    4    2    9      0.39      0.00
    6    2    9      0.89      0.00
   -7    3    9     -0.17      0.00
   -5    3    9      0.69      0.00
    5    3    9     -1.11      0.00
   -6    4    9      1.11      0.00
    4    4    9      0.56      0.00
    6    4    9      1.37      0.00
   -7    5    9      0.21      0.00
   -5    5    9      0.19      0.00
    5    5    9      0.04      0.00
   -6    6    9      1.66      0.00
    4    6    9      0.85      0.00
    6    6    9      0.43      0.00
   -7    7    9      1.08      0.00
   -5    7    9      0.72      0.00
    5    7    9      4.11      0.00
   -6    8    9     -0.62      0.00
    4    8    9      0.98      0.00
    6    8    9      0.20      0.00
   -7    9    9      0.80      0.00
   -5    9    9      1.03      0.00
    5    9    9      0.25      0.00
   -6   10    9      0.20      0.00
    4   10    9      2.34      0.00
    6   10    9      1.57      0.00
   -7   11    9     -0.27      0.00
   -5   11    9     -1.26      0.00
    5   11    9      0.18      0.00
   -6   12    9      1.26      0.00
   -4   12    9     -1.23      0.00
    4   12    9      4.63      0.00
    6   12    9      0.07      0.00
   -7   13    9     -0.61      0.00
   -5   13    9     -1.50      0.00
    5   13    9      4.54      0.00
   -6   14    9     -0.33      0.00
   -4   14    9      0.05      0.00
    4   14    9      3.89      0.00
    6   14    9     -0.21      0.00
   -7   15    9     -0.39      0.00
   -5   15    9      1.27      0.00
    3   15    9      1.61      0.00
    5   15    9      1.65      0.00
   -6   16    9     -1.38      0.00
   -4   16    9      3.73      0.00
    4   16    9      0.97      0.00
    6   16    9      0.91      0.00
   -7   17    9      0.04      0.00
   -5   17    9      0.98      0.00
    3   17    9     -3.22      0.00
    5   17    9     -1.86      0.00
   -6   18    9     -0.56      0.00
   -4   18    9      3.09      0.00
    4   18    9      1.13      0.00
    6   18    9     -0.31      0.00
   -5   19    9     -2.71      0.00
    3   19    9     -4.05      0.00
    5   19    9     -0.67      0.00
   -6   20    9     -0.14      0.00
   -4   20    9      1.35      0.00
    4   20    9      0.93      0.00
    6   20    9     -1.23      0.00
   -5   21    9     -2.32      0.00
   -3   21    9      3.15      0.00
    3   21    9      1.35      0.00
    5   21    9      0.59      0.00
   -6   22    9     -0.68      0.00
   -4   22    9      3.76      0.00
    2   22    9     -0.07      0.00
    4   22    9     -1.04      0.00
    6   22    9      0.56      0.00
   -5   23    9      0.37      0.00
   -3   23    9     -3.59      0.00
    3   23    9     -0.25      0.00
    5   23    9     -0.72      0.00
   -6   24    9     -0.39      0.00
   -4   24    9      2.96      0.00
   -2   24    9     -0.17      0.00
    2   24    9      1.19      0.00
    4   24    9     -0.29      0.00
   -5   25    9     -0.22      0.00
   -3   25    9      0.44      0.00
   -1   25    9     -1.70      0.00
    1   25    9     -0.32      0.00
    3   25    9     -2.17      0.00
    5   25    9     -0.70      0.00
   -6   26    9     -0.33      0.00
   -4   26    9     -1.69      0.00
   -2   26    9      1.68      0.00
    0   26    9     -0.49      0.00
    2   26    9      1.94      0.00
    4   26    9     -0.15      0.00
   -5   27    9     -1.52      0.00
   -3   27    9      3.06      0.00
   -1   27    9      3.27      0.00
    1   27    9      1.99      0.00
    3   27    9      0.54      0.00
    5   27    9      0.61      0.00
   -6   28    9     -0.45      0.00
   -4   28    9     -2.53      0.00
   -2   28    9      2.45      0.00
    0   28    9     -1.56      0.00
    2   28    9      3.36      0.00
    4   28    9     -0.36      0.00
   -5   29    9     -1.15      0.00
   -3   29    9     -1.10      0.00
   -1   29    9      3.52      0.00
    1   29    9     -0.11      0.00
    3   29    9     -0.36      0.00
    5   29    9      0.35      0.00
   -4   30    9     -1.02      0.00
   -2   30    9      0.37      0.00
    0   30    9      1.55      0.00
    2   30    9      2.95      0.00
    4   30    9      0.43      0.00
   -5   31    9     -0.10      0.00
   -3   31    9     -2.32      0.00
   -1   31    9      0.93      0.00
    1   31    9     -0.81      0.00
    3   31    9     -0.49      0.00
   -4   32    9     -1.12      0.00
   -2   32    9     -0.03      0.00
    0   32    9      3.79      0.00
    2   32    9      1.07      0.00
    4   32    9     -0.34      0.00
   -5   33    9      0.21      0.00
   -3   33    9      0.52      0.00
   -1   33    9     -1.05      0.00
    1   33    9      1.09      0.00
    3   33    9      1.07      0.00
   -4   34    9     -1.70      0.00
   -2   34    9      1.77      0.00
    0   34    9      1.07      0.00
    2   34    9      2.90      0.00
    4   34    9      0.05      0.00
   -3   35    9      1.66      0.00
   -1   35    9     -0.23      0.00
    1   35    9      0.27      0.00
    3   35    9     -0.01      0.00
   -4   36    9     -1.07      0.00
   -2   36    9      0.41      0.00
    0   36    9      0.07      0.00
    2   36    9      2.71      0.00
   -3   37    9     -0.73      0.00
   -1   37    9      0.74      0.00
    1   37    9      0.59      0.00
    3   37    9      0.27      0.00
   -4   38    9     -0.52      0.00
   -2   38    9     -1.06      0.00
    0   38    9      2.01      0.00
    2   38    9      0.46      0.00
   -3   39    9     -1.65      0.00
   -1   39    9      0.13      0.00
    1   39    9      1.00      0.00
    3   39    9      0.67      0.00
   -2   40    9     -0.01      0.00
    0   40    9      1.07      0.00
    2   40    9      1.17      0.00
   -3   41    9     -0.27      0.00
   -1   41    9      0.05      0.00
    1   41    9     -0.22      0.00
   -2   42    9      0.35      0.00
    0   42    9     -0.54      0.00
    2   42    9      0.82      0.00
   -1   43    9      0.01      0.00
    1   43    9     -0.24      0.00
    0   44    9     -0.14      0.00
   -6    0   10     -2.26      0.00
   -4    0   10      0.38      0.00
    4    0   10      1.70      0.00
    6    0   10      0.77      0.00
   -7    1   10     -0.41      0.00
   -5    1   10     -0.70      0.00
    3    1   10     -4.58      0.00
    5    1   10      0.70      0.00
   -6    2   10     -0.49      0.00
   -4    2   10     -0.75      0.00
    4    2   10      1.04      0.00
    6    2   10      0.64      0.00
   -7    3   10      0.23      0.00
   -5    3   10     -0.94      0.00
    3    3   10     -5.12      0.00
    5    3   10      3.01      0.00
   -6    4   10      0.45      0.00
   -4    4   10     -2.13      0.00
    4    4   10     -0.44      0.00
    6    4   10      0.14      0.00
   -7    5   10      0.85      0.00
   -5    5   10      1.33      0.00
    3    5   10     -3.40      0.00
    5    5   10      1.90      0.00
   -6    6   10      0.29      0.00
   -4    6   10     -1.65      0.00
    4    6   10     -0.56      0.00
    6    6   10      0.44      0.00
   -7    7   10      0.19      0.00
   -5    7   10      0.07      0.00
    3    7   10     -1.32      0.00
    5    7   10     -0.77      0.00
   -6    8   10      0.87      0.00
   -4    8   10     -1.09      0.00
    4    8   10      0.82      0.00
    6    8   10      0.13      0.00
   -5    9   10     -2.20      0.00
   -3    9   10     -1.11      0.00
    3    9   10     -3.53      0.00
    5    9   10      2.64      0.00
   -6   10   10     -0.57      0.00
   -4   10   10     -1.05      0.00
    4   10   10      1.56      0.00
    6   10   10     -0.22      0.00
   -5   11   10     -1.01      0.00
   -3   11   10     -0.99      0.00
    3   11   10     -0.71      0.00
    5   11   10      2.97      0.00
   -6   12   10     -1.18      0.00
   -4   12   10      0.18      0.00
    2   12   10     -1.24      0.00
    4   12   10      1.76      0.00
    6   12   10      0.51      0.00
   -5   13   10     -0.64      0.00
   -3   13   10     -0.88      0.00
    3   13   10      1.72      0.00
    5   13   10     -0.58      0.00
   -6   14   10      0.11      0.00
   -4   14   10      0.56      0.00
    2   14   10     -2.32      0.00
    4   14   10      2.24      0.00
   -5   15   10     -1.52      0.00
   -3   15   10      2.08      0.00
    3   15   10     -1.78      0.00
    5   15   10     -0.14      0.00
   -6   16   10      0.35      0.00
   -4   16   10     -0.48      0.00
   -2   16   10     -0.67      0.00
    2   16   10     -4.97      0.00
    4   16   10      2.04      0.00
   -5   17   10     -1.14      0.00
   -3   17   10      2.26      0.00
    1   17   10      1.34      0.00
    3   17   10     -0.40      0.00
    5   17   10      0.74      0.00
   -6   18   10     -0.80      0.00
   -4   18   10      1.78      0.00
   -2   18   10     -4.01      0.00
    0   18   10      1.11      0.00
    2   18   10     -3.82      0.00
    4   18   10      0.40      0.00
   -5   19   10     -0.17      0.00
   -3   19   10     -3.26      0.00
   -1   19   10      2.41      0.00
    1   19   10     -2.34      0.00
    3   19   10     -0.16      0.00
    5   19   10     -0.30      0.00
   -6   20   10     -1.40      0.00
   -4   20   10      4.16      0.00
   -2   20   10     -2.18      0.00
    0   20   10      0.78      0.00
    2   20   10     -1.46      0.00
    4   20   10      0.21      0.00
   -5   21   10     -0.35      0.00
   -3   21   10     -1.28      0.00
   -1   21   10     -3.29      0.00
    1   21   10     -1.67      0.00
    3   21   10     -3.52      0.00
    5   21   10     -1.01      0.00
   -6   22   10     -0.28      0.00
   -4   22   10      0.90      0.00
   -2   22   10     -0.32      0.00
    0   22   10     -0.19      0.00
    2   22   10     -0.88      0.00
    4   22   10      0.29      0.00
   -5   23   10     -0.95      0.00
   -3   23   10      4.23      0.00
   -1   23   10      2.18      0.00
    1   23   10     -0.31      0.00
    3   23   10     -0.81      0.00
    5   23   10      0.24      0.00
   -4   24   10     -0.64      0.00
   -2   24   10     -0.43      0.00
    0   24   10     -0.34      0.00
    2   24   10      0.76      0.00
    4   24   10     -1.24      0.00
   -5   25   10     -0.90      0.00
   -3   25   10      0.60      0.00
   -1   25   10      4.27      0.00
    1   25   10     -2.20      0.00
    3   25   10      1.73      0.00
   -4   26   10      1.29      0.00
   -2   26   10     -0.22      0.00
    0   26   10      0.28      0.00
    2   26   10      1.56      0.00
    4   26   10     -0.07      0.00
   -5   27   10     -0.37      0.00
   -3   27   10     -1.77      0.00
   -1   27   10      0.46      0.00
    1   27   10     -2.96      0.00
    3   27   10     -0.31      0.00
   -4   28   10     -0.14      0.00
   -2   28   10      0.20      0.00
    0   28   10      1.42      0.00
    2   28   10      0.29      0.00
    4   28   10      1.06      0.00
   -5   29   10      0.15      0.00
   -3   29   10      0.88      0.00
   -1   29   10      1.09      0.00
    1   29   10     -0.43      0.00
    3   29   10      0.03      0.00
   -4   30   10     -2.39      0.00
   -2   30   10      2.41      0.00
    0   30   10      1.21      0.00
    2   30   10      1.11      0.00
    4   30   10      0.01      0.00
   -3   31   10      1.42      0.00
   -1   31   10      2.43      0.00
    1   31   10      0.04      0.00
    3   31   10      0.60      0.00
   -4   32   10     -1.41      0.00
   -2   32   10      1.69      0.00
    0   32   10      0.95      0.00
    2   32   10      3.25      0.00
   -3   33   10      0.44      0.00
   -1   33   10      2.14      0.00
    1   33   10     -1.39      0.00
    3   33   10      0.20      0.00
   -4   34   10      0.44      0.00
   -2   34   10     -0.88      0.00
    0   34   10      2.23      0.00
    2   34   10      1.61      0.00
   -3   35   10     -0.07      0.00
   -1   35   10      0.95      0.00
    1   35   10     -0.01      0.00
    3   35   10      0.80      0.00
   -2   36   10      0.20      0.00
    0   36   10      2.34      0.00
    2   36   10      0.82      0.00
   -3   37   10      0.15      0.00
   -1   37   10      0.24      0.00
    1   37   10      0.28      0.00
   -2   38   10      0.94      0.00
    0   38   10      0.72      0.00
    2   38   10      1.34      0.00
   -1   39   10      0.94      0.00
    1   39   10     -0.12      0.00
    0   40   10      0.32      0.00
   -6    0   11     -0.31      0.00
   -4    0   11     -0.23      0.00
   -2    0   11     -0.93      0.00
    0    0   11     -0.32      0.00
    2    0   11     -2.06      0.00
    4    0   11      0.20      0.00
   -5    1   11      0.03      0.00
   -3    1   11     -1.56      0.00
   -1    1   11     -0.15      0.00
    1    1   11     -0.66      0.00
    3    1   11     -1.54      0.00
    5    1   11      1.29      0.00
   -6    2   11     -0.66      0.00
   -4    2   11     -0.22      0.00
   -2    2   11     -0.70      0.00
    0    2   11     -0.49      0.00
    2    2   11     -0.85      0.00
    4    2   11      0.45      0.00
   -5    3   11      0.66      0.00
   -3    3   11     -0.45      0.00
   -1    3   11     -2.66      0.00
    1    3   11     -0.22      0.00
    3    3   11     -0.84      0.00
    5    3   11      0.46      0.00
   -6    4   11      0.33      0.00
   -4    4   11     -0.32      0.00
   -2    4   11     -0.59      0.00
    0    4   11     -1.45      0.00
    2    4   11     -0.69      0.00
    4    4   11      0.65      0.00
   -5    5   11     -0.69      0.00
   -3    5   11     -2.20      0.00
   -1    5   11     -1.44      0.00
    1    5   11      0.03      0.00
    3    5   11     -2.04      0.00
    5    5   11      0.69      0.00
   -6    6   11      0.96      0.00
   -4    6   11     -0.61      0.00
   -2    6   11     -1.43      0.00
    0    6   11     -0.87      0.00
    2    6   11     -0.92      0.00
    4    6   11     -0.23      0.00
   -5    7   11     -0.39      0.00
   -3    7   11     -1.86      0.00
   -1    7   11      1.12      0.00
    1    7   11      0.61      0.00
    3    7   11     -3.25      0.00
    5    7   11      2.03      0.00
   -6    8   11     -0.41      0.00
   -4    8   11     -0.70      0.00
   -2    8   11      0.01      0.00
    0    8   11      1.67      0.00
    2    8   11     -0.39      0.00
    4    8   11     -0.66      0.00
   -5    9   11     -0.16      0.00
   -3    9   11      0.70      0.00
   -1    9   11      0.48      0.00
    1    9   11     -1.02      0.00
    3    9   11      0.16      0.00
    5    9   11      0.18      0.00
   -6   10   11     -0.44      0.00
   -4   10   11     -0.70      0.00
   -2   10   11      2.67      0.00
    0   10   11      2.35      0.00
    2   10   11     -0.65      0.00
    4   10   11      0.30      0.00
   -5   11   11     -1.23      0.00
   -3   11   11      2.04      0.00
   -1   11   11      0.06      0.00
    1   11   11     -1.12      0.00
    3   11   11      0.02      0.00
    5   11   11     -0.14      0.00
   -6   12   11     -0.04      0.00
   -4   12   11     -0.81      0.00
   -2   12   11      2.23      0.00
    0   12   11      1.08      0.00
    2   12   11     -1.74      0.00
    4   12   11      0.69      0.00
   -5   13   11     -0.60      0.00
   -3   13   11      1.94      0.00
   -1   13   11      2.98      0.00
    1   13   11      2.01      0.00
    3   13   11     -1.39      0.00
    5   13   11      1.09      0.00
   -6   14   11     -0.25      0.00
   -4   14   11     -0.01      0.00
   -2   14   11      0.73      0.00
    0   14   11      1.04      0.00
    2   14   11     -1.86      0.00
    4   14   11      0.28      0.00
   -5   15   11     -0.04      0.00
   -3   15   11     -0.28      0.00
   -1   15   11      4.02      0.00
    1   15   11     -1.25      0.00
    3   15   11      0.64      0.00
    5   15   11      0.16      0.00
   -4   16   11      1.29      0.00
   -2   16   11      0.51      0.00
    0   16   11      1.50      0.00
    2   16   11     -0.21      0.00
    4   16   11      0.02      0.00
   -5   17   11     -0.31      0.00
   -3   17   11     -1.39      0.00
   -1   17   11      0.41      0.00
    1   17   11     -3.62      0.00
    3   17   11     -0.90      0.00
   -4   18   11      0.19      0.00
   -2   18   11      0.86      0.00
    0   18   11      1.22      0.00
    2   18   11     -1.55      0.00
    4   18   11      0.33      0.00
   -5   19   11     -0.32      0.00
   -3   19   11      1.42      0.00
   -1   19   11      1.06      0.00
    1   19   11     -0.96      0.00
    3   19   11     -1.72      0.00
   -4   20   11     -1.26      0.00
   -2   20   11     -0.76      0.00
    0   20   11      1.78      0.00
    2   20   11     -2.28      0.00
    4   20   11     -0.17      0.00
   -5   21   11     -0.40      0.00
   -3   21   11      1.04      0.00
   -1   21   11      3.61      0.00
    1   21   11     -1.63      0.00
    3   21   11      0.67      0.00
   -4   22   11      0.83      0.00
   -2   22   11     -1.98      0.00
    0   22   11      1.01      0.00
    2   22   11     -0.58      0.00
    4   22   11     -0.45      0.00
   -5   23   11     -0.53      0.00
   -3   23   11     -1.74      0.00
   -1   23   11     -0.09      0.00
    1   23   11     -2.10      0.00
    3   23   11     -0.27      0.00
   -4   24   11      1.34      0.00
   -2   24   11     -0.94      0.00
    0   24   11     -0.74      0.00
    2   24   11     -0.24      0.00
    4   24   11      0.55      0.00
   -3   25   11      0.39      0.00
   -1   25   11     -0.92      0.00
    1   25   11     -1.09      0.00
    3   25   11     -1.44      0.00
   -4   26   11     -0.84      0.00
   -2   26   11      0.74      0.00
    0   26   11     -0.86      0.00
    2   26   11      0.39      0.00
   -3   27   11      1.23      0.00
   -1   27   11      1.87      0.00
    1   27   11     -0.88      0.00
    3   27   11      0.34      0.00
   -4   28   11     -0.97      0.00
   -2   28   11      1.15      0.00
    0   28   11     -0.03      0.00
    2   28   11      1.34      0.00
   -3   29   11     -0.49      0.00
   -1   29   11      1.39      0.00
    1   29   11     -2.03      0.00
    3   29   11      0.80      0.00
   -2   30   11     -0.80      0.00
    0   30   11      0.97      0.00
    2   30   11      0.63      0.00
   -3   31   11     -0.15      0.00
   -1   31   11      0.44      0.00
    1   31   11     -1.91      0.00
   -2   32   11     -0.48      0.00
    0   32   11      0.85      0.00
    2   32   11     -0.33      0.00
   -3   33   11      0.42      0.00
   -1   33   11     -0.03      0.00
    1   33   11      0.15      0.00
   -2   34   11      0.98      0.00
    0   34   11      0.04      0.00
   -1   35   11      0.09      0.00
    1   35   11      0.13      0.00
    0   36   11     -0.09      0.00
    0    0    0      0.00      0.00
# SQUEEZE RESULTS (Version = 201117)
# Note: Data are Listed for all Voids in the P1 Unit Cell
# i.e. Centre of Gravity, Solvent Accessible Volume,
# Recovered number of Electrons in the Void and
# Details about the Squeezed Material
loop_
  _platon_squeeze_void_nr
  _platon_squeeze_void_average_x
  _platon_squeeze_void_average_y
  _platon_squeeze_void_average_z
  _platon_squeeze_void_volume
  _platon_squeeze_void_count_electrons
  _platon_squeeze_void_content
   1 -0.028  0.000  0.000       304        75 ' '
   2 -0.057  0.147  0.500       161        27 ' '
   3 -0.011  0.353  0.500       160        27 ' '
   4 -0.043  0.500  0.000       304        75 ' '
   5 -0.016  0.647  0.500       161        27 ' '
   6 -0.059  0.853  0.500       160        27 ' '
# Missing Reflections Below sin(th)/lambda = 0.25
loop_
  _platon_missing_refln_index_h
  _platon_missing_refln_index_k
  _platon_missing_refln_index_l
  _platon_missing_refln_theta
    0    2    0     0.930
    0    4    0     1.861
    0    0    1     1.861
    2    0    1     6.072
    0    2    1     2.081
    0    4    1     2.632
   -1    3    3     6.266
_platon_squeeze_void_probe_radius                  1.20
_platon_squeeze_details
)
TITL shelxt_a.res in C2/m
CELL    7.2183   43.7780   10.9651     90.00     93.59     90.00
SPGR C2/m
# Solvent Accessible Volume =      1252
# Electrons Found in S.A.V. =       250
# Note: Atoms in Void are Labelled as Cxxx and Qxxx for all Others
C101 0.500 0.145 0.496 !       3.04 eA-3
C102 0.199 0.026 0.171 !       2.43 eA-3
C103 0.298 0.127 0.472 !       1.89 eA-3
C104 0.240 0.498 0.000 !       1.55 eA-3
C105 0.237 0.500 0.094 !       1.54 eA-3
C106 0.023 0.329 0.465 !       1.48 eA-3
C107 0.734 0.472 0.063 !       1.25 eA-3
C108 0.335 0.355 0.536 !       1.07 eA-3
C109 0.584 0.441 0.012 !       1.07 eA-3
C110 0.234 0.473 0.050 !       0.98 eA-3
C111 0.497 0.452 0.041 !       0.94 eA-3
C112 0.882 0.039 0.031 !       0.91 eA-3
C113 1.005 0.016 0.145 !       0.85 eA-3
Q114 0.969 0.501 0.391 !       0.74 eA-3
C115 0.744 0.449 0.020 !       0.66 eA-3
C116 0.641 0.501 0.828 !       0.61 eA-3
)
;
_shelx_fab_checksum              60368
loop_
_space_group_symop_operation_xyz
'x, y, z'
'-x, y, -z'
'x+1/2, y+1/2, z'
'-x+1/2, y+1/2, -z'
'-x, -y, -z'
'x, -y, z'
'-x+1/2, -y+1/2, -z'
'x+1/2, -y+1/2, z'
loop_
_atom_site_label
_atom_site_type_symbol
_atom_site_fract_x
_atom_site_fract_y
_atom_site_fract_z
_atom_site_U_iso_or_equiv
_atom_site_adp_type
_atom_site_occupancy
_atom_site_site_symmetry_order
_atom_site_calc_flag
_atom_site_refinement_flags_posn
_atom_site_refinement_flags_adp
_atom_site_refinement_flags_occupancy
In1 In 0.000000 0.500000 0.500000 0.0169(2) Uani 1 4 d S T P
In2 In 0.500000 0.500000 0.500000 0.0162(2) Uani 1 4 d S T P
O1 O 0.6085(5) 0.53585(8) 0.6190(3) 0.0542(11) Uani 1 1 d . . .
O2 O 0.9165(5) 0.53577(7) 0.6214(3) 0.0426(9) Uani 1 1 d . . .
O3 O 0.2586(5) 0.500000 0.5946(4) 0.0291(10) Uani 1 2 d S T P
C1 C 0.7631(7) 0.54740(10) 0.6463(4) 0.0340(12) Uani 1 1 d . . .
C2 C 0.7676(7) 0.57625(10) 0.7150(5) 0.0436(14) Uani 1 1 d . . .
C3 C 0.6087(8) 0.59225(13) 0.7287(7) 0.084(2) Uani 1 1 d . . .
H3 H 0.495975 0.584448 0.696773 0.100 Uiso 1 1 calc R U .
C4 C 0.6124(9) 0.62011(14) 0.7897(8) 0.100(3) Uani 1 1 d . . .
H4 H 0.501845 0.630493 0.799397 0.119 Uiso 1 1 calc R U .
C5 C 0.7750(8) 0.63235(12) 0.8352(6) 0.0653(19) Uani 1 1 d . . .
C6 C 0.9375(8) 0.61605(13) 0.8237(7) 0.077(2) Uani 1 1 d . . .
H6 H 1.050246 0.623883 0.855407 0.092 Uiso 1 1 calc R U .
C7 C 0.9315(8) 0.58832(12) 0.7653(6) 0.0677(19) Uani 1 1 d . . .
H7 H 1.041015 0.577358 0.759426 0.081 Uiso 1 1 calc R U .
C8 C 0.7783(8) 0.66269(13) 0.8888(6) 0.0688(19) Uani 1 1 d . . .
C9 C 0.7730(8) 0.68805(13) 0.9238(6) 0.0635(18) Uani 1 1 d . . .
C10 C 0.7631(7) 0.71949(12) 0.9643(5) 0.0463(15) Uani 1 1 d . . .
C11 C 0.7938(7) 0.74234(11) 0.8798(6) 0.0497(16) Uani 1 1 d . . .
C12 C 0.8376(8) 0.73641(17) 0.7571(7) 0.071(2) Uani 1 1 d . . .
H12 H 0.845318 0.716273 0.730861 0.086 Uiso 1 1 calc R U .
C13 C 0.8684(10) 0.7593(2) 0.6775(7) 0.091(2) Uani 1 1 d . . .
H13 H 0.897970 0.754452 0.598412 0.109 Uiso 1 1 calc R U .
C14 C 0.8568(10) 0.7896(2) 0.7112(8) 0.090(2) Uani 1 1 d . . .
H14 H 0.878495 0.805003 0.655494 0.108 Uiso 1 1 calc R U .
C15 C 0.8130(8) 0.79661(15) 0.8273(8) 0.072(2) Uani 1 1 d . . .
H15 H 0.804426 0.817034 0.849660 0.086 Uiso 1 1 calc R U .
C16 C 0.7807(7) 0.77403(12) 0.9135(6) 0.0485(15) Uani 1 1 d . . .
loop_
_atom_site_aniso_label
_atom_site_aniso_U_11
_atom_site_aniso_U_22
_atom_site_aniso_U_33
_atom_site_aniso_U_23
_atom_site_aniso_U_13
_atom_site_aniso_U_12
In1 0.0110(4) 0.0115(3) 0.0286(4) 0.000 0.0041(3) 0.000
In2 0.0117(4) 0.0123(3) 0.0246(4) 0.000 0.0018(3) 0.000
O1 0.028(2) 0.050(2) 0.085(3) -0.043(2) 0.0160(19) -0.0108(18)
O2 0.027(2) 0.037(2) 0.065(2) -0.0280(18) 0.0072(17) 0.0004(17)
O3 0.014(2) 0.041(3) 0.032(3) 0.000 0.0031(19) 0.000
C1 0.025(3) 0.027(3) 0.051(3) -0.013(2) 0.006(3) -0.005(3)
C2 0.022(3) 0.030(3) 0.079(4) -0.028(3) 0.003(3) 0.002(2)
C3 0.030(4) 0.063(4) 0.156(7) -0.069(5) -0.011(4) 0.004(3)
C4 0.040(4) 0.072(5) 0.183(8) -0.083(5) -0.023(5) 0.020(4)
C5 0.051(4) 0.035(3) 0.108(5) -0.044(3) -0.010(4) 0.010(3)
C6 0.039(4) 0.052(4) 0.138(6) -0.049(4) -0.016(4) 0.000(3)
C7 0.031(4) 0.046(4) 0.125(6) -0.052(4) -0.002(3) 0.008(3)
C8 0.048(4) 0.044(4) 0.112(6) -0.032(4) -0.010(4) 0.010(3)
C9 0.036(4) 0.040(4) 0.113(5) -0.040(4) -0.011(3) 0.005(3)
C10 0.023(3) 0.036(3) 0.079(5) -0.026(3) 0.001(3) 0.001(2)
C11 0.022(3) 0.037(4) 0.090(5) -0.026(3) -0.001(3) 0.002(2)
C12 0.042(4) 0.084(5) 0.088(5) -0.043(5) 0.003(4) 0.002(3)
C13 0.059(5) 0.135(8) 0.079(6) -0.017(6) 0.012(4) -0.002(5)
C14 0.062(5) 0.110(7) 0.096(7) 0.013(5) 0.001(4) -0.016(5)
C15 0.044(4) 0.054(4) 0.118(7) -0.011(5) -0.001(4) 0.001(3)
C16 0.024(3) 0.041(3) 0.080(5) -0.017(3) 0.000(3) 0.001(3)
loop_
_atom_type_symbol
_atom_type_description
_atom_type_scat_dispersion_real
_atom_type_scat_dispersion_imag
_atom_type_scat_source
C C 0.0033 0.0016 'International Tables Vol C Tables 4.2.6.8 and 6.1.1.4'
H H 0.0000 0.0000 'International Tables Vol C Tables 4.2.6.8 and 6.1.1.4'
N N 0.0061 0.0033 'International Tables Vol C Tables 4.2.6.8 and 6.1.1.4'
O O 0.0106 0.0060 'International Tables Vol C Tables 4.2.6.8 and 6.1.1.4'
In In -0.7276 1.3100 'International Tables Vol C Tables 4.2.6.8 and 6.1.1.4'
loop_
_geom_angle_atom_site_label_1
_geom_angle_atom_site_label_2
_geom_angle_atom_site_label_3
_geom_angle
_geom_angle_site_symmetry_1
_geom_angle_site_symmetry_3
O3 In1 O3 180.0 5_566 .
O3 In1 O2 91.76(12) 5_566 1_455
O3 In1 O2 88.24(12) . 1_455
O3 In1 O2 88.24(12) 5_566 5_666
O3 In1 O2 91.76(12) . 5_666
O2 In1 O2 180.00(16) 1_455 5_666
O3 In1 O2 88.24(12) 5_566 2_656
O3 In1 O2 91.76(12) . 2_656
O2 In1 O2 87.33(18) 1_455 2_656
O2 In1 O2 92.67(18) 5_666 2_656
O3 In1 O2 91.76(12) 5_566 6_465
O3 In1 O2 88.24(12) . 6_465
O2 In1 O2 92.67(18) 1_455 6_465
O2 In1 O2 87.33(18) 5_666 6_465
O2 In1 O2 180.00(11) 2_656 6_465
O3 In2 O3 180.0 5_666 .
O3 In2 O1 88.99(12) 5_666 5_666
O3 In2 O1 91.01(12) . 5_666
O3 In2 O1 91.01(12) 5_666 6_565
O3 In2 O1 88.99(12) . 6_565
O1 In2 O1 86.6(2) 5_666 6_565
O3 In2 O1 88.99(12) 5_666 2_656
O3 In2 O1 91.01(12) . 2_656
O1 In2 O1 93.4(2) 5_666 2_656
O1 In2 O1 180.00(12) 6_565 2_656
O3 In2 O1 91.01(12) 5_666 .
O3 In2 O1 88.99(12) . .
O1 In2 O1 180.00(17) 5_666 .
O1 In2 O1 93.4(2) 6_565 .
O1 In2 O1 86.6(2) 2_656 .
C1 O1 In2 136.7(3) . .
C1 O2 In1 134.9(3) . 1_655
In1 O3 In2 120.34(19) . .
O1 C1 O2 124.6(4) . .
O1 C1 C2 117.6(4) . .
O2 C1 C2 117.8(4) . .
C3 C2 C7 117.9(5) . .
C3 C2 C1 120.5(5) . .
C7 C2 C1 121.7(4) . .
C2 C3 C4 120.9(5) . .
C2 C3 H3 119.5 . .
C4 C3 H3 119.5 . .
C5 C4 C3 120.9(6) . .
C5 C4 H4 119.5 . .
C3 C4 H4 119.5 . .
C4 C5 C6 118.7(5) . .
C4 C5 C8 120.2(5) . .
C6 C5 C8 121.0(5) . .
C7 C6 C5 119.7(5) . .
C7 C6 H6 120.1 . .
C5 C6 H6 120.1 . .
C6 C7 C2 121.8(5) . .
C6 C7 H7 119.1 . .
C2 C7 H7 119.1 . .
C9 C8 C5 174.6(7) . .
C8 C9 C10 178.5(7) . .
C11 C10 C16 122.5(5) . 7_667
C11 C10 C9 117.8(5) . .
C16 C10 C9 119.7(6) 7_667 .
C10 C11 C12 123.5(5) . .
C10 C11 C16 120.4(5) . .
C12 C11 C16 116.1(6) . .
C13 C12 C11 121.9(6) . .
C13 C12 H12 119.0 . .
C11 C12 H12 119.0 . .
C12 C13 C14 121.5(7) . .
C12 C13 H13 119.3 . .
C14 C13 H13 119.3 . .
C15 C14 C13 119.2(8) . .
C15 C14 H14 120.4 . .
C13 C14 H14 120.4 . .
C14 C15 C16 121.9(6) . .
C14 C15 H15 119.0 . .
C16 C15 H15 119.0 . .
C15 C16 C10 123.5(5) . 7_667
C15 C16 C11 119.5(6) . .
C10 C16 C11 117.1(5) 7_667 .
loop_
_geom_bond_atom_site_label_1
_geom_bond_atom_site_label_2
_geom_bond_distance
_geom_bond_site_symmetry_2
In1 O3 2.078(4) 5_566
In1 O3 2.078(4) .
In1 O2 2.165(3) 1_455
In1 O2 2.165(3) 5_666
In1 O2 2.165(3) 2_656
In1 O2 2.165(3) 6_465
In2 O3 2.083(4) 5_666
In2 O3 2.083(4) .
In2 O1 2.156(3) 5_666
In2 O1 2.156(3) 6_565
In2 O1 2.156(3) 2_656
In2 O1 2.157(3) .
O1 C1 1.245(6) .
O2 C1 1.264(5) .
C1 C2 1.470(6) .
C2 C3 1.361(7) .
C2 C7 1.379(7) .
C3 C4 1.390(8) .
C3 H3 0.9300 .
C4 C5 1.357(8) .
C4 H4 0.9300 .
C5 C6 1.386(8) .
C5 C8 1.452(8) .
C6 C7 1.372(7) .
C6 H6 0.9300 .
C7 H7 0.9300 .
C8 C9 1.176(7) .
C9 C10 1.449(7) .
C10 C11 1.390(8) .
C10 C16 1.425(8) 7_667
C11 C12 1.425(9) .
C11 C16 1.440(7) .
C12 C13 1.356(10) .
C12 H12 0.9300 .
C13 C14 1.381(10) .
C13 H13 0.9300 .
C14 C15 1.367(10) .
C14 H14 0.9300 .
C15 C16 1.397(9) .
C15 H15 0.9300 .
