#------------------------------------------------------------------------------
#$Date: 2018-02-04 00:23:35 +0200 (Sun, 04 Feb 2018) $
#$Revision: 206109 $
#$URL: file:///home/coder/svn-repositories/cod/cif/4/51/43/4514370.cif $
#------------------------------------------------------------------------------
#
# This file is available in the Crystallography Open Database (COD),
# http://www.crystallography.net/
#
# All data on this site have been placed in the public domain by the
# contributors.
#
data_4514370
loop_
_publ_author_name
'Li, Qiyang'
'Wu, Xiuju'
'Huang, Xiaoli'
'Deng, Yangjun'
'Chen, Nanjian'
'Jiang, Dandan'
'Zhao, Lili'
'Lin, Zhihua'
'Zhao, Yonggang'
_publ_section_title
;
 Tailoring the Fluorescence of AIE-Active Metal-Organic Frameworks for
 Aqueous Sensing of Metal Ions.
;
_journal_issue                   4
_journal_name_full               'ACS applied materials &amp; interfaces'
_journal_page_first              3801
_journal_page_last               3809
_journal_paper_doi               10.1021/acsami.7b17762
_journal_volume                  10
_journal_year                    2018
_chemical_formula_sum            'C43 H35 N3 O7 Zn'
_chemical_formula_weight         771.13
_chemical_name_systematic
;
 ?
;
_space_group_crystal_system      triclinic
_space_group_IT_number           2
_space_group_name_Hall           '-P 1'
_space_group_name_H-M_alt        'P -1'
_symmetry_space_group_name_Hall  '-P 1'
_symmetry_space_group_name_H-M   'P -1'
_atom_sites_solution_hydrogens   mixed
_atom_sites_solution_primary     direct
_atom_sites_solution_secondary   difmap
_audit_creation_method           SHELXL-2013
_cell_angle_alpha                109.521(4)
_cell_angle_beta                 101.992(4)
_cell_angle_gamma                90.795(4)
_cell_formula_units_Z            2
_cell_length_a                   7.528(2)
_cell_length_b                   16.408(4)
_cell_length_c                   16.481(4)
_cell_measurement_reflns_used    1857
_cell_measurement_temperature    296(2)
_cell_measurement_theta_max      18.801
_cell_measurement_theta_min      2.118
_cell_volume                     1869.2(8)
_computing_cell_refinement       'Bruker SMART'
_computing_data_collection       'Bruker SMART'
_computing_data_reduction        'Bruker SAINT'
_computing_molecular_graphics    'SHELXL-2013 (Sheldrick, 2013)'
_computing_publication_material  'SHELXL-2013 (Sheldrick, 2013)'
_computing_structure_refinement  'SHELXL-2013 (Sheldrick, 2013)'
_computing_structure_solution    'SHELXL-2013 (Sheldrick, 2013)'
_diffrn_ambient_temperature      296(2)
_diffrn_measured_fraction_theta_full 0.963
_diffrn_measured_fraction_theta_max 0.989
_diffrn_measurement_device_type  'CCD area detector'
_diffrn_measurement_method       'phi and omega scans'
_diffrn_radiation_type           MoK\a
_diffrn_radiation_wavelength     0.71073
_diffrn_reflns_av_R_equivalents  0.0452
_diffrn_reflns_av_unetI/netI     0.0819
_diffrn_reflns_Laue_measured_fraction_full 0.963
_diffrn_reflns_Laue_measured_fraction_max 0.989
_diffrn_reflns_limit_h_max       8
_diffrn_reflns_limit_h_min       -8
_diffrn_reflns_limit_k_max       18
_diffrn_reflns_limit_k_min       -19
_diffrn_reflns_limit_l_max       19
_diffrn_reflns_limit_l_min       -19
_diffrn_reflns_number            13296
_diffrn_reflns_point_group_measured_fraction_full 0.963
_diffrn_reflns_point_group_measured_fraction_max 0.989
_diffrn_reflns_theta_full        25.242
_diffrn_reflns_theta_max         25.000
_diffrn_reflns_theta_min         1.322
_diffrn_source                   'fine-focus sealed tube'
_exptl_absorpt_coefficient_mu    0.713
_exptl_absorpt_correction_type   none
_exptl_crystal_colour            pale-yellow
_exptl_crystal_density_diffrn    1.370
_exptl_crystal_density_method    'not measured'
_exptl_crystal_description       platelike
_exptl_crystal_F_000             800
_exptl_crystal_size_max          0.090
_exptl_crystal_size_mid          0.060
_exptl_crystal_size_min          0.020
_refine_diff_density_max         0.328
_refine_diff_density_min         -0.315
_refine_diff_density_rms         0.053
_refine_ls_extinction_method     none
_refine_ls_goodness_of_fit_ref   0.998
_refine_ls_hydrogen_treatment    mixed
_refine_ls_matrix_type           full
_refine_ls_number_parameters     504
_refine_ls_number_reflns         6502
_refine_ls_number_restraints     21
_refine_ls_restrained_S_all      1.023
_refine_ls_R_factor_all          0.1067
_refine_ls_R_factor_gt           0.0546
_refine_ls_shift/su_max          0.000
_refine_ls_shift/su_mean         0.000
_refine_ls_structure_factor_coef Fsqd
_refine_ls_weighting_details
;
 w=1/[\s^2^(Fo^2^)+(0.0521P)^2^+0.1121P]
 where P=(Fo^2^+2Fc^2^)/3
;
_refine_ls_weighting_scheme      calc
_refine_ls_wR_factor_gt          0.1167
_refine_ls_wR_factor_ref         0.1314
_reflns_Friedel_coverage         0.000
_reflns_number_gt                3774
_reflns_number_total             6502
_reflns_threshold_expression     'I > 2\s(I)'
_cod_data_source_file            am7b17762_si_003.cif
_cod_data_source_block           2
_cod_depositor_comments
'Adding full bibliography for 4514370--4514372.cif.'
_cod_database_code               4514370
_shelx_space_group_comment
;
The symmetry employed for this shelxl refinement is uniquely defined
by the following loop, which should always be used as a source of
symmetry information in preference to the above space-group names.
They are only intended as comments.
;
_shelx_estimated_absorpt_t_min   0.939
_shelx_estimated_absorpt_t_max   0.986
_shelxl_version_number           2013-2
_shelx_res_file
;
TITL a in P-1                    New: P-1
CELL  0.71073    7.5280   16.4080   16.4810   109.521   101.992    90.795
ZERR  2           0.0020    0.0040    0.0040     0.004     0.004     0.004
LATT   1
SFAC  C   2.31000  20.84392   1.02000  10.20751   1.58860   0.56870   0.86500 =
         51.65125   0.21560   0.00330   0.00160    11.500   0.68000  12.01000
SFAC  H   0.49300  10.51091   0.32291  26.12573   0.14019   3.14236   0.04081 =
         57.79977   0.00304   0.00000   0.00000     0.624   0.35000   1.00800
SFAC  N  12.21261   0.00570   3.13220   9.89331   2.01250  28.99754   1.16630 =
          0.58260 -11.52901   0.00610   0.00330    19.600   0.68000  14.01000
SFAC  O   3.04850  13.27711   2.28680   5.70111   1.54630   0.32390   0.86700 =
         32.90894   0.25080   0.01060   0.00600    32.500   0.68000  16.00000
SFAC Zn  14.07431   3.26550   7.03181   0.23330   5.16521  10.31631   2.41000 =
         58.70976   1.30410   0.28390   1.43010  5860.000   1.45000  65.39000
UNIT    86   70   6  14   2
TEMP    23
size 0.09 0.06 0.02
L.S. 40
omit 0 50.004
delu 0.005 n1 c33
dfix 0.93 0.01 c10 h10h c12 h12a
isor 0.005 c33 c34
isor 0.01 c101
FMAP 2
PLAN 20
ACTA
BOND $H
WGHT    0.052100    0.112100
FVAR       0.16895
ZN1   5    0.702798    0.042482    0.210178    11.00000    0.05481    0.04817 =
         0.05480    0.01194    0.01080   -0.00419
O1    4    0.655199    0.216862    0.288721    11.00000    0.06646    0.06570 =
         0.08557    0.01502    0.00816   -0.02333
O2    4    0.869934    0.142225    0.233298    11.00000    0.07178    0.05159 =
         0.07610    0.00824    0.01083   -0.01322
part 1
O3    4    1.190471    0.213972    0.279131    10.70000    0.06024    0.07786 =
         0.12938   -0.00348    0.02129    0.00591
AFIX   3
H3B   2    1.107370    0.174922    0.257961    10.70000   -1.50000
AFIX   0
H10H  2    0.774406    0.371461    0.371495    10.70000   -1.20000
part 2
O3'   4    0.726714    0.374107    0.365899    10.30000    0.05259    0.05420 =
         0.08387   -0.00159    0.02189   -0.00321
AFIX   3
H1    2    0.674734    0.324948    0.343459    10.30000   -1.50000
AFIX   0
H12A  2    1.165095    0.251088    0.262011    10.30000   -1.20000
part 0
O4    4    0.782563   -0.067886    0.146181    11.00000    0.06071    0.05047 =
         0.07884    0.01194    0.01747    0.00619
O5    4    1.050711   -0.038796    0.238356    11.00000    0.07707    0.06630 =
         0.07987   -0.00458    0.00656    0.00045
O6    4    1.301261   -0.141359    0.207079    11.00000    0.06990    0.06611 =
         0.09146    0.00242   -0.00317   -0.00562
AFIX   3
H6A   2    1.256642   -0.097279    0.232279    11.00000   -1.50000
AFIX   0
N1    3    0.636204    0.034425    0.319244    11.00000    0.05940    0.05961 =
         0.05520    0.01959    0.00764    0.00078
N2    3    0.456559    0.031805    0.124787    11.00000    0.05615    0.04379 =
         0.04667    0.00809    0.00853   -0.00457
C1    1    1.255785    0.596305    0.390967    11.00000    0.08756    0.07970 =
         0.07420    0.02509    0.00353   -0.03837
C2    1    1.304349    0.682764    0.449117    11.00000    0.14952    0.08285 =
         0.09929    0.03037    0.00500   -0.04282
AFIX  43
H2A   2    1.362830    0.693636    0.507736    11.00000   -1.20000
AFIX   0
C3    1    1.265233    0.751399    0.419192    11.00000    0.19645    0.08141 =
         0.12543    0.03302   -0.00379   -0.05007
AFIX  43
H3A   2    1.297378    0.808081    0.458043    11.00000   -1.20000
AFIX   0
C4    1    1.179621    0.736732    0.332905    11.00000    0.17713    0.11084 =
         0.14377    0.06670    0.02472   -0.03116
AFIX  43
H4A   2    1.156779    0.782928    0.312624    11.00000   -1.20000
AFIX   0
C5    1    1.128024    0.652558    0.276782    11.00000    0.14923    0.12103 =
         0.09681    0.04775    0.01880   -0.01512
AFIX  43
H5A   2    1.068226    0.641926    0.218386    11.00000   -1.20000
AFIX   0
C6    1    1.163790    0.584597    0.306023    11.00000    0.10731    0.08451 =
         0.08023    0.02916    0.01667   -0.02409
AFIX  43
H6B   2    1.124618    0.528467    0.267187    11.00000   -1.20000
AFIX   0
C8    1    1.183848    0.442592    0.381823    11.00000    0.07023    0.06556 =
         0.05443    0.01288    0.00109   -0.03108
C9    1    1.002898    0.446784    0.388211    11.00000    0.08172    0.05322 =
         0.06555    0.00308    0.01561   -0.01340
AFIX  43
H9A   2    0.961109    0.499989    0.415158    11.00000   -1.20000
AFIX   0

C10   1    0.884765    0.372151    0.354655    11.00000    0.05633    0.06312 =
         0.06012    0.01089    0.01545   -0.01038
C11   1    0.942709    0.292080    0.314315    11.00000    0.04946    0.05445 =
         0.04836    0.01030    0.00539   -0.00868
C12   1    1.123370    0.288039    0.309251    11.00000    0.06305    0.05947 =
         0.06743    0.00797    0.00981   -0.00267
C13   1    1.243642    0.363204    0.343408    11.00000    0.05207    0.08645 =
         0.08263    0.01574    0.00692   -0.01882
AFIX  43
H13A  2    1.365243    0.359427    0.340093    11.00000   -1.20000
AFIX   0
C14   1    0.812403    0.213509    0.277576    11.00000    0.06090    0.06165 =
         0.05197    0.01878    0.00088   -0.01516
C15   1    1.309147    0.524179    0.420178    11.00000    0.08214    0.08130 =
         0.07178    0.02180   -0.00614   -0.04529
C16   1    1.466297    0.531117    0.479640    11.00000    0.09749    0.08283 =
         0.09648    0.03051   -0.01401   -0.05262
AFIX  43
H16A  2    1.540664    0.582421    0.496574    11.00000   -1.20000
AFIX   0
C18   1    1.514438   -0.493812   -0.149687    11.00000    0.11467    0.09773 =
         0.10326    0.02834    0.04618    0.02212
AFIX  43
H18A  2    1.586534   -0.540013   -0.162059    11.00000   -1.20000
AFIX   0
C19   1    1.535269   -0.428123   -0.181033    11.00000    0.09449    0.12117 =
         0.08360    0.03127    0.03323    0.00196
AFIX  43
H19A  2    1.616904   -0.430664   -0.216937    11.00000   -1.20000
AFIX   0
C20   1    1.435971   -0.359044   -0.159424    11.00000    0.10245    0.10089 =
         0.08218    0.04671    0.02168    0.00161
AFIX  43
H20A  2    1.453271   -0.313010   -0.178785    11.00000   -1.20000
AFIX   0
C21   1    1.308809   -0.356182   -0.108761    11.00000    0.09065    0.07753 =
         0.07971    0.03163    0.01588    0.01066
AFIX  43
H21A  2    1.241267   -0.308419   -0.094761    11.00000   -1.20000
AFIX   0
C22   1    1.281263   -0.424234   -0.078615    11.00000    0.07746    0.05725 =
         0.05805    0.01683    0.00882    0.00059
C23   1    1.388369   -0.492656   -0.100075    11.00000    0.09843    0.06682 =
         0.08789    0.02685    0.03406    0.01437
AFIX  43
H23A  2    1.374623   -0.538840   -0.080459    11.00000   -1.20000
AFIX   0
C24   1    1.142688   -0.422150   -0.026330    11.00000    0.07462    0.04756 =
         0.06567    0.01295    0.01106    0.00409
C25   1    1.064303   -0.496396   -0.025735    11.00000    0.09045    0.04822 =
         0.07807    0.01144    0.02809    0.00714
AFIX  43
H25A  2    1.096554   -0.548071   -0.062206    11.00000   -1.20000
AFIX   0
C26   1    1.091890   -0.335881    0.025418    11.00000    0.06318    0.04710 =
         0.06826    0.01755    0.01382    0.00297
C27   1    1.218701   -0.276671    0.092050    11.00000    0.05527    0.05517 =
         0.07175    0.01813    0.00829    0.00312
AFIX  43
H27A  2    1.338555   -0.290272    0.104391    11.00000   -1.20000
AFIX   0
C28   1    1.170595   -0.196402    0.141553    11.00000    0.05774    0.04538 =
         0.06375    0.01227    0.00939   -0.00644
C29   1    0.993390   -0.173627    0.122502    11.00000    0.05460    0.04574 =
         0.06265    0.01790    0.01353   -0.00049
C30   1    0.866711   -0.234171    0.054056    11.00000    0.05867    0.05134 =
         0.08713    0.01780   -0.00039   -0.00160
AFIX  43
H30A  2    0.747357   -0.220502    0.040048    11.00000   -1.20000
AFIX   0
C31   1    0.915083   -0.313761    0.006869    11.00000    0.07095    0.04529 =
         0.08856    0.00738   -0.00360   -0.00698
AFIX  43
H31A  2    0.827777   -0.353195   -0.038077    11.00000   -1.20000
AFIX   0
C32   1    0.940736   -0.087942    0.173295    11.00000    0.06074    0.04776 =
         0.06204    0.01356    0.01953   -0.00357
C33   1    0.743595    0.005674    0.373547    11.00000    0.08974    0.14498 =
         0.10155    0.07036    0.03604    0.03409
AFIX  43
H33A  2    0.860359   -0.005204    0.364822    11.00000   -1.20000
AFIX   0
C34   1    0.694817   -0.009991    0.444385    11.00000    0.09994    0.15122 =
         0.10454    0.07627    0.03545    0.03123
AFIX  43
H34A  2    0.776894   -0.032918    0.479675    11.00000   -1.20000
AFIX   0
C35   1    0.527300    0.007992    0.462665    11.00000    0.06449    0.07335 =
         0.06818    0.03111    0.02355    0.00960
C36   1    0.420360    0.043552    0.408652    11.00000    0.06914    0.11368 =
         0.06619    0.04245    0.02182    0.01932
AFIX  43
H36A  2    0.306452    0.059472    0.418417    11.00000   -1.20000
AFIX   0
C37   1    0.478135    0.056223    0.340114    11.00000    0.08407    0.09915 =
         0.06448    0.03903    0.01857    0.02286
AFIX  43
H37A  2    0.401316    0.081926    0.305669    11.00000   -1.20000
AFIX   0
C38   1    0.348585    0.096512    0.129731    11.00000    0.06075    0.04415 =
         0.07845   -0.00255   -0.00279   -0.00872
AFIX  43
H38A  2    0.396539    0.151834    0.167897    11.00000   -1.20000
AFIX   0
C39   1    0.173739    0.087037    0.082876    11.00000    0.06114    0.04483 =
         0.07889    0.00355   -0.00208    0.00026
AFIX  43
H39A  2    0.106295    0.134989    0.089865    11.00000   -1.20000
AFIX   0
C40   1    0.096191    0.006900    0.025219    11.00000    0.05143    0.04563 =
         0.03762    0.00954    0.01078   -0.00289
C41   1    0.206967   -0.059630    0.016830    11.00000    0.05839    0.04397 =
         0.06795    0.00062   -0.00411   -0.00866
AFIX  43
H41A  2    0.162844   -0.114860   -0.022888    11.00000   -1.20000
AFIX   0
C42   1    0.382528   -0.045487    0.066539    11.00000    0.06733    0.04672 =
         0.06946    0.00762    0.01273    0.00240
AFIX  43
H42A  2    0.453649   -0.092190    0.059268    11.00000   -1.20000
AFIX   0

O101  4    0.096147    0.156776    0.503140    11.00000    0.19132    0.19779 =
         0.26615   -0.00487    0.00154    0.05592
N101  3    0.238176    0.279409    0.609942    11.00000    0.16555    0.17226 =
         0.17925    0.02515    0.03517    0.03808
C101  1    0.146464    0.236776    0.528031    11.00000    0.18178    0.20909 =
         0.15943    0.05255    0.03913    0.04170
AFIX  43
H10A  2    0.118696    0.266219    0.488233    11.00000   -1.20000
AFIX   0
C102  1    0.277200    0.372560    0.634781    11.00000    0.21221    0.17985 =
         0.40563    0.04520    0.14333    0.02072
AFIX 137
H10B  2    0.221093    0.390786    0.586585    11.00000   -1.50000
H10C  2    0.406696    0.386567    0.648577    11.00000   -1.50000
H10D  2    0.229604    0.401899    0.685598    11.00000   -1.50000
AFIX   0
C103  1    0.298040    0.238286    0.674300    11.00000    0.29178    0.32228 =
         0.25607    0.16771    0.01321    0.09940
AFIX 137
H10E  2    0.216995    0.187656    0.661407    11.00000   -1.50000
H10F  2    0.297832    0.278130    0.732195    11.00000   -1.50000
H10G  2    0.419223    0.221644    0.672225    11.00000   -1.50000
AFIX   0
HKLF 4

REM  a in P-1                    New: P-1
REM R1 =  0.0546 for    3774 Fo > 4sig(Fo)  and  0.1067 for all    6502 data
REM    504 parameters refined using     21 restraints

END

WGHT      0.0642      0.0000

REM Highest difference peak  0.328,  deepest hole -0.315,  1-sigma level  0.053
Q1    1   0.6522 -0.0615  0.4123  11.00000  0.05    0.33
Q2    1   0.6969 -0.0485  0.3405  11.00000  0.05    0.28
Q3    1   0.7257  0.0297  0.4652  11.00000  0.05    0.27
Q4    1   0.7074  0.0241  0.2616  11.00000  0.05    0.26
Q5    1   0.7444 -0.1115  0.4234  11.00000  0.05    0.24
Q6    1   0.4186 -0.0702  0.0891  11.00000  0.05    0.23
Q7    1   0.3968  0.0015  0.1014  11.00000  0.05    0.23
Q8    1   0.6821 -0.2139  0.0589  11.00000  0.05    0.21
Q9    1  -0.0198  0.1144  0.5714  11.00000  0.05    0.21
Q10   1   0.9209  0.0472  0.2737  11.00000  0.05    0.20
Q11   1   0.3906 -0.0563  0.1602  11.00000  0.05    0.20
Q12   1   1.0351  0.8675  0.3939  11.00000  0.05    0.20
Q13   1   0.1270 -0.0319  0.0359  11.00000  0.05    0.20
Q14   1   0.4724  0.0396  0.1741  11.00000  0.05    0.19
Q15   1   1.1318  0.6194  0.4026  11.00000  0.05    0.19
Q16   1   0.5519 -0.0068  0.1283  11.00000  0.05    0.19
Q17   1   0.6428  0.2343  0.2383  11.00000  0.05    0.18
Q18   1   0.7198 -0.1119  0.1216  11.00000  0.05    0.18
Q19   1   1.7116 -0.4153 -0.1921  11.00000  0.05    0.18
Q20   1   1.1013 -0.0409  0.3317  11.00000  0.05    0.18
;
_shelx_res_checksum              50244
_shelx_hkl_file
;
   1   0   0   20.45    0.61
   1   0   0   20.60    0.74
  -2   0   0  276.86    6.59
   2   0   0  267.92    7.06
   2   0   0  267.72    7.02
  -3   0   0    0.30    0.18
   3   0   0   -0.19    0.25
   3   0   0    0.06    0.28
  -4   0   0    1.54    0.31
   4   0   0    1.74    0.55
   4   0   0    1.27    0.46
  -5   0   0   29.80    1.19
   5   0   0   33.55    1.79
   5   0   0   25.97    1.48
   6   0   0    1.00    0.63
  -7   0   0    2.44    0.83
  -8   0   0    0.60    0.81
  -8   1   0    2.10    0.94
  -7   1   0    0.08    0.57
   6  -1   0    3.10    0.80
  -6   1   0    3.52    0.82
   5  -1   0    2.66    0.67
   4  -1   0    6.00    0.81
  -4   1   0    4.83    0.45
   3  -1   0   61.43    1.70
   3  -1   0   58.00    2.11
   3  -1   0   63.49    2.11
   2  -1   0    5.31    0.53
   2  -1   0    5.33    0.53
   2  -1   0    6.02    0.33
   1  -1   0  194.41    4.62
   1  -1   0  190.70    5.00
   0  -1   0  152.07    3.69
   0  -1   0  151.47    3.83
  -1  -1   0   39.07    1.10
   1   1   0   38.25    1.21
   1   1   0   37.81    1.06
  -2  -1   0  100.02    2.65
   2   1   0   98.97    2.75
   2   1   0  100.55    2.94
  -3  -1   0   12.06    0.64
   3   1   0   11.89    0.86
   3   1   0   12.32    0.71
  -4  -1   0   16.60    0.84
   4   1   0   17.04    1.18
   4   1   0   15.19    0.93
  -5  -1   0   10.63    0.78
   5   1   0   10.17    1.00
   5   1   0   10.76    1.24
   6   1   0    0.75    0.69
  -7  -1   0    1.33    0.75
  -8  -1   0    0.30    0.76
  -9   2   0    0.73    0.88
  -8   2   0    1.36    0.88
   7  -2   0    0.45    0.73
  -7   2   0    0.39    0.65
   6  -2   0   -0.17    0.34
  -6   2   0    0.37    0.48
   5  -2   0    7.14    0.99
  -5   2   0    9.12    1.06
   4  -2   0    7.16    0.84
   4  -2   0    6.16    0.46
   3  -2   0  105.93    3.29
   3  -2   0  106.22    2.73
   2  -2   0  100.86    2.98
   2  -2   0  100.30    2.53
  -2   2   0   99.55    2.85
   1  -2   0  179.94    4.45
   1  -2   0  180.36    4.83
  -1   2   0  188.42    4.63
   0  -2   0  293.13    7.45
   0  -2   0  295.01    7.18
   0   2   0  298.44    7.28
  -1  -2   0  350.07    8.53
   1   2   0  346.33    8.82
   1   2   0  356.14    8.72
  -2  -2   0    0.73    0.24
   2   2   0    0.27    0.28
   2   2   0    0.88    0.21
  -3  -2   0    0.74    0.28
   3   2   0    0.75    0.39
   3   2   0    0.98    0.29
  -4  -2   0   37.54    1.44
   4   2   0   39.17    1.52
   4   2   0   39.82    1.87
  -5  -2   0   19.42    1.06
   5   2   0   21.35    1.53
   5   2   0   18.80    1.14
   6   2   0    0.53    0.69
  -8  -2   0   -0.48    0.64
  -9   3   0    0.40    0.86
  -8   3   0    3.02    0.96
   7  -3   0    2.32    0.90
  -7   3   0    3.12    0.91
   6  -3   0    1.09    0.70
  -6   3   0    1.94    0.70
   5  -3   0    8.26    1.09
  -5   3   0    8.42    1.02
   4  -3   0    8.54    0.49
   4  -3   0   11.64    1.09
  -4   3   0    8.71    0.90
   3  -3   0   31.51    1.42
   3  -3   0   29.44    0.96
  -3   3   0   29.59    1.28
   2  -3   0   54.67    1.92
   2  -3   0   54.60    1.55
  -2   3   0   57.01    1.74
   1  -3   0  158.68    4.41
  -1   3   0  164.44    4.12
   0  -3   0  246.52    6.16
   0  -3   0  243.88    6.35
   0   3   0  251.60    6.18
  -1  -3   0   10.50    0.42
  -1  -3   0   10.67    0.62
   1   3   0   11.22    0.61
  -2  -3   0   25.64    1.05
   2   3   0   26.61    1.19
   2   3   0   26.98    0.84
  -3  -3   0    1.34    0.35
   3   3   0    1.90    0.31
   3   3   0    1.45    0.45
  -4  -3   0   53.23    1.83
   4   3   0   48.83    2.20
   4   3   0   48.24    1.73
  -5  -3   0   26.05    1.29
   5   3   0   26.44    1.73
   6   3   0   46.30    2.52
  -8  -3   0    0.73    0.84
  -9   4   0   -0.17    0.82
  -8   4   0    1.97    0.85
   7  -4   0    1.44    0.85
  -7   4   0    0.21    0.58
   6  -4   0   -0.23    0.60
  -6   4   0    2.67    0.76
   5  -4   0    2.84    0.75
  -5   4   0    3.77    0.74
   4  -4   0   15.18    0.68
   4  -4   0   16.75    1.17
  -4   4   0   15.10    1.01
   3  -4   0    3.95    0.65
   3  -4   0    5.46    0.43
  -3   4   0    5.01    0.57
   2  -4   0   13.74    0.65
   2  -4   0   13.97    0.92
  -2   4   0   14.28    0.69
   1  -4   0   58.65    1.95
  -1   4   0   58.57    1.63
   0  -4   0  179.55    4.82
   0  -4   0  179.25    4.74
   0   4   0  185.05    4.64
  -1  -4   0   12.85    0.54
  -1  -4   0   10.77    0.73
   1   4   0   13.17    0.69
  -2  -4   0   11.73    0.75
   2   4   0   11.96    0.79
  -3  -4   0    0.29    0.30
   3   4   0   -0.19    0.34
   3   4   0    0.32    0.20
  -4  -4   0   41.10    1.63
   4   4   0   37.82    1.89
   4   4   0   36.83    1.37
  -5  -4   0   -0.04    0.38
   5   4   0    0.81    0.61
   6   4   0    0.21    0.66
   7   4   0   -0.21    0.76
  -8  -4   0   -0.40    0.70
  -9   5   0    1.80    1.02
   8  -5   0    0.74    0.94
  -8   5   0    0.42    0.73
   7  -5   0    0.51    0.81
  -7   5   0    1.77    0.72
   6  -5   0   -0.55    0.58
  -6   5   0   -0.35    0.45
   5  -5   0    0.92    0.69
  -5   5   0    1.62    0.55
   4  -5   0   27.13    1.57
   4  -5   0   26.61    0.96
  -4   5   0   20.77    1.20
   3  -5   0   21.15    0.88
   3  -5   0   20.96    1.28
  -3   5   0   22.66    1.04
   2  -5   0    1.99    0.48
   2  -5   0    2.44    0.36
  -2   5   0    1.95    0.33
   1  -5   0   40.88    1.44
   1  -5   0   40.09    1.56
  -1   5   0   40.73    1.22
   0  -5   0   22.13    0.97
   0  -5   0   22.89    1.06
   0   5   0   22.22    0.83
  -1  -5   0    9.60    0.51
  -1  -5   0   10.02    0.83
   1   5   0    8.82    0.62
  -2  -5   0  123.36    3.58
   2   5   0  120.87    3.65
  -3  -5   0   43.06    1.69
   3   5   0   37.91    1.81
  -4  -5   0   38.87    1.71
   4   5   0   41.24    2.00
  -5  -5   0    1.12    0.53
   5   5   0    0.01    0.54
   6   5   0    0.45    0.67
   7   5   0    2.79    1.02
  -8  -5   0    0.88    0.87
   8  -6   0    0.90    0.96
  -8   6   0   -0.32    0.67
   7  -6   0    0.39    0.80
  -7   6   0    0.04    0.57
   6  -6   0   -0.51    0.62
  -6   6   0    0.00    0.50
   5  -6   0    3.16    0.84
  -5   6   0    1.47    0.54
   4  -6   0   36.88    1.92
   4  -6   0   37.65    1.31
  -4   6   0   35.94    1.59
   3  -6   0   16.59    0.83
   3  -6   0   16.95    1.21
  -3   6   0   17.23    0.90
   2  -6   0   98.79    3.31
   2  -6   0  106.91    2.95
  -2   6   0   97.83    2.81
   1  -6   0   57.58    1.94
   1  -6   0   57.27    2.07
  -1   6   0   58.46    1.67
   0  -6   0    0.57    0.30
   0  -6   0    0.39    0.31
   0   6   0    0.79    0.25
  -1  -6   0   48.95    1.57
  -1  -6   0   50.18    1.88
   1   6   0   49.80    1.71
  -2  -6   0   20.72    1.14
   2   6   0   18.99    1.07
   2   6   0   19.84    0.76
  -3  -6   0    4.82    0.70
   3   6   0    3.73    0.71
  -4  -6   0   16.05    1.32
   4   6   0   16.14    1.26
  -5  -6   0   19.30    1.31
   5   6   0   21.01    1.63
   6   6   0    3.84    1.04
   7   6   0   -0.20    0.79
   9  -7   0   -0.32    1.09
   8  -7   0    1.09    1.03
   7  -7   0    0.09    0.80
  -7   7   0   -0.46    0.56
   6  -7   0    0.39    0.70
  -6   7   0    0.46    0.53
   5  -7   0    0.13    0.62
  -5   7   0    0.18    0.48
   4  -7   0   21.52    1.53
   4  -7   0   21.93    1.02
  -4   7   0   20.99    1.16
   3  -7   0    1.40    0.38
   3  -7   0    2.35    0.64
  -3   7   0    1.76    0.44
   2  -7   0   50.27    1.77
   2  -7   0   50.92    2.10
  -2   7   0   46.90    1.55
   1  -7   0   19.29    1.13
   1  -7   0   19.08    1.07
  -1   7   0   20.81    0.80
   0  -7   0   25.31    1.25
   0  -7   0   23.33    1.12
   0   7   0   24.64    0.97
  -1  -7   0  119.24    3.44
  -1  -7   0  123.98    3.75
   1   7   0  123.38    3.55
  -2  -7   0    3.82    0.68
   2   7   0    4.99    0.66
   2   7   0    3.30    0.37
  -3  -7   0    6.94    0.90
   3   7   0    9.14    1.02
  -4  -7   0   23.30    1.46
   4   7   0   27.55    1.66
  -5  -7   0    0.65    0.57
   5   7   0    1.87    0.74
  -6  -7   0    2.38    0.77
   6   7   0    3.40    1.01
   7   7   0    0.86    0.92
   8  -8   0    0.85    1.08
   7  -8   0   -0.48    0.76
   6  -8   0    0.53    0.73
   5  -8   0   -0.43    0.66
  -5   8   0    0.50    0.53
   4  -8   0   19.35    1.54
   4  -8   0   19.24    1.02
  -4   8   0   19.84    1.14
   3  -8   0   10.38    0.88
   3  -8   0    8.94    1.12
  -3   8   0    9.29    0.69
   2  -8   0    2.60    0.63
  -2   8   0    2.02    0.37
   1  -8   0   90.47    3.06
   1  -8   0   90.19    2.93
  -1   8   0   90.02    2.54
   0  -8   0   16.28    1.08
   0  -8   0   16.53    0.97
   0   8   0   16.79    0.82
  -1  -8   0   48.87    2.03
  -1  -8   0   47.05    1.66
   1   8   0   47.65    1.74
  -2  -8   0    1.89    0.57
   2   8   0    2.51    0.53
  -3  -8   0   27.55    1.60
   3   8   0   29.85    1.62
  -4  -8   0    4.73    0.89
   4   8   0    6.01    0.99
  -5  -8   0    1.71    0.71
   5   8   0    2.03    0.75
  -6  -8   0    3.84    0.92
   6   8   0    2.27    0.95
   7   8   0   -0.15    0.81
   8  -9   0   -0.24    1.00
   7  -9   0    0.83    0.88
   6  -9   0    0.63    0.78
   5  -9   0    0.11    0.65
   4  -9   0   30.26    1.93
   3  -9   0    4.98    0.92
   3  -9   0    5.66    0.74
  -3   9   0    5.12    0.60
   2  -9   0   13.45    1.13
   2  -9   0   15.77    1.21
  -2   9   0   14.64    0.74
   1  -9   0   18.41    1.21
   1  -9   0   20.07    1.23
  -1   9   0   19.40    0.84
   0  -9   0   22.17    1.21
   0  -9   0   23.91    1.36
   0   9   0   22.31    1.02
  -1  -9   0   52.40    1.86
  -1  -9   0   58.70    2.28
   1   9   0   49.68    1.89
  -2  -9   0   -0.14    0.44
   2   9   0    0.05    0.35
  -3  -9   0    4.07    0.80
   3   9   0    6.48    0.92
  -4  -9   0    2.61    0.76
   4   9   0    1.83    0.68
  -5  -9   0   -0.04    0.60
   5   9   0    0.82    0.66
  -6  -9   0    0.19    0.67
   6   9   0    1.66    0.86
   7   9   0   -0.01    0.89
   8 -10   0    1.12    1.19
   7 -10   0    1.82    1.12
   6 -10   0    0.17    0.75
   5 -10   0    4.48    1.01
   4 -10   0    8.77    1.28
   3 -10   0    1.23    0.62
   3 -10   0    1.56    0.54
   2 -10   0   14.15    1.36
   2 -10   0   14.09    1.21
   1 -10   0    4.89    0.77
   1 -10   0    4.91    0.81
   0 -10   0   26.88    1.40
   0 -10   0   26.77    1.52
   0  10   0   26.18    1.14
  -1 -10   0   34.59    1.77
  -1 -10   0   32.66    1.38
   1  10   0   29.71    1.39
  -2 -10   0    5.35    0.90
   2  10   0    4.39    0.72
  -3 -10   0   19.13    1.42
   3  10   0   16.58    1.48
  -4 -10   0    0.36    0.59
   4  10   0    1.37    0.65
  -5 -10   0   -0.08    0.60
   5  10   0    0.03    0.63
  -6 -10   0    0.90    0.75
   6  10   0    0.70    0.80
   7  10   0    2.37    1.13
   7 -11   0    1.26    0.88
   6 -11   0    0.98    0.86
   5 -11   0    2.75    0.95
   4 -11   0    0.71    0.73
   3 -11   0    5.98    1.10
   3 -11   0    4.23    0.73
   2 -11   0   10.44    1.13
   2 -11   0    9.77    1.20
   1 -11   0    0.45    0.52
   1 -11   0    0.75    0.54
   0 -11   0   32.26    1.64
   0 -11   0   33.90    1.79
  -1 -11   0   13.82    1.35
  -1 -11   0   12.52    0.90
   1  11   0   12.62    0.93
  -2 -11   0    5.12    0.90
   2  11   0    5.35    0.81
  -3 -11   0   10.45    1.26
   3  11   0   13.47    1.36
  -4 -11   0    0.56    0.63
   4  11   0    0.22    0.53
  -5 -11   0   10.05    1.34
   5  11   0    8.72    1.37
  -6 -11   0    0.12    0.69
   6  11   0   -0.46    0.73
   7 -12   0    0.06    1.04
   6 -12   0   -0.19    0.81
   5 -12   0   -0.60    0.63
   4 -12   0   -0.21    0.62
   3 -12   0    6.05    1.08
   3 -12   0    6.48    0.89
   2 -12   0    3.04    0.76
   2 -12   0    3.53    0.84
   1 -12   0    7.36    1.03
   1 -12   0    9.54    1.11
   0 -12   0   15.29    1.44
   0 -12   0   13.79    1.23
  -1 -12   0    1.18    0.63
  -2 -12   0   16.54    1.62
  -3 -12   0    5.07    0.98
   3  12   0    5.14    0.90
  -4 -12   0    1.73    0.79
   4  12   0    0.85    0.61
  -5 -12   0    0.65    0.78
   5  12   0    2.60    0.91
  -6 -12   0    0.90    0.86
   6  12   0   -0.31    0.75
   6 -13   0    0.02    0.86
   5 -13   0    1.05    0.85
   4 -13   0    0.70    0.76
   3 -13   0    0.66    0.48
   3 -13   0    2.86    0.92
   2 -13   0    0.37    0.58
   2 -13   0    1.62    0.74
   1 -13   0    9.57    1.19
   1 -13   0   12.89    1.30
   0 -13   0   11.02    1.16
   0 -13   0   10.79    1.25
  -1 -13   0    0.19    0.53
  -2 -13   0    4.54    0.96
  -3 -13   0    6.77    1.19
  -4 -13   0    3.80    1.02
  -5 -13   0    2.36    0.97
   5  13   0    0.01    0.69
  -6 -13   0    0.67    0.92
   6  13   0    0.59    0.96
   6 -14   0    0.48    0.98
   5 -14   0    0.32    0.86
   4 -14   0   -0.11    0.74
   3 -14   0    8.23    1.30
   3 -14   0    1.67    0.54
   2 -14   0   -0.26    0.53
   2 -14   0    0.95    0.67
   1 -14   0   27.47    1.74
   1 -14   0   22.80    1.66
   0 -14   0    1.34    0.65
  -1 -14   0    4.74    0.91
  -2 -14   0   -0.47    0.51
  -3 -14   0    4.24    1.04
  -4 -14   0    1.53    0.87
  -5 -14   0    3.13    1.08
   5 -15   0   -0.01    0.86
   4 -15   0    1.83    0.98
   3 -15   0    5.00    1.11
   3 -15   0    6.39    1.03
   2 -15   0    1.54    0.75
   2 -15   0    0.91    0.64
   1 -15   0    2.55    0.81
   1 -15   0    2.63    0.81
   0 -15   0    4.01    0.93
  -1 -15   0    0.56    0.68
  -2 -15   0    0.36    0.66
  -3 -15   0    0.73    0.77
  -4 -15   0    1.16    0.91
   5 -16   0    0.21    0.95
   4 -16   0    2.83    1.08
   3 -16   0    2.23    0.96
   2 -16   0   -0.04    0.57
   2 -16   0   -0.52    0.66
   1 -16   0    4.77    1.05
   0 -16   0    0.07    0.60
  -1 -16   0    0.83    0.73
  -2 -16   0    1.20    0.83
  -3 -16   0   -0.08    0.79
   4 -17   0    1.86    1.09
   3 -17   0    0.23    0.81
   2 -17   0   -0.62    0.57
   2 -17   0    0.44    0.77
   1 -17   0    0.40    0.73
   0 -17   0    0.47    0.70
  -1 -17   0    2.76    0.91
  -2 -17   0    0.48    0.77
   4 -18   0    0.21    0.97
   3 -18   0    0.31    0.90
   2 -18   0    0.79    0.80
   1 -18   0    3.08    0.96
   0 -18   0    0.23    0.75
  -1 -18   0    2.56    0.96
   2 -19   0    1.48    0.94
   1 -19   0    0.94    0.84
   0 -19   1    0.77    0.79
   1 -19   1    0.71    0.82
   2 -19   1   -0.44    0.69
  -1 -18   1    0.12    0.72
   0 -18   1    2.52    0.93
   1 -18   1    1.94    0.90
   2 -18   1   -0.03    0.70
   3 -18   1    0.60    0.87
   4 -18   1    1.22    1.06
  -3 -17   1   -0.61    0.73
  -2 -17   1    1.53    0.85
  -1 -17   1   -0.52    0.58
   0 -17   1    2.70    0.90
   1 -17   1    2.26    0.82
   2 -17   1    0.62    0.77
   2 -17   1    0.32    0.71
   3 -17   1   -0.28    0.74
   4 -17   1    0.07    0.91
  -4 -16   1    0.32    0.81
  -3 -16   1    2.12    0.97
  -2 -16   1    4.05    1.03
  -1 -16   1    0.50    0.67
   0 -16   1    4.14    0.96
   1 -16   1    3.54    0.90
   2 -16   1    2.68    0.84
   2 -16   1    2.77    0.94
   3 -16   1    0.30    0.80
   4 -16   1    1.61    1.00
   5 -16   1    2.61    1.16
  -5 -15   1    2.87    1.07
  -4 -15   1   -0.04    0.78
  -3 -15   1    5.05    1.12
  -2 -15   1    0.91    0.66
  -1 -15   1    6.88    1.10
   0 -15   1    2.53    0.81
   1 -15   1   -0.25    0.54
   1 -15   1   -0.33    0.49
   2 -15   1    1.16    0.64
   2 -15   1    1.36    0.74
   3 -15   1    0.18    0.80
   4 -15   1    5.78    1.33
   5 -15   1    2.07    1.07
  -5 -14   1    1.09    0.90
  -4 -14   1    1.11    0.77
  -3 -14   1   17.34    1.76
  -2 -14   1    5.74    1.05
  -1 -14   1   -0.36    0.49
   0 -14   1   -0.22    0.49
   1 -14   1    3.82    0.85
   1 -14   1    2.35    0.73
   2 -14   1    2.96    0.88
   2 -14   1    2.50    0.76
   3 -14   1    0.13    0.71
   3 -14   1    0.57    0.58
   4 -14   1    3.04    1.06
   5 -14   1    3.41    1.17
   6 -14   1    1.12    1.01
   6  13  -1    1.69    0.99
  -6 -13   1    2.89    1.00
   5  13  -1    1.53    0.78
  -5 -13   1   -0.01    0.78
   4  13  -1    2.39    0.84
  -4 -13   1    3.80    0.97
   3  13  -1    7.98    1.10
  -3 -13   1    9.22    1.32
  -2 -13   1    3.23    0.79
  -1 -13   1    1.84    0.73
   0 -13   1   33.17    1.90
   0 -13   1   37.19    1.84
   1 -13   1   -0.15    0.50
   1 -13   1   -0.03    0.53
   2 -13   1    6.94    1.01
   2 -13   1    7.18    1.14
   3 -13   1    0.25    0.51
   3 -13   1    0.55    0.70
   4 -13   1    9.86    1.43
   5 -13   1    3.69    1.10
   6 -13   1    0.25    0.90
   6  12  -1    2.58    1.03
  -6 -12   1    4.37    1.15
   5  12  -1   -0.23    0.59
  -5 -12   1    1.93    0.83
   4  12  -1    6.11    1.07
  -4 -12   1    4.34    0.99
   3  12  -1    7.05    1.00
  -3 -12   1    6.29    1.08
   2  12  -1    0.27    0.43
  -2 -12   1    1.01    0.66
   1  12  -1   38.44    1.73
  -1 -12   1   41.88    2.07
   0 -12   1    5.20    0.90
   0 -12   1    7.55    0.94
   1 -12   1   11.82    1.20
   2 -12   1    5.00    0.94
   2 -12   1    3.69    0.80
   3 -12   1    8.12    1.19
   3 -12   1    6.49    0.93
   4 -12   1    8.86    1.37
   5 -12   1    0.79    0.86
   6 -12   1    0.64    0.87
   7 -12   1    0.81    1.07
   7  11  -1    0.21    0.86
   6  11  -1    1.00    0.79
  -6 -11   1   -0.17    0.69
   5  11  -1    0.18    0.59
  -5 -11   1    0.50    0.64
   4  11  -1    1.04    0.64
  -4 -11   1    1.62    0.74
   3  11  -1    4.47    0.83
  -3 -11   1    3.44    0.86
   2  11  -1    6.82    0.87
  -2 -11   1    5.72    0.99
   1  11  -1   11.47    1.01
  -1 -11   1   13.34    0.95
  -1 -11   1   13.92    1.37
   0  11  -1    0.09    0.32
   0 -11   1    0.76    0.56
   0 -11   1    0.51    0.48
   1 -11   1    9.32    1.09
   1 -11   1    9.67    1.05
   2 -11   1   -0.17    0.52
   2 -11   1   -0.04    0.42
   3 -11   1   11.68    1.37
   3 -11   1   12.12    1.12
   4 -11   1    1.74    0.80
   5 -11   1    5.08    1.10
   6 -11   1    0.69    0.86
   7 -11   1    0.30    0.96
   7  10  -1   -0.16    0.88
   6  10  -1    4.07    1.15
  -6 -10   1    3.04    0.91
   5  10  -1    0.46    0.61
  -5 -10   1    1.10    0.66
   4  10  -1    5.05    0.95
  -4 -10   1    5.04    0.97
   3  10  -1    6.51    0.94
  -3 -10   1    5.88    1.01
   2  10  -1    3.27    0.65
  -2 -10   1    1.65    0.59
   1  10  -1   21.88    1.16
  -1 -10   1   19.66    1.35
  -1 -10   1   20.49    1.10
   0  10  -1   18.05    0.98
   0 -10   1   18.50    1.26
   0 -10   1   22.53    1.24
  -1  10  -1   13.47    0.79
   1 -10   1   13.68    1.17
   1 -10   1   15.12    1.13
  -2  10  -1    0.65    0.35
   2 -10   1    0.28    0.48
   2 -10   1   -0.13    0.18
   3 -10   1   10.55    1.27
   3 -10   1    9.27    0.94
   4 -10   1    2.88    0.91
   5 -10   1    5.33    1.09
   6 -10   1    1.83    0.82
   7 -10   1   -0.42    0.89
   8 -10   1    1.47    1.21
   7   9  -1    1.44    0.96
   6   9  -1    0.99    0.80
  -6  -9   1    3.21    0.89
   5   9  -1    5.32    1.06
  -5  -9   1    7.14    1.10
   4   9  -1    5.25    0.97
  -4  -9   1    5.43    0.96
   3   9  -1    8.39    1.03
  -3  -9   1   10.72    1.19
   2   9  -1    9.02    0.93
  -2  -9   1    6.89    0.88
   1   9  -1   22.35    1.13
  -1  -9   1   24.31    1.38
  -1  -9   1   20.11    1.03
   0   9  -1    7.97    0.69
   0  -9   1    9.01    0.94
   0  -9   1    9.12    0.86
  -1   9  -1   18.37    0.90
   1  -9   1   20.78    1.20
   1  -9   1   20.44    1.25
  -2   9  -1    0.57    0.34
   2  -9   1    0.68    0.40
   2  -9   1    0.73    0.51
  -3   9  -1    2.74    0.54
   3  -9   1    4.03    0.83
   3  -9   1    2.70    0.53
  -4   9  -1   21.86    1.28
   4  -9   1   24.48    1.70
   5  -9   1    5.79    1.11
   6  -9   1    0.47    0.76
   7  -9   1   -0.13    0.83
   8  -9   1    0.29    1.04
   7   8  -1    4.24    1.17
   6   8  -1    1.05    0.76
  -6  -8   1    0.86    0.66
   5   8  -1   14.04    1.57
  -5  -8   1   14.96    1.44
   4   8  -1    5.62    0.97
  -4  -8   1    6.47    0.94
   3   8  -1    5.78    0.84
  -3  -8   1    7.11    0.92
   2   8  -1    0.46    0.36
  -2  -8   1    0.84    0.43
   1   8  -1   20.39    1.04
  -1  -8   1   21.81    1.23
  -1  -8   1   17.08    0.88
   0   8  -1    0.44    0.28
   0  -8   1    0.33    0.37
   0  -8   1    0.67    0.34
  -1   8  -1   56.02    1.80
   1  -8   1   58.06    2.06
   1  -8   1   54.60    2.14
  -2   8  -1   30.83    1.21
   2  -8   1   30.50    1.36
   2  -8   1   29.22    1.56
  -3   8  -1   42.58    1.64
   3  -8   1   41.24    2.02
   3  -8   1   43.64    1.60
  -4   8  -1   18.82    1.18
   4  -8   1   21.13    1.55
  -5   8  -1    9.23    1.05
   5  -8   1    6.59    1.13
  -6   8  -1   -0.28    0.52
   6  -8   1    0.14    0.71
   7  -8   1    0.29    0.82
   8  -8   1    0.02    1.04
   7   7  -1    4.23    1.26
   6   7  -1    1.31    0.79
  -6  -7   1    0.83    0.58
   5   7  -1   24.91    1.72
  -5  -7   1   22.88    1.46
   4   7  -1   11.99    1.33
  -4  -7   1   11.72    1.13
   3   7  -1    0.12    0.38
  -3  -7   1    0.84    0.43
   2   7  -1   42.22    1.74
  -2  -7   1   42.46    1.76
   1   7  -1    8.75    0.68
  -1  -7   1   10.89    0.93
  -1  -7   1    9.57    0.59
   0   7  -1    6.84    0.53
   0  -7   1    7.79    0.78
   0  -7   1    8.13    0.70
  -1   7  -1  172.82    4.57
   1  -7   1  171.29    4.97
   1  -7   1  171.01    4.72
  -2   7  -1    5.31    0.55
   2  -7   1    5.41    0.75
   2  -7   1    5.69    0.62
  -3   7  -1   15.05    0.90
   3  -7   1   17.04    0.85
   3  -7   1   14.14    1.13
  -4   7  -1    0.37    0.44
   4  -7   1    0.49    0.61
  -5   7  -1    4.73    0.80
   5  -7   1    5.88    1.06
  -6   7  -1   -0.14    0.50
   6  -7   1   -0.32    0.64
  -7   7  -1    1.41    0.72
   7  -7   1    1.19    0.93
   8  -7   1    2.18    1.15
   8   6  -1   -0.06    0.90
   7   6  -1    2.96    1.07
   6   6  -1    0.16    0.67
  -6  -6   1   -0.34    0.48
   5   6  -1    6.04    1.05
  -5  -6   1    6.37    0.90
   4   6  -1   26.07    1.61
  -4  -6   1   24.97    1.36
   3   6  -1   28.56    1.48
  -3  -6   1   29.97    1.41
   2   6  -1   70.27    2.40
  -2  -6   1   68.68    2.34
   1   6  -1   45.27    1.62
  -1  -6   1   45.15    1.42
  -1  -6   1   44.11    1.67
   0   6  -1   79.75    2.35
   0  -6   1   80.52    2.46
   0  -6   1   80.02    2.51
  -1   6  -1   68.25    1.91
   1  -6   1   66.54    2.19
   1  -6   1   53.43    1.95
  -2   6  -1    1.74    0.37
   2  -6   1    1.35    0.46
   2  -6   1    2.13    0.38
  -3   6  -1   34.68    1.42
   3  -6   1   35.00    1.21
   3  -6   1   35.79    1.70
  -4   6  -1    1.31    0.49
   4  -6   1    0.10    0.53
  -5   6  -1   14.66    1.32
   5  -6   1   16.74    1.59
  -6   6  -1    0.06    0.48
   6  -6   1   -0.01    0.69
  -7   6  -1   -0.39    0.58
   7  -6   1   -0.28    0.73
  -8   6  -1    3.74    1.05
   8  -6   1    2.18    1.11
  -9   6  -1    1.55    1.01
   8   5  -1   -1.19    0.77
   7   5  -1    7.57    1.42
   6   5  -1   21.06    2.01
  -6  -5   1   21.11    1.32
   5   5  -1    7.07    1.11
  -5  -5   1    7.57    0.87
   4   5  -1    0.34    0.46
  -4  -5   1    0.54    0.39
   3   5  -1   47.75    1.96
  -3  -5   1   46.71    1.78
   2   5  -1   13.20    0.87
  -2  -5   1   16.04    0.89
   1   5  -1  103.64    2.98
  -1  -5   1  101.64    2.74
  -1  -5   1  100.65    2.94
   0   5  -1    0.49    0.24
   0  -5   1    0.06    0.24
   0  -5   1    0.38    0.25
  -1   5  -1    6.89    0.48
   1  -5   1    6.86    0.66
  -2   5  -1   20.95    0.94
   2  -5   1   23.35    0.87
   2  -5   1   20.82    1.12
  -3   5  -1   29.48    1.31
   3  -5   1   30.98    1.02
   3  -5   1   30.25    1.53
  -4   5  -1   13.31    0.98
   4  -5   1   15.23    1.36
   4  -5   1   13.93    0.59
  -5   5  -1   22.53    1.41
   5  -5   1   22.70    1.55
  -6   5  -1    0.02    0.49
   6  -5   1    0.00    0.61
  -7   5  -1    5.86    1.10
   7  -5   1    4.63    1.06
  -8   5  -1    1.84    0.88
   8  -5   1    1.60    0.87
  -9   5  -1    0.78    0.93
   7   4  -1    2.66    1.00
   6   4  -1    1.59    0.81
   5   4  -1    8.89    1.18
  -5  -4   1   10.96    1.00
   4   4  -1    9.05    0.60
   4   4  -1    9.09    1.08
  -4  -4   1   11.55    0.98
   3   4  -1   50.63    2.00
  -3  -4   1   48.75    1.77
   2   4  -1    0.14    0.26
  -2  -4   1   -0.30    0.20
   1   4  -1   72.98    2.21
  -1  -4   1   73.04    1.94
  -1  -4   1   72.70    2.17
   0   4  -1    1.24    0.25
   0  -4   1    1.27    0.28
   0  -4   1    1.49    0.28
  -1   4  -1    4.98    0.42
   1  -4   1    4.54    0.42
   1  -4   1    4.61    0.52
  -2   4  -1    6.58    0.59
   2  -4   1    6.91    0.42
   2  -4   1    6.34    0.69
  -3   4  -1    1.14    0.37
   3  -4   1    0.74    0.16
   3  -4   1    1.80    0.49
  -4   4  -1   11.40    1.04
   4  -4   1   11.17    1.12
  -5   4  -1   28.19    1.61
   5  -4   1   33.65    1.81
  -6   4  -1   -0.01    0.47
   6  -4   1    0.38    0.64
  -7   4  -1    4.95    1.03
   7  -4   1    7.39    1.23
  -8   4  -1    0.05    0.69
   7   3  -1    0.61    0.74
   6   3  -1    1.44    0.74
   5   3  -1   22.09    1.54
  -5  -3   1   21.13    1.18
   4   3  -1    3.22    0.72
   4   3  -1    3.28    0.47
  -4  -3   1    3.48    0.55
   3   3  -1   51.65    1.58
   3   3  -1   54.08    2.04
  -3  -3   1   52.31    1.78
   2   3  -1    8.79    0.75
  -2  -3   1    7.48    0.57
   1   3  -1  100.54    2.81
  -1  -3   1   98.38    2.71
   0   3  -1   82.74    2.21
   0  -3   1   80.68    2.24
   0  -3   1   80.07    2.18
  -1   3  -1    0.07    0.18
   1  -3   1   -0.14    0.15
   1  -3   1   -0.20    0.20
  -2   3  -1   56.09    1.82
   2  -3   1   56.28    1.46
   2  -3   1   54.81    1.94
  -3   3  -1   34.23    1.42
   3  -3   1   32.31    1.46
  -4   3  -1    3.53    0.65
   4  -3   1    4.51    0.76
  -5   3  -1    7.73    1.02
   5  -3   1    9.90    1.15
  -6   3  -1    0.84    0.58
   6  -3   1    1.25    0.70
  -7   3  -1    6.52    1.16
   7  -3   1    5.67    1.12
  -8   3  -1    0.11    0.70
   7   2  -1    0.39    0.74
   6   2  -1    3.35    0.89
   5   2  -1    1.40    0.65
   5   2  -1    3.21    0.60
  -5  -2   1    2.82    0.54
   4   2  -1   42.12    1.88
   4   2  -1   40.69    1.54
  -4  -2   1   38.08    1.48
   3   2  -1   68.21    2.43
   3   2  -1   71.66    2.11
  -3  -2   1   69.05    2.14
   2   2  -1   60.28    2.02
   2   2  -1   62.73    1.73
  -2  -2   1   62.42    1.85
   1   2  -1  106.37    2.90
  -1  -2   1  104.69    2.77
   0   2  -1   67.52    1.79
   0  -2   1   66.77    1.74
   0  -2   1   64.28    1.79
  -1   2  -1   45.67    1.34
   1  -2   1   42.56    1.40
   1  -2   1   43.08    1.13
  -2   2  -1   81.47    2.45
   2  -2   1   79.76    2.49
  -3   2  -1   73.84    2.45
   3  -2   1   69.78    2.43
  -4   2  -1    2.07    0.54
  -4   2  -1    1.79    0.24
   4  -2   1    1.34    0.51
  -5   2  -1    6.95    0.97
   5  -2   1    9.21    1.08
  -6   2  -1    0.31    0.51
   6  -2   1   -0.10    0.31
  -7   2  -1   -0.03    0.59
   7  -2   1    0.02    0.70
  -8   2  -1    1.40    0.85
  -8  -1   1    1.16    0.80
   7   1  -1    0.33    0.71
   6   1  -1    8.94    1.24
   5   1  -1    0.07    0.48
   5   1  -1   -0.28    0.38
  -5  -1   1    0.08    0.29
   4   1  -1   32.13    1.39
   4   1  -1   30.88    1.59
  -4  -1   1   32.36    1.25
   3   1  -1   35.58    1.29
   3   1  -1   31.19    1.45
  -3  -1   1   34.47    1.22
   2   1  -1    8.56    0.48
   2   1  -1    9.15    0.61
   2   1  -1    8.12    0.51
   1   1  -1   58.79    1.72
   1   1  -1   58.64    1.60
   1   1  -1   60.13    1.58
   0   1  -1   97.08    2.43
   0   1  -1   99.76    2.54
   0  -1   1  102.00    2.58
  -1   1  -1   60.00    1.70
   1  -1   1   56.71    1.71
  -2   1  -1   19.85    0.59
  -2   1  -1   19.70    0.91
   2  -1   1   19.03    0.89
  -3   1  -1   30.46    0.93
  -3   1  -1   29.82    1.35
   3  -1   1   30.21    1.30
  -4   1  -1   11.90    0.60
  -4   1  -1   12.77    1.13
  -5   1  -1    1.63    0.59
   5  -1   1    0.81    0.52
  -6   1  -1    1.25    0.64
   6  -1   1    1.84    0.68
  -7   1  -1    1.31    0.73
  -8   1  -1   -0.40    0.63
  -8   0   1    3.03    1.02
   6   0  -1    5.57    0.91
   6   0  -1    4.51    0.93
   5   0  -1   -0.35    0.42
   5   0  -1    0.20    0.45
  -5   0   1   -0.25    0.25
   4   0  -1  136.31    4.28
   4   0  -1  138.28    4.13
   3   0  -1   12.83    0.83
   3   0  -1   12.81    0.64
   3   0  -1   12.33    0.76
   2   0  -1  114.47    3.28
   2   0  -1  118.77    3.01
   0   0  -1    4.54    0.20
   0   0   1    5.44    0.25
  -1   0  -1  160.04    4.15
  -1   0  -1  156.81    3.85
  -2   0  -1   18.48    0.61
   2   0   1   12.80    0.68
   2   0   1   16.57    0.85
  -3   0  -1   25.92    0.89
   3   0   1   22.44    1.21
   3   0   1   26.26    1.15
  -4   0  -1   25.99    1.01
   4   0   1   28.75    1.37
  -5   0  -1   -0.36    0.41
   5   0   1    0.38    0.48
  -6   0  -1    4.20    0.92
   6   0   1    5.32    0.92
  -7   0  -1    0.52    0.64
  -8   0  -1    0.17    0.77
  -9   1   1    0.85    0.91
  -8   1   1    0.23    0.71
  -7   1   1    1.05    0.66
   6  -1  -1    6.96    1.06
   5  -1  -1    6.70    0.95
   5  -1  -1    6.50    0.91
   4  -1  -1    2.73    0.59
   4  -1  -1    2.85    0.38
   3  -1  -1   77.66    2.51
   3  -1  -1   77.77    2.51
   3  -1  -1   75.84    2.13
   2  -1  -1   68.41    2.06
   2  -1  -1   68.37    2.15
   2  -1  -1   68.13    1.86
   1  -1  -1   37.78    1.10
   1  -1  -1   40.00    1.26
   0  -1  -1    4.17    0.26
   0  -1  -1    4.34    0.27
   0  -1  -1    3.96    0.19
  -1  -1  -1  524.88   12.52
   1   1   1  516.10   13.06
   1   1   1  527.56   12.99
  -2  -1  -1   43.83    1.34
   2   1   1   43.30    1.57
   2   1   1   42.29    1.40
  -3  -1  -1   56.92    1.77
   3   1   1   59.99    2.20
   3   1   1   59.89    1.95
  -4  -1  -1   31.10    1.19
   4   1   1   29.36    1.37
   4   1   1   30.73    1.61
   5   1   1    2.30    0.63
  -6  -1  -1    4.80    0.99
  -7  -1  -1    0.80    0.70
  -8  -1  -1   -0.44    0.71
  -9   2   1   -0.16    0.78
  -8   2   1    1.39    0.89
   7  -2  -1    0.92    0.71
  -7   2   1    0.59    0.61
   6  -2  -1    0.09    0.43
  -6   2   1    1.14    0.59
   5  -2  -1    2.37    0.68
   5  -2  -1    3.22    0.76
   4  -2  -1   13.55    1.04
   4  -2  -1   13.42    0.97
   4  -2  -1   12.68    0.65
   3  -2  -1   53.57    1.62
   3  -2  -1   56.42    1.92
   3  -2  -1   55.66    2.04
   2  -2  -1    9.56    0.56
   2  -2  -1    9.13    0.49
   2  -2  -1    8.68    0.73
   1  -2  -1    0.44    0.23
   1  -2  -1    0.57    0.14
   1  -2  -1    0.69    0.16
   0  -2  -1   31.83    1.03
   0  -2  -1   32.07    1.04
   0   2   1   32.17    0.90
  -1  -2  -1  127.91    3.46
   1   2   1  134.36    3.56
   1   2   1  132.27    3.47
  -2  -2  -1   -0.11    0.20
   2   2   1    0.30    0.21
   2   2   1    0.27    0.28
  -3  -2  -1   27.21    1.13
   3   2   1   27.44    1.39
   3   2   1   30.29    1.15
  -4  -2  -1   26.21    1.17
   4   2   1   26.08    1.22
   4   2   1   25.83    1.52
  -5  -2  -1    1.64    0.47
   5   2   1    1.48    0.68
   5   2   1    2.21    0.57
  -7  -2  -1    0.99    0.76
  -8  -2  -1    3.48    1.15
  -9   3   1    2.95    1.07
  -8   3   1    1.15    0.81
   7  -3  -1   10.02    1.36
  -7   3   1   10.71    1.35
   6  -3  -1    2.14    0.82
  -6   3   1    4.75    0.85
   5  -3  -1    4.67    0.90
  -5   3   1    3.70    0.72
   4  -3  -1   65.44    2.57
   4  -3  -1   68.41    1.98
   3  -3  -1   17.50    1.08
   3  -3  -1   17.18    0.74
   2  -3  -1  170.10    4.98
   2  -3  -1  178.10    4.50
  -2   3   1  181.66    4.64
   1  -3  -1    2.70    0.34
   1  -3  -1    2.25    0.39
  -1   3   1    2.69    0.20
   0  -3  -1  129.96    3.47
   0  -3  -1  130.13    3.54
   0   3   1  131.31    3.32
  -1  -3  -1  392.95    9.76
   1   3   1  396.92    9.99
   1   3   1  395.26    9.97
  -2  -3  -1   12.77    0.77
   2   3   1   12.16    0.61
   2   3   1   11.15    0.78
  -3  -3  -1   60.39    2.02
   3   3   1   60.03    2.29
   3   3   1   59.61    1.89
  -4  -3  -1    9.59    0.88
   4   3   1    9.69    0.73
   4   3   1    7.92    1.02
  -5  -3  -1    3.22    0.63
   5   3   1    4.39    0.93
  -7  -3  -1    1.07    0.75
  -8  -3  -1    1.88    0.96
  -9   4   1    1.19    0.92
   8  -4  -1    0.08    0.87
  -8   4   1   -0.26    0.65
   7  -4  -1    5.55    1.08
  -7   4   1    5.56    1.07
   6  -4  -1    0.66    0.73
  -6   4   1    1.84    0.64
   5  -4  -1   16.37    1.49
  -5   4   1   16.23    1.17
   4  -4  -1   29.33    1.10
   4  -4  -1   28.00    1.59
  -4   4   1   28.29    1.37
   3  -4  -1    0.21    0.20
   3  -4  -1    0.52    0.41
  -3   4   1    0.10    0.25
   2  -4  -1  268.97    7.62
   2  -4  -1  283.05    7.01
  -2   4   1  288.28    7.12
   1  -4  -1   12.95    0.71
   1  -4  -1   11.44    0.77
   0  -4  -1   73.99    2.17
   0  -4  -1   69.31    2.17
   0   4   1   70.98    1.94
  -1  -4  -1  191.69    5.07
  -1  -4  -1  192.34    5.14
   1   4   1  197.22    5.16
  -2  -4  -1   52.29    1.84
   2   4   1   49.76    1.56
   2   4   1   50.50    1.86
  -3  -4  -1   98.70    3.06
   3   4   1   99.10    2.80
   3   4   1   97.36    3.31
  -4  -4  -1    3.33    0.62
   4   4   1    5.03    0.56
   4   4   1    3.32    0.76
  -5  -4  -1   17.21    1.35
   5   4   1   15.83    1.64
   6   4   1    6.71    1.25
  -7  -4  -1    2.84    0.96
  -8  -4  -1    0.17    0.85
   8  -5  -1    0.54    0.92
  -8   5   1    0.32    0.68
   7  -5  -1   -0.57    0.69
  -7   5   1    0.87    0.61
   6  -5  -1    0.05    0.64
  -6   5   1    0.63    0.53
   5  -5  -1   24.51    1.64
  -5   5   1   23.34    1.38
   4  -5  -1   18.23    0.88
   4  -5  -1   20.65    1.37
  -4   5   1   18.94    1.06
   3  -5  -1    0.93    0.29
   3  -5  -1    0.81    0.47
  -3   5   1    1.47    0.37
   2  -5  -1   67.34    2.31
   2  -5  -1   83.02    2.75
  -2   5   1   86.66    2.22
   1  -5  -1    3.86    0.52
   1  -5  -1    3.05    0.51
   0  -5  -1  142.96    4.09
   0  -5  -1  143.90    4.06
   0   5   1  152.05    3.82
  -1  -5  -1  107.15    3.23
  -1  -5  -1  109.28    3.05
   1   5   1  109.88    3.14
  -2  -5  -1    2.34    0.51
   2   5   1    2.04    0.33
   2   5   1    2.49    0.50
  -3  -5  -1   63.84    2.35
   3   5   1   68.59    2.53
   3   5   1   63.71    1.95
  -4  -5  -1   -0.52    0.39
   4   5   1   -0.28    0.40
  -5  -5  -1    0.26    0.44
   5   5   1   -0.15    0.57
   6   5   1    3.24    1.00
  -7  -5  -1   -0.35    0.63
  -8  -5  -1    2.26    1.03
   8  -6  -1    0.32    0.92
   7  -6  -1    2.26    0.88
  -7   6   1    4.10    0.90
   6  -6  -1    0.37    0.69
  -6   6   1    1.02    0.56
   5  -6  -1   12.54    1.42
  -5   6   1   11.21    1.06
   4  -6  -1    7.60    1.05
   4  -6  -1    7.36    0.65
  -4   6   1    7.08    0.75
   3  -6  -1   18.20    0.94
   3  -6  -1   19.12    1.26
  -3   6   1   17.95    0.88
   2  -6  -1  271.28    7.56
  -2   6   1  268.54    6.80
   1  -6  -1   91.69    2.78
   1  -6  -1   87.01    2.89
   0  -6  -1   73.08    2.44
   0  -6  -1   73.64    2.38
   0   6   1   74.95    2.10
  -1  -6  -1  191.90    5.19
  -1  -6  -1  195.97    5.36
   1   6   1  190.77    5.22
  -2  -6  -1   68.50    2.44
   2   6   1   66.13    2.36
   2   6   1   66.78    2.04
  -3  -6  -1    9.75    1.03
   3   6   1    9.74    0.62
   3   6   1   10.26    1.09
  -4  -6  -1    6.55    0.93
   4   6   1    6.97    1.04
  -5  -6  -1   12.76    1.28
   5   6   1    9.30    1.33
   6   6   1    2.56    0.91
   9  -7  -1    0.63    1.16
   8  -7  -1    0.45    0.94
   7  -7  -1    0.10    0.81
   6  -7  -1   -0.40    0.66
  -6   7   1   -0.15    0.48
   5  -7  -1    8.99    1.25
  -5   7   1    7.87    0.92
   4  -7  -1    1.42    0.41
   4  -7  -1    1.89    0.72
  -4   7   1    1.79    0.49
   3  -7  -1    8.92    1.05
   3  -7  -1    8.76    0.79
  -3   7   1    9.34    0.64
   2  -7  -1    0.44    0.34
   2  -7  -1    1.24    0.51
  -2   7   1    0.53    0.23
   1  -7  -1   22.23    1.20
   1  -7  -1   20.49    1.15
   0  -7  -1  127.99    3.80
   0  -7  -1  128.51    3.85
   0   7   1  127.00    3.45
  -1  -7  -1    4.36    0.52
  -1  -7  -1    3.47    0.65
   1   7   1    3.08    0.46
  -2  -7  -1   66.08    2.46
   2   7   1   64.89    2.05
   2   7   1   64.49    2.36
  -3  -7  -1    2.20    0.66
   3   7   1    2.50    0.63
  -4  -7  -1   12.33    1.25
   4   7   1    9.68    1.25
  -5  -7  -1    2.03    0.70
   5   7   1    0.36    0.60
   6   7   1   -0.17    0.71
   8  -8  -1    0.58    1.04
   7  -8  -1    0.29    0.85
   6  -8  -1   -0.04    0.70
   5  -8  -1   23.14    1.76
   4  -8  -1   -0.41    0.53
   4  -8  -1    0.36    0.37
   3  -8  -1    9.81    0.90
   3  -8  -1    8.28    1.10
  -3   8   1    9.27    0.63
   2  -8  -1    2.96    0.69
   2  -8  -1    2.74    0.58
  -2   8   1    3.90    0.36
   1  -8  -1    2.70    0.56
   1  -8  -1    3.38    0.64
  -1   8   1    2.82    0.28
   0  -8  -1   40.45    1.77
   0  -8  -1   38.94    1.63
   0   8   1   37.94    1.33
  -1  -8  -1    7.43    0.71
  -1  -8  -1    5.55    0.80
   1   8   1    7.01    0.70
  -2  -8  -1   24.77    1.44
   2   8   1   24.27    1.08
   2   8   1   24.43    1.32
  -3  -8  -1    2.72    0.72
   3   8   1    4.11    0.77
  -4  -8  -1   10.69    1.27
   4   8   1   10.34    1.26
  -5  -8  -1    4.65    0.93
   5   8   1    2.38    0.80
   6   8   1   -0.16    0.69
   8  -9  -1    0.54    1.02
   7  -9  -1    0.04    0.82
   6  -9  -1    2.47    0.91
   5  -9  -1   -0.01    0.66
   4  -9  -1    5.40    1.01
   4  -9  -1    3.38    0.64
   3  -9  -1   10.94    1.27
   3  -9  -1   12.31    1.07
   2  -9  -1    8.77    1.06
   2  -9  -1    7.43    0.89
   1  -9  -1   24.35    1.39
   1  -9  -1   24.02    1.38
   0  -9  -1   31.38    1.59
   0  -9  -1   28.07    1.44
   0   9   1   29.68    1.14
  -1  -9  -1    0.49    0.42
  -1  -9  -1    0.70    0.40
   1   9   1    0.37    0.35
  -2  -9  -1    7.53    1.01
   2   9   1    8.42    0.93
  -3  -9  -1   -0.15    0.48
   3   9   1    0.12    0.44
  -4  -9  -1    7.29    1.08
   4   9   1    9.06    1.22
  -5  -9  -1    0.67    0.60
   5   9   1    0.11    0.61
   6   9   1    0.57    0.78
   7 -10  -1   -0.67    0.88
   6 -10  -1    2.07    0.90
   5 -10  -1    0.51    0.70
   4 -10  -1    1.90    0.55
   4 -10  -1    1.73    0.76
   3 -10  -1   11.58    1.35
   3 -10  -1    9.31    1.01
   2 -10  -1    5.21    0.86
   2 -10  -1    5.94    0.84
   1 -10  -1   33.71    1.75
   1 -10  -1   36.41    1.81
   0 -10  -1   16.74    1.23
   0 -10  -1   13.89    1.07
  -1 -10  -1    0.15    0.44
  -1 -10  -1    0.50    0.42
   1  10   1    0.03    0.33
  -2 -10  -1   25.24    1.62
   2  10   1   25.99    1.43
  -3 -10  -1    0.45    0.57
   3  10   1    0.30    0.49
  -4 -10  -1    4.34    0.94
   4  10   1    6.40    1.07
  -5 -10  -1    1.18    0.80
   5  10   1    2.25    0.84
  -6 -10  -1    2.38    0.90
   6  10   1    0.71    0.88
   7 -11  -1    0.44    1.01
   6 -11  -1    0.37    0.84
   5 -11  -1   -0.15    0.69
   4 -11  -1    3.27    0.95
   3 -11  -1    2.30    0.80
   3 -11  -1    0.27    0.31
   2 -11  -1   -0.52    0.43
   2 -11  -1    0.09    0.48
   1 -11  -1   21.57    1.46
   1 -11  -1   25.22    1.53
   0 -11  -1   26.59    1.62
   0 -11  -1   25.85    1.47
  -1 -11  -1   24.49    1.62
  -2 -11  -1    6.87    1.05
   2  11   1    5.39    0.82
  -3 -11  -1    0.06    0.53
   3  11   1    1.04    0.59
  -4 -11  -1    2.24    0.85
   4  11   1    3.81    0.93
  -5 -11  -1    5.10    1.09
   5  11   1    3.70    0.98
  -6 -11  -1    1.76    0.93
   6  11   1    1.48    0.94
   7 -12  -1   -0.41    0.95
   6 -12  -1    1.83    1.02
   5 -12  -1    0.69    0.79
   4 -12  -1    1.16    0.77
   3 -12  -1    2.92    0.70
   3 -12  -1    3.14    0.87
   2 -12  -1    0.29    0.59
   2 -12  -1    0.72    0.58
   1 -12  -1   30.51    1.72
   1 -12  -1   23.05    1.57
   0 -12  -1    1.56    0.61
   0 -12  -1    1.21    0.63
  -1 -12  -1    0.88    0.63
  -2 -12  -1   21.01    1.60
  -3 -12  -1    0.50    0.65
  -4 -12  -1    7.72    1.23
   4  12   1    7.77    1.21
  -5 -12  -1    0.26    0.70
   5  12   1    0.72    0.78
  -6 -12  -1    0.23    0.84
   6  12   1    1.13    0.99
   6 -13  -1    1.63    1.02
   5 -13  -1   -0.66    0.73
   4 -13  -1    2.51    0.95
   3 -13  -1    5.08    1.07
   3 -13  -1    4.35    0.85
   2 -13  -1    9.05    1.25
   2 -13  -1    7.19    1.07
   1 -13  -1   32.00    1.91
   0 -13  -1    0.23    0.54
   0 -13  -1    0.61    0.51
  -1 -13  -1    0.98    0.65
  -2 -13  -1    8.19    1.22
  -3 -13  -1    4.45    1.04
  -4 -13  -1    4.19    1.07
  -5 -13  -1    0.54    0.83
  -6 -13  -1    0.41    0.92
   6 -14  -1    1.14    1.02
   5 -14  -1    0.71    0.89
   4 -14  -1    3.64    1.06
   3 -14  -1    0.10    0.55
   3 -14  -1   -0.36    0.62
   2 -14  -1    1.96    0.74
   2 -14  -1    0.99    0.67
   1 -14  -1    4.77    0.95
   1 -14  -1    6.12    1.05
   0 -14  -1    0.10    0.56
  -1 -14  -1    9.62    1.32
  -2 -14  -1   -0.05    0.56
  -3 -14  -1    2.14    0.89
  -4 -14  -1    1.35    0.88
  -5 -14  -1    0.57    0.88
   5 -15  -1    0.93    0.90
   4 -15  -1    2.11    1.04
   3 -15  -1    0.94    0.71
   3 -15  -1    1.14    0.80
   2 -15  -1    6.46    1.17
   2 -15  -1    6.19    1.10
   1 -15  -1    5.08    1.00
   1 -15  -1    3.52    0.92
   0 -15  -1   -0.85    0.45
  -1 -15  -1    1.84    0.79
  -2 -15  -1    0.21    0.69
  -3 -15  -1    1.78    0.91
  -4 -15  -1   -0.45    0.78
   5 -16  -1    0.38    0.94
   4 -16  -1    0.58    0.89
   3 -16  -1    0.66    0.71
   3 -16  -1    0.25    0.76
   2 -16  -1    7.56    1.28
   2 -16  -1    5.84    1.16
   1 -16  -1    0.82    0.75
   0 -16  -1    2.87    0.89
  -1 -16  -1    2.60    0.89
  -2 -16  -1    0.42    0.73
  -3 -16  -1    1.23    0.93
   4 -17  -1   -0.36    0.87
   3 -17  -1    0.70    0.85
   2 -17  -1    2.48    0.91
   1 -17  -1    0.77    0.70
   0 -17  -1    1.04    0.77
  -1 -17  -1   -0.23    0.67
  -2 -17  -1    1.63    0.90
   3 -18  -1    2.82    1.08
   2 -18  -1    0.46    0.76
   1 -18  -1   -0.11    0.72
   0 -18  -1    2.11    0.96
   0 -19   2    0.76    0.84
   1 -19   2    0.21    0.74
   3 -19   2    0.46    0.96
  -2 -18   2    0.02    0.70
  -1 -18   2    3.45    0.96
   0 -18   2    0.78    0.75
   1 -18   2    0.23    0.70
   2 -18   2    1.04    0.81
   3 -18   2    1.07    0.92
   4 -18   2    3.53    1.32
  -3 -17   2    0.24    0.82
  -2 -17   2    0.53    0.77
  -1 -17   2    1.28    0.76
   0 -17   2    0.18    0.62
   1 -17   2    0.95    0.67
   2 -17   2    1.25    0.84
   2 -17   2    1.46    0.72
   3 -17   2    0.17    0.83
   4 -17   2    0.81    0.96
  -4 -16   2    0.96    0.85
  -3 -16   2    0.96    0.84
  -2 -16   2   -0.72    0.62
  -1 -16   2    1.38    0.72
   0 -16   2    0.75    0.64
   1 -16   2   -0.73    0.50
   2 -16   2    2.86    0.96
   2 -16   2    1.09    0.65
   3 -16   2    0.90    0.91
   4 -16   2    3.24    1.13
   5 -16   2    0.07    0.96
  -5 -15   2    0.15    0.83
  -4 -15   2    3.65    1.04
  -3 -15   2   -0.59    0.62
  -2 -15   2   -0.81    0.54
  -1 -15   2    1.61    0.76
   0 -15   2    2.82    0.77
   1 -15   2    4.08    0.94
   1 -15   2    5.46    0.97
   2 -15   2   -0.19    0.60
   2 -15   2    0.07    0.52
   3 -15   2    1.66    0.93
   4 -15   2    1.66    0.97
   5 -15   2    1.05    0.94
   6  14  -2    0.19    0.83
  -6 -14   2    0.79    0.89
   5  14  -2    0.27    0.70
  -5 -14   2   -0.68    0.72
   4  14  -2    3.39    0.92
  -4 -14   2    5.51    1.18
  -3 -14   2    4.39    1.01
  -2 -14   2    5.10    1.02
  -1 -14   2    0.22    0.56
   0 -14   2    0.12    0.59
   1 -14   2    2.67    0.79
   1 -14   2    2.55    0.72
   2 -14   2    0.87    0.70
   2 -14   2    0.55    0.58
   3 -14   2    6.00    1.18
   4 -14   2    1.62    0.88
   5 -14   2    1.58    0.98
   6 -14   2    1.50    1.06
   6  13  -2    1.26    0.88
  -6 -13   2    0.21    0.80
   5  13  -2    1.37    0.76
  -5 -13   2    1.11    0.84
   4  13  -2   12.43    1.49
  -4 -13   2   12.25    1.48
   3  13  -2   -0.07    0.46
  -3 -13   2    0.57    0.62
   2  13  -2   21.44    1.35
  -2 -13   2   18.02    1.67
  -1 -13   2    1.64    0.72
   0 -13   2   38.08    1.90
   0 -13   2   38.05    2.03
   1 -13   2   11.36    1.26
   1 -13   2    9.12    1.12
   2 -13   2    0.07    0.60
   2 -13   2   -0.07    0.49
   3 -13   2    0.51    0.70
   4 -13   2    3.95    1.08
   5 -13   2    0.85    0.86
   6 -13   2    1.19    0.98
   6  12  -2    1.14    0.87
  -6 -12   2    2.44    0.93
   5  12  -2   11.13    1.52
  -5 -12   2    9.53    1.35
   4  12  -2    0.01    0.49
  -4 -12   2    0.80    0.67
   3  12  -2    0.89    0.56
  -3 -12   2    1.78    0.71
   2  12  -2    8.78    0.99
  -2 -12   2    6.27    1.00
   1  12  -2    0.17    0.42
  -1 -12   2    0.13    0.54
   0  12  -2   48.16    1.92
   0 -12   2   52.06    2.30
   0 -12   2   53.77    2.20
   1 -12   2    1.46    0.60
   1 -12   2    0.54    0.53
   2 -12   2    5.10    0.93
   3 -12   2    2.63    0.81
   3 -12   2    4.26    0.73
   4 -12   2    1.17    0.80
   5 -12   2    5.47    1.18
   6 -12   2    3.96    1.10
   7 -12   2    0.51    1.04
   7  11  -2   -0.46    0.74
   6  11  -2   -0.22    0.69
  -6 -11   2   -0.19    0.69
   5  11  -2    5.26    1.09
  -5 -11   2    8.91    1.30
   4  11  -2    4.96    0.95
  -4 -11   2    5.08    0.94
   3  11  -2    1.39    0.60
  -3 -11   2    1.28    0.65
   2  11  -2    3.99    0.74
  -2 -11   2    4.82    0.85
   1  11  -2    1.75    0.52
  -1 -11   2    2.05    0.49
  -1 -11   2    1.20    0.58
   0  11  -2   20.63    1.11
   0 -11   2   22.09    1.41
   0 -11   2   20.41    1.27
  -1  11  -2   16.04    0.96
   1 -11   2   18.06    1.24
   1 -11   2   16.35    1.29
  -2  11  -2    8.20    0.78
   2 -11   2   11.25    1.26
   2 -11   2    6.87    0.87
   3 -11   2   12.81    1.40
   3 -11   2   13.10    1.11
   4 -11   2    8.19    1.26
   5 -11   2    1.38    0.82
   6 -11   2    1.78    0.99
   7 -11   2   -0.29    0.87
   7  10  -2    3.38    1.17
   6  10  -2    0.29    0.69
  -6 -10   2    0.75    0.71
   5  10  -2   14.52    1.63
  -5 -10   2   16.10    1.57
   4  10  -2    0.99    0.63
  -4 -10   2    2.24    0.73
   3  10  -2    0.45    0.44
  -3 -10   2    0.88    0.56
   2  10  -2    3.12    0.63
  -2 -10   2    3.41    0.70
   1  10  -2    0.33    0.38
  -1 -10   2    0.20    0.33
  -1 -10   2    0.53    0.43
   0  10  -2   64.13    2.24
   0 -10   2   64.63    2.49
   0 -10   2   67.77    2.42
  -1  10  -2    0.36    0.35
   1 -10   2    0.36    0.44
   1 -10   2    0.41    0.45
  -2  10  -2    7.75    0.76
   2 -10   2    7.45    0.98
   2 -10   2    7.71    0.87
  -3  10  -2   12.53    0.95
   3 -10   2   11.64    0.98
   3 -10   2   15.13    1.47
  -4  10  -2   15.22    1.11
   4 -10   2   12.61    1.48
   5 -10   2   11.21    1.43
   6 -10   2   -0.08    0.78
   7 -10   2   -0.03    0.94
   7   9  -2    5.67    1.33
   6   9  -2    1.29    0.81
  -6  -9   2    0.49    0.65
   5   9  -2   16.03    1.70
  -5  -9   2   17.87    1.59
   4   9  -2    0.15    0.48
  -4  -9   2    0.40    0.50
   3   9  -2    2.85    0.68
  -3  -9   2    3.76    0.73
   2   9  -2    5.14    0.74
  -2  -9   2    4.87    0.76
   1   9  -2    9.62    0.86
  -1  -9   2    9.40    0.96
  -1  -9   2    9.39    0.70
   0   9  -2   58.69    2.10
   0  -9   2   66.04    2.27
   0  -9   2   63.86    2.36
  -1   9  -2   18.92    0.95
   1  -9   2   19.10    1.12
   1  -9   2   17.08    1.16
  -2   9  -2    2.57    0.51
   2  -9   2    1.66    0.47
   2  -9   2    3.56    0.69
  -3   9  -2    3.23    0.60
   3  -9   2    2.07    0.46
   3  -9   2    2.23    0.70
  -4   9  -2    8.13    0.94
   4  -9   2    7.49    1.14
  -5   9  -2   20.78    1.41
  -6   9  -2   -0.16    0.58
   6  -9   2   -0.06    0.71
   7  -9   2    1.34    0.98
   8  -9   2    0.84    1.11
   7   8  -2    0.01    0.85
   6   8  -2    0.82    0.75
  -6  -8   2    0.29    0.56
   5   8  -2   14.95    1.62
  -5  -8   2   13.60    1.30
   4   8  -2    0.66    0.52
  -4  -8   2    0.57    0.46
   3   8  -2    0.57    0.44
  -3  -8   2    1.06    0.46
   2   8  -2    0.57    0.39
  -2  -8   2    0.67    0.39
   1   8  -2    1.31    0.40
  -1  -8   2    1.89    0.47
  -1  -8   2    1.72    0.35
   0   8  -2   21.18    1.02
   0  -8   2   20.85    1.07
   0  -8   2   22.85    1.19
  -1   8  -2    4.62    0.54
   1  -8   2    4.33    0.62
   1  -8   2    4.13    0.64
  -2   8  -2   15.73    0.90
   2  -8   2   14.79    1.12
   2  -8   2   16.37    0.94
  -3   8  -2    4.86    0.69
   3  -8   2    4.23    0.52
   3  -8   2    3.72    0.76
  -4   8  -2   31.84    1.59
   4  -8   2   32.40    1.90
  -5   8  -2    4.99    0.87
   5  -8   2    5.95    1.06
  -6   8  -2    0.01    0.55
   6  -8   2    0.00    0.71
  -7   8  -2    1.70    0.76
   7  -8   2    2.08    0.92
   8  -8   2    0.27    1.01
   8   7  -2    3.17    1.22
   7   7  -2   -0.17    0.76
   6   7  -2    1.34    0.74
  -6  -7   2    0.21    0.52
   5   7  -2    5.24    1.05
  -5  -7   2    3.70    0.73
   4   7  -2    3.79    0.77
  -4  -7   2    4.15    0.70
   3   7  -2   12.02    1.14
  -3  -7   2   10.93    1.02
   2   7  -2   23.95    1.24
  -2  -7   2   22.52    1.20
   1   7  -2   43.91    1.65
  -1  -7   2   44.20    1.46
  -1  -7   2   43.50    1.68
   0   7  -2    0.26    0.27
   0  -7   2    0.45    0.30
   0  -7   2    0.46    0.28
  -1   7  -2    3.17    0.46
   1  -7   2    3.48    0.57
  -2   7  -2    3.07    0.50
   2  -7   2    2.79    0.59
   2  -7   2    3.61    0.49
  -3   7  -2    0.18    0.39
   3  -7   2    0.18    0.24
   3  -7   2   -0.26    0.42
  -4   7  -2   32.84    1.58
   4  -7   2   31.52    1.80
  -5   7  -2   23.47    1.48
   5  -7   2   24.25    1.69
  -6   7  -2    1.80    0.68
   6  -7   2    1.80    0.85
  -7   7  -2    0.65    0.72
  -8   7  -2   -0.20    0.71
   8  -7   2   -1.06    0.89
   8   6  -2    3.22    1.23
   7   6  -2    1.28    0.88
   6   6  -2    2.14    0.81
  -6  -6   2    3.16    0.69
   5   6  -2    3.97    0.93
  -5  -6   2    3.52    0.68
   4   6  -2    4.71    0.86
  -4  -6   2    5.36    0.77
   3   6  -2   15.03    1.05
  -3  -6   2   15.21    0.98
   2   6  -2  158.89    4.60
  -2  -6   2  155.78    4.44
   1   6  -2    9.60    0.67
  -1  -6   2   10.09    0.72
  -1  -6   2    8.50    0.51
   0   6  -2    2.30    0.39
   0  -6   2    3.37    0.46
   0  -6   2    3.10    0.44
  -1   6  -2   26.14    1.02
   1  -6   2   21.48    0.98
   1  -6   2   23.44    1.14
  -2   6  -2   21.46    1.03
   2  -6   2   22.83    0.94
   2  -6   2   24.63    1.27
  -3   6  -2   18.14    1.04
   3  -6   2   18.47    0.74
   3  -6   2   18.44    1.27
  -4   6  -2   30.16    1.53
   4  -6   2   30.45    1.71
  -5   6  -2   22.04    1.43
   5  -6   2   22.87    1.60
  -6   6  -2    3.71    0.84
   6  -6   2    1.47    0.79
  -7   6  -2    1.80    0.81
   7  -6   2    0.80    0.81
  -8   6  -2    1.33    0.86
   8  -6   2   -0.92    0.86
   8   5  -2    0.67    0.92
   7   5  -2    0.28    0.76
   6   5  -2    0.28    0.64
  -6  -5   2    0.86    0.46
   5   5  -2   22.07    1.58
  -5  -5   2   20.37    1.26
   4   5  -2    9.99    1.14
  -4  -5   2   11.45    1.02
   3   5  -2   34.27    1.60
  -3  -5   2   34.97    1.48
   2   5  -2    6.40    0.70
  -2  -5   2    6.04    0.63
   1   5  -2    1.63    0.36
  -1  -5   2    1.94    0.26
  -1  -5   2    1.48    0.33
   0   5  -2   19.10    0.86
   0  -5   2   19.56    0.85
   0  -5   2   19.33    0.87
  -1   5  -2    3.58    0.44
   1  -5   2    4.34    0.54
   1  -5   2    4.00    0.42
  -2   5  -2   17.12    0.88
   2  -5   2   17.03    0.70
   2  -5   2   16.27    1.00
  -3   5  -2   14.29    0.92
   3  -5   2   16.35    1.08
  -4   5  -2   42.81    1.89
   4  -5   2   45.82    2.12
  -5   5  -2   16.60    1.25
   5  -5   2   15.83    1.50
  -6   5  -2    1.12    0.63
   6  -5   2    1.79    0.76
  -7   5  -2    5.51    1.09
   7  -5   2    6.26    1.14
  -8   5  -2    1.26    0.91
   8  -5   2    1.25    1.00
   8   4  -2    2.46    1.11
   7   4  -2   -0.04    0.64
   6   4  -2   30.45    1.99
  -6  -4   2   27.92    1.50
   5   4  -2    0.22    0.54
  -5  -4   2    0.27    0.40
   4   4  -2   36.11    1.21
   4   4  -2   34.59    1.77
  -4  -4   2   34.79    1.51
   3   4  -2    0.70    0.40
  -3  -4   2    0.54    0.32
   2   4  -2    9.17    0.72
  -2  -4   2   11.27    0.69
   1   4  -2    0.88    0.30
  -1  -4   2    0.34    0.16
  -1  -4   2    0.10    0.21
   0   4  -2   20.32    0.83
   0  -4   2   17.99    0.80
   0  -4   2   20.68    0.82
  -1   4  -2   16.81    0.78
   1  -4   2   16.95    0.68
   1  -4   2   17.72    0.87
  -2   4  -2    7.08    0.65
   2  -4   2    7.38    0.74
   2  -4   2    7.37    0.38
  -3   4  -2    0.62    0.36
   3  -4   2    1.44    0.49
  -4   4  -2   24.79    1.38
   4  -4   2   25.58    1.47
  -5   4  -2    1.17    0.55
   5  -4   2    0.35    0.62
  -6   4  -2    2.19    0.73
   6  -4   2    2.05    0.77
  -7   4  -2    4.38    1.00
   7  -4   2    4.24    1.01
  -8   4  -2    0.26    0.76
   8   3  -2    2.52    1.08
   7   3  -2    1.77    0.84
   6   3  -2   22.44    1.70
  -6  -3   2   19.51    1.23
   5   3  -2    0.49    0.54
  -5  -3   2    0.23    0.36
   4   3  -2   50.50    1.72
   4   3  -2   52.50    2.20
  -4  -3   2   51.92    1.88
   3   3  -2    7.29    0.46
   3   3  -2    6.50    0.75
  -3  -3   2    8.78    0.73
   2   3  -2    0.89    0.33
  -2  -3   2    0.78    0.28
   1   3  -2   40.85    1.39
  -1  -3   2   39.11    1.32
  -1  -3   2   41.57    1.15
   0   3  -2    3.66    0.37
   0  -3   2    3.00    0.30
   0  -3   2    3.14    0.33
  -1   3  -2    1.24    0.29
   1  -3   2    0.64    0.28
   1  -3   2    0.87    0.17
  -2   3  -2   65.25    2.08
   2  -3   2   62.05    2.14
  -3   3  -2   76.03    2.59
   3  -3   2   78.40    2.67
  -4   3  -2    1.73    0.51
   4  -3   2    0.58    0.48
  -5   3  -2    1.69    0.59
   5  -3   2    1.22    0.63
  -6   3  -2    3.01    0.79
   6  -3   2    2.93    0.85
  -7   3  -2    0.86    0.67
   7  -3   2    0.03    0.68
  -8   3  -2    0.86    0.85
   8   2  -2    0.96    0.91
   7   2  -2    3.96    1.05
   6   2  -2    7.92    1.22
   5   2  -2    6.75    0.77
   5   2  -2    5.71    0.96
  -5  -2   2    5.85    0.71
   4   2  -2  117.00    3.42
   4   2  -2  116.68    3.82
  -4  -2   2  113.50    3.36
   3   2  -2    0.46    0.25
   3   2  -2    0.78    0.36
   2   2  -2   44.00    1.43
   2   2  -2   43.73    1.57
   2   2  -2   42.90    1.31
   1   2  -2  149.08    3.83
   1   2  -2  150.76    4.01
  -1  -2   2  150.76    3.86
   0   2  -2   32.72    0.95
   0   2  -2   31.27    1.03
   0  -2   2   30.98    1.03
  -1   2  -2  431.30   10.19
  -1   2  -2  434.30   10.81
   1  -2   2  426.98   10.98
  -2   2  -2    0.14    0.25
   2  -2   2    0.50    0.31
  -3   2  -2   99.80    3.17
   3  -2   2   99.56    3.17
  -4   2  -2    5.17    0.78
   4  -2   2    6.63    0.86
  -5   2  -2    2.83    0.69
   5  -2   2    3.19    0.75
  -6   2  -2    4.26    0.91
   6  -2   2   -0.23    0.34
  -7   2  -2   -0.29    0.55
  -8   2  -2    1.54    0.88
   7   1  -2    2.07    0.89
   6   1  -2    1.51    0.69
   5   1  -2    5.91    0.92
   5   1  -2    7.43    0.85
  -5  -1   2    4.10    0.58
   4   1  -2   26.05    1.12
   4   1  -2   26.40    1.44
   4   1  -2   24.70    1.20
   3   1  -2   92.52    2.88
   3   1  -2   87.73    2.58
   3   1  -2   91.65    2.72
   2   1  -2   46.22    1.65
   2   1  -2   48.20    1.52
   2   1  -2   50.43    1.50
   1   1  -2   40.09    1.27
   1   1  -2   40.01    1.20
   0   1  -2  175.74    4.38
   0   1  -2  167.67    4.19
   0  -1   2  170.81    4.45
  -1   1  -2  153.60    4.01
  -1   1  -2  151.69    3.63
   1  -1   2  144.88    4.04
  -2   1  -2   62.16    1.60
  -2   1  -2   64.90    2.08
   2  -1   2   61.72    2.04
  -3   1  -2   25.30    0.83
  -3   1  -2   27.94    1.33
   3  -1   2   25.44    1.23
  -4   1  -2    6.81    0.50
  -4   1  -2    8.77    1.01
  -5   1  -2    7.39    1.04
   5  -1   2    9.44    1.07
  -6   1  -2    6.08    1.07
   6  -1   2    7.69    1.13
  -7   1  -2   -0.49    0.53
  -8   1  -2   -0.10    0.75
  -9   0   2    0.87    0.89
   7   0  -2    2.00    0.83
   6   0  -2   -0.08    0.54
   6   0  -2    0.27    0.53
   5   0  -2    1.19    0.55
   5   0  -2    1.80    0.64
   4   0  -2    8.48    0.85
   4   0  -2    8.84    0.69
   4   0  -2    7.07    0.84
   3   0  -2    4.37    0.45
   3   0  -2    5.39    0.63
   3   0  -2    3.89    0.51
   1   0  -2    3.15    0.33
   1   0  -2    3.01    0.30
   0   0  -2   36.12    1.06
   0   0  -2   36.67    1.05
   0   0   2   35.01    1.14
  -1   0  -2   49.91    1.55
  -1   0  -2   48.19    1.34
   1   0   2   48.24    1.54
  -2   0  -2   50.69    1.44
  -2   0  -2   49.73    1.78
  -3   0  -2   81.25    2.22
  -3   0  -2   78.81    2.72
   3   0   2   77.81    2.55
  -4   0  -2   -0.25    0.34
  -4   0  -2   -0.20    0.23
   4   0   2   -0.19    0.31
  -5   0  -2    9.03    1.16
   5   0   2    9.58    1.07
  -6   0  -2    9.72    1.33
   6   0   2   10.83    1.25
  -7   0  -2    2.07    0.82
  -8   0  -2    5.01    1.19
  -9   1   2    1.77    1.05
  -8   1   2    1.43    0.84
   6  -1  -2    0.01    0.57
   6  -1  -2    0.54    0.57
   5  -1  -2    7.66    0.68
   5  -1  -2    4.75    0.82
   4  -1  -2    2.92    0.58
   4  -1  -2    2.38    0.53
   4  -1  -2    2.29    0.38
   3  -1  -2   24.39    1.16
   3  -1  -2   27.21    1.24
   3  -1  -2   26.41    0.99
   2  -1  -2  120.13    3.47
   1  -1  -2  486.59   11.76
   1  -1  -2  493.42   12.03
   1  -1  -2  487.17   12.39
   0  -1  -2  136.78    3.58
   0  -1  -2  141.62    3.76
   0  -1  -2  144.96    3.60
  -1  -1  -2   62.59    1.88
  -1  -1  -2   59.59    1.73
  -2  -1  -2   57.99    1.74
  -2  -1  -2   57.59    1.99
   2   1   2   58.39    1.86
  -3  -1  -2  155.30    4.14
  -3  -1  -2  155.90    4.68
   3   1   2  158.26    4.43
  -4  -1  -2    8.91    0.71
  -4  -1  -2    6.66    0.90
   4   1   2    8.48    0.86
  -5  -1  -2   60.02    2.70
   5   1   2   62.15    2.41
  -6  -1  -2    0.97    0.63
  -7  -1  -2    3.21    0.95
  -8  -1  -2    1.60    0.89
  -9   2   2    0.98    0.93
  -8   2   2    0.41    0.69
   7  -2  -2    1.47    0.71
  -7   2   2    2.24    0.78
   6  -2  -2    6.60    1.07
   6  -2  -2    6.58    1.02
   5  -2  -2   15.02    1.35
   5  -2  -2   10.02    0.71
   5  -2  -2    9.69    1.08
   4  -2  -2    5.37    0.77
   4  -2  -2    5.01    0.50
   4  -2  -2    4.89    0.71
   3  -2  -2    7.18    0.77
   3  -2  -2    6.85    0.51
   2  -2  -2    0.20    0.11
   2  -2  -2    0.89    0.26
   2  -2  -2    0.22    0.30
   1  -2  -2    1.28    0.16
   1  -2  -2    1.44    0.33
   1  -2  -2    1.04    0.25
   0  -2  -2   90.10    2.57
   0  -2  -2   94.45    2.68
   0  -2  -2   98.80    2.49
  -1  -2  -2   88.16    2.48
  -1  -2  -2   83.54    2.40
   1   2   2   82.02    2.44
  -2  -2  -2   20.70    0.95
   2   2   2   20.14    0.91
   2   2   2   19.96    1.03
  -3  -2  -2   40.19    1.50
   3   2   2   42.73    1.80
   3   2   2   40.66    1.52
  -4  -2  -2    7.49    0.76
   4   2   2    5.83    0.72
  -5  -2  -2   22.72    1.59
   5   2   2   23.05    1.35
  -6  -2  -2    7.19    1.16
  -7  -2  -2    2.00    0.90
  -8  -2  -2   -0.44    0.70
  -9   3   2    1.05    0.90
  -8   3   2    1.15    0.82
   7  -3  -2    5.11    1.09
  -7   3   2    4.02    0.88
   6  -3  -2    4.50    0.98
   5  -3  -2   20.57    1.41
   5  -3  -2   20.27    0.98
   5  -3  -2   19.30    1.26
   4  -3  -2    4.19    0.61
   4  -3  -2    8.58    0.66
   4  -3  -2    6.88    0.89
   3  -3  -2   23.73    1.28
   3  -3  -2   23.06    1.04
   3  -3  -2   24.03    0.98
   2  -3  -2    3.49    0.54
   2  -3  -2    4.59    0.40
   1  -3  -2   12.35    0.75
   1  -3  -2   13.13    0.71
   0  -3  -2   24.20    0.78
   0  -3  -2   22.31    1.00
   0  -3  -2   23.17    0.98
  -1  -3  -2    1.42    0.36
   1   3   2    1.47    0.33
   1   3   2    1.23    0.31
  -2  -3  -2    3.56    0.52
   2   3   2    3.39    0.43
   2   3   2    3.30    0.53
  -3  -3  -2   21.93    1.11
   3   3   2   22.61    1.03
   3   3   2   22.53    1.29
  -4  -3  -2   12.68    1.04
   4   3   2   13.99    0.90
   4   3   2   14.03    1.35
  -5  -3  -2   12.54    1.08
  -6  -3  -2   -0.05    0.54
  -7  -3  -2    2.72    0.94
  -8  -3  -2    0.71    0.88
  -9   4   2    0.75    0.80
   8  -4  -2    1.93    0.91
  -8   4   2    2.08    0.83
   7  -4  -2    0.78    0.77
  -7   4   2    0.68    0.61
   6  -4  -2   14.34    1.51
  -6   4   2   17.24    1.29
   5  -4  -2   15.04    0.85
   5  -4  -2   13.34    1.37
  -5   4   2   14.08    1.05
   4  -4  -2    1.02    0.30
   4  -4  -2    0.64    0.53
   3  -4  -2   57.99    1.84
   3  -4  -2   56.00    2.25
   2  -4  -2    1.31    0.30
   2  -4  -2    1.91    0.47
  -2   4   2    2.28    0.28
   1  -4  -2    2.06    0.44
   1  -4  -2    2.51    0.41
   0  -4  -2    4.09    0.51
   0  -4  -2    3.90    0.49
  -1  -4  -2   13.73    0.86
   1   4   2   13.54    0.75
  -2  -4  -2   60.74    2.11
   2   4   2   60.02    1.93
   2   4   2   61.34    2.16
  -3  -4  -2   12.97    0.96
   3   4   2   14.26    1.25
   3   4   2   13.83    0.80
  -4  -4  -2   11.21    1.06
   4   4   2   10.48    0.89
   4   4   2   12.05    1.31
  -5  -4  -2    8.78    0.99
  -6  -4  -2    4.56    1.01
  -7  -4  -2    2.81    0.97
   8  -5  -2    1.55    0.97
  -8   5   2    2.39    0.88
   7  -5  -2    0.36    0.74
  -7   5   2    0.10    0.56
   6  -5  -2    6.22    1.12
  -6   5   2    3.83    0.80
   5  -5  -2    4.01    0.89
  -5   5   2    6.36    0.85
   4  -5  -2    6.66    0.64
   4  -5  -2    6.94    0.97
  -4   5   2    5.49    0.67
   3  -5  -2   11.18    1.11
   3  -5  -2   13.68    0.79
  -3   5   2   11.61    0.67
   2  -5  -2    4.12    0.68
   2  -5  -2    5.61    0.59
  -2   5   2    4.69    0.33
   1  -5  -2   23.58    1.20
   1  -5  -2   25.33    1.16
   0  -5  -2   30.88    1.32
   0  -5  -2   28.11    1.22
   0   5   2   29.87    0.98
  -1  -5  -2    1.50    0.36
  -1  -5  -2    2.24    0.47
   1   5   2    2.36    0.41
  -2  -5  -2   94.16    3.04
   2   5   2   95.58    3.07
   2   5   2   95.98    2.83
  -3  -5  -2   12.73    1.12
   3   5   2   11.21    1.11
   3   5   2   10.27    0.73
  -4  -5  -2   38.57    1.76
   4   5   2   32.21    1.87
  -5  -5  -2    6.84    0.92
  -6  -5  -2    1.07    0.71
  -7  -5  -2    2.81    1.00
   8  -6  -2    0.38    0.89
   7  -6  -2    0.53    0.77
   6  -6  -2   15.65    1.62
  -6   6   2   12.83    1.22
   5  -6  -2    2.73    0.84
  -5   6   2    4.15    0.69
   4  -6  -2    7.27    1.03
   4  -6  -2    4.39    0.58
  -4   6   2    5.09    0.64
   3  -6  -2   13.35    1.25
   3  -6  -2   11.77    0.83
  -3   6   2   12.96    0.68
   2  -6  -2    6.05    0.81
   2  -6  -2    5.67    0.67
   1  -6  -2   72.38    2.49
   1  -6  -2   69.23    2.36
   0  -6  -2   12.10    0.80
   0  -6  -2   13.45    1.07
   0   6   2   13.63    0.62
  -1  -6  -2   74.03    2.58
  -1  -6  -2   75.43    2.39
   1   6   2   75.80    2.38
  -2  -6  -2   13.56    1.02
   2   6   2   13.55    0.80
   2   6   2   12.01    0.91
  -3  -6  -2    2.01    0.61
   3   6   2    0.89    0.54
   3   6   2    1.23    0.39
  -4  -6  -2   23.20    1.45
   4   6   2   24.81    1.63
  -5  -6  -2   -0.22    0.46
   5   6   2    0.19    0.61
  -6  -6  -2    2.35    0.87
  -7  -6  -2    4.06    1.14
   9  -7  -2    1.12    1.22
   8  -7  -2    0.91    1.03
   7  -7  -2   -0.45    0.73
   6  -7  -2    0.20    0.71
   5  -7  -2   27.69    1.88
   4  -7  -2   27.51    1.73
   4  -7  -2   28.12    1.32
  -4   7   2   29.76    1.28
   3  -7  -2    4.93    0.83
   3  -7  -2    5.40    0.68
  -3   7   2    5.70    0.52
   2  -7  -2   25.19    1.28
   2  -7  -2   24.31    1.40
   1  -7  -2   56.03    2.17
   1  -7  -2   54.91    2.10
   0  -7  -2   20.39    1.20
   0  -7  -2   20.61    1.09
   0   7   2   19.43    0.81
  -1  -7  -2   20.49    1.24
  -1  -7  -2   18.66    0.99
   1   7   2   20.04    1.00
  -2  -7  -2    9.01    1.01
   2   7   2   11.12    1.02
   2   7   2   10.73    0.77
  -3  -7  -2    2.13    0.64
   3   7   2    4.28    0.81
  -4  -7  -2   21.74    1.46
   4   7   2   19.80    1.75
  -5  -7  -2    0.35    0.54
   5   7   2    0.75    0.65
  -7  -7  -2    1.45    0.89
   8  -8  -2    0.02    0.98
   7  -8  -2    0.83    0.88
   6  -8  -2    1.64    0.87
   5  -8  -2    4.33    1.00
   4  -8  -2   22.96    1.27
   4  -8  -2   23.18    1.67
   3  -8  -2    0.05    0.22
   3  -8  -2    1.16    0.61
   2  -8  -2    1.33    0.56
   2  -8  -2    2.49    0.57
   1  -8  -2   33.87    1.65
   1  -8  -2   35.25    1.68
   0  -8  -2   -0.08    0.38
   0  -8  -2    0.20    0.33
   0   8   2    0.11    0.22
  -1  -8  -2   59.87    2.36
  -1  -8  -2   58.27    2.09
   1   8   2   59.31    2.06
  -2  -8  -2   11.32    1.16
   2   8   2    9.36    0.81
   2   8   2    8.54    0.94
  -3  -8  -2   16.88    1.48
   3   8   2   15.16    1.37
  -4  -8  -2   24.74    1.61
   4   8   2   25.09    1.70
  -5  -8  -2    4.16    0.92
   5   8   2    2.57    0.90
  -7  -8  -2    2.27    0.99
   8  -9  -2    0.94    1.10
   7  -9  -2    1.21    0.99
   6  -9  -2    5.71    1.15
   5  -9  -2    5.61    1.12
   4  -9  -2    6.08    0.82
   4  -9  -2    6.83    1.13
   3  -9  -2    0.01    0.27
   3  -9  -2    0.13    0.54
   2  -9  -2    7.22    0.89
   2  -9  -2    6.19    0.91
   1  -9  -2   40.23    1.89
   1  -9  -2   41.12    1.93
   0  -9  -2    2.84    0.58
   0  -9  -2    3.74    0.74
   0   9   2    2.42    0.40
  -1  -9  -2   29.10    1.37
  -1  -9  -2   30.48    1.66
   1   9   2   28.13    1.31
  -2  -9  -2    1.25    0.61
   2   9   2    1.20    0.51
  -3  -9  -2    4.76    0.93
   3   9   2    6.74    0.98
  -4  -9  -2   15.11    1.49
   4   9   2   12.22    1.43
  -5  -9  -2    4.44    1.02
   5   9   2    4.66    1.05
  -7  -9  -2    0.58    0.83
   7 -10  -2    2.17    1.11
   6 -10  -2    0.29    0.74
   5 -10  -2    4.23    1.02
   4 -10  -2    2.62    0.67
   4 -10  -2    2.62    0.87
   3 -10  -2    0.62    0.53
   3 -10  -2    0.90    0.62
   2 -10  -2    4.64    0.89
   2 -10  -2    4.75    0.84
   1 -10  -2   21.04    1.37
   1 -10  -2   19.59    1.38
   0 -10  -2    2.88    0.70
   0 -10  -2    3.58    0.68
  -1 -10  -2   57.09    2.18
  -1 -10  -2   57.30    2.51
  -2 -10  -2    1.46    0.67
   2  10   2    0.23    0.49
  -3 -10  -2   18.08    1.65
   3  10   2   17.97    1.57
  -4 -10  -2    4.20    0.98
   4  10   2    4.67    1.00
  -5 -10  -2    2.76    0.90
   5  10   2    2.67    0.95
  -6 -10  -2    2.78    0.97
   7 -11  -2    1.34    0.93
   6 -11  -2    0.88    0.92
   5 -11  -2    1.79    0.88
   4 -11  -2    2.80    0.92
   4 -11  -2    2.83    0.72
   3 -11  -2    0.72    0.63
   3 -11  -2    0.94    0.57
   2 -11  -2   12.54    1.35
   2 -11  -2    9.17    1.11
   1 -11  -2    9.86    1.14
   1 -11  -2    7.32    1.04
   0 -11  -2   10.42    1.08
   0 -11  -2    9.82    1.18
  -1 -11  -2   23.74    1.62
  -2 -11  -2    9.22    1.25
  -3 -11  -2    6.83    1.12
   3  11   2    8.35    1.11
  -4 -11  -2    2.50    0.91
   4  11   2    3.21    0.92
  -5 -11  -2    3.04    0.96
  -6 -11  -2    3.37    1.02
   7 -12  -2    0.45    1.03
   6 -12  -2   -1.17    0.73
   5 -12  -2    1.97    0.93
   4 -12  -2   -0.39    0.61
   4 -12  -2    0.11    0.50
   3 -12  -2   -0.76    0.44
   3 -12  -2    0.24    0.63
   2 -12  -2    5.37    0.93
   2 -12  -2    7.96    1.15
   1 -12  -2    2.29    0.72
   1 -12  -2    1.93    0.69
   0 -12  -2   32.50    1.70
   0 -12  -2   32.51    1.91
  -1 -12  -2    6.16    1.02
  -2 -12  -2    1.93    0.75
  -3 -12  -2   11.54    1.45
  -4 -12  -2    0.88    0.78
  -5 -12  -2    4.60    1.13
   6 -13  -2    0.54    0.91
   5 -13  -2    2.52    1.05
   4 -13  -2    0.88    0.81
   3 -13  -2   -0.02    0.65
   3 -13  -2    1.31    0.74
   2 -13  -2    1.44    0.68
   2 -13  -2    0.31    0.62
   1 -13  -2   -0.38    0.49
   1 -13  -2   -0.19    0.52
   0 -13  -2   -0.13    0.49
  -1 -13  -2    0.23    0.58
  -2 -13  -2    0.39    0.67
  -3 -13  -2    5.36    1.15
  -4 -13  -2    0.31    0.74
  -5 -13  -2    1.77    0.98
   6 -14  -2   -0.25    0.87
   5 -14  -2    3.22    1.14
   4 -14  -2    2.43    1.00
   3 -14  -2    5.26    1.19
   3 -14  -2    4.78    0.99
   2 -14  -2    0.18    0.59
   2 -14  -2    0.31    0.61
   1 -14  -2    0.89    0.62
   1 -14  -2   -0.30    0.53
  -1 -14  -2   -0.37    0.56
  -2 -14  -2    3.40    1.00
  -3 -14  -2    3.02    1.03
  -4 -14  -2    0.60    0.86
   5 -15  -2    2.39    1.13
   4 -15  -2    1.23    0.93
   3 -15  -2    1.05    0.80
   3 -15  -2    2.06    0.86
   2 -15  -2    0.03    0.59
   2 -15  -2    1.15    0.73
   1 -15  -2    1.30    0.75
   0 -15  -2    0.36    0.63
  -1 -15  -2   -0.34    0.60
  -2 -15  -2    3.15    1.01
  -3 -15  -2    0.85    0.88
   4 -16  -2    0.10    0.85
   3 -16  -2    1.91    0.97
   3 -16  -2    0.48    0.76
   2 -16  -2   -0.13    0.69
   2 -16  -2    0.22    0.69
   1 -16  -2    0.27    0.70
   0 -16  -2    8.47    1.36
  -1 -16  -2    0.99    0.81
  -2 -16  -2    6.48    1.29
   4 -17  -2   -0.34    0.84
   3 -17  -2    1.89    0.88
   3 -17  -2    1.23    0.93
   2 -17  -2    0.07    0.66
   1 -17  -2    3.61    1.01
   0 -17  -2    0.31    0.70
  -1 -17  -2    1.26    0.83
   3 -18  -2    1.36    1.01
   2 -18  -2   -0.18    0.75
   1 -18  -2    0.88    0.84
   1 -20   3    0.91    0.87
  -1 -19   3    0.65    0.77
   0 -19   3   -0.86    0.64
   1 -19   3    2.60    0.90
   3 -19   3   -0.41    0.94
  -2 -18   3    0.88    0.84
  -1 -18   3    0.54    0.73
   0 -18   3    1.11    0.77
   1 -18   3    0.51    0.69
   3 -18   3    2.48    1.07
   4 -18   3    0.59    0.98
  -3 -17   3   -0.19    0.74
  -2 -17   3    3.39    1.04
  -1 -17   3   -0.60    0.59
   0 -17   3    3.84    0.91
   1 -17   3   -0.08    0.65
   2 -17   3    2.18    0.77
   2 -17   3    0.61    0.77
   3 -17   3    0.18    0.79
   4 -17   3    0.94    0.95
  -4 -16   3    0.70    0.87
  -3 -16   3   -0.09    0.70
  -2 -16   3   -0.47    0.58
  -1 -16   3    0.55    0.69
   0 -16   3    3.07    0.87
   1 -16   3    0.45    0.58
   2 -16   3   -0.46    0.64
   2 -16   3   -0.44    0.52
   3 -16   3    3.69    1.06
   4 -16   3    0.71    0.94
   5 -16   3    1.08    0.99
   6  15  -3   -0.39    0.81
   5  15  -3    2.29    0.94
  -5 -15   3    2.03    0.97
  -4 -15   3    2.23    0.92
  -3 -15   3    7.77    1.31
  -2 -15   3    0.34    0.62
  -1 -15   3    0.48    0.61
   0 -15   3    3.91    0.89
   1 -15   3    4.87    0.89
   1 -15   3    4.94    1.01
   2 -15   3    5.77    1.08
   2 -15   3    4.23    0.86
   3 -15   3    1.35    0.84
   4 -15   3   -0.31    0.82
   5 -15   3    2.45    1.14
   6  14  -3    2.52    0.99
  -6 -14   3    3.77    1.11
   5  14  -3    2.77    0.95
  -5 -14   3    2.68    0.98
   4  14  -3    0.89    0.65
  -4 -14   3    1.03    0.81
   3  14  -3    4.81    0.92
  -3 -14   3    4.44    1.02
  -2 -14   3    1.91    0.78
  -1 -14   3    5.10    0.99
   0 -14   3   18.61    1.64
   1 -14   3    4.36    0.93
   1 -14   3    5.38    0.92
   2 -14   3   11.38    1.37
   3 -14   3    0.39    0.74
   4 -14   3    1.35    0.91
   5 -14   3    0.39    0.89
   6 -14   3    0.43    1.00
  -7 -13   3   -0.91    0.77
   6  13  -3    0.43    0.74
  -6 -13   3   -0.74    0.68
   5  13  -3    1.75    0.80
  -5 -13   3    1.77    0.86
   4  13  -3    0.47    0.58
  -4 -13   3    0.27    0.66
   3  13  -3    2.18    0.65
  -3 -13   3    1.50    0.71
   2  13  -3    0.58    0.50
  -2 -13   3   -0.42    0.48
   1  13  -3    2.26    0.60
  -1 -13   3    2.11    0.73
   0 -13   3    8.25    1.11
   0 -13   3    9.56    1.07
   1 -13   3    0.78    0.62
   1 -13   3   -0.08    0.52
   2 -13   3    6.28    0.89
   2 -13   3    8.74    1.20
   3 -13   3    0.53    0.71
   4 -13   3   -0.54    0.68
   5 -13   3   -0.11    0.77
   6 -13   3    0.04    0.93
  -7 -12   3    1.25    0.91
   6  12  -3    0.76    0.77
  -6 -12   3    0.65    0.76
   5  12  -3    8.69    1.35
  -5 -12   3    6.31    1.12
   4  12  -3    0.40    0.51
  -4 -12   3    0.95    0.60
   3  12  -3    3.51    0.76
  -3 -12   3    6.73    1.04
   2  12  -3    1.95    0.60
  -2 -12   3    1.49    0.62
   1  12  -3   12.55    1.10
  -1 -12   3   10.61    1.23
   0  12  -3   20.03    1.19
   0 -12   3   20.51    1.40
   0 -12   3   18.54    1.28
  -1  12  -3   13.49    0.98
   1 -12   3   14.63    1.34
   1 -12   3   16.79    1.22
   2 -12   3   18.76    1.47
   2 -12   3   19.23    1.27
   3 -12   3    1.58    0.76
   4 -12   3    0.19    0.67
   5 -12   3    1.44    0.85
   6 -12   3   -0.60    0.80
   7 -12   3    0.49    1.06
   7  11  -3    1.66    0.99
  -7 -11   3    0.19    0.76
   6  11  -3    1.79    0.85
  -6 -11   3    1.07    0.71
   5  11  -3    4.34    0.99
  -5 -11   3    6.00    1.05
   4  11  -3    0.75    0.53
  -4 -11   3   -0.67    0.42
   3  11  -3    5.29    0.88
  -3 -11   3    8.64    1.11
   2  11  -3    0.41    0.46
  -2 -11   3    0.25    0.48
   1  11  -3   23.47    1.32
  -1 -11   3   27.06    1.28
  -1 -11   3   25.70    1.51
   0  11  -3    0.85    0.45
   0 -11   3    0.46    0.51
   0 -11   3    0.77    0.47
  -1  11  -3   14.57    0.98
   1 -11   3   12.60    1.16
   1 -11   3   13.93    1.26
  -2  11  -3    2.05    0.57
   2 -11   3    3.79    0.71
   2 -11   3    1.88    0.69
  -3  11  -3    0.88    0.57
   3 -11   3    0.67    0.65
   4 -11   3    3.61    0.92
   5 -11   3    0.51    0.73
   6 -11   3    3.73    1.03
   7 -11   3    1.22    1.04
   7  10  -3    0.88    0.90
   6  10  -3    1.31    0.79
  -6 -10   3   -0.01    0.63
   5  10  -3    4.40    0.99
  -5 -10   3    6.39    1.01
   4  10  -3    0.05    0.50
  -4 -10   3    0.42    0.49
   3  10  -3    9.78    1.13
  -3 -10   3   12.43    1.21
   2  10  -3   -0.05    0.40
  -2 -10   3   -0.03    0.37
   1  10  -3    7.64    0.82
  -1 -10   3    8.99    0.97
  -1 -10   3    8.68    0.77
   0  10  -3    6.46    0.71
   0 -10   3    5.20    0.77
   0 -10   3    6.64    0.79
  -1  10  -3   32.79    1.45
   1 -10   3   33.74    1.59
   1 -10   3   32.53    1.62
  -2  10  -3    2.38    0.56
   2 -10   3    2.07    0.52
   2 -10   3    1.25    0.54
  -3  10  -3    0.14    0.49
   3 -10   3   -0.01    0.53
   3 -10   3    0.15    0.36
  -4  10  -3   17.12    1.21
   4 -10   3   14.95    1.57
  -5  10  -3    0.43    0.56
   5 -10   3   -0.40    0.64
   6 -10   3    2.37    0.91
   7 -10   3    0.11    0.90
   7   9  -3    1.34    0.86
   6   9  -3    8.03    1.37
  -6  -9   3    5.99    0.99
   5   9  -3    3.39    0.87
  -5  -9   3    2.10    0.66
   4   9  -3    2.51    0.72
  -4  -9   3    1.76    0.60
   3   9  -3   23.24    1.44
  -3  -9   3   22.12    1.36
   2   9  -3   22.98    1.31
  -2  -9   3   21.33    1.28
  -2  -9   3   23.85    0.87
   1   9  -3   30.24    1.38
  -1  -9   3   26.44    1.38
  -1  -9   3   27.37    1.17
   0   9  -3    4.80    0.62
   0  -9   3    4.38    0.66
   0  -9   3    4.81    0.64
  -1   9  -3   74.56    2.43
   1  -9   3   71.38    2.49
   1  -9   3   74.45    2.65
  -2   9  -3    8.11    0.81
   2  -9   3    7.63    0.95
   2  -9   3    8.28    0.78
  -3   9  -3   10.85    1.01
   3  -9   3   11.64    0.81
   3  -9   3    9.31    1.14
  -4   9  -3   10.59    1.09
   4  -9   3    9.18    1.23
  -5   9  -3    1.41    0.68
   5  -9   3    0.74    0.69
  -6   9  -3    7.32    1.12
  -7   9  -3   -0.30    0.61
   7  -9   3    0.82    0.92
   8  -9   3    0.87    1.17
   7   8  -3    1.53    0.94
   6   8  -3    2.11    0.85
  -6  -8   3    2.67    0.71
   5   8  -3    1.54    0.69
  -5  -8   3    1.17    0.56
   4   8  -3   24.76    1.58
  -4  -8   3   24.34    1.43
   3   8  -3    1.51    0.53
  -3  -8   3    1.61    0.51
   2   8  -3   10.13    0.96
  -2  -8   3    8.72    0.92
   1   8  -3   26.28    1.26
  -1  -8   3   25.22    1.05
  -1  -8   3   26.34    1.28
   0   8  -3    1.32    0.39
   0  -8   3    1.23    0.40
   0  -8   3    0.76    0.37
  -1   8  -3   59.11    2.03
   1  -8   3   58.18    2.19
  -2   8  -3   10.83    0.81
   2  -8   3   11.46    1.11
   2  -8   3   10.85    0.77
  -3   8  -3   10.37    0.95
   3  -8   3    7.93    1.05
   3  -8   3    8.64    0.65
  -4   8  -3   16.35    1.19
   4  -8   3   16.97    1.58
  -5   8  -3    0.38    0.54
   5  -8   3   -1.14    0.52
  -6   8  -3    6.24    1.03
   6  -8   3    5.53    1.03
  -7   8  -3    1.09    0.69
   7  -8   3    0.14    0.83
  -8   8  -3    0.40    0.79
   8  -8   3    0.28    1.02
   8   7  -3    0.52    0.90
   7   7  -3    5.21    1.17
   6   7  -3    2.91    0.92
  -6  -7   3    1.33    0.62
   5   7  -3   10.75    1.35
  -5  -7   3    9.59    1.08
   4   7  -3   12.85    1.31
  -4  -7   3   15.17    1.26
   3   7  -3    0.50    0.43
  -3  -7   3    1.41    0.49
   2   7  -3   87.12    2.91
  -2  -7   3   86.46    2.83
   1   7  -3    9.30    0.81
  -1  -7   3    9.15    0.57
  -1  -7   3    8.53    0.77
   0   7  -3    8.88    0.68
   0  -7   3    8.97    0.68
   0  -7   3    8.69    0.68
  -1   7  -3  142.07    4.03
   1  -7   3  141.70    3.89
   1  -7   3  140.34    4.22
  -2   7  -3   -0.20    0.32
   2  -7   3    0.24    0.27
   2  -7   3    0.06    0.36
  -3   7  -3   51.81    2.10
   3  -7   3   56.13    1.67
   3  -7   3   59.27    2.39
  -4   7  -3    7.96    0.97
   4  -7   3    9.17    1.19
  -5   7  -3    4.09    0.81
   5  -7   3    5.36    1.04
  -6   7  -3   12.10    1.34
   6  -7   3    7.09    1.11
  -7   7  -3    0.13    0.67
   7  -7   3   -0.16    0.76
  -8   7  -3    1.23    0.88
   8  -7   3    1.39    1.07
   8   6  -3    1.55    1.02
   7   6  -3    9.49    1.50
   6   6  -3   13.04    1.64
  -6  -6   3   10.97    1.19
   5   6  -3    4.56    0.93
  -5  -6   3    4.20    0.74
   4   6  -3   22.74    1.45
  -4  -6   3   22.45    1.28
   3   6  -3    2.75    0.60
  -3  -6   3    4.31    0.65
   2   6  -3  158.66    4.64
  -2  -6   3  158.64    4.48
   1   6  -3    6.33    0.65
  -1  -6   3    6.67    0.47
  -1  -6   3    6.49    0.66
   0   6  -3   80.43    2.48
   0  -6   3   78.73    2.40
   0  -6   3   80.76    2.46
  -1   6  -3   74.94    2.30
   1  -6   3   72.03    2.13
   1  -6   3   69.32    2.40
  -2   6  -3    9.08    0.79
   2  -6   3    9.43    0.57
   2  -6   3   10.29    0.96
  -3   6  -3   21.98    1.21
   3  -6   3   21.92    1.35
  -4   6  -3    4.62    0.77
   4  -6   3    4.14    0.84
  -5   6  -3    3.36    0.75
   5  -6   3    4.29    0.97
  -6   6  -3   11.10    1.32
  -7   6  -3    0.42    0.70
   7  -6   3   -0.07    0.75
  -8   6  -3    0.15    0.79
   8  -6   3    1.86    1.12
   8   5  -3   -0.02    0.87
   7   5  -3    4.85    1.16
   6   5  -3    8.46    1.29
  -6  -5   3    6.48    0.92
   5   5  -3   11.23    1.31
  -5  -5   3   14.62    1.04
   4   5  -3   27.76    1.59
  -4  -5   3   29.25    1.40
   3   5  -3   10.30    1.01
  -3  -5   3   12.09    0.98
   2   5  -3   12.58    0.84
  -2  -5   3   12.67    0.81
   1   5  -3   12.16    0.76
  -1  -5   3   11.78    0.74
  -1  -5   3   14.02    0.61
   0   5  -3   15.65    0.82
   0  -5   3   17.19    0.80
   0  -5   3   16.44    0.82
  -1   5  -3   12.79    0.74
   1  -5   3   11.80    0.61
   1  -5   3   12.12    0.81
  -2   5  -3   65.71    2.20
   2  -5   3   66.74    2.34
   2  -5   3   63.04    1.79
  -3   5  -3   14.21    0.96
   3  -5   3   17.35    1.14
  -4   5  -3    4.72    0.75
   4  -5   3    4.68    0.86
  -5   5  -3   12.17    1.24
   5  -5   3   13.03    1.37
  -6   5  -3    6.92    1.09
   6  -5   3    8.18    1.19
  -7   5  -3    0.71    0.76
   7  -5   3    0.21    0.81
  -8   5  -3    2.15    0.98
   8  -5   3    2.47    1.06
   8   4  -3    0.19    0.87
   7   4  -3    2.38    0.94
   6   4  -3    4.86    1.05
  -6  -4   3    6.22    0.83
   5   4  -3   20.23    1.49
  -5  -4   3   19.75    1.19
   4   4  -3   35.47    1.22
   4   4  -3   34.67    1.74
  -4  -4   3   35.95    1.55
   3   4  -3   18.04    1.11
   3   4  -3   17.63    0.66
  -3  -4   3   17.19    0.96
   2   4  -3   25.58    1.20
  -2  -4   3   25.59    0.82
  -2  -4   3   24.49    1.10
   1   4  -3   68.84    2.17
  -1  -4   3   68.79    1.95
  -1  -4   3   66.78    2.08
   0   4  -3    2.68    0.40
   0  -4   3    2.12    0.36
   0  -4   3    1.97    0.31
  -1   4  -3   13.40    0.75
   1  -4   3   14.81    0.83
   1  -4   3   13.41    0.58
  -2   4  -3  100.72    3.10
   2  -4   3  103.94    3.23
  -3   4  -3    1.20    0.42
   3  -4   3   -0.26    0.33
  -4   4  -3    7.71    0.92
   4  -4   3    7.18    0.97
  -5   4  -3    9.34    1.14
   5  -4   3    7.81    1.07
  -6   4  -3    3.96    0.90
   6  -4   3    2.93    0.89
  -7   4  -3    3.29    0.95
   7  -4   3    2.35    0.87
  -8   4  -3    1.40    0.91
   8   3  -3    1.06    0.94
   7   3  -3    7.87    1.33
   6   3  -3    0.48    0.56
  -6  -3   3    1.41    0.51
   5   3  -3   13.21    1.36
  -5  -3   3   12.33    0.92
   4   3  -3   28.06    1.51
   4   3  -3   30.17    1.20
  -4  -3   3   30.50    1.36
   3   3  -3   32.20    1.48
   3   3  -3   31.92    1.10
   2   3  -3    7.03    0.42
   2   3  -3    8.97    0.69
   2   3  -3    8.06    0.74
   1   3  -3  313.90    7.87
   1   3  -3  320.22    8.18
  -1  -3   3  318.64    8.07
   0   3  -3  525.78   13.39
   0   3  -3  547.60   12.90
   0  -3   3  536.05   13.56
  -1   3  -3   67.37    2.08
  -1   3  -3   65.72    1.75
   1  -3   3   66.19    2.12
  -2   3  -3    9.25    0.69
   2  -3   3   10.57    0.89
  -3   3  -3   67.20    2.44
   3  -3   3   70.99    2.50
  -4   3  -3    3.81    0.69
   4  -3   3    3.64    0.72
  -5   3  -3    4.54    0.86
   5  -3   3    3.81    0.85
  -6   3  -3    1.03    0.63
   6  -3   3    1.78    0.75
  -7   3  -3   -0.24    0.61
   7  -3   3    0.63    0.71
  -8   3  -3    2.68    1.04
   8   2  -3    1.05    0.95
   7   2  -3    3.17    0.96
   6   2  -3    0.99    0.68
  -6  -2   3    2.55    0.58
   5   2  -3   18.68    1.36
   5   2  -3   17.65    1.08
  -5  -2   3   20.60    1.13
   4   2  -3    9.14    0.72
   4   2  -3   10.66    0.86
   4   2  -3   11.72    1.07
   3   2  -3    2.55    0.42
   3   2  -3    2.68    0.39
   3   2  -3    2.26    0.48
   2   2  -3    0.77    0.31
   2   2  -3    0.37    0.23
   2   2  -3    0.61    0.22
   1   2  -3   37.05    1.29
   1   2  -3   37.55    1.21
  -1  -2   3   35.68    1.20
   0   2  -3  349.21    8.75
   0   2  -3  349.19    8.39
   0  -2   3  341.58    8.87
  -1   2  -3    3.60    0.27
  -1   2  -3    2.94    0.43
   1  -2   3    4.00    0.49
  -2   2  -3   83.86    2.64
   2  -2   3   82.96    2.64
  -3   2  -3    1.55    0.45
   3  -2   3    1.17    0.45
  -4   2  -3    0.18    0.39
   4  -2   3    0.77    0.48
  -5   2  -3   10.50    1.18
   5  -2   3   13.22    1.33
  -6   2  -3    1.50    0.66
   6  -2   3   -0.03    0.38
  -7   2  -3    2.02    0.85
  -8   2  -3    1.60    0.86
   8   1  -3    2.12    0.95
   7   1  -3    2.29    0.84
   6   1  -3    0.93    0.64
   6   1  -3    2.13    0.64
  -6  -1   3    2.02    0.54
   5   1  -3    1.55    0.43
   5   1  -3    1.45    0.52
   5   1  -3    1.48    0.57
   4   1  -3    0.19    0.33
   4   1  -3   -0.05    0.38
   4   1  -3   -0.28    0.21
   3   1  -3   16.68    0.89
   3   1  -3   19.14    1.01
   2   1  -3  202.29    5.25
   2   1  -3  194.87    5.29
   2   1  -3  194.28    5.05
   1   1  -3   66.61    1.96
   1   1  -3   68.61    1.98
   1   1  -3   64.86    1.89
   0   1  -3  698.75   17.00
   0   1  -3  692.78   16.41
   0  -1   3  675.85   17.31
  -1   1  -3  466.26   11.16
  -1   1  -3  468.79   11.77
   1  -1   3  466.92   11.95
  -2   1  -3  121.83    3.02
  -2   1  -3  119.53    3.56
   2  -1   3  119.07    3.53
  -3   1  -3   54.04    1.51
  -3   1  -3   53.31    2.08
   3  -1   3   55.61    2.03
  -4   1  -3    5.41    0.42
  -4   1  -3    5.67    0.84
   4  -1   3    3.46    0.61
  -5   1  -3   16.29    1.49
   5  -1   3   14.01    1.32
  -6   1  -3   -0.52    0.45
   6  -1   3   -0.12    0.56
  -7   1  -3    1.15    0.74
  -8   1  -3    0.06    0.74
  -9   0   3    0.33    0.83
   8   0  -3    2.99    1.01
   7   0  -3   -0.15    0.58
   6   0  -3    9.85    1.16
   6   0  -3    6.88    1.09
   5   0  -3    2.47    0.46
   5   0  -3    1.68    0.57
   5   0  -3    1.97    0.60
   4   0  -3   21.22    1.17
   4   0  -3   20.74    1.20
   4   0  -3   19.72    0.98
   2   0  -3  125.94    3.37
   2   0  -3  123.70    3.56
   2   0  -3  127.02    3.52
   1   0  -3  513.10   12.42
   1   0  -3  515.87   13.04
   0   0  -3   10.05    0.52
   0   0  -3   10.33    0.50
   0   0   3    9.64    0.59
  -1   0  -3   54.04    1.55
  -1   0  -3   55.41    1.75
   1   0   3   52.08    1.76
  -2   0  -3   16.74    0.91
  -2   0  -3   17.24    0.68
   2   0   3   14.20    0.84
  -3   0  -3    5.03    0.73
  -3   0  -3    5.83    0.47
  -4   0  -3   24.69    0.99
  -4   0  -3   20.34    1.36
   4   0   3   23.34    1.30
  -5   0  -3    7.30    1.07
   5   0   3   11.08    1.16
  -6   0  -3    0.35    0.58
  -7   0  -3    4.59    1.12
  -8   0  -3    0.51    0.79
  -9   1   3    0.80    0.89
   7  -1  -3    2.67    0.87
   6  -1  -3   13.40    1.39
   6  -1  -3   12.66    1.36
   5  -1  -3    4.53    0.79
   5  -1  -3    4.35    0.57
   4  -1  -3    0.40    0.38
   4  -1  -3   -0.07    0.24
   4  -1  -3    0.41    0.39
   3  -1  -3   33.76    1.42
   3  -1  -3   29.24    1.16
   2  -1  -3   34.81    1.37
   2  -1  -3   34.04    1.21
   2  -1  -3   33.62    1.20
   1  -1  -3    6.25    0.39
   1  -1  -3    6.87    0.53
   1  -1  -3    6.92    0.60
   0  -1  -3    2.92    0.35
   0  -1  -3    2.73    0.31
  -1  -1  -3  368.74    9.00
  -1  -1  -3  376.30    9.40
   1   1   3  357.66    9.50
  -2  -1  -3   76.77    2.54
  -2  -1  -3   79.73    2.22
   2   1   3   73.64    2.40
  -3  -1  -3    7.81    0.90
  -3  -1  -3    8.74    0.64
   3   1   3    8.41    0.80
  -4  -1  -3    6.95    0.66
  -4  -1  -3    6.14    0.89
   4   1   3    8.06    0.90
  -5  -1  -3   15.72    1.56
   5   1   3   15.52    1.19
  -6  -1  -3   10.64    1.42
  -7  -1  -3    1.70    0.83
  -8  -1  -3    1.18    0.84
  -9   2   3   -0.46    0.78
  -8   2   3    5.24    1.12
   7  -2  -3    0.53    0.45
   7  -2  -3    2.82    0.89
   6  -2  -3   18.30    1.45
   6  -2  -3   18.32    1.39
   5  -2  -3    1.09    0.53
   5  -2  -3    0.78    0.57
   5  -2  -3    1.95    0.43
   4  -2  -3    0.96    0.31
   4  -2  -3    0.13    0.16
   4  -2  -3    0.58    0.45
   3  -2  -3    7.01    0.61
   3  -2  -3    7.92    0.61
   3  -2  -3    7.72    0.81
   2  -2  -3    3.17    0.41
   2  -2  -3    3.95    0.56
   2  -2  -3    3.61    0.37
   1  -2  -3  141.51    3.81
   1  -2  -3  146.03    3.64
   1  -2  -3  138.83    4.02
   0  -2  -3    7.31    0.59
   0  -2  -3    7.91    0.57
   0  -2  -3    8.14    0.45
  -1  -2  -3   27.69    1.08
  -1  -2  -3   24.86    1.04
  -2  -2  -3    0.71    0.31
  -2  -2  -3    0.92    0.35
   2   2   3    1.39    0.38
  -3  -2  -3    1.39    0.37
  -3  -2  -3    0.56    0.38
   3   2   3    0.80    0.38
  -4  -2  -3   21.23    1.40
  -4  -2  -3   21.77    1.14
   4   2   3   22.11    1.22
  -5  -2  -3   13.78    1.50
  -6  -2  -3   27.68    1.99
  -7  -2  -3   -0.03    0.68
  -8  -2  -3    0.32    0.87
  -9   3   3    1.41    0.94
  -8   3   3    4.17    1.02
   7  -3  -3    0.58    0.71
  -7   3   3    0.87    0.62
   6  -3  -3   13.18    1.31
   6  -3  -3   15.97    1.58
   5  -3  -3    0.40    0.31
   5  -3  -3    1.39    0.38
   5  -3  -3    0.05    0.54
   4  -3  -3    9.62    0.87
   4  -3  -3   10.88    1.11
   4  -3  -3   10.96    0.75
   3  -3  -3    1.56    0.34
   3  -3  -3    0.86    0.30
   3  -3  -3    1.08    0.45
   2  -3  -3   49.76    1.91
   2  -3  -3   51.71    1.70
   2  -3  -3   50.98    1.50
   1  -3  -3    2.85    0.42
   1  -3  -3    2.48    0.45
   0  -3  -3   11.42    0.72
   0  -3  -3   11.66    0.74
   0  -3  -3   12.49    0.55
  -1  -3  -3    0.55    0.23
  -1  -3  -3    0.72    0.32
   1   3   3    0.10    0.25
  -2  -3  -3  129.79    3.88
  -2  -3  -3  125.18    3.65
   2   3   3  131.38    3.74
  -3  -3  -3   13.56    0.91
  -3  -3  -3   12.48    0.98
   3   3   3   14.90    0.92
  -4  -3  -3   27.53    1.33
  -4  -3  -3   25.84    1.59
   4   3   3   24.99    1.31
  -5  -3  -3   12.08    1.40
  -6  -3  -3   -0.06    0.56
  -7  -3  -3    0.30    0.70
   8  -4  -3    1.41    0.81
  -8   4   3    0.75    0.74
   7  -4  -3    1.34    0.81
  -7   4   3    0.51    0.54
   6  -4  -3   26.15    1.77
  -6   4   3   25.08    1.55
   5  -4  -3    0.25    0.32
   5  -4  -3    0.30    0.58
   4  -4  -3   18.57    1.29
   4  -4  -3   18.82    1.03
   4  -4  -3   19.59    0.99
   3  -4  -3    5.92    0.80
   3  -4  -3    3.42    0.46
   3  -4  -3    5.86    0.54
   2  -4  -3  174.65    4.50
   2  -4  -3  173.29    5.15
   2  -4  -3  183.57    4.81
   1  -4  -3   72.59    2.42
   1  -4  -3   70.17    2.28
   0  -4  -3   11.00    0.78
   0  -4  -3   10.93    0.74
   0  -4  -3   11.54    0.54
  -1  -4  -3   14.44    0.76
  -1  -4  -3   12.10    0.83
   1   4   3   12.51    0.79
  -2  -4  -3   11.50    0.84
  -2  -4  -3   12.45    0.90
   2   4   3   12.50    0.81
  -3  -4  -3   73.53    2.76
  -3  -4  -3   75.15    2.55
   3   4   3   73.81    2.44
  -4  -4  -3   32.08    1.80
  -4  -4  -3   32.98    1.59
  -5  -4  -3    0.70    0.58
  -6  -4  -3   11.38    1.51
  -7  -4  -3    0.72    0.78
   8  -5  -3    0.53    0.86
   7  -5  -3    0.41    0.75
  -7   5   3   -0.01    0.51
   6  -5  -3    0.96    0.81
  -6   5   3    3.66    0.78
   5  -5  -3    2.86    0.83
   5  -5  -3    3.93    0.58
  -5   5   3    2.93    0.63
   4  -5  -3   12.29    0.85
   4  -5  -3   12.73    1.33
  -4   5   3   13.19    0.84
   3  -5  -3   14.68    1.12
  -3   5   3   13.71    0.70
   2  -5  -3  225.80    6.05
   2  -5  -3  230.47    6.53
   1  -5  -3   71.20    2.34
   1  -5  -3   70.00    2.45
   0  -5  -3   69.31    2.42
   0  -5  -3   73.39    2.45
   0  -5  -3   76.14    2.09
  -1  -5  -3   23.36    1.04
  -1  -5  -3   22.62    1.20
  -2  -5  -3  109.72    3.45
   2   5   3  112.12    3.35
  -3  -5  -3   17.59    1.37
   3   5   3   16.21    0.99
  -4  -5  -3    8.25    0.95
  -4  -5  -3    7.08    1.01
  -5  -5  -3    6.14    0.91
  -5  -5  -3    4.13    0.91
  -6  -5  -3    4.60    1.08
  -7  -5  -3    0.55    0.79
   8  -6  -3    1.48    1.04
   7  -6  -3    0.51    0.75
   6  -6  -3    3.04    0.92
   5  -6  -3    0.28    0.64
   5  -6  -3    0.62    0.35
  -5   6   3    0.82    0.48
   4  -6  -3    4.30    0.86
   4  -6  -3    2.37    0.50
  -4   6   3    3.19    0.52
   3  -6  -3   16.08    1.25
  -3   6   3   19.36    0.79
   2  -6  -3   26.62    1.30
   2  -6  -3   26.98    1.48
   1  -6  -3    0.56    0.39
   1  -6  -3    1.45    0.44
   0  -6  -3    2.60    0.51
   0  -6  -3    2.77    0.55
   0  -6  -3    3.07    0.35
  -1  -6  -3    2.39    0.48
  -1  -6  -3    3.01    0.60
  -2  -6  -3   27.52    1.50
   2   6   3   30.83    1.35
  -3  -6  -3   31.07    1.62
  -4  -6  -3    5.41    0.87
  -5  -6  -3    2.64    0.81
  -5  -6  -3    0.50    0.59
  -6  -6  -3    2.48    0.89
  -7  -6  -3    0.44    0.84
   9  -7  -3   -0.16    1.10
   8  -7  -3   -0.42    0.89
   7  -7  -3    2.06    0.86
   6  -7  -3    0.27    0.65
   5  -7  -3    3.32    0.95
   4  -7  -3    0.61    0.40
   4  -7  -3    0.51    0.59
   3  -7  -3   15.13    1.03
   3  -7  -3   15.47    1.41
   2  -7  -3    3.36    0.69
   2  -7  -3    2.80    0.60
   1  -7  -3    9.98    1.00
   1  -7  -3    9.37    0.97
   0  -7  -3   17.64    1.17
   0  -7  -3   17.57    1.05
   0  -7  -3   16.34    0.74
  -1  -7  -3    7.92    0.92
  -1  -7  -3    7.83    0.77
  -2  -7  -3   42.83    1.94
   2   7   3   41.86    1.82
   2   7   3   42.52    1.70
  -3  -7  -3   10.47    1.16
  -4  -7  -3    3.14    0.78
  -5  -7  -3    6.02    0.99
  -5  -7  -3    3.46    0.86
  -6  -7  -3    3.08    0.94
  -7  -7  -3   -0.74    0.75
   8  -8  -3    0.48    0.99
   7  -8  -3    1.51    0.93
   6  -8  -3   -0.04    0.70
   5  -8  -3    2.15    0.84
   4  -8  -3   14.23    1.50
   4  -8  -3   12.39    1.12
   3  -8  -3    8.73    0.95
   3  -8  -3    6.33    0.99
   2  -8  -3   18.46    1.33
   2  -8  -3   18.43    1.22
   1  -8  -3    0.20    0.45
   1  -8  -3    0.47    0.46
   0  -8  -3   16.37    0.73
   0  -8  -3   16.05    1.18
   0  -8  -3   12.61    1.11
  -1  -8  -3    2.90    0.59
  -1  -8  -3    3.12    0.70
  -2  -8  -3   36.30    1.89
   2   8   3   37.26    1.64
   2   8   3   41.36    1.79
  -3  -8  -3   14.14    1.38
  -4  -8  -3    1.91    0.72
  -5  -8  -3    2.66    0.81
  -5  -8  -3    1.05    0.67
  -6  -8  -3    1.31    0.81
  -7  -8  -3    2.71    1.09
   8  -9  -3    0.64    0.98
   7  -9  -3    2.46    0.95
   6  -9  -3    2.65    0.90
   5  -9  -3    3.29    0.94
   4  -9  -3    1.63    0.71
   4  -9  -3    1.13    0.53
   3  -9  -3    5.23    0.95
   3  -9  -3    3.29    0.70
   2  -9  -3   17.72    1.28
   2  -9  -3   18.22    1.39
   1  -9  -3    2.05    0.64
   1  -9  -3    2.18    0.65
   0  -9  -3   15.29    1.09
   0  -9  -3   15.74    1.38
  -1  -9  -3    1.90    0.56
  -1  -9  -3    1.52    0.60
  -2  -9  -3   22.87    1.55
   2   9   3   21.39    1.31
  -3  -9  -3    4.90    0.95
  -4  -9  -3    0.72    0.65
  -5  -9  -3    4.14    0.97
  -5  -9  -3    5.64    1.08
  -6  -9  -3    0.52    0.75
   7 -10  -3    1.14    1.01
   6 -10  -3    0.94    0.87
   5 -10  -3    4.80    1.08
   4 -10  -3    0.78    0.51
   4 -10  -3    0.58    0.67
   3 -10  -3    2.59    0.79
   3 -10  -3    3.31    0.75
   2 -10  -3   -0.23    0.44
   2 -10  -3    0.71    0.58
   1 -10  -3    0.76    0.55
   1 -10  -3    0.84    0.52
   0 -10  -3    8.19    1.09
   0 -10  -3   10.00    1.08
  -1 -10  -3    0.47    0.51
  -1 -10  -3    1.13    0.62
  -2 -10  -3   25.61    1.70
  -3 -10  -3    5.65    1.01
  -4 -10  -3    2.86    0.85
  -5 -10  -3    6.71    1.18
  -5 -10  -3    5.30    1.05
  -6 -10  -3    0.28    0.77
   7 -11  -3    1.30    1.10
   6 -11  -3    3.73    1.02
   5 -11  -3    3.49    1.02
   4 -11  -3    1.22    0.79
   4 -11  -3    0.34    0.42
   3 -11  -3    2.97    0.72
   3 -11  -3    5.06    1.02
   2 -11  -3    0.82    0.55
   2 -11  -3    0.35    0.57
   1 -11  -3    2.12    0.68
   1 -11  -3    2.59    0.76
   0 -11  -3    4.02    0.87
   0 -11  -3    3.05    0.73
  -1 -11  -3    0.11    0.54
  -2 -11  -3   48.12    2.42
  -3 -11  -3    1.21    0.74
  -4 -11  -3    8.72    1.29
  -5 -11  -3    3.33    1.02
   6 -12  -3    0.24    0.85
   5 -12  -3    0.83    0.90
   4 -12  -3    0.17    0.37
   4 -12  -3    1.31    0.83
   3 -12  -3    1.19    0.65
   3 -12  -3    1.18    0.67
   2 -12  -3    2.70    0.76
   2 -12  -3    2.54    0.81
   1 -12  -3    5.94    1.02
   1 -12  -3    7.65    1.05
   0 -12  -3    2.26    0.78
   0 -12  -3    4.74    0.85
  -1 -12  -3    1.61    0.73
  -2 -12  -3    6.98    1.17
  -3 -12  -3    1.27    0.77
  -4 -12  -3    5.28    1.14
  -5 -12  -3    2.12    0.98
   6 -13  -3    1.77    1.03
   5 -13  -3    0.50    0.87
   4 -13  -3    0.17    0.49
   4 -13  -3   -0.53    0.69
   3 -13  -3    4.28    0.96
   3 -13  -3    6.14    1.15
   2 -13  -3    4.64    0.97
   2 -13  -3    2.81    0.80
   1 -13  -3    6.45    1.01
   1 -13  -3    6.67    1.09
   0 -13  -3   -0.25    0.55
  -1 -13  -3    4.51    0.99
  -2 -13  -3    4.36    1.07
  -3 -13  -3    0.37    0.73
  -4 -13  -3    3.28    1.07
  -5 -13  -3    0.60    0.88
   5 -14  -3   -0.21    0.87
   4 -14  -3    3.54    1.17
   3 -14  -3    3.07    1.01
   3 -14  -3    0.71    0.69
   2 -14  -3    7.61    1.19
   2 -14  -3    7.66    1.23
   1 -14  -3    3.00    0.90
   1 -14  -3    2.78    0.80
   0 -14  -3   -0.33    0.54
  -1 -14  -3    5.63    1.13
  -2 -14  -3    6.29    1.26
  -3 -14  -3    0.37    0.84
  -4 -14  -3    2.72    1.09
   5 -15  -3   -1.19    0.82
   4 -15  -3    0.61    0.91
   3 -15  -3    0.55    0.74
   3 -15  -3    0.91    0.63
   2 -15  -3    4.33    1.02
   2 -15  -3    4.89    1.07
   1 -15  -3    1.16    0.77
   0 -15  -3    0.04    0.60
  -1 -15  -3    0.94    0.79
  -2 -15  -3    1.21    0.88
  -3 -15  -3    1.11    0.91
   4 -16  -3    0.23    0.87
   3 -16  -3   -0.81    0.67
   3 -16  -3    0.13    0.80
   2 -16  -3    1.28    0.81
   2 -16  -3    0.87    0.77
   1 -16  -3    0.43    0.71
   0 -16  -3    0.25    0.72
  -1 -16  -3    2.18    0.92
  -2 -16  -3    0.81    0.90
   3 -17  -3    0.18    0.76
   3 -17  -3   -0.55    0.81
   2 -17  -3    0.83    0.82
   1 -17  -3    0.74    0.81
   0 -17  -3    0.18    0.77
   3 -18  -3   -0.25    0.83
   3 -18  -3   -0.87    0.75
   0 -20   4    0.27    0.78
   1 -20   4   -0.77    0.68
  -1 -19   4    0.07    0.73
   0 -19   4    1.78    0.85
   1 -19   4   -0.68    0.63
   3 -19   4    0.59    0.96
  -2 -18   4    1.13    0.88
  -1 -18   4    1.63    0.84
   0 -18   4    1.00    0.73
   1 -18   4    0.23    0.64
   3 -18   4    0.21    0.85
   4 -18   4    0.17    0.99
  -3 -17   4    0.84    0.89
  -2 -17   4    2.60    0.96
  -1 -17   4    2.91    0.95
   0 -17   4    5.06    1.02
   1 -17   4    0.03    0.60
   2 -17   4    2.45    0.91
   3 -17   4   -0.50    0.76
   4 -17   4    1.68    1.10
  -4 -16   4    1.43    0.86
  -3 -16   4    2.49    0.94
  -2 -16   4    0.44    0.70
  -1 -16   4    5.01    1.05
   0 -16   4    0.37    0.63
   1 -16   4   -0.19    0.57
   1 -16   4   -0.33    0.53
   2 -16   4    0.63    0.73
   2 -16   4    0.08    0.36
   3 -16   4    0.05    0.80
   4 -16   4    0.44    0.88
   5 -16   4    1.09    1.05
   6  15  -4    1.26    0.93
   5  15  -4    2.97    0.94
  -5 -15   4    1.24    0.91
   4  15  -4    3.15    0.88
  -4 -15   4    3.50    1.05
   3  15  -4   13.48    1.42
  -3 -15   4   10.65    1.45
  -2 -15   4    8.40    1.26
  -1 -15   4    0.52    0.63
   0 -15   4    9.78    1.25
   1 -15   4   -0.88    0.48
   1 -15   4    0.09    0.59
   2 -15   4    2.30    0.67
   2 -15   4    6.27    1.09
   3 -15   4    0.24    0.74
   4 -15   4   -0.26    0.79
   5 -15   4    0.15    0.92
   6  14  -4    2.14    0.96
  -6 -14   4    0.54    0.84
   5  14  -4    0.44    0.66
  -5 -14   4    0.03    0.73
   4  14  -4   13.34    1.48
  -4 -14   4   13.16    1.57
   3  14  -4    0.27    0.53
  -3 -14   4    0.01    0.57
   2  14  -4    0.72    0.54
  -2 -14   4    0.84    0.63
   1  14  -4    0.05    0.42
  -1 -14   4   -0.39    0.55
   0 -14   4    1.74    0.72
   0 -14   4    1.97    0.71
   1 -14   4    7.75    1.13
   1 -14   4    7.93    1.07
   2 -14   4    0.66    0.67
   2 -14   4    0.35    0.50
   3 -14   4    0.08    0.67
   4 -14   4    4.14    1.12
   5 -14   4    0.48    0.86
   6 -14   4    0.71    0.99
  -7 -13   4   -0.28    0.83
   6  13  -4    2.28    0.95
  -6 -13   4    1.72    0.89
   5  13  -4    0.76    0.67
  -5 -13   4   -0.19    0.61
   4  13  -4    2.60    0.79
  -4 -13   4    4.25    0.95
   3  13  -4    6.11    0.99
  -3 -13   4    6.88    1.08
   2  13  -4    2.49    0.68
  -2 -13   4    3.53    0.83
   1  13  -4   36.95    1.78
  -1 -13   4   36.54    1.99
   0  13  -4   -0.07    0.47
   0 -13   4   -0.60    0.48
   0 -13   4   -0.68    0.46
  -1  13  -4    2.48    0.63
   1 -13   4    2.45    0.71
   1 -13   4    5.35    0.92
   2 -13   4   -0.38    0.48
   2 -13   4   -0.52    0.54
   3 -13   4    6.34    1.13
   4 -13   4    0.23    0.74
   5 -13   4   -0.21    0.74
   6 -13   4   -0.31    0.91
   7  12  -4    0.59    0.83
  -7 -12   4    0.95    0.83
   6  12  -4    0.06    0.75
  -6 -12   4    0.22    0.68
   5  12  -4    0.29    0.61
  -5 -12   4    0.41    0.64
   4  12  -4   12.94    1.40
  -4 -12   4   10.81    1.27
   3  12  -4    0.81    0.54
  -3 -12   4    0.36    0.54
   2  12  -4   21.54    1.38
  -2 -12   4   20.81    1.44
   1  12  -4    0.94    0.53
  -1 -12   4    1.47    0.61
   0  12  -4    4.45    0.72
   0 -12   4    4.54    0.76
   0 -12   4    4.28    0.82
  -1  12  -4   25.77    1.41
   1 -12   4   27.93    1.57
   1 -12   4   29.58    1.66
  -2  12  -4    0.94    0.55
   2 -12   4    0.11    0.55
   2 -12   4   -0.57    0.42
  -3  12  -4   23.88    1.44
   3 -12   4   25.73    1.80
   4 -12   4    0.19    0.67
   5 -12   4   -0.49    0.65
   6 -12   4    1.97    1.01
   7 -12   4   -0.25    0.98
   7  11  -4    2.10    1.02
  -7 -11   4    0.69    0.76
   6  11  -4    0.98    0.74
  -6 -11   4   -0.31    0.57
   5  11  -4    2.94    0.85
  -5 -11   4    3.60    0.86
   4  11  -4    7.75    1.11
  -4 -11   4    6.42    0.98
   3  11  -4    0.17    0.46
  -3 -11   4    0.07    0.43
   2  11  -4    7.06    0.91
  -2 -11   4    8.90    1.02
   1  11  -4   11.94    1.10
  -1 -11   4   14.50    1.25
  -1 -11   4   12.97    0.93
   0  11  -4   28.12    1.42
   0 -11   4   29.24    1.45
   0 -11   4   26.42    1.49
  -1  11  -4    0.09    0.44
   1 -11   4   -0.22    0.46
   1 -11   4    0.43    0.46
  -2  11  -4   23.55    1.33
   2 -11   4   22.94    1.32
   2 -11   4   24.42    1.59
  -3  11  -4   16.52    1.20
   3 -11   4   18.11    1.67
  -4  11  -4    0.77    0.65
   4 -11   4    1.16    0.75
   5 -11   4    0.31    0.69
   6 -11   4    0.86    0.89
   7 -11   4    1.55    1.13
   7  10  -4    0.46    0.80
  -7 -10   4    0.99    0.71
   6  10  -4   -0.43    0.55
  -6 -10   4    0.02    0.51
   5  10  -4    4.43    0.97
  -5 -10   4    4.78    0.91
   4  10  -4    2.38    0.68
  -4 -10   4    1.99    0.62
   3  10  -4    2.68    0.69
  -3 -10   4    3.57    0.74
   2  10  -4    9.97    1.05
  -2 -10   4   11.71    1.09
   1  10  -4    3.19    0.62
  -1 -10   4    3.51    0.53
  -1 -10   4    2.70    0.57
   0  10  -4   21.35    1.21
   0 -10   4   22.66    1.23
   0 -10   4   23.29    1.27
  -1  10  -4    0.85    0.44
   1 -10   4    0.06    0.26
   1 -10   4    0.42    0.47
  -2  10  -4    2.24    0.58
   2 -10   4    1.45    0.60
   2 -10   4    1.74    0.50
  -3  10  -4   10.25    1.06
   3 -10   4    9.82    1.23
  -4  10  -4    0.35    0.55
   4 -10   4    0.38    0.64
  -5  10  -4    6.08    0.97
   5 -10   4    6.73    1.15
  -6  10  -4    0.26    0.70
   6 -10   4    0.67    0.73
   7 -10   4    1.58    1.05
   7   9  -4    3.45    1.14
  -7  -9   4    4.48    0.94
   6   9  -4    1.28    0.75
  -6  -9   4    1.05    0.63
   5   9  -4   15.25    1.56
  -5  -9   4   14.88    1.39
   4   9  -4    1.34    0.61
  -4  -9   4    1.07    0.55
   3   9  -4    0.73    0.50
  -3  -9   4    1.79    0.57
   2   9  -4   26.42    1.41
  -2  -9   4   24.61    1.38
  -2  -9   4   25.72    0.97
   1   9  -4   33.49    1.53
  -1  -9   4   30.91    1.30
  -1  -9   4   32.51    1.52
   0   9  -4    5.61    0.72
   0  -9   4    5.09    0.68
   0  -9   4    6.33    0.73
  -1   9  -4    4.55    0.66
   1  -9   4    3.86    0.70
  -2   9  -4    3.93    0.68
   2  -9   4    3.84    0.75
   2  -9   4    3.26    0.55
  -3   9  -4   30.88    1.56
   3  -9   4   30.48    1.78
  -4   9  -4    0.84    0.59
   4  -9   4    0.87    0.72
  -5   9  -4   -0.11    0.59
   5  -9   4    0.06    0.63
  -6   9  -4    0.17    0.62
   6  -9   4    0.13    0.75
  -7   9  -4    0.86    0.78
   7  -9   4    1.32    0.94
   8  -9   4    0.62    1.14
   8   8  -4    2.43    1.10
   7   8  -4    1.12    0.85
  -7  -8   4    0.41    0.61
   6   8  -4    2.24    0.88
  -6  -8   4    2.36    0.70
   5   8  -4   11.33    1.35
  -5  -8   4   11.52    1.24
   4   8  -4    4.87    0.88
  -4  -8   4    4.92    0.82
   3   8  -4    3.89    0.75
  -3  -8   4    1.89    0.52
   2   8  -4   65.15    2.36
  -2  -8   4   58.22    2.24
  -2  -8   4   60.21    1.79
   1   8  -4   11.69    0.89
  -1  -8   4   12.97    0.74
  -1  -8   4   11.95    0.87
   0   8  -4   57.83    2.06
   0  -8   4   57.17    1.99
   0  -8   4   53.08    1.97
  -1   8  -4   36.22    1.51
   1  -8   4   36.01    1.63
   1  -8   4   35.59    1.40
  -2   8  -4   55.02    2.08
   2  -8   4   57.25    1.87
   2  -8   4   52.68    2.23
  -3   8  -4   13.96    1.18
   3  -8   4   13.66    1.35
  -4   8  -4    0.46    0.57
   4  -8   4    0.07    0.60
  -5   8  -4    0.61    0.59
   5  -8   4    0.66    0.69
  -6   8  -4    0.91    0.69
   6  -8   4    0.52    0.75
  -7   8  -4    0.62    0.74
   7  -8   4    0.28    0.80
  -8   8  -4    1.02    0.92
   8  -8   4    0.25    1.02
   8   7  -4    2.18    1.09
   7   7  -4    0.58    0.76
   6   7  -4    3.88    0.99
  -6  -7   4    4.09    0.81
   5   7  -4    1.07    0.59
  -5  -7   4    1.31    0.53
   4   7  -4   16.66    1.48
  -4  -7   4   14.59    1.26
   3   7  -4   13.43    1.22
  -3  -7   4   13.22    0.97
   2   7  -4   22.58    1.22
  -2  -7   4   21.35    0.81
  -2  -7   4   24.78    1.24
   1   7  -4    4.23    0.60
  -1  -7   4    4.27    0.58
  -1  -7   4    3.70    0.46
   0   7  -4    5.13    0.62
   0  -7   4    4.05    0.52
   0  -7   4    4.87    0.59
  -1   7  -4   20.21    1.06
   1  -7   4   20.57    0.95
   1  -7   4   20.81    1.16
  -2   7  -4   20.82    1.14
   2  -7   4   22.13    1.29
   2  -7   4   19.54    0.90
   3  -7   4   16.93    0.71
   3  -7   4   14.75    1.18
  -4   7  -4    9.60    1.09
   4  -7   4    5.57    0.99
  -5   7  -4    0.04    0.52
   5  -7   4    0.47    0.68
  -6   7  -4    3.04    0.81
   6  -7   4    1.11    0.81
  -7   7  -4    2.35    0.89
   7  -7   4    2.13    0.84
  -8   7  -4    0.27    0.79
   8  -7   4    1.02    1.09
   8   6  -4    0.97    0.95
   7   6  -4    9.37    1.51
   6   6  -4    5.60    1.10
  -6  -6   4    4.99    0.85
   5   6  -4   26.90    1.68
  -5  -6   4   24.19    1.41
   4   6  -4    0.98    0.52
  -4  -6   4    0.98    0.45
   3   6  -4   42.11    1.89
  -3  -6   4   42.60    1.78
   2   6  -4    3.60    0.60
  -2  -6   4    3.75    0.56
  -2  -6   4    3.99    0.35
   1   6  -4   65.86    2.22
  -1  -6   4   64.27    1.96
  -1  -6   4   61.35    2.11
   0   6  -4    0.28    0.29
   0  -6   4    0.03    0.22
   0  -6   4    0.14    0.28
  -1   6  -4   15.89    0.94
   1  -6   4   17.28    1.01
   1  -6   4   18.34    0.81
  -2   6  -4   28.33    1.32
   2  -6   4   31.10    1.50
   2  -6   4   28.61    1.02
  -3   6  -4   17.51    1.12
   3  -6   4   18.20    1.25
  -4   6  -4   12.14    1.21
   4  -6   4   12.83    1.34
  -5   6  -4   -0.36    0.47
   5  -6   4   -0.07    0.58
  -6   6  -4    2.77    0.81
   6  -6   4    1.97    0.82
  -7   6  -4    4.83    1.12
   7  -6   4    4.49    1.06
  -8   6  -4    0.84    0.89
   8  -6   4    0.05    0.97
   8   5  -4    0.82    0.95
   7   5  -4    1.14    0.74
   6   5  -4    3.02    0.86
  -6  -5   4    0.96    0.52
   5   5  -4   32.31    1.81
  -5  -5   4   28.94    1.54
   4   5  -4    1.18    0.51
  -4  -5   4    1.69    0.51
   3   5  -4   19.13    1.18
  -3  -5   4   17.52    0.69
  -3  -5   4   18.54    1.06
   2   5  -4    0.99    0.38
  -2  -5   4    0.93    0.35
  -2  -5   4    1.05    0.25
   1   5  -4   14.33    0.85
  -1  -5   4   13.37    0.70
  -1  -5   4   14.03    0.80
   0   5  -4   10.64    0.72
   0  -5   4   10.72    0.64
   0  -5   4    9.72    0.71
  -1   5  -4    9.15    0.70
   1  -5   4   10.95    0.80
   1  -5   4   11.40    0.59
  -2   5  -4   82.15    2.70
   2  -5   4   81.30    2.79
   2  -5   4   82.21    2.16
  -3   5  -4   10.18    0.97
   3  -5   4    9.32    1.03
  -4   5  -4   23.04    1.42
   4  -5   4   24.59    1.51
  -5   5  -4   -0.08    0.49
   5  -5   4    0.26    0.62
  -6   5  -4    2.17    0.78
   6  -5   4    2.62    0.84
  -7   5  -4    8.47    1.30
  -8   5  -4   -0.13    0.81
   8   4  -4    2.28    1.03
   7   4  -4    0.43    0.68
   6   4  -4   13.05    1.51
  -6  -4   4   12.04    1.18
   5   4  -4    8.92    1.12
  -5  -4   4   10.35    1.03
   4   4  -4   11.62    1.16
   4   4  -4   12.58    0.68
  -4  -4   4   12.35    1.04
   3   4  -4   66.30    1.96
   3   4  -4   67.39    2.46
   2   4  -4    7.86    0.72
   2   4  -4    5.82    0.67
  -2  -4   4    7.09    0.48
   1   4  -4  210.10    5.71
   1   4  -4  209.43    5.46
  -1  -4   4  212.50    5.56
   0   4  -4    0.26    0.22
   0   4  -4   -0.02    0.28
   0  -4   4   -0.09    0.28
  -1   4  -4    4.81    0.41
  -1   4  -4    5.38    0.59
   1  -4   4    4.13    0.58
  -2   4  -4   59.45    2.14
   2  -4   4   61.53    1.58
   2  -4   4   58.52    2.19
  -3   4  -4   24.02    1.30
   3  -4   4   24.85    1.38
  -4   4  -4    8.25    1.03
   4  -4   4    6.62    0.96
  -5   4  -4    0.60    0.54
   5  -4   4    1.15    0.64
  -6   4  -4    7.74    1.17
   6  -4   4    5.32    1.05
  -7   4  -4    3.01    0.99
   7  -4   4    3.08    0.91
  -8   4  -4   -0.25    0.74
   8   3  -4    0.22    0.84
   7   3  -4    0.20    0.66
   6   3  -4    9.33    1.28
  -6  -3   4    7.95    0.93
   5   3  -4    2.64    0.70
   5   3  -4    2.67    0.52
  -5  -3   4    1.69    0.53
   4   3  -4    1.50    0.35
   4   3  -4    1.31    0.50
   4   3  -4    1.10    0.41
   3   3  -4    0.23    0.24
   3   3  -4    0.04    0.26
   3   3  -4    0.70    0.36
   2   3  -4   27.09    1.23
   2   3  -4   30.52    1.18
  -2  -3   4   26.78    1.04
   1   3  -4  980.63   23.68
   1   3  -4  988.79   24.52
  -1  -3   4 1000.00   24.73
   0   3  -4   16.54    0.72
   0   3  -4   16.89    0.84
   0  -3   4   15.40    0.86
  -1   3  -4  193.78    4.65
  -1   3  -4  187.78    5.09
   1  -3   4  177.98    5.16
  -2   3  -4   10.35    0.77
   2  -3   4   10.97    0.92
  -3   3  -4    9.34    0.97
   3  -3   4   12.64    1.10
  -4   3  -4    0.70    0.48
   4  -3   4   -0.36    0.45
  -5   3  -4    0.27    0.50
   5  -3   4    0.56    0.62
  -6   3  -4    6.47    1.11
   6  -3   4    7.21    1.12
  -7   3  -4    2.70    0.91
   7  -3   4    3.12    0.97
  -8   3  -4    0.66    0.84
   9   2  -4    1.12    1.01
   8   2  -4    0.79    0.81
   7   2  -4    1.89    0.82
   6   2  -4   10.71    1.32
  -6  -2   4    5.62    0.78
   5   2  -4    1.91    0.49
   5   2  -4    1.45    0.49
   5   2  -4    1.95    0.64
   4   2  -4   72.25    2.74
   4   2  -4   76.47    2.50
   4   2  -4   83.20    2.54
   3   2  -4   34.01    1.48
   3   2  -4   34.95    1.30
   3   2  -4   31.82    1.33
   2   2  -4   18.58    0.84
   2   2  -4   18.81    0.96
   2   2  -4   18.88    0.90
   1   2  -4  409.83   10.10
   1   2  -4  414.37   10.48
   0   2  -4    5.41    0.54
   0   2  -4    5.38    0.45
   0  -2   4    5.39    0.57
  -1   2  -4  106.75    2.76
  -1   2  -4  109.75    3.15
   1  -2   4  103.02    3.18
  -2   2  -4   67.61    2.36
  -2   2  -4   71.47    1.85
   2  -2   4   70.45    2.39
  -3   2  -4   10.66    1.01
   3  -2   4   12.58    1.09
  -4   2  -4   20.37    1.35
   4  -2   4   20.98    1.33
  -5   2  -4    0.22    0.48
   5  -2   4    0.01    0.52
  -6   2  -4    8.79    1.27
  -7   2  -4    3.61    0.99
  -8   2  -4    1.78    0.95
   9   1  -4    0.92    1.05
   8   1  -4    0.70    0.82
   7   1  -4    6.01    1.13
   6   1  -4    7.09    0.93
   6   1  -4    6.20    1.02
   6   1  -4    5.74    0.77
   5   1  -4    1.43    0.59
   5   1  -4    1.89    0.57
   5   1  -4    0.82    0.41
   4   1  -4   53.84    2.15
   4   1  -4   54.16    2.01
   3   1  -4   11.17    0.74
   3   1  -4   12.81    0.84
   3   1  -4   11.84    0.75
   2   1  -4  213.93    5.51
   2   1  -4  212.58    5.71
   1   1  -4  385.24    9.68
   1   1  -4  378.18    9.39
   0   1  -4  204.83    5.16
   0   1  -4  205.91    5.38
   0  -1   4  204.22    5.54
  -1   1  -4  103.07    2.69
  -1   1  -4  101.76    3.00
   1  -1   4   98.70    3.05
  -2   1  -4   15.57    0.94
  -2   1  -4   17.08    0.68
   2  -1   4   17.25    1.00
  -3   1  -4   52.37    1.52
  -3   1  -4   52.89    2.12
   3  -1   4   52.60    2.04
  -4   1  -4    5.85    0.88
   4  -1   4    6.20    0.88
  -5   1  -4    8.32    1.14
  -6   1  -4    9.00    1.30
   6  -1   4   10.75    1.31
  -7   1  -4    0.63    0.69
  -8   1  -4    1.19    0.92
   8   0  -4    0.77    0.86
   7   0  -4   -0.16    0.57
   6   0  -4    2.40    0.55
   6   0  -4    1.84    0.69
   6   0  -4    2.05    0.72
   5   0  -4   19.82    1.06
   5   0  -4   16.04    1.22
   5   0  -4   16.53    1.18
   4   0  -4   31.12    1.35
   4   0  -4   37.40    1.59
   3   0  -4   12.19    0.80
   3   0  -4   11.57    0.83
   3   0  -4   10.14    0.72
   2   0  -4   77.18    2.31
   2   0  -4   76.30    2.44
   1   0  -4  174.33    4.52
   1   0  -4  172.50    4.76
   0   0  -4    8.19    0.54
   0   0  -4    9.81    0.58
   0   0   4    9.15    0.72
  -1   0  -4   30.66    1.22
  -1   0  -4   30.52    1.08
   1   0   4   30.14    1.29
  -2   0  -4   13.73    0.68
  -2   0  -4   13.41    0.88
   2   0   4   13.53    0.92
  -3   0  -4    8.32    0.61
  -3   0  -4    7.16    0.87
  -4   0  -4    7.18    0.61
  -4   0  -4    7.21    0.95
   4   0   4    7.29    0.91
  -5   0  -4   22.78    1.59
   5   0   4   19.41    1.39
  -6   0  -4    1.74    0.77
  -7   0  -4   -0.42    0.59
  -8   0  -4    1.50    0.96
  -9   1   4    1.42    0.92
   8  -1  -4    0.13    0.72
   7  -1  -4    7.93    1.18
   7  -1  -4    5.24    1.04
   6  -1  -4    4.64    0.82
   6  -1  -4    9.87    1.16
   5  -1  -4    2.81    0.66
   5  -1  -4    1.44    0.40
   5  -1  -4    2.72    0.63
   4  -1  -4   23.65    1.24
   4  -1  -4   23.92    1.13
   4  -1  -4   24.75    1.37
   3  -1  -4    1.76    0.47
   3  -1  -4    2.99    0.47
   3  -1  -4    2.27    0.40
   2  -1  -4   12.29    0.66
   2  -1  -4   11.73    0.70
   2  -1  -4   11.85    0.79
   1  -1  -4   70.89    2.17
   1  -1  -4   72.12    2.34
   1  -1  -4   75.66    2.10
   0  -1  -4   12.37    0.62
   0  -1  -4   12.43    0.70
   0   1   4   12.16    0.79
  -1  -1  -4   59.30    2.00
  -1  -1  -4   61.87    1.89
   1   1   4   62.23    2.10
  -2  -1  -4    5.99    0.56
  -2  -1  -4    6.56    0.73
  -3  -1  -4   14.93    0.84
  -3  -1  -4   16.49    1.09
   3   1   4   17.63    1.06
  -4  -1  -4    2.62    0.48
  -4  -1  -4    1.51    0.55
   4   1   4    2.92    0.65
  -5  -1  -4   14.22    1.50
   5   1   4   13.85    1.32
  -6  -1  -4    6.82    1.18
  -7  -1  -4    0.60    0.74
  -9   2   4    3.01    1.09
   7  -2  -4    2.33    0.74
   7  -2  -4    7.27    1.16
   6  -2  -4    3.25    0.87
   6  -2  -4    3.17    0.80
   5  -2  -4   24.39    1.53
   5  -2  -4   23.59    1.19
   4  -2  -4   24.39    1.23
   4  -2  -4   25.92    1.18
   4  -2  -4   23.84    1.39
   3  -2  -4   11.00    1.03
   3  -2  -4   12.27    0.74
   3  -2  -4   14.12    0.81
   2  -2  -4   28.70    1.03
   2  -2  -4   27.82    1.17
   2  -2  -4   27.28    1.29
   1  -2  -4    0.10    0.31
   1  -2  -4   -0.18    0.21
   1  -2  -4    0.13    0.18
   0  -2  -4    3.27    0.46
   0  -2  -4    3.31    0.39
   0  -2  -4    3.69    0.51
  -1  -2  -4    4.63    0.53
  -1  -2  -4    6.36    0.60
   1   2   4    8.97    0.77
  -2  -2  -4   24.31    1.09
  -2  -2  -4   22.78    1.18
   2   2   4   23.82    1.17
  -3  -2  -4   46.73    1.72
  -3  -2  -4   44.66    2.01
   3   2   4   47.42    1.85
  -4  -2  -4    1.24    0.56
  -4  -2  -4    0.42    0.40
   4   2   4    0.70    0.47
  -5  -2  -4   10.66    1.36
  -6  -2  -4    0.13    0.57
  -7  -2  -4    1.52    0.84
  -8   3   4    0.88    0.71
   7  -3  -4    0.80    0.77
   7  -3  -4    0.01    0.61
   6  -3  -4    0.38    0.66
   6  -3  -4   -0.18    0.26
   5  -3  -4    1.74    0.71
   5  -3  -4    4.00    0.70
   5  -3  -4    4.28    0.60
   4  -3  -4   11.22    0.79
   4  -3  -4    8.63    1.04
   4  -3  -4   10.68    0.77
   3  -3  -4   13.97    1.06
   3  -3  -4   15.48    0.77
   3  -3  -4   15.18    0.89
   2  -3  -4   18.81    0.73
   2  -3  -4   18.98    0.97
   2  -3  -4   18.40    1.11
   1  -3  -4    1.26    0.21
   1  -3  -4    1.66    0.37
   1  -3  -4    1.68    0.45
   0  -3  -4    8.70    0.69
   0  -3  -4    8.00    0.50
   0  -3  -4    9.13    0.76
  -1  -3  -4    0.33    0.25
  -1  -3  -4    0.23    0.28
   1   3   4    0.18    0.14
  -2  -3  -4   43.83    1.78
  -2  -3  -4   41.55    1.65
   2   3   4   44.47    1.73
  -3  -3  -4   42.94    1.98
  -3  -3  -4   47.51    1.81
   3   3   4   45.24    1.82
  -4  -3  -4    2.90    0.74
  -4  -3  -4    4.67    0.70
   4   3   4    6.59    0.86
  -5  -3  -4    4.57    0.95
  -6  -3  -4    5.67    1.13
  -7  -3  -4    1.04    0.88
   8  -4  -4    1.51    0.94
   7  -4  -4    2.06    0.82
  -7   4   4    2.79    0.75
   6  -4  -4    0.69    0.71
   6  -4  -4    0.15    0.53
   5  -4  -4   20.72    1.51
   5  -4  -4   22.83    1.22
   5  -4  -4   23.69    1.29
   4  -4  -4    4.81    0.64
   4  -4  -4    4.78    0.59
   4  -4  -4    5.16    0.88
   3  -4  -4   19.45    0.86
   3  -4  -4   19.69    1.06
   3  -4  -4   21.77    1.33
   2  -4  -4   67.54    2.24
   2  -4  -4   66.51    1.82
   2  -4  -4   66.44    2.46
   1  -4  -4   66.13    2.35
   1  -4  -4   65.70    2.21
   0  -4  -4   56.72    2.03
   0  -4  -4   55.51    1.69
   0  -4  -4   55.76    1.98
  -1  -4  -4    2.25    0.42
  -1  -4  -4    1.24    0.41
   1   4   4    1.80    0.41
  -2  -4  -4   42.83    1.78
  -2  -4  -4   40.73    1.71
   2   4   4   42.02    1.69
  -3  -4  -4   35.68    1.80
  -3  -4  -4   39.61    1.70
   3   4   4   36.57    1.63
  -4  -4  -4    1.86    0.61
  -4  -4  -4    2.49    0.71
  -5  -4  -4    3.76    0.91
  -6  -4  -4    0.35    0.68
  -7  -4  -4    2.36    0.99
   8  -5  -4   -0.33    0.79
   7  -5  -4    0.68    0.77
   6  -5  -4    1.91    0.79
  -6   5   4    1.98    0.64
   5  -5  -4    7.59    0.80
   5  -5  -4    6.04    1.03
   4  -5  -4    3.28    0.79
   4  -5  -4    3.89    0.61
   3  -5  -4   10.40    1.12
   3  -5  -4   10.37    0.91
   2  -5  -4   46.05    1.99
   2  -5  -4   45.79    1.80
   1  -5  -4  109.93    3.58
   1  -5  -4  116.17    3.47
   0  -5  -4   31.36    1.10
   0  -5  -4   29.93    1.40
   0  -5  -4   31.48    1.45
  -1  -5  -4    4.18    0.68
  -1  -5  -4    3.40    0.49
   1   5   4    3.21    0.56
  -2  -5  -4   26.04    1.39
   2   5   4   25.91    1.29
  -3  -5  -4    8.78    1.03
  -3  -5  -4   10.86    1.11
   3   5   4   10.65    0.96
  -4  -5  -4    0.36    0.45
  -4  -5  -4    0.04    0.50
  -5  -5  -4    2.17    0.77
  -6  -5  -4    1.10    0.77
  -7  -5  -4    1.92    0.96
   8  -6  -4    0.64    0.93
   7  -6  -4    0.05    0.73
   6  -6  -4    4.36    0.98
   5  -6  -4   36.88    2.15
   5  -6  -4   43.27    1.78
   4  -6  -4    0.97    0.41
   4  -6  -4    1.08    0.63
   3  -6  -4   23.31    1.49
   3  -6  -4   26.68    1.33
  -3   6   4   24.99    0.89
   2  -6  -4    0.11    0.40
   2  -6  -4    0.17    0.33
   1  -6  -4    3.50    0.63
   1  -6  -4    2.31    0.54
   0  -6  -4   70.32    2.52
   0  -6  -4   72.79    2.11
   0  -6  -4   69.68    2.55
  -1  -6  -4   14.55    0.87
  -1  -6  -4   16.52    1.33
  -2  -6  -4   26.79    1.39
  -2  -6  -4   27.83    1.51
   2   6   4   27.09    1.38
  -3  -6  -4    2.14    0.62
  -3  -6  -4    2.72    0.68
  -4  -6  -4    5.88    1.00
  -4  -6  -4    6.11    0.95
  -5  -6  -4    6.31    1.12
  -6  -6  -4    0.38    0.71
  -7  -6  -4    4.43    1.20
   8  -7  -4   -0.92    0.85
   7  -7  -4    0.17    0.79
   6  -7  -4    1.81    0.92
   5  -7  -4   31.68    1.99
   5  -7  -4   32.76    1.58
   4  -7  -4    3.73    0.88
   4  -7  -4    2.20    0.52
   3  -7  -4    9.40    0.99
   3  -7  -4    9.22    1.16
   2  -7  -4    0.63    0.42
   2  -7  -4   -0.16    0.44
   1  -7  -4   39.90    1.81
   1  -7  -4   40.73    1.84
   0  -7  -4   28.55    1.43
   0  -7  -4   25.99    1.49
   0  -7  -4   28.50    1.05
  -1  -7  -4   11.14    0.99
  -1  -7  -4   10.41    1.10
  -1  -7  -4    9.94    0.75
  -2  -7  -4   12.57    0.97
  -2  -7  -4   14.91    1.34
   2   7   4   13.79    1.04
  -3  -7  -4    1.56    0.54
  -3  -7  -4    0.89    0.57
  -4  -7  -4    1.33    0.66
  -4  -7  -4    0.97    0.62
  -5  -7  -4    0.38    0.65
  -5  -7  -4   -0.04    0.55
  -6  -7  -4    3.66    1.05
  -7  -7  -4    3.92    1.16
   8  -8  -4    2.39    1.05
   7  -8  -4   -0.32    0.80
   6  -8  -4    7.81    1.23
   5  -8  -4    0.59    0.50
   5  -8  -4    0.94    0.71
   4  -8  -4    0.62    0.63
   4  -8  -4    0.00    0.24
   3  -8  -4    2.24    0.73
   3  -8  -4    2.61    0.64
   2  -8  -4    0.61    0.51
   2  -8  -4    0.34    0.46
   1  -8  -4   16.17    1.20
   1  -8  -4   15.81    1.16
   0  -8  -4    9.99    1.10
   0  -8  -4   11.58    1.09
  -1  -8  -4    9.61    0.85
  -1  -8  -4    9.75    1.11
  -1  -8  -4    9.38    0.97
  -2  -8  -4   11.10    1.06
  -2  -8  -4   10.27    1.22
  -3  -8  -4    0.75    0.63
  -3  -8  -4    2.14    0.62
  -4  -8  -4    9.22    1.21
  -4  -8  -4    7.51    1.14
  -5  -8  -4    1.11    0.69
  -5  -8  -4    0.34    0.66
  -6  -8  -4    0.00    0.69
   8  -9  -4   -0.84    0.95
   7  -9  -4   -0.42    0.85
   6  -9  -4    1.63    0.84
   5  -9  -4   -0.26    0.64
   4  -9  -4    1.23    0.49
   4  -9  -4    3.85    0.93
   3  -9  -4    0.15    0.56
   3  -9  -4   -0.62    0.39
   2  -9  -4    1.98    0.68
   2  -9  -4    0.86    0.53
   1  -9  -4   21.08    1.40
   1  -9  -4   17.92    1.29
   0  -9  -4   19.12    1.37
   0  -9  -4   17.17    1.23
  -1  -9  -4   26.27    1.62
  -1  -9  -4   20.73    1.31
  -2  -9  -4    4.03    0.89
  -3  -9  -4    9.91    1.27
  -3  -9  -4   10.66    1.19
  -4  -9  -4    0.36    0.65
  -4  -9  -4    0.59    0.57
  -5  -9  -4   -0.14    0.60
  -5  -9  -4   -0.69    0.64
  -6  -9  -4    3.89    1.12
   7 -10  -4    0.09    0.94
   6 -10  -4    1.93    0.98
   5 -10  -4    0.93    0.75
   4 -10  -4    2.50    0.69
   4 -10  -4    4.74    1.06
   3 -10  -4    0.50    0.62
   3 -10  -4    0.95    0.57
   2 -10  -4   13.62    1.40
   2 -10  -4   16.01    1.53
   1 -10  -4    8.68    1.13
   1 -10  -4   10.87    1.19
   0 -10  -4    0.30    0.53
   0 -10  -4    0.61    0.54
  -1 -10  -4   17.12    1.60
  -1 -10  -4   20.19    1.30
  -2 -10  -4   -0.35    0.54
  -3 -10  -4    4.48    1.01
  -4 -10  -4    3.61    1.01
  -5 -10  -4    0.75    0.72
  -5 -10  -4   -0.82    0.66
  -6 -10  -4    2.31    1.02
   7 -11  -4    0.43    1.04
   6 -11  -4    1.12    0.94
   5 -11  -4   -0.18    0.68
   4 -11  -4    2.00    0.85
   4 -11  -4    1.62    0.66
   3 -11  -4    0.63    0.66
   3 -11  -4    0.28    0.55
   2 -11  -4   20.21    1.52
   2 -11  -4   18.88    1.71
   1 -11  -4    7.31    1.10
   1 -11  -4    7.39    1.04
   0 -11  -4   39.03    2.11
   0 -11  -4   37.44    1.91
  -1 -11  -4   10.27    1.32
  -2 -11  -4    3.82    0.94
  -3 -11  -4    2.52    0.83
  -4 -11  -4    4.31    1.07
  -5 -11  -4   -1.00    0.71
   6 -12  -4    1.23    0.97
   5 -12  -4   -0.70    0.72
   4 -12  -4    1.96    0.76
   4 -12  -4    3.00    1.03
   3 -12  -4   -0.15    0.58
   3 -12  -4   -0.12    0.53
   2 -12  -4   11.97    1.36
   2 -12  -4   10.41    1.32
   1 -12  -4    1.40    0.69
   1 -12  -4    1.41    0.64
   0 -12  -4    0.47    0.58
   0 -12  -4    0.72    0.57
  -1 -12  -4    0.56    0.68
  -2 -12  -4   -0.41    0.57
  -3 -12  -4    7.13    1.28
  -4 -12  -4    3.06    1.03
  -5 -12  -4    0.72    0.96
   6 -13  -4    0.85    1.03
   5 -13  -4    1.31    1.00
   4 -13  -4    3.57    0.87
   4 -13  -4    2.82    1.01
   3 -13  -4    0.63    0.66
   3 -13  -4    0.48    0.73
   2 -13  -4    4.97    1.03
   2 -13  -4    5.07    0.98
   1 -13  -4    1.17    0.68
   1 -13  -4    0.71    0.61
   0 -13  -4    0.18    0.56
  -1 -13  -4   -0.23    0.60
  -2 -13  -4    0.61    0.78
  -3 -13  -4    3.10    1.09
  -4 -13  -4   -0.62    0.78
   5 -14  -4    1.45    0.99
   4 -14  -4    1.34    0.91
   4 -14  -4    1.24    0.74
   3 -14  -4    0.79    0.72
   3 -14  -4    0.51    0.78
   2 -14  -4    7.66    1.23
   2 -14  -4    8.08    1.23
   1 -14  -4   -0.18    0.60
   1 -14  -4   -0.39    0.55
   0 -14  -4    3.00    0.95
  -1 -14  -4    0.25    0.68
  -2 -14  -4    0.79    0.79
  -3 -14  -4    2.93    1.04
   4 -15  -4    1.02    0.95
   3 -15  -4    0.91    0.77
   3 -15  -4    0.62    0.82
   2 -15  -4    3.04    0.98
   2 -15  -4    3.30    0.91
   1 -15  -4    0.54    0.68
   0 -15  -4    2.95    0.96
  -1 -15  -4    0.49    0.74
  -2 -15  -4    1.61    0.94
   4 -16  -4    0.02    0.88
   3 -16  -4    0.66    0.78
   3 -16  -4    0.61    0.83
   2 -16  -4    0.30    0.74
   2 -16  -4   -0.27    0.79
   1 -16  -4   -0.23    0.64
   0 -16  -4    2.48    0.94
  -1 -16  -4    0.19    0.75
   3 -17  -4    1.05    0.89
   3 -17  -4    0.50    0.85
   2 -17  -4   -0.35    0.80
   0 -20   5   -0.02    0.76
  -1 -19   5    2.39    1.02
   0 -19   5    0.86    0.80
   1 -19   5   -0.13    0.68
   3 -19   5    1.56    1.11
  -3 -18   5    0.11    0.85
  -2 -18   5    2.49    1.03
  -1 -18   5    1.22    0.82
   0 -18   5    0.50    0.74
   1 -18   5    0.06    0.60
   2 -18   5    0.22    0.78
   3 -18   5    0.73    0.92
   4 -18   5    1.52    1.13
  -4 -17   5    3.08    1.05
  -3 -17   5    0.08    0.73
  -2 -17   5    0.35    0.72
  -1 -17   5    1.51    0.83
   0 -17   5    0.93    0.72
   1 -17   5    0.32    0.64
   2 -17   5   -0.11    0.72
   3 -17   5    4.16    1.19
   4 -17   5    0.49    1.01
   5  16  -5   -0.19    0.68
   4  16  -5    4.34    1.03
  -4 -16   5    3.56    1.03
  -3 -16   5    3.39    0.99
  -2 -16   5    1.15    0.77
  -1 -16   5    0.33    0.64
   0 -16   5    2.36    0.81
   1 -16   5    1.26    0.74
   1 -16   5    2.22    0.79
   2 -16   5    0.52    0.70
   3 -16   5    3.43    1.08
   4 -16   5    0.83    0.93
   5 -16   5    0.20    0.94
   6  15  -5   -0.04    0.79
   5  15  -5    1.10    0.79
  -5 -15   5    0.85    0.80
   4  15  -5    4.85    1.01
  -4 -15   5    5.37    1.14
   3  15  -5   -0.32    0.52
  -3 -15   5    0.58    0.64
   2  15  -5    3.41    0.78
  -2 -15   5    2.56    0.81
  -1 -15   5   -0.19    0.54
   0 -15   5    0.36    0.60
   1 -15   5    1.49    0.67
   1 -15   5    1.93    0.78
   2 -15   5   -0.69    0.55
   3 -15   5    0.34    0.75
   4 -15   5   -0.02    0.80
   5 -15   5   -0.04    0.84
   6  14  -5    0.23    0.75
  -6 -14   5    1.09    0.84
   5  14  -5    1.18    0.72
  -5 -14   5    0.11    0.66
   4  14  -5    7.14    1.17
  -4 -14   5    5.59    1.10
   3  14  -5    1.68    0.71
  -3 -14   5    1.79    0.72
   2  14  -5   19.00    1.39
  -2 -14   5   19.73    1.73
   1  14  -5    1.28    0.57
  -1 -14   5    1.10    0.63
   0  14  -5   12.70    1.21
   0 -14   5   10.63    1.23
   0 -14   5   12.99    1.27
   1 -14   5    1.19    0.65
   1 -14   5    1.64    0.66
   2 -14   5   12.45    1.22
   2 -14   5   10.76    1.35
   3 -14   5    0.29    0.68
   4 -14   5    0.85    0.81
   5 -14   5    0.30    0.85
   6 -14   5    0.55    0.99
  -7 -13   5    1.27    0.87
   6  13  -5   -0.66    0.61
  -6 -13   5   -0.04    0.68
   5  13  -5    7.27    1.24
  -5 -13   5    7.22    1.22
   4  13  -5    0.58    0.57
  -4 -13   5   -0.07    0.52
   3  13  -5   10.37    1.25
  -3 -13   5    9.04    1.18
   2  13  -5    6.10    0.93
  -2 -13   5    5.79    0.95
   1  13  -5   12.37    1.21
  -1 -13   5   11.37    1.24
   0  13  -5    1.69    0.59
   0 -13   5    2.64    0.72
   0 -13   5    2.42    0.67
  -1  13  -5   -0.38    0.48
   1 -13   5   -0.02    0.51
   1 -13   5   -0.52    0.47
  -2  13  -5    5.45    0.84
   2 -13   5    4.44    0.93
   2 -13   5    5.78    0.87
   3 -13   5   -0.07    0.63
   4 -13   5    0.23    0.72
   5 -13   5    0.75    0.83
   6 -13   5    0.86    0.93
   7  12  -5    1.74    1.02
  -7 -12   5    1.56    0.88
   6  12  -5    0.89    0.79
   5  12  -5    0.86    0.69
  -5 -12   5    1.17    0.68
   4  12  -5    0.82    0.60
  -4 -12   5    0.92    0.59
   3  12  -5    3.96    0.85
  -3 -12   5    5.57    0.92
   2  12  -5    8.23    1.01
  -2 -12   5    9.14    1.08
   1  12  -5    0.18    0.48
  -1 -12   5   -0.15    0.43
  -1 -12   5   -0.03    0.39
   0  12  -5    4.55    0.78
   0 -12   5    5.85    0.83
   0 -12   5    6.74    0.93
  -1  12  -5    5.64    0.82
   1 -12   5    5.61    0.93
   1 -12   5    5.50    0.85
  -2  12  -5    9.25    1.05
   2 -12   5   12.70    1.36
   2 -12   5   10.37    1.05
  -3  12  -5    7.28    1.00
   3 -12   5    7.67    1.19
  -4  12  -5    1.83    0.73
   4 -12   5    1.52    0.81
   5 -12   5    0.24    0.76
   6 -12   5   -0.69    0.78
   7  11  -5    1.28    0.89
  -7 -11   5    1.21    0.77
   6  11  -5    6.03    1.22
  -6 -11   5    3.50    0.89
   5  11  -5    8.57    1.28
  -5 -11   5    9.93    1.23
   4  11  -5    0.43    0.56
  -4 -11   5   -0.06    0.46
   3  11  -5    7.90    1.07
  -3 -11   5    7.77    1.04
   2  11  -5   19.14    1.27
  -2 -11   5   15.76    1.37
   1  11  -5    2.80    0.63
  -1 -11   5    2.74    0.62
  -1 -11   5    4.01    0.61
   0  11  -5   30.01    1.57
   0 -11   5   31.27    1.53
   0 -11   5   31.92    1.59
  -1  11  -5    2.47    0.61
   1 -11   5    2.76    0.67
  -2  11  -5    4.72    0.79
   2 -11   5    5.50    0.78
   2 -11   5    5.25    0.93
  -3  11  -5    3.59    0.79
   3 -11   5    2.77    0.85
  -4  11  -5    4.23    0.86
   4 -11   5    3.81    0.99
  -5  11  -5    1.38    0.75
   5 -11   5    1.67    0.82
   6 -11   5    2.60    0.93
   7 -11   5    1.26    1.05
   7  10  -5    0.27    0.83
  -7 -10   5    0.33    0.65
   6  10  -5   12.28    1.61
  -6 -10   5   10.62    1.32
   5  10  -5    2.41    0.77
  -5 -10   5    2.95    0.80
   4  10  -5    1.71    0.66
  -4 -10   5    0.38    0.50
   3  10  -5   18.05    1.33
  -3 -10   5   18.14    1.27
   2  10  -5    7.34    0.93
  -2 -10   5   10.28    1.07
   1  10  -5    0.00    0.40
  -1 -10   5    0.24    0.40
  -1 -10   5    0.32    0.33
   0  10  -5   36.39    1.70
   0 -10   5   37.53    1.68
   0 -10   5   38.51    1.66
  -1  10  -5    0.57    0.46
   1 -10   5    0.59    0.32
   1 -10   5    0.68    0.50
  -2  10  -5    3.69    0.71
   2 -10   5    2.45    0.70
   2 -10   5    3.54    0.60
  -3  10  -5   -0.10    0.49
   3 -10   5   -0.28    0.51
  -4  10  -5    3.88    0.83
   4 -10   5    4.04    0.95
  -5  10  -5    0.40    0.64
   5 -10   5    1.42    0.79
  -6  10  -5    0.56    0.73
   6 -10   5    0.18    0.82
  -7  10  -5    0.86    0.88
   7 -10   5    0.13    0.86
   7   9  -5    0.36    0.83
  -7  -9   5   -0.19    0.56
   6   9  -5    9.07    1.39
  -6  -9   5   11.09    1.26
   5   9  -5    7.20    1.14
  -5  -9   5    8.33    1.08
   4   9  -5   14.95    1.44
  -4  -9   5   12.03    1.24
   3   9  -5    7.64    1.01
  -3  -9   5    8.29    0.98
   2   9  -5   22.20    1.32
  -2  -9   5   21.98    0.94
  -2  -9   5   22.30    1.30
   1   9  -5   36.37    1.66
  -1  -9   5   33.97    1.57
  -1  -9   5   34.89    1.42
   0   9  -5   55.47    2.15
   0  -9   5   58.01    2.09
   0  -9   5   55.59    2.09
  -1   9  -5    0.29    0.44
   1  -9   5    1.08    0.38
   1  -9   5    0.45    0.43
  -2   9  -5   26.56    1.46
   2  -9   5   28.95    1.62
   2  -9   5   29.02    1.27
  -3   9  -5    0.75    0.56
   3  -9   5   -0.62    0.49
  -4   9  -5   20.42    1.42
   4  -9   5   22.23    1.65
  -5   9  -5   -0.69    0.54
   5  -9   5    1.09    0.73
  -6   9  -5    1.91    0.79
   6  -9   5    1.68    0.81
  -7   9  -5    1.60    0.91
   7  -9   5    0.16    0.90
  -8   9  -5    1.11    0.98
   8   8  -5    3.26    1.19
   7   8  -5    2.99    1.08
  -7  -8   5    3.53    0.84
   6   8  -5   19.17    1.92
  -6  -8   5   19.08    1.40
   5   8  -5    2.88    0.82
  -5  -8   5    4.68    0.82
   4   8  -5   10.95    1.23
  -4  -8   5   10.24    1.10
   3   8  -5    9.85    1.08
  -3  -8   5    9.87    1.04
   2   8  -5   12.28    1.11
  -2  -8   5   11.43    0.66
  -2  -8   5   11.60    1.05
   1   8  -5   35.69    1.63
  -1  -8   5   36.28    1.41
  -1  -8   5   37.84    1.60
   0   8  -5    1.95    0.49
   0  -8   5    0.53    0.33
   0  -8   5    1.29    0.43
   1  -8   5    6.14    0.78
   1  -8   5    4.87    0.58
  -2   8  -5    3.12    0.63
   2  -8   5    3.26    0.48
   2  -8   5    2.05    0.62
  -3   8  -5    1.83    0.61
  -4   8  -5   12.33    1.29
   4  -8   5   12.65    1.42
  -5   8  -5    1.58    0.70
   5  -8   5    1.35    0.74
  -6   8  -5    5.93    1.11
  -7   8  -5   -0.37    0.73
   7  -8   5   -0.55    0.83
  -8   8  -5    0.96    0.96
   8  -8   5   -0.16    1.02
   8   7  -5    0.68    0.84
   7   7  -5    4.17    1.13
  -7  -7   5    1.80    0.67
   6   7  -5    0.56    0.59
  -6  -7   5    0.68    0.55
   5   7  -5    0.59    0.56
  -5  -7   5    2.44    0.66
   4   7  -5   16.31    1.27
  -4  -7   5   16.42    1.16
   3   7  -5   24.00    1.39
  -3  -7   5   20.74    1.25
   2   7  -5   46.05    1.97
  -2  -7   5   48.45    1.55
  -2  -7   5   49.42    1.92
   1   7  -5    2.98    0.57
  -1  -7   5    2.99    0.45
  -1  -7   5    2.27    0.46
   0   7  -5    0.76    0.38
   0  -7   5    0.50    0.35
   0  -7   5    0.44    0.28
  -1   7  -5    0.79    0.39
   1  -7   5    0.12    0.25
   1  -7   5    0.06    0.37
  -2   7  -5    1.66    0.55
   2  -7   5    1.62    0.56
   2  -7   5    2.02    0.33
  -3   7  -5   11.70    1.13
   3  -7   5   11.69    1.23
  -4   7  -5   26.17    1.57
   4  -7   5   23.27    1.62
  -5   7  -5    1.00    0.63
   5  -7   5    0.53    0.68
  -6   7  -5    6.89    1.14
   6  -7   5    3.77    0.95
  -7   7  -5   -0.28    0.67
   7  -7   5    0.11    0.86
  -8   7  -5    0.21    0.83
   8  -7   5    0.71    1.02
   8   6  -5    1.25    0.97
   7   6  -5    0.85    0.70
  -7  -6   5    0.24    0.49
   6   6  -5    1.98    0.75
  -6  -6   5    2.16    0.65
   5   6  -5   -0.20    0.46
  -5  -6   5    1.23    0.54
   4   6  -5    8.99    1.07
  -4  -6   5    8.11    0.92
   3   6  -5    4.88    0.78
  -3  -6   5    5.38    0.74
  -3  -6   5    4.92    0.42
   2   6  -5   26.93    1.39
  -2  -6   5   29.07    1.36
  -2  -6   5   30.36    1.10
   1   6  -5   69.57    2.39
  -1  -6   5   67.45    2.26
  -1  -6   5   67.72    2.16
   0   6  -5    0.86    0.38
   0  -6   5    0.81    0.31
   0  -6   5    0.53    0.35
  -1   6  -5   25.01    1.23
   1  -6   5   24.82    1.00
   1  -6   5   23.04    1.25
  -2   6  -5   28.15    1.39
   2  -6   5   26.22    1.46
   2  -6   5   30.23    1.02
  -3   6  -5   12.86    1.19
   3  -6   5   11.36    1.21
  -4   6  -5    6.56    0.98
   4  -6   5    4.73    0.92
  -5   6  -5    4.55    0.90
   5  -6   5    4.99    0.98
  -6   6  -5    5.09    0.99
   6  -6   5    2.84    0.83
  -7   6  -5    0.31    0.70
   7  -6   5    0.40    0.89
  -8   6  -5    2.11    0.97
   8  -6   5    0.02    0.98
   8   5  -5   -0.65    0.67
   7   5  -5    0.31    0.66
  -7  -5   5    0.33    0.50
   6   5  -5   18.64    1.80
  -6  -5   5   21.24    1.37
   5   5  -5    4.47    0.87
  -5  -5   5    3.35    0.69
   4   5  -5   39.21    1.89
  -4  -5   5   37.12    1.69
   3   5  -5    3.67    0.64
  -3  -5   5    3.87    0.43
   2   5  -5   77.01    2.65
   2   5  -5   79.05    2.52
  -2  -5   5   77.79    2.31
   1   5  -5    5.49    0.67
   1   5  -5    7.48    0.67
  -1  -5   5    5.08    0.55
   0   5  -5    0.67    0.35
   0   5  -5    2.35    0.39
   0  -5   5    1.95    0.43
  -1   5  -5    0.30    0.33
   1  -5   5    0.24    0.35
  -2   5  -5   21.48    1.20
   2  -5   5   22.25    1.28
   2  -5   5   22.72    0.80
  -3   5  -5   11.40    1.13
   3  -5   5   12.55    1.19
  -4   5  -5    9.09    1.08
   4  -5   5    9.32    1.18
  -5   5  -5    2.77    0.76
   5  -5   5    2.19    0.76
  -6   5  -5    1.28    0.72
   6  -5   5    0.55    0.75
  -7   5  -5    0.84    0.76
   7  -5   5    0.72    0.88
  -8   5  -5   -0.22    0.81
   8   4  -5   -0.13    0.74
   7   4  -5    4.71    1.07
   6   4  -5    2.02    0.74
  -6  -4   5    2.90    0.68
   5   4  -5   11.87    1.30
  -5  -4   5   13.11    1.18
   4   4  -5   26.39    1.32
   4   4  -5   25.27    1.07
   4   4  -5   24.43    1.44
   3   4  -5    2.93    0.59
   3   4  -5    2.79    0.51
   2   4  -5   68.76    2.41
   2   4  -5   70.91    2.28
  -2  -4   5   70.88    2.17
   1   4  -5   22.06    1.09
   1   4  -5   22.41    1.01
  -1  -4   5   21.16    0.98
   0   4  -5   77.69    2.46
   0   4  -5   75.80    2.24
   0  -4   5   74.94    2.44
  -1   4  -5    3.63    0.39
  -1   4  -5    4.67    0.61
   1  -4   5    4.41    0.61
  -2   4  -5    1.41    0.46
  -2   4  -5    1.11    0.22
   2  -4   5    0.93    0.46
  -3   4  -5   55.14    2.23
   3  -4   5   57.73    2.31
  -4   4  -5    2.81    0.72
   4  -4   5    3.17    0.76
  -5   4  -5    2.65    0.78
   5  -4   5    1.79    0.75
  -6   4  -5   -0.21    0.54
   6  -4   5    0.38    0.65
  -7   4  -5    0.15    0.70
   7  -4   5    0.29    0.83
  -8   4  -5    0.68    0.93
   9   3  -5   -0.31    0.88
   8   3  -5   -0.11    0.75
   7   3  -5    3.41    0.99
   6   3  -5    1.53    0.72
  -6  -3   5    2.09    0.61
   5   3  -5   14.23    0.93
   5   3  -5   16.71    1.09
   5   3  -5   17.65    1.31
   4   3  -5   21.52    1.04
   4   3  -5   20.47    1.30
   4   3  -5   20.50    1.16
   3   3  -5    6.92    0.78
   3   3  -5    8.02    0.60
   3   3  -5    9.51    0.82
   2   3  -5    7.27    0.72
   2   3  -5    5.29    0.58
  -2  -3   5    5.51    0.56
   1   3  -5  363.91    9.46
   1   3  -5  362.57    9.09
  -1  -3   5  368.29    9.49
   0   3  -5    8.83    0.60
   0   3  -5    9.77    0.69
   0  -3   5   11.97    0.82
  -1   3  -5   65.04    2.16
  -1   3  -5   64.19    1.83
   1  -3   5   60.50    2.21
  -2   3  -5   92.93    2.99
  -2   3  -5   90.41    2.36
   2  -3   5   86.59    2.97
  -3   3  -5    3.45    0.66
   3  -3   5    3.20    0.68
  -4   3  -5    2.39    0.66
   4  -3   5    2.90    0.71
  -5   3  -5    4.05    0.86
   5  -3   5    3.34    0.83
  -6   3  -5    1.23    0.66
   6  -3   5   -0.20    0.64
  -7   3  -5    1.22    0.80
   7  -3   5    0.53    0.79
  -8   3  -5   -0.16    0.80
   9   2  -5   -0.36    0.89
   8   2  -5    0.37    0.82
   7   2  -5    4.53    1.02
   6   2  -5    0.90    0.61
   6   2  -5    1.02    0.49
   5   2  -5   22.37    1.43
   5   2  -5   23.25    1.24
   4   2  -5    6.71    0.72
   4   2  -5    4.95    0.76
   4   2  -5    5.14    0.66
   3   2  -5    0.74    0.34
   3   2  -5    0.30    0.32
   3   2  -5    0.60    0.30
   2   2  -5    5.30    0.58
   2   2  -5    5.63    0.64
   1   2  -5  543.12   13.71
   1   2  -5  539.69   13.25
  -1  -2   5  545.73   13.90
   0   2  -5  621.20   15.19
   0   2  -5  631.43   15.80
   0  -2   5  635.11   16.09
  -1   2  -5    0.74    0.35
  -1   2  -5    0.88    0.23
   1  -2   5    0.64    0.38
  -2   2  -5  145.59    3.74
  -2   2  -5  141.73    4.33
   2  -2   5  153.53    4.44
  -3   2  -5    5.33    0.78
  -3   2  -5    6.64    0.41
   3  -2   5    6.87    0.88
  -4   2  -5    1.11    0.53
   4  -2   5    0.74    0.57
  -5   2  -5    1.32    0.67
   5  -2   5    1.54    0.69
  -6   2  -5    0.02    0.52
   6  -2   5    0.00    0.61
  -7   2  -5    1.46    0.83
  -8   2  -5    1.08    0.93
   9   1  -5    0.54    0.96
   8   1  -5    2.21    0.94
   7   1  -5    1.09    0.69
   6   1  -5    3.62    0.76
   6   1  -5    3.47    0.83
   6   1  -5    2.32    0.59
   5   1  -5    4.50    0.74
   5   1  -5    3.37    0.69
   5   1  -5    2.18    0.47
   4   1  -5    3.58    0.57
   4   1  -5    3.64    0.60
   4   1  -5    5.48    0.76
   3   1  -5   12.27    0.85
   3   1  -5   13.03    0.83
   2   1  -5   25.31    1.14
   2   1  -5   24.57    1.12
   2   1  -5   25.54    1.11
   1   1  -5    7.02    0.61
   1   1  -5    6.85    0.61
  -1  -1   5    7.29    0.69
   0   1  -5    2.94    0.46
   0   1  -5    3.31    0.43
   0  -1   5    3.30    0.51
  -1   1  -5    3.89    0.55
  -1   1  -5    4.20    0.44
   1  -1   5    3.81    0.58
  -2   1  -5  177.53    5.02
  -2   1  -5  168.98    4.41
   2  -1   5  170.26    5.04
  -3   1  -5   14.25    0.71
  -3   1  -5   14.27    1.07
   3  -1   5   13.88    1.04
  -4   1  -5    2.31    0.68
   4  -1   5    3.49    0.78
  -5   1  -5    5.44    0.99
  -6   1  -5   -0.55    0.52
   6  -1   5    0.15    0.65
  -7   1  -5    2.27    0.92
   9   0  -5   -0.48    0.92
   8   0  -5    3.10    0.97
   7   0  -5    2.21    0.81
   6   0  -5    1.37    0.64
   6   0  -5    0.65    0.42
   6   0  -5    1.10    0.65
   5   0  -5   14.64    1.12
   5   0  -5   12.75    1.02
   5   0  -5   15.26    0.98
   4   0  -5   38.27    1.58
   4   0  -5   37.68    1.66
   4   0  -5   38.76    1.71
   3   0  -5   43.29    1.57
   3   0  -5   44.54    1.68
   3   0  -5   31.38    1.46
   2   0  -5   20.64    0.99
   2   0  -5   21.56    1.08
   1   0  -5    7.06    0.70
   1   0  -5    7.68    0.66
   0   0  -5   10.77    0.66
   0   0  -5   10.72    0.67
   0   0   5   11.71    0.82
  -1   0  -5    4.23    0.57
  -1   0  -5    5.02    0.50
   1   0   5    4.01    0.60
  -2   0  -5   25.61    1.02
  -2   0  -5   23.88    1.25
   2   0   5   24.30    1.31
  -3   0  -5   16.15    1.14
  -3   0  -5   15.50    0.82
   3   0   5   17.09    1.13
  -4   0  -5    5.44    0.90
  -5   0  -5   25.76    1.77
   5   0   5   27.39    1.65
  -6   0  -5    6.11    1.13
  -7   0  -5    3.71    1.09
   8  -1  -5    2.86    0.97
   7  -1  -5    0.89    0.70
   7  -1  -5    1.20    0.71
   6  -1  -5   13.61    1.34
   6  -1  -5   10.49    0.98
   5  -1  -5   17.82    1.23
   5  -1  -5   20.37    1.15
   5  -1  -5   19.64    1.35
   4  -1  -5    2.26    0.48
   4  -1  -5    2.11    0.60
   3  -1  -5   42.72    1.82
   3  -1  -5   47.28    1.68
   3  -1  -5   44.47    1.68
   2  -1  -5    3.57    0.45
   2  -1  -5    3.39    0.48
   2  -1  -5    2.80    0.53
   1  -1  -5   16.46    0.76
   1  -1  -5   17.98    0.91
   1  -1  -5   16.47    0.94
   0  -1  -5   45.55    1.51
   0  -1  -5   44.34    1.56
   0   1   5   44.72    1.73
  -1  -1  -5    7.28    0.63
  -1  -1  -5    6.48    0.66
   1   1   5    6.10    0.72
  -2  -1  -5   47.32    1.94
  -2  -1  -5   52.56    1.73
   2   1   5   49.59    1.95
  -3  -1  -5    8.40    0.96
  -3  -1  -5    9.62    0.76
   3   1   5    4.82    0.71
  -4  -1  -5    8.12    0.75
  -4  -1  -5    7.12    1.03
   4   1   5    6.84    0.96
  -5  -1  -5   24.63    1.75
   5   1   5   26.91    1.61
  -6  -1  -5   27.20    1.98
  -7  -1  -5    4.36    1.16
  -9   2   5    0.91    0.84
   8  -2  -5    0.66    0.77
   7  -2  -5    3.05    0.83
   7  -2  -5    3.02    0.91
   6  -2  -5   23.76    1.26
   6  -2  -5   15.76    1.26
   6  -2  -5   23.73    1.62
   5  -2  -5   16.84    1.13
   5  -2  -5   15.10    1.43
   5  -2  -5   15.23    1.03
   4  -2  -5    1.97    0.47
   4  -2  -5    2.33    0.46
   4  -2  -5    2.90    0.70
   3  -2  -5   94.26    2.86
   3  -2  -5   98.61    3.24
   3  -2  -5   91.75    2.90
   2  -2  -5    0.15    0.26
   2  -2  -5    0.71    0.26
   2  -2  -5    0.33    0.38
   1  -2  -5   31.84    1.31
   1  -2  -5   32.62    1.44
   1  -2  -5   31.99    1.11
   0  -2  -5   25.71    1.14
   0  -2  -5   27.80    1.06
   0   2   5   24.91    1.26
  -1  -2  -5   61.71    2.07
   1   2   5   62.87    2.25
  -2  -2  -5   48.94    1.97
  -2  -2  -5   49.63    1.78
  -3  -2  -5    1.52    0.47
  -3  -2  -5    1.66    0.53
   3   2   5    2.00    0.60
  -4  -2  -5   14.46    0.99
  -4  -2  -5   14.31    1.42
   4   2   5   14.62    1.31
  -5  -2  -5    0.35    0.53
  -6  -2  -5    2.09    0.84
  -7  -2  -5    3.85    1.12
   7  -3  -5    3.02    0.96
   6  -3  -5    6.27    1.12
   6  -3  -5    5.90    0.93
   5  -3  -5    2.37    0.58
   5  -3  -5    1.89    0.50
   5  -3  -5    2.07    0.76
   4  -3  -5    3.54    0.78
   4  -3  -5    2.83    0.51
   4  -3  -5    5.25    0.65
   3  -3  -5   97.32    3.03
   3  -3  -5   98.46    2.84
   3  -3  -5   95.98    3.33
   2  -3  -5   38.99    1.29
   2  -3  -5   39.88    1.58
   2  -3  -5   40.69    1.75
   1  -3  -5   27.50    1.28
   1  -3  -5   28.76    1.00
   1  -3  -5   31.48    1.42
   0  -3  -5   47.14    1.80
   0  -3  -5   43.91    1.51
   0  -3  -5   44.78    1.69
  -1  -3  -5   -0.03    0.28
  -1  -3  -5    0.17    0.28
   1   3   5    0.29    0.35
  -2  -3  -5   24.63    1.23
  -2  -3  -5   24.00    1.27
   2   3   5   21.65    1.25
  -3  -3  -5   21.49    1.36
  -3  -3  -5   21.87    1.23
   3   3   5   23.25    1.31
  -4  -3  -5   10.51    1.01
  -4  -3  -5    8.42    1.12
   4   3   5   13.16    1.21
  -5  -3  -5    1.62    0.67
  -6  -3  -5    1.05    0.71
  -7  -3  -5    2.51    1.01
   8  -4  -5    0.70    0.87
   7  -4  -5    2.80    0.95
   6  -4  -5   19.25    1.79
   6  -4  -5   17.25    1.26
   5  -4  -5    1.64    0.51
   5  -4  -5    2.35    0.76
   5  -4  -5    1.57    0.53
   4  -4  -5    0.90    0.40
   4  -4  -5    1.40    0.39
   4  -4  -5    0.64    0.53
   3  -4  -5   26.53    1.29
   3  -4  -5   26.47    1.02
   3  -4  -5   24.78    1.50
   2  -4  -5    5.44    0.38
   2  -4  -5    6.89    0.77
   2  -4  -5    6.10    0.82
   1  -4  -5   12.51    0.88
   1  -4  -5   12.60    0.94
   1  -4  -5   12.00    0.55
   0  -4  -5   14.38    0.98
   0  -4  -5   16.07    1.00
   0  -4  -5   15.53    0.76
  -1  -4  -5   68.90    2.42
  -1  -4  -5   70.27    2.33
  -2  -4  -5    3.60    0.64
  -2  -4  -5    4.08    0.65
   2   4   5    5.16    0.74
  -3  -4  -5    0.21    0.44
  -3  -4  -5    0.11    0.43
   3   4   5   -0.66    0.42
  -4  -4  -5    0.45    0.48
  -4  -4  -5   -0.29    0.42
  -5  -4  -5    0.60    0.62
  -6  -4  -5    4.24    1.05
  -7  -4  -5    3.91    1.12
   8  -5  -5    0.10    0.85
   7  -5  -5    2.52    0.96
   5  -5  -5    0.04    0.64
   5  -5  -5   -0.20    0.34
   4  -5  -5    7.52    1.08
   4  -5  -5    7.07    0.84
   3  -5  -5   22.54    0.87
   3  -5  -5   21.89    1.24
   3  -5  -5   23.66    1.49
   2  -5  -5   31.57    1.57
   2  -5  -5   27.28    1.41
   1  -5  -5   36.74    1.64
   1  -5  -5   37.19    1.74
   0  -5  -5    0.28    0.40
   0  -5  -5    0.20    0.24
   0  -5  -5    0.08    0.35
  -1  -5  -5   24.75    1.19
  -1  -5  -5   27.36    1.41
  -2  -5  -5    2.54    0.53
  -2  -5  -5    3.34    0.67
   2   5   5    2.49    0.60
  -3  -5  -5   31.29    1.65
  -3  -5  -5   31.12    1.71
   3   5   5   34.04    1.63
  -4  -5  -5    2.29    0.71
  -4  -5  -5    2.37    0.68
  -5  -5  -5    0.41    0.59
  -6  -5  -5    3.02    0.93
  -7  -5  -5    0.90    0.86
   9  -6  -5    0.41    1.13
   8  -6  -5    0.12    0.86
   7  -6  -5    4.35    1.10
   6  -6  -5    1.30    0.79
   5  -6  -5   14.05    1.21
   5  -6  -5   16.26    1.66
   4  -6  -5    9.93    0.98
   4  -6  -5    8.25    1.16
   3  -6  -5   10.24    1.19
   3  -6  -5    8.15    0.91
   2  -6  -5    0.55    0.47
   2  -6  -5    1.59    0.50
   1  -6  -5    1.89    0.61
   1  -6  -5    1.68    0.52
   0  -6  -5    0.18    0.25
   0  -6  -5    0.12    0.37
   0  -6  -5   -0.12    0.39
  -1  -6  -5   17.62    1.24
  -1  -6  -5   18.32    1.01
   1   6   5   19.80    1.23
  -2  -6  -5    2.88    0.69
  -2  -6  -5    1.14    0.46
   2   6   5    1.80    0.60
  -3  -6  -5   19.15    1.36
  -3  -6  -5   18.36    1.33
  -4  -6  -5    3.14    0.80
  -4  -6  -5    3.11    0.76
  -5  -6  -5    7.26    1.19
  -6  -6  -5    2.58    0.95
  -7  -6  -5    0.59    0.81
   8  -7  -5   -0.18    0.92
   7  -7  -5    2.96    1.08
   6  -7  -5    4.16    1.06
   5  -7  -5    0.01    0.66
   5  -7  -5    1.01    0.50
   4  -7  -5    8.02    1.19
   4  -7  -5    7.86    0.91
   3  -7  -5    0.92    0.49
   3  -7  -5    0.59    0.58
   2  -7  -5    1.07    0.51
   2  -7  -5    1.92    0.64
   1  -7  -5   32.82    1.74
   1  -7  -5   34.98    1.76
   0  -7  -5    5.37    0.81
   0  -7  -5    3.35    0.71
  -1  -7  -5    8.28    1.04
  -1  -7  -5   10.69    0.80
   1   7   5   12.48    1.21
  -2  -7  -5    1.24    0.50
  -2  -7  -5    2.32    0.68
   2   7   5    0.83    0.55
  -3  -7  -5    8.84    1.15
  -4  -7  -5    0.52    0.55
  -4  -7  -5    0.81    0.64
  -5  -7  -5    3.37    0.95
  -6  -7  -5    1.52    0.86
   8  -8  -5    1.22    1.10
   7  -8  -5    2.50    1.02
   6  -8  -5    0.99    0.85
   5  -8  -5    0.92    0.79
   5  -8  -5    2.48    0.65
   4  -8  -5    4.75    0.81
   4  -8  -5    5.57    1.05
   3  -8  -5   -0.15    0.43
   3  -8  -5    0.17    0.55
   2  -8  -5    7.79    1.03
   2  -8  -5    7.58    1.03
   1  -8  -5    2.95    0.72
   1  -8  -5    2.79    0.70
   0  -8  -5    8.10    1.01
   0  -8  -5    9.16    1.03
  -1  -8  -5   16.82    1.50
  -2  -8  -5    0.26    0.41
  -2  -8  -5    1.75    0.69
  -3  -8  -5    4.21    0.94
  -3  -8  -5    3.74    0.78
  -4  -8  -5    0.86    0.63
  -4  -8  -5    0.07    0.65
  -6  -8  -5    0.90    0.83
   7  -9  -5    2.31    1.06
   6  -9  -5   -0.11    0.78
   5  -9  -5    2.42    0.67
   5  -9  -5    2.31    0.91
   4  -9  -5    6.96    0.96
   4  -9  -5    5.55    1.09
   3  -9  -5    3.76    0.91
   3  -9  -5    1.52    0.62
   2  -9  -5   17.77    1.34
   2  -9  -5   17.28    1.55
   1  -9  -5    0.93    0.57
   1  -9  -5    1.44    0.64
   0  -9  -5    0.87    0.55
   0  -9  -5    1.78    0.61
  -1  -9  -5   34.92    1.97
  -2  -9  -5    6.25    1.03
  -3  -9  -5   10.78    1.32
  -4  -9  -5    0.79    0.47
  -4  -9  -5    2.37    0.82
  -5  -9  -5    4.18    1.03
  -6  -9  -5    1.15    0.88
   7 -10  -5    1.86    1.07
   6 -10  -5    1.09    0.90
   5 -10  -5    0.53    0.77
   4 -10  -5    2.50    0.90
   4 -10  -5    2.48    0.70
   3 -10  -5    0.22    0.52
   3 -10  -5    0.88    0.67
   2 -10  -5   16.86    1.59
   2 -10  -5   19.96    1.49
   1 -10  -5    1.41    0.62
   1 -10  -5    0.04    0.53
   0 -10  -5   16.90    1.62
   0 -10  -5   22.47    1.42
  -1 -10  -5    1.60    0.70
  -2 -10  -5    5.77    1.09
  -3 -10  -5    0.92    0.76
  -4 -10  -5    0.38    0.71
  -5 -10  -5    6.38    1.27
   7 -11  -5    1.13    1.10
   6 -11  -5    0.95    0.99
   5 -11  -5    3.48    1.10
   4 -11  -5   -0.57    0.50
   4 -11  -5    0.03    0.65
   3 -11  -5    0.79    0.60
   3 -11  -5   -0.24    0.61
   2 -11  -5   11.52    1.38
   2 -11  -5   15.44    1.53
   1 -11  -5    1.07    0.66
   1 -11  -5    1.06    0.63
   0 -11  -5    7.60    1.16
   0 -11  -5   10.60    1.18
  -1 -11  -5    0.13    0.64
  -2 -11  -5    0.16    0.63
  -3 -11  -5    4.71    1.09
  -4 -11  -5    0.45    0.80
  -5 -11  -5    1.15    0.90
   6 -12  -5    2.13    1.06
   5 -12  -5    1.57    0.95
   4 -12  -5   -0.32    0.54
   4 -12  -5    1.00    0.81
   3 -12  -5   12.37    1.53
   3 -12  -5    8.23    1.15
   2 -12  -5    3.95    0.96
   2 -12  -5    3.47    0.88
   1 -12  -5    6.52    1.07
   1 -12  -5    4.44    0.95
   0 -12  -5    1.92    0.77
   0 -12  -5    1.76    0.67
  -1 -12  -5   -0.38    0.63
  -2 -12  -5    1.59    0.81
  -3 -12  -5    0.41    0.78
  -4 -12  -5    0.39    0.82
  -5 -12  -5    2.33    1.04
   5 -13  -5    1.56    0.96
   4 -13  -5   -0.56    0.59
   4 -13  -5    0.12    0.83
   3 -13  -5    2.76    0.79
   3 -13  -5    2.26    0.91
   2 -13  -5   -0.58    0.55
   2 -13  -5   -0.39    0.58
   1 -13  -5    2.38    0.78
   1 -13  -5    0.97    0.70
   0 -13  -5    1.15    0.72
  -1 -13  -5    1.97    0.88
  -2 -13  -5    0.51    0.77
  -3 -13  -5    0.44    0.82
  -4 -13  -5    1.54    1.03
   5 -14  -5   -0.09    0.92
   4 -14  -5   -0.23    0.79
   4 -14  -5   -0.16    0.66
   3 -14  -5    1.66    0.84
   3 -14  -5    2.38    0.93
   2 -14  -5    0.24    0.66
   2 -14  -5    0.21    0.70
   1 -14  -5    3.28    0.92
   1 -14  -5    1.23    0.77
   0 -14  -5    0.54    0.72
  -1 -14  -5   -0.41    0.65
  -2 -14  -5    1.89    0.98
  -3 -14  -5   -0.69    0.80
   4 -15  -5    0.89    0.84
   4 -15  -5    0.42    0.88
   3 -15  -5    0.18    0.70
   3 -15  -5    0.80    0.82
   2 -15  -5   -0.34    0.67
   2 -15  -5   -0.37    0.67
   1 -15  -5    2.45    0.94
   0 -15  -5    0.79    0.84
  -1 -15  -5    4.22    1.19
   3 -16  -5    0.20    0.81
   3 -16  -5    0.84    0.85
   2 -16  -5    1.11    0.86
   1 -16  -5    0.96    0.91
   3 -17  -5    0.02    0.87
   0 -20   6    1.08    0.85
  -2 -19   6    2.40    0.98
  -1 -19   6    0.39    0.79
   0 -19   6    0.94    0.81
   1 -19   6    0.53    0.73
   3 -19   6    0.14    0.94
  -3 -18   6    0.71    0.85
  -2 -18   6    2.10    0.93
  -1 -18   6    0.53    0.77
   0 -18   6    1.69    0.82
   1 -18   6    0.48    0.64
   2 -18   6    0.81    0.87
   3 -18   6    1.17    0.99
   4 -18   6    0.29    1.07
  -4 -17   6    0.79    0.86
  -3 -17   6    5.14    1.20
  -2 -17   6   -0.72    0.61
  -1 -17   6    1.82    0.82
   0 -17   6   -0.14    0.62
   1 -17   6    0.13    0.64
   2 -17   6    1.18    0.78
   3 -17   6    2.06    1.03
   4 -17   6    0.79    0.98
   5  16  -6    2.68    0.93
  -5 -16   6    1.15    0.91
   4  16  -6    0.15    0.63
  -4 -16   6    0.85    0.79
   3  16  -6    7.78    1.18
  -3 -16   6    8.64    1.30
  -2 -16   6   -0.23    0.60
  -1 -16   6    3.08    0.86
   0 -16   6    1.10    0.68
   1 -16   6    0.05    0.62
   1 -16   6    0.81    0.65
   2 -16   6    2.65    0.92
   3 -16   6    1.05    0.84
   4 -16   6   -0.66    0.81
   5 -16   6    2.51    1.15
   6  15  -6    2.15    0.97
   5  15  -6    2.40    0.93
  -5 -15   6    2.52    0.92
   4  15  -6    0.23    0.60
  -4 -15   6   -0.24    0.63
   3  15  -6    9.51    1.27
  -3 -15   6    7.70    1.20
   2  15  -6   -0.08    0.50
  -2 -15   6    0.65    0.63
   1  15  -6    4.99    0.90
  -1 -15   6    4.97    0.94
   0 -15   6    5.57    0.98
   1 -15   6    0.07    0.60
   1 -15   6    0.56    0.67
   2 -15   6    1.21    0.79
   3 -15   6    1.10    0.82
   4 -15   6    1.92    0.99
   5 -15   6    0.04    0.87
   6  14  -6    3.03    1.03
  -6 -14   6    3.10    1.02
   5  14  -6    0.81    0.68
  -5 -14   6    1.14    0.71
   4  14  -6    4.77    1.00
  -4 -14   6    4.52    1.01
   3  14  -6    3.40    0.83
  -3 -14   6    3.59    0.88
   2  14  -6    2.83    0.74
  -2 -14   6    2.06    0.70
   1  14  -6   18.57    1.36
  -1 -14   6   18.71    1.42
   0  14  -6    0.41    0.54
   0 -14   6    0.71    0.57
   0 -14   6    0.22    0.55
  -1  14  -6    3.06    0.77
   1 -14   6    3.74    0.83
   1 -14   6    4.16    0.86
   2 -14   6   16.19    1.60
   3 -14   6    0.67    0.77
   4 -14   6   -0.01    0.73
   5 -14   6   -0.26    0.75
   6 -14   6   -1.02    0.84
  -7 -13   6   -0.19    0.78
   6  13  -6    2.64    0.96
  -6 -13   6    3.25    0.92
   5  13  -6   -0.21    0.56
  -5 -13   6    0.17    0.65
   4  13  -6    0.59    0.63
  -4 -13   6   -0.13    0.51
   3  13  -6    0.69    0.56
  -3 -13   6    2.00    0.66
   2  13  -6   -0.28    0.44
  -2 -13   6    0.06    0.47
   1  13  -6   16.03    1.24
  -1 -13   6   12.72    1.26
   0  13  -6   -0.51    0.44
   0 -13   6    0.01    0.43
   0 -13   6   -0.29    0.46
  -1  13  -6    6.44    0.92
   1 -13   6    7.62    1.10
  -2  13  -6    0.58    0.59
   2 -13   6    0.98    0.71
   2 -13   6    1.22    0.59
  -3  13  -6    6.51    1.04
   3 -13   6    6.06    1.17
   4 -13   6   -0.08    0.70
   5 -13   6   -0.44    0.71
   6 -13   6   -0.29    0.86
   7  12  -6    1.15    0.85
  -7 -12   6   -0.19    0.66
   6  12  -6    5.25    1.15
  -6 -12   6    6.74    1.16
   5  12  -6    1.69    0.77
  -5 -12   6    1.48    0.71
   4  12  -6    0.99    0.62
  -4 -12   6    1.53    0.65
   3  12  -6    2.35    0.71
  -3 -12   6    2.40    0.69
   2  12  -6    1.61    0.61
  -2 -12   6    0.54    0.51
   1  12  -6   40.36    1.98
  -1 -12   6   41.03    1.77
  -1 -12   6   40.16    1.92
   0  12  -6    2.02    0.65
   0 -12   6    3.14    0.68
   0 -12   6    1.69    0.59
  -1  12  -6    1.72    0.61
   1 -12   6    0.73    0.34
   1 -12   6    1.59    0.66
  -2  12  -6    1.09    0.61
   2 -12   6    0.71    0.66
   2 -12   6    2.09    0.59
  -3  12  -6    0.50    0.62
   3 -12   6    0.92    0.71
  -4  12  -6    1.76    0.77
   4 -12   6    2.46    0.91
  -5  12  -6   -1.12    0.61
   5 -12   6   -0.08    0.71
   6 -12   6    1.53    0.87
   7  11  -6    2.03    1.01
  -7 -11   6    3.03    0.89
   6  11  -6   12.96    1.61
  -6 -11   6   10.93    1.38
   5  11  -6    0.03    0.55
  -5 -11   6    0.73    0.58
   4  11  -6    5.15    0.97
  -4 -11   6    2.90    0.74
   3  11  -6    0.63    0.52
  -3 -11   6   -0.65    0.38
   2  11  -6    4.80    0.84
  -2 -11   6    3.64    0.74
   1  11  -6   10.55    1.13
  -1 -11   6    9.28    1.02
  -1 -11   6   11.56    0.97
   0  11  -6    0.15    0.47
   0 -11   6   -0.02    0.39
   0 -11   6   -0.08    0.44
  -1  11  -6    7.15    0.93
   1 -11   6    8.83    1.05
   1 -11   6    9.12    0.90
  -2  11  -6   -0.38    0.48
   2 -11   6   -0.53    0.49
   2 -11   6    1.14    0.49
  -3  11  -6    7.71    1.05
   3 -11   6    7.35    1.16
  -4  11  -6    5.48    0.99
   4 -11   6    7.10    1.19
  -5  11  -6    2.52    0.84
   5 -11   6    1.76    0.92
  -6  11  -6    0.01    0.70
   6 -11   6    0.92    0.93
   7 -11   6   -0.07    0.92
   7  10  -6    0.74    0.84
  -7 -10   6    0.50    0.71
   6  10  -6    3.26    0.96
  -6 -10   6    4.31    0.93
   5  10  -6    5.31    1.06
  -5 -10   6    3.85    0.82
   4  10  -6    2.16    0.71
  -4 -10   6    1.88    0.65
   3  10  -6   -0.26    0.41
  -3 -10   6   -0.12    0.40
   2  10  -6    9.94    1.11
  -2 -10   6   10.62    0.74
  -2 -10   6   10.25    1.08
   1  10  -6   21.00    1.31
  -1 -10   6   19.41    1.22
  -1 -10   6   19.22    1.11
   0  10  -6    1.35    0.53
   0 -10   6    1.82    0.53
   0 -10   6    1.85    0.55
  -1  10  -6   -0.93    0.37
   1 -10   6   -0.25    0.43
   1 -10   6    0.64    0.38
  -2  10  -6    3.68    0.75
   2 -10   6    2.69    0.52
   2 -10   6    4.13    0.83
  -3  10  -6    6.25    0.96
   3 -10   6    9.48    1.21
  -4  10  -6    4.21    0.91
   4 -10   6    6.15    1.10
  -5  10  -6    2.05    0.81
   5 -10   6    1.77    0.86
  -6  10  -6    1.87    0.85
   6 -10   6    1.17    0.95
  -7  10  -6    0.68    0.91
   7 -10   6   -0.93    0.87
   7   9  -6    0.45    0.79
  -7  -9   6    1.18    0.69
   6   9  -6   13.61    1.64
  -6  -9   6   10.91    1.29
   5   9  -6    3.80    0.92
  -5  -9   6    2.30    0.69
   4   9  -6    5.85    0.99
  -4  -9   6    4.52    0.81
   3   9  -6   16.49    1.26
  -3  -9   6   15.33    1.34
   2   9  -6   17.91    1.26
  -2  -9   6   20.72    1.26
  -2  -9   6   19.81    0.96
   1   9  -6    8.30    0.95
  -1  -9   6    6.76    0.80
  -1  -9   6    7.67    0.76
   0   9  -6    1.82    0.56
   0  -9   6    1.11    0.47
   0  -9   6    0.94    0.41
  -1   9  -6    5.91    0.80
   1  -9   6    6.30    0.69
   1  -9   6    5.37    0.82
  -2   9  -6    0.78    0.53
   2  -9   6   -0.78    0.42
   2  -9   6   -0.39    0.26
  -3   9  -6    8.42    1.04
   3  -9   6    8.41    1.15
  -4   9  -6    5.46    0.95
   4  -9   6    6.06    1.08
  -5   9  -6    2.56    0.83
   5  -9   6    3.16    0.92
  -6   9  -6   -0.18    0.68
   6  -9   6    0.52    0.85
  -7   9  -6    0.21    0.82
   7  -9   6    0.32    0.91
   8   8  -6   -0.90    0.73
   7   8  -6    5.45    1.26
  -7  -8   6    4.94    0.96
   6   8  -6    0.09    0.60
  -6  -8   6   -0.28    0.46
   5   8  -6    5.29    0.98
  -5  -8   6    8.47    1.06
   4   8  -6   11.12    1.30
  -4  -8   6   12.33    1.23
   3   8  -6    7.22    0.97
  -3  -8   6    7.61    0.92
   2   8  -6   84.70    3.02
  -2  -8   6   82.11    2.53
  -2  -8   6   85.24    2.90
   1   8  -6    2.02    0.54
  -1  -8   6    2.35    0.48
  -1  -8   6    2.37    0.52
   0   8  -6   19.44    1.15
   0  -8   6   16.99    1.00
   0  -8   6   17.23    1.07
  -1   8  -6    6.62    0.82
   1  -8   6    7.83    0.92
   1  -8   6    7.42    0.70
  -2   8  -6    0.21    0.46
   2  -8   6    0.70    0.29
   2  -8   6    0.79    0.52
  -3   8  -6   27.37    1.57
   3  -8   6   29.11    1.72
  -4   8  -6    3.09    0.79
   4  -8   6    4.53    0.97
  -5   8  -6    1.21    0.72
   5  -8   6    0.78    0.73
  -6   8  -6    1.79    0.85
   6  -8   6    0.83    0.80
  -7   8  -6   -0.65    0.72
   7  -8   6    0.87    0.98
   8  -8   6    0.75    1.11
   8   7  -6    1.33    0.91
   7   7  -6    6.30    1.26
  -7  -7   6    7.07    1.06
   6   7  -6    1.31    0.69
  -6  -7   6    2.18    0.69
   5   7  -6    1.55    0.64
  -5  -7   6    0.82    0.53
   4   7  -6    2.76    0.72
  -4  -7   6    3.10    0.68
   3   7  -6   30.55    1.61
  -3  -7   6   29.98    1.52
  -3  -7   6   28.57    1.11
   2   7  -6   52.76    2.09
  -2  -7   6   44.72    1.63
  -2  -7   6   47.21    1.92
   1   7  -6    0.33    0.38
  -1  -7   6    0.38    0.32
  -1  -7   6    0.11    0.30
   0   7  -6   27.79    1.36
   0  -7   6   26.20    1.20
   0  -7   6   24.52    1.26
  -1   7  -6   -0.11    0.36
   1  -7   6    0.06    0.26
   1  -7   6    0.08    0.38
  -2   7  -6    0.44    0.46
   2  -7   6    0.58    0.49
   2  -7   6    0.58    0.27
  -3   7  -6   20.42    1.34
   3  -7   6   21.02    1.44
  -4   7  -6    2.62    0.75
   4  -7   6    2.74    0.81
  -5   7  -6    6.23    1.09
   5  -7   6    6.38    1.09
  -6   7  -6    3.59    0.98
   6  -7   6    1.23    0.74
  -7   7  -6    0.30    0.80
   7  -7   6    0.02    0.89
   8  -7   6   -0.36    1.03
   8   6  -6    0.44    0.87
   7   6  -6    2.48    0.94
  -7  -6   6    1.98    0.67
   6   6  -6    6.06    1.12
  -6  -6   6    6.86    1.01
   5   6  -6   49.22    2.43
  -5  -6   6   51.32    2.22
   4   6  -6   10.20    1.18
  -4  -6   6   10.90    1.10
   3   6  -6   52.90    2.18
  -3  -6   6   49.64    1.68
   2   6  -6   35.82    1.66
   2   6  -6   35.26    1.57
  -2  -6   6   36.04    1.36
   1   6  -6    4.24    0.60
   1   6  -6    4.71    0.68
  -1  -6   6    4.99    0.61
   0   6  -6   10.86    0.96
   0   6  -6    9.52    0.73
   0  -6   6   10.32    0.80
  -1   6  -6    0.33    0.40
   1  -6   6   -0.01    0.38
  -2   6  -6   19.04    1.19
   2  -6   6   19.98    0.82
   2  -6   6   19.50    1.29
  -3   6  -6    0.67    0.50
   3  -6   6    0.01    0.47
  -4   6  -6    0.08    0.54
   4  -6   6    0.98    0.66
  -5   6  -6    4.56    0.95
   5  -6   6    3.72    0.90
  -6   6  -6   -0.24    0.62
   6  -6   6   -0.19    0.72
  -7   6  -6    2.92    0.97
   7  -6   6    1.78    0.87
   8  -6   6   -1.34    0.93
   8   5  -6    0.99    0.89
   7   5  -6    4.83    1.10
  -7  -5   6    4.85    0.90
   6   5  -6    4.07    0.94
  -6  -5   6    1.74    0.64
   5   5  -6   24.44    1.60
  -5  -5   6   24.51    1.45
   4   5  -6    0.98    0.56
   4   5  -6    2.24    0.58
  -4  -5   6    1.93    0.40
   3   5  -6   36.71    1.62
   3   5  -6   36.06    1.71
  -3  -5   6   36.49    1.38
   2   5  -6   76.68    2.71
   2   5  -6   78.32    2.56
  -2  -5   6   77.79    2.42
   1   5  -6   14.96    0.96
   1   5  -6   14.79    0.86
  -1  -5   6   13.58    0.87
   0   5  -6   23.67    1.19
   0   5  -6   23.36    1.03
   0  -5   6   22.91    1.20
  -1   5  -6   15.64    1.00
  -1   5  -6   15.97    0.77
   1  -5   6   13.33    0.98
  -2   5  -6   53.12    1.57
  -2   5  -6   51.47    2.08
   2  -5   6   50.87    2.13
  -3   5  -6    0.72    0.48
   3  -5   6   -0.85    0.42
  -4   5  -6    2.06    0.67
   4  -5   6    2.57    0.79
  -5   5  -6   -0.06    0.55
   5  -5   6    0.85    0.65
  -6   5  -6    0.58    0.66
   6  -5   6   -0.02    0.65
  -7   5  -6    2.20    0.90
   7  -5   6    2.45    0.90
   8   4  -6    1.69    0.91
   7   4  -6    0.61    0.69
  -7  -4   6    0.04    0.49
   6   4  -6    4.92    0.95
  -6  -4   6    3.44    0.76
   5   4  -6   44.68    2.21
   5   4  -6   48.31    2.00
   4   4  -6    0.22    0.43
   4   4  -6    0.16    0.30
   4   4  -6   -0.27    0.30
   3   4  -6   45.65    1.79
   3   4  -6   46.54    1.94
  -3  -4   6   45.22    1.65
   2   4  -6   92.98    2.85
   2   4  -6   92.16    3.01
  -2  -4   6   89.06    2.79
   1   4  -6   46.62    1.66
   1   4  -6   44.92    1.78
  -1  -4   6   48.46    1.75
   0   4  -6   10.23    0.79
   0   4  -6   10.05    0.68
   0  -4   6   10.80    0.90
  -1   4  -6    1.45    0.31
  -1   4  -6    0.61    0.38
   1  -4   6    1.85    0.52
  -2   4  -6   34.66    1.15
  -2   4  -6   37.63    1.68
   2  -4   6   35.62    1.70
  -3   4  -6    0.89    0.50
   3  -4   6    0.98    0.56
  -4   4  -6    7.68    1.04
   4  -4   6    7.18    1.06
  -5   4  -6    1.68    0.69
   5  -4   6    1.27    0.72
  -6   4  -6    0.11    0.62
   6  -4   6    0.24    0.70
  -7   4  -6    1.19    0.84
   7  -4   6    0.89    0.86
   9   3  -6   -0.36    0.89
   8   3  -6    1.06    0.84
   7   3  -6    0.38    0.68
  -7  -3   6   -0.13    0.44
   6   3  -6    1.92    0.50
   6   3  -6    8.65    1.16
   5   3  -6   17.33    1.17
   5   3  -6   18.28    1.33
   5   3  -6   17.49    1.06
   4   3  -6   37.28    1.85
   4   3  -6   44.34    1.77
   4   3  -6   39.54    1.60
   3   3  -6   18.11    1.00
   3   3  -6   15.23    0.88
   3   3  -6   16.11    1.04
   2   3  -6    0.19    0.31
   2   3  -6   -0.07    0.27
  -2  -3   6   -0.07    0.27
   1   3  -6   -0.30    0.21
   1   3  -6    0.57    0.33
  -1  -3   6    0.00    0.29
   0   3  -6  181.65    5.09
   0   3  -6  183.88    4.79
   0  -3   6  181.41    5.19
  -1   3  -6   78.61    2.64
  -1   3  -6   82.03    2.30
   1  -3   6   79.12    2.73
  -2   3  -6   73.96    2.64
  -2   3  -6   72.66    2.07
   2  -3   6   73.69    2.67
  -3   3  -6   24.88    0.84
  -3   3  -6   24.84    1.42
   3  -3   6   23.58    1.44
  -4   3  -6    9.38    1.15
   4  -3   6    9.33    1.15
  -5   3  -6    0.18    0.51
   5  -3   6    0.95    0.71
  -6   3  -6    1.52    0.78
   6  -3   6    0.81    0.74
  -7   3  -6    1.35    0.91
   9   2  -6    0.81    0.99
   8   2  -6    1.17    0.86
   7   2  -6    2.73    0.88
   6   2  -6    4.70    0.91
   6   2  -6    2.72    0.58
   5   2  -6    6.65    0.83
   5   2  -6    7.43    0.86
   5   2  -6    9.18    1.09
   4   2  -6    6.33    0.83
   4   2  -6    5.82    0.74
   4   2  -6    4.85    0.69
   3   2  -6   11.57    0.78
   3   2  -6   13.11    0.89
   3   2  -6   13.57    0.87
   2   2  -6    0.07    0.25
   2   2  -6    0.24    0.29
   1   2  -6    7.96    0.74
   1   2  -6    7.53    0.69
  -1  -2   6    9.84    0.86
   0   2  -6    4.28    0.51
   0   2  -6    5.68    0.65
   0  -2   6    6.66    0.74
  -1   2  -6    0.35    0.36
  -1   2  -6    0.69    0.25
   1  -2   6    1.00    0.43
  -2   2  -6   10.58    0.63
  -2   2  -6   12.32    0.93
   2  -2   6   13.03    1.01
  -3   2  -6   -0.44    0.36
  -3   2  -6    0.55    0.24
   3  -2   6    0.58    0.51
  -4   2  -6   41.13    2.09
   4  -2   6   42.25    2.06
  -5   2  -6    0.04    0.54
   5  -2   6   -0.29    0.56
  -6   2  -6    2.50    0.86
   6  -2   6    2.16    0.85
  -7   2  -6    1.22    0.84
   9   1  -6    0.23    0.92
   8   1  -6   -0.34    0.67
   7   1  -6   -0.62    0.53
   6   1  -6   13.01    1.22
   6   1  -6   10.59    1.25
   6   1  -6   11.60    1.10
   5   1  -6    0.86    0.54
   5   1  -6   -0.36    0.39
   5   1  -6    0.65    0.40
   4   1  -6    6.66    0.83
   4   1  -6    5.38    0.70
   3   1  -6   54.15    1.99
   3   1  -6   52.46    2.02
   3   1  -6   58.38    2.08
   2   1  -6    2.20    0.44
   2   1  -6    1.34    0.37
   2   1  -6    2.04    0.46
   1   1  -6   23.40    1.06
   1   1  -6   24.35    1.07
  -1  -1   6   22.05    1.16
   0   1  -6    3.41    0.46
   0   1  -6    3.80    0.53
   0  -1   6    3.25    0.57
  -1   1  -6   61.51    1.91
  -1   1  -6   60.33    2.16
   1  -1   6   59.76    2.23
  -2   1  -6   59.20    2.27
  -2   1  -6   62.07    1.88
   2  -1   6   58.39    2.28
  -3   1  -6   10.99    1.12
  -3   1  -6   12.06    0.71
   3  -1   6   13.61    1.24
  -4   1  -6   25.96    1.65
   4  -1   6   27.30    1.62
  -5   1  -6    1.25    0.67
   5  -1   6    1.02    0.66
  -6   1  -6    2.31    0.83
   6  -1   6    1.29    0.79
  -7   1  -6    0.27    0.72
   9   0  -6    1.39    1.01
   8   0  -6    1.10    0.79
   7   0  -6    4.92    1.01
   6   0  -6   14.68    1.44
   6   0  -6   14.25    1.37
   6   0  -6   13.03    1.16
   5   0  -6   -0.07    0.25
   5   0  -6    0.85    0.38
   5   0  -6    0.21    0.44
   4   0  -6    9.21    0.88
   4   0  -6    8.72    0.93
   4   0  -6    8.11    0.88
   3   0  -6    4.38    0.62
   3   0  -6    3.88    0.65
   2   0  -6   16.61    0.88
   2   0  -6   16.03    0.94
   2   0  -6   17.78    1.03
   1   0  -6   22.90    1.00
   0   0  -6    9.67    0.68
   0   0  -6    9.52    0.68
   0   0   6   10.19    0.93
  -1   0  -6   31.67    1.43
  -1   0  -6   35.29    1.33
   1   0   6   35.99    1.59
  -2   0  -6   30.32    1.48
  -2   0  -6   28.99    1.20
   2   0   6   29.33    1.51
  -3   0  -6   25.11    1.09
  -3   0  -6   22.19    1.39
   3   0   6   23.24    1.40
  -4   0  -6    1.43    0.63
   4   0   6    1.04    0.49
  -5   0  -6    1.75    0.73
   5   0   6    1.33    0.71
  -6   0  -6   10.46    1.47
  -7   0  -6    0.24    0.74
   9  -1  -6    0.88    0.95
   8  -1  -6    2.04    0.88
   7  -1  -6    6.28    1.01
   7  -1  -6   10.62    1.32
   6  -1  -6    4.22    0.87
   6  -1  -6    3.34    0.85
   6  -1  -6    3.79    0.67
   5  -1  -6    0.10    0.21
   5  -1  -6    1.71    0.66
   5  -1  -6    0.20    0.22
   4  -1  -6    3.34    0.60
   4  -1  -6    3.76    0.71
   4  -1  -6    4.52    0.65
   3  -1  -6   35.42    1.46
   3  -1  -6   35.41    1.68
   3  -1  -6   38.28    1.56
   2  -1  -6    0.40    0.30
   2  -1  -6    1.05    0.32
   2  -1  -6    0.52    0.40
   1  -1  -6    0.97    0.31
   1  -1  -6    1.81    0.41
   1  -1  -6    1.02    0.42
   0  -1  -6    0.14    0.27
   0  -1  -6    0.83    0.31
   0   1   6    0.08    0.34
  -1  -1  -6    2.76    0.52
  -1  -1  -6    1.88    0.43
   1   1   6    3.06    0.59
  -2  -1  -6   35.19    1.43
  -2  -1  -6   37.24    1.68
   2   1   6   36.80    1.69
  -3  -1  -6    0.16    0.33
  -3  -1  -6    0.37    0.45
   3   1   6    0.32    0.40
  -4  -1  -6    0.58    0.55
   4   1   6    0.82    0.61
  -5  -1  -6    0.54    0.58
   5   1   6    0.10    0.59
  -6  -1  -6    1.02    0.74
  -7  -1  -6    0.34    0.78
   8  -2  -6   -0.15    0.74
   7  -2  -6    9.31    1.28
   7  -2  -6    9.10    1.24
   6  -2  -6   10.75    1.05
   6  -2  -6    8.22    1.03
   6  -2  -6   11.25    1.32
   5  -2  -6    1.29    0.66
   5  -2  -6    2.54    0.61
   5  -2  -6    0.18    0.19
   4  -2  -6   18.10    1.11
   4  -2  -6   19.27    1.05
   4  -2  -6   18.02    1.27
   3  -2  -6    0.57    0.48
   3  -2  -6   -0.10    0.28
   3  -2  -6    0.20    0.29
   2  -2  -6   58.42    2.27
   2  -2  -6   58.32    1.90
   2  -2  -6   59.70    2.10
   1  -2  -6   37.45    1.67
   1  -2  -6   39.79    1.57
   1  -2  -6   40.56    1.39
   0  -2  -6    0.62    0.35
   0  -2  -6    0.66    0.32
   0   2   6    0.58    0.38
  -1  -2  -6    0.34    0.32
  -1  -2  -6   -0.03    0.16
   1   2   6    0.39    0.42
  -2  -2  -6   29.21    1.50
  -2  -2  -6   32.90    1.43
   2   2   6   30.94    1.56
  -3  -2  -6   64.76    2.68
  -3  -2  -6   67.53    2.36
   3   2   6   70.99    2.63
  -4  -2  -6    9.46    1.19
   4   2   6    8.20    1.07
  -5  -2  -6    4.60    0.97
  -6  -2  -6    1.19    0.76
  -7  -2  -6    0.09    0.82
   8  -3  -6    0.38    0.79
   7  -3  -6    3.01    0.95
   6  -3  -6    0.35    0.45
   6  -3  -6    1.78    0.64
   6  -3  -6    1.27    0.75
   5  -3  -6   12.64    1.10
   5  -3  -6   12.98    1.41
   4  -3  -6    9.09    0.79
   4  -3  -6    6.93    1.00
   4  -3  -6    9.08    0.93
   3  -3  -6   14.35    1.00
   3  -3  -6   13.51    1.23
   3  -3  -6   15.83    0.81
   2  -3  -6   64.71    1.92
   2  -3  -6   59.84    2.20
   2  -3  -6   60.21    2.43
   1  -3  -6   16.33    0.76
   1  -3  -6   15.82    1.08
   1  -3  -6   15.50    0.98
   0  -3  -6   22.95    1.01
   0  -3  -6   22.21    1.18
   0   3   6   21.14    1.28
  -1  -3  -6    6.63    0.72
  -1  -3  -6    6.12    0.75
   1   3   6    7.60    0.89
  -2  -3  -6    0.12    0.38
  -2  -3  -6   -0.38    0.35
   2   3   6    0.10    0.22
  -3  -3  -6   14.10    1.34
  -3  -3  -6   16.26    1.10
   3   3   6   15.29    1.21
  -4  -3  -6    0.84    0.58
  -4  -3  -6    0.57    0.50
   4   3   6    0.64    0.59
  -5  -3  -6   -0.38    0.50
  -6  -3  -6    3.91    1.05
  -7  -3  -6   -0.03    0.84
   8  -4  -6    0.76    0.84
   7  -4  -6    2.55    0.87
   6  -4  -6    6.64    0.88
   6  -4  -6    3.68    0.96
   5  -4  -6    0.05    0.23
   5  -4  -6   -0.01    0.58
   4  -4  -6    9.03    0.70
   4  -4  -6    9.17    0.97
   4  -4  -6    8.89    1.15
   3  -4  -6    1.00    0.44
   3  -4  -6    0.91    0.29
   3  -4  -6    1.25    0.56
   2  -4  -6  148.96    4.40
   2  -4  -6  152.47    4.78
   2  -4  -6  148.85    3.96
   1  -4  -6    5.48    0.82
   1  -4  -6    4.50    0.69
   1  -4  -6    6.04    0.49
   0  -4  -6    5.60    0.78
   0  -4  -6    5.70    0.58
   0  -4  -6    5.16    0.72
  -1  -4  -6   29.76    1.36
  -1  -4  -6   29.61    1.50
   1   4   6   30.67    1.57
  -2  -4  -6   18.13    1.17
   2   4   6   16.42    1.20
  -3  -4  -6   47.22    2.23
  -3  -4  -6   53.76    2.14
   3   4   6   49.20    2.13
  -4  -4  -6    0.73    0.52
  -4  -4  -6    1.35    0.63
  -5  -4  -6    6.31    1.11
  -6  -4  -6    0.17    0.74
  -7  -4  -6    0.34    0.80
   8  -5  -6    0.07    0.89
   7  -5  -6   -0.26    0.74
   6  -5  -6   -0.47    0.62
   5  -5  -6   25.62    1.80
   4  -5  -6    1.59    0.71
   4  -5  -6    2.58    0.61
   3  -5  -6    6.85    0.85
   3  -5  -6   10.19    1.16
   2  -5  -6    1.02    0.46
   2  -5  -6    1.33    0.58
   1  -5  -6    0.35    0.37
   1  -5  -6    0.61    0.48
   1  -5  -6    0.12    0.21
   0  -5  -6   21.52    0.98
   0  -5  -6   20.35    1.27
   0  -5  -6   20.58    1.28
  -1  -5  -6    0.30    0.34
  -1  -5  -6    0.52    0.44
   1   5   6    0.17    0.34
  -2  -5  -6   21.08    1.35
  -2  -5  -6   22.31    1.31
   2   5   6   20.25    1.35
  -3  -5  -6   18.18    1.30
  -3  -5  -6   16.33    1.28
   3   5   6   16.89    1.26
  -4  -5  -6   17.62    1.50
  -4  -5  -6   15.09    1.52
  -5  -5  -6    2.35    0.84
  -6  -5  -6    0.07    0.68
   9  -6  -6    0.86    1.13
   8  -6  -6    0.24    0.94
   7  -6  -6    0.71    0.85
   6  -6  -6   -0.50    0.60
   5  -6  -6   10.58    1.40
   4  -6  -6    1.32    0.55
   4  -6  -6    0.83    0.67
   3  -6  -6   11.76    1.29
   3  -6  -6   10.38    1.06
   2  -6  -6   13.68    1.34
   2  -6  -6   13.39    1.25
   1  -6  -6    0.09    0.41
   1  -6  -6    0.42    0.48
   0  -6  -6    2.06    0.62
   0  -6  -6    3.28    0.70
   0  -6  -6    2.31    0.42
  -1  -6  -6    0.42    0.36
  -1  -6  -6    0.76    0.50
   1   6   6    0.13    0.26
  -2  -6  -6   15.62    1.13
  -2  -6  -6   14.93    1.39
   2   6   6   19.11    1.53
  -3  -6  -6   10.38    1.20
  -3  -6  -6   13.37    1.36
  -4  -6  -6    3.29    0.88
  -4  -6  -6    4.82    0.91
  -5  -6  -6    4.93    1.02
  -6  -6  -6    1.76    0.85
   8  -7  -6    0.35    0.99
   7  -7  -6   -0.46    0.77
   6  -7  -6    4.13    1.05
   5  -7  -6    6.16    1.19
   4  -7  -6    2.29    0.79
   4  -7  -6    1.11    0.55
   3  -7  -6    8.64    1.16
   3  -7  -6    7.67    0.99
   2  -7  -6   29.15    1.62
   2  -7  -6   28.24    1.71
   1  -7  -6    0.73    0.50
   1  -7  -6    2.31    0.66
   0  -7  -6   30.34    1.69
   0  -7  -6   25.67    1.50
  -1  -7  -6   -0.16    0.46
   1   7   6    0.07    0.50
  -2  -7  -6   14.80    1.29
  -2  -7  -6   15.35    1.48
   2   7   6   17.19    1.45
  -3  -7  -6    7.80    1.10
  -3  -7  -6    6.92    0.99
  -4  -7  -6   20.61    1.52
  -4  -7  -6   19.35    1.76
  -5  -7  -6    0.65    0.67
  -6  -7  -6   -0.06    0.71
   8  -8  -6    1.11    1.08
   7  -8  -6    0.43    0.91
   6  -8  -6    7.77    1.32
   5  -8  -6    0.29    0.37
   5  -8  -6    1.33    0.76
   4  -8  -6    2.41    0.66
   4  -8  -6    2.14    0.80
   3  -8  -6    3.67    0.76
   3  -8  -6    3.41    0.85
   2  -8  -6    9.49    1.12
   2  -8  -6   11.81    1.31
   1  -8  -6    5.98    0.96
   1  -8  -6    4.72    0.88
   0  -8  -6   13.40    1.28
   0  -8  -6   12.13    1.28
  -1  -8  -6    6.35    1.05
   1   8   6    5.11    0.91
  -2  -8  -6   16.94    1.65
  -3  -8  -6   -0.25    0.55
  -3  -8  -6   -0.09    0.45
  -4  -8  -6    0.81    0.63
  -4  -8  -6   -0.42    0.59
  -5  -8  -6    1.01    0.75
  -6  -8  -6    0.32    0.78
   7  -9  -6    1.54    1.04
   6  -9  -6    5.14    1.23
   5  -9  -6    2.10    0.66
   5  -9  -6    1.58    0.85
   4  -9  -6    1.05    0.58
   4  -9  -6    0.79    0.72
   3  -9  -6    2.08    0.79
   3  -9  -6    1.63    0.65
   2  -9  -6    4.37    0.92
   2  -9  -6    5.51    0.97
   1  -9  -6    5.56    1.00
   1  -9  -6    3.92    0.84
   0  -9  -6    3.74    0.86
   0  -9  -6    3.90    0.81
  -1  -9  -6   11.98    1.38
   1   9   6   16.53    1.30
  -2  -9  -6    3.17    0.86
  -3  -9  -6    0.07    0.58
  -4  -9  -6    1.92    0.85
   7 -10  -6   -0.29    0.93
   6 -10  -6    5.60    1.27
   5 -10  -6   -0.15    0.73
   5 -10  -6    0.51    0.53
   4 -10  -6    2.06    0.85
   4 -10  -6    1.46    0.59
   3 -10  -6    0.88    0.62
   3 -10  -6    0.63    0.65
   2 -10  -6    1.31    0.71
   2 -10  -6    2.05    0.75
   1 -10  -6    6.41    1.06
   1 -10  -6    6.66    1.06
   0 -10  -6    1.31    0.68
   0 -10  -6    1.42    0.72
  -1 -10  -6    0.47    0.63
  -2 -10  -6   10.23    1.38
  -3 -10  -6   -0.12    0.66
  -4 -10  -6    3.97    1.07
   6 -11  -6    1.96    1.06
   5 -11  -6    0.45    0.59
   5 -11  -6   -0.89    0.70
   4 -11  -6    0.61    0.77
   4 -11  -6    1.22    0.66
   3 -11  -6    0.52    0.67
   3 -11  -6    0.20    0.57
   2 -11  -6    1.85    0.76
   2 -11  -6    0.86    0.64
   1 -11  -6    2.80    0.84
   1 -11  -6    2.64    0.78
   0 -11  -6    2.71    0.85
   0 -11  -6    3.16    0.81
  -1 -11  -6    2.41    0.87
  -2 -11  -6   -0.55    0.62
  -3 -11  -6    0.26    0.76
  -4 -11  -6    0.63    0.83
   6 -12  -6    2.59    1.18
   5 -12  -6    0.18    0.82
   4 -12  -6    1.88    0.78
   4 -12  -6    2.45    0.97
   3 -12  -6    1.97    0.75
   3 -12  -6    2.47    0.90
   2 -12  -6    0.64    0.69
   2 -12  -6   -0.17    0.59
   1 -12  -6    0.89    0.68
   1 -12  -6    1.43    0.75
   0 -12  -6   -0.91    0.54
  -1 -12  -6    3.71    1.05
  -2 -12  -6    2.93    0.97
  -3 -12  -6    4.33    1.13
  -4 -12  -6   -0.03    0.84
   5 -13  -6   -0.13    0.87
   4 -13  -6    3.40    1.06
   4 -13  -6    2.65    0.87
   3 -13  -6    0.35    0.63
   3 -13  -6   -0.48    0.67
   2 -13  -6    0.48    0.65
   2 -13  -6    0.78    0.74
   1 -13  -6    2.46    0.85
   1 -13  -6    1.18    0.78
   0 -13  -6    0.56    0.72
  -1 -13  -6    4.23    1.10
  -2 -13  -6    0.44    0.88
  -3 -13  -6    1.21    0.97
   4 -14  -6    2.90    1.08
   4 -14  -6    1.45    0.82
   3 -14  -6    0.03    0.68
   3 -14  -6   -0.49    0.69
   2 -14  -6    3.88    1.05
   2 -14  -6    1.17    0.81
   1 -14  -6    1.04    0.84
   0 -14  -6    0.86    0.79
  -1 -14  -6    2.92    1.05
  -2 -14  -6    1.06    0.94
   4 -15  -6    1.40    1.03
   4 -15  -6    0.21    0.80
   3 -15  -6    0.52    0.87
   3 -15  -6    0.70    0.80
   2 -15  -6    0.23    0.76
   2 -15  -6    0.83    0.83
   1 -15  -6    1.09    0.91
   0 -15  -6    2.76    1.11
   3 -16  -6    0.05    0.88
   3 -16  -6    0.88    0.86
  -1 -20   7    0.73    0.89
   0 -20   7   -0.65    0.72
  -2 -19   7    1.43    0.90
  -1 -19   7    3.96    1.10
   0 -19   7   -1.15    0.66
   3 -19   7    0.29    1.03
  -3 -18   7    0.02    0.76
  -2 -18   7   -0.19    0.74
  -1 -18   7    2.01    0.93
   0 -18   7   -0.18    0.70
   2 -18   7    1.67    0.91
   3 -18   7   -0.08    0.83
   4 -18   7    0.97    1.06
   5  17  -7    0.74    0.83
   4  17  -7    0.60    0.72
  -4 -17   7    2.00    0.90
  -3 -17   7    1.52    0.86
  -2 -17   7    1.68    0.85
  -1 -17   7    5.98    1.12
   0 -17   7    0.49    0.69
   1 -17   7    0.89    0.71
   2 -17   7    0.24    0.71
   3 -17   7    0.59    0.89
   4 -17   7   -0.04    0.98
   5  16  -7   -0.05    0.60
  -5 -16   7    0.49    0.76
   4  16  -7    3.52    1.03
  -4 -16   7    3.44    0.97
   3  16  -7    1.11    0.71
  -3 -16   7    2.14    0.84
   2  16  -7    8.46    1.20
  -2 -16   7    9.18    1.27
   1  16  -7    2.19    0.77
  -1 -16   7    2.50    0.82
   0 -16   7    0.41    0.63
   1 -16   7    5.54    1.00
   1 -16   7    6.41    1.10
   2 -16   7    0.71    0.73
   3 -16   7   -0.06    0.78
   4 -16   7   -0.09    0.83
   5 -16   7   -1.20    0.79
   6  15  -7    0.48    0.79
   5  15  -7   -0.19    0.64
  -5 -15   7   -0.14    0.66
   4  15  -7    2.36    0.83
  -4 -15   7    2.74    0.87
   3  15  -7    1.10    0.66
  -3 -15   7    2.29    0.78
   2  15  -7    4.65    0.93
  -2 -15   7    4.61    0.91
   1  15  -7   11.30    1.27
  -1 -15   7    9.36    1.19
   0  15  -7    3.42    0.81
   0 -15   7    4.23    0.87
  -1  15  -7    3.58    0.87
   1 -15   7    2.08    0.68
   1 -15   7    3.93    0.91
   2 -15   7    2.73    0.92
   3 -15   7    0.34    0.74
   4 -15   7    0.66    0.89
   5 -15   7   -0.66    0.82
   6  14  -7   -0.07    0.66
  -6 -14   7    0.31    0.72
   5  14  -7    0.17    0.67
  -5 -14   7    0.99    0.72
   4  14  -7    1.39    0.71
  -4 -14   7    1.21    0.67
   3  14  -7    1.55    0.70
  -3 -14   7    1.12    0.66
   2  14  -7   10.77    1.27
  -2 -14   7    7.50    1.08
   1  14  -7    4.08    0.84
  -1 -14   7    2.59    0.74
   0  14  -7    2.41    0.70
   0 -14   7    2.63    0.74
   0 -14   7    1.60    0.66
  -1  14  -7    9.62    1.16
   1 -14   7   12.81    1.35
  -2  14  -7    1.21    0.67
   2 -14   7    0.27    0.70
  -3  14  -7    1.88    0.79
   3 -14   7    1.37    0.87
   4 -14   7    6.12    1.28
   5 -14   7   -0.64    0.79
  -7 -13   7    0.57    0.77
   6  13  -7    1.18    0.84
  -6 -13   7    1.50    0.80
   5  13  -7    0.20    0.61
  -5 -13   7    0.93    0.69
   4  13  -7    8.57    1.27
  -4 -13   7    9.86    1.27
   3  13  -7    9.39    1.21
  -3 -13   7    7.47    1.12
   2  13  -7   13.40    1.37
  -2 -13   7   15.44    1.45
   1  13  -7    1.08    0.60
  -1 -13   7    1.04    0.59
   0  13  -7    3.99    0.84
   0 -13   7    3.58    0.73
   0 -13   7    3.98    0.78
  -1  13  -7    6.90    0.99
   1 -13   7    3.65    0.67
   1 -13   7    4.62    0.88
  -2  13  -7    4.37    0.88
   2 -13   7    4.45    0.96
  -3  13  -7    9.39    1.20
   3 -13   7    7.56    1.23
  -4  13  -7   -0.29    0.66
   4 -13   7   -0.09    0.73
   5 -13   7    0.21    0.84
   6 -13   7    0.44    0.95
   7  12  -7    1.35    0.94
  -7 -12   7    0.39    0.73
   6  12  -7    0.88    0.73
  -6 -12   7   -0.21    0.61
   5  12  -7    4.60    1.05
  -5 -12   7    6.25    1.06
   4  12  -7    0.32    0.57
  -4 -12   7    0.14    0.51
   3  12  -7    5.32    0.95
  -3 -12   7    6.28    0.98
   2  12  -7    3.53    0.80
  -2 -12   7    3.99    0.78
   1  12  -7    0.37    0.54
  -1 -12   7    0.76    0.49
  -1 -12   7    0.34    0.49
   0  12  -7   26.62    1.63
   0 -12   7   30.14    1.62
   0 -12   7   29.18    1.56
  -1  12  -7    0.29    0.54
   1 -12   7    0.32    0.44
   1 -12   7    0.24    0.57
  -2  12  -7    1.64    0.71
   2 -12   7    1.36    0.67
  -3  12  -7    2.00    0.74
   3 -12   7    1.62    0.81
  -4  12  -7   -0.17    0.66
   4 -12   7    0.29    0.71
  -5  12  -7    2.36    0.90
   5 -12   7    1.27    0.89
  -6  12  -7    0.12    0.79
   6 -12   7    0.33    0.92
   7  11  -7    0.26    0.77
  -7 -11   7    2.27    0.85
   6  11  -7    0.21    0.73
  -6 -11   7    2.21    0.78
   5  11  -7    8.52    1.29
  -5 -11   7    9.77    1.29
   4  11  -7    1.51    0.70
  -4 -11   7    0.93    0.59
   3  11  -7    8.14    1.13
  -3 -11   7    8.09    1.06
   2  11  -7   10.94    1.23
  -2 -11   7   11.66    1.16
   1  11  -7    1.12    0.54
  -1 -11   7    1.04    0.52
  -1 -11   7    1.32    0.55
   0  11  -7   25.35    1.51
   0 -11   7   25.14    1.47
   0 -11   7   24.05    1.37
  -1  11  -7   -0.74    0.41
   1 -11   7    0.95    0.61
   1 -11   7   -0.21    0.34
  -2  11  -7    5.00    0.88
   2 -11   7    5.83    1.01
  -3  11  -7   15.63    1.48
   3 -11   7   17.88    1.70
  -4  11  -7    1.33    0.76
   4 -11   7    0.54    0.73
  -5  11  -7    3.95    0.98
   5 -11   7    3.06    0.91
  -6  11  -7   -0.55    0.74
   6 -11   7    0.18    0.89
  -7  11  -7    0.95    0.96
   7  10  -7    0.55    0.79
  -7 -10   7    0.36    0.67
   6  10  -7    4.82    1.16
  -6 -10   7    3.59    0.90
   5  10  -7   23.46    1.75
  -5 -10   7   22.07    1.55
   4  10  -7    6.48    1.07
  -4 -10   7    7.32    1.03
   3  10  -7   15.11    1.45
  -3 -10   7   15.08    1.38
   2  10  -7    0.33    0.48
  -2 -10   7    0.89    0.43
  -2 -10   7    1.78    0.55
   1  10  -7    6.21    0.91
  -1 -10   7    7.07    0.83
  -1 -10   7    5.62    0.78
   0  10  -7   33.92    1.77
   0 -10   7   37.43    1.75
   0 -10   7   36.40    1.65
  -1  10  -7    0.17    0.49
   1 -10   7    0.17    0.47
   1 -10   7    0.53    0.39
  -2  10  -7    8.78    1.07
   2 -10   7    9.36    1.16
   2 -10   7    8.95    0.80
  -3  10  -7    4.21    0.86
   3 -10   7    3.18    0.89
  -4  10  -7    1.80    0.78
   4 -10   7    1.84    0.84
  -5  10  -7    2.08    0.82
   5 -10   7    0.80    0.79
  -6  10  -7   -0.53    0.68
   6 -10   7    0.43    0.90
  -7  10  -7    0.70    0.91
   7 -10   7    0.48    1.02
   7   9  -7    0.74    0.76
  -7  -9   7    1.19    0.66
   6   9  -7    1.69    0.80
  -6  -9   7    3.45    0.85
   5   9  -7   -0.01    0.52
  -5  -9   7    0.75    0.54
   4   9  -7   -0.61    0.43
  -4  -9   7    0.32    0.47
   3   9  -7   20.44    1.42
  -3  -9   7   20.91    1.35
   2   9  -7   16.11    1.22
  -2  -9   7   15.14    0.91
  -2  -9   7   14.96    1.31
   1   9  -7   16.95    1.22
  -1  -9   7   16.18    1.09
  -1  -9   7   17.10    1.05
   0   9  -7   22.72    1.34
   0  -9   7   22.43    1.33
   0  -9   7   22.53    1.23
  -1   9  -7    5.10    0.82
   1  -9   7    5.52    0.84
   1  -9   7    3.66    0.57
  -2   9  -7   16.42    1.26
   2  -9   7   18.25    0.94
   2  -9   7   13.41    1.35
  -3   9  -7    4.51    0.86
   3  -9   7    6.15    1.03
  -4   9  -7    0.15    0.61
   4  -9   7    0.86    0.70
  -5   9  -7    4.98    1.05
   5  -9   7    5.87    1.08
  -6   9  -7    1.91    0.90
   6  -9   7    0.96    0.87
  -7   9  -7    1.99    1.01
   7  -9   7    0.49    0.95
   8   8  -7    1.81    1.14
   7   8  -7    1.30    0.80
  -7  -8   7    0.08    0.55
   6   8  -7   10.16    1.39
  -6  -8   7    9.41    1.20
   5   8  -7    7.47    1.15
  -5  -8   7    6.07    0.94
   4   8  -7    0.40    0.51
  -4  -8   7    0.49    0.44
   3   8  -7   42.82    2.06
  -3  -8   7   44.69    2.00
  -3  -8   7   44.11    1.58
   2   8  -7   14.74    1.14
  -2  -8   7   16.28    1.10
  -2  -8   7   16.20    0.96
   1   8  -7   85.42    3.06
  -1  -8   7   85.13    2.80
  -1  -8   7   85.64    2.87
   0   8  -7   28.82    1.55
   0  -8   7   32.74    1.44
   0  -8   7   33.32    1.55
  -1   8  -7   27.05    1.46
   1  -8   7   26.04    1.47
   1  -8   7   27.27    1.23
  -2   8  -7    4.40    0.78
   2  -8   7    3.36    0.76
   2  -8   7    5.83    0.57
  -3   8  -7    4.01    0.83
   3  -8   7    2.62    0.76
  -4   8  -7    3.22    0.85
   4  -8   7    3.81    0.91
  -5   8  -7    1.98    0.81
   5  -8   7    3.41    0.88
  -6   8  -7    0.32    0.74
   6  -8   7    1.22    0.92
  -7   8  -7    1.17    0.87
   7  -8   7    0.60    0.98
   8   7  -7    0.24    0.80
   7   7  -7    0.53    0.68
  -7  -7   7   -0.05    0.52
   6   7  -7    3.09    0.89
  -6  -7   7    1.51    0.64
   5   7  -7   16.89    1.66
  -5  -7   7   15.59    1.43
   4   7  -7    8.26    1.10
  -4  -7   7   10.43    1.14
   3   7  -7   30.52    1.66
  -3  -7   7   31.25    1.26
   2   7  -7   65.31    2.56
   2   7  -7   65.55    2.40
  -2  -7   7   67.31    2.23
   1   7  -7    4.89    0.76
   1   7  -7    4.74    0.68
  -1  -7   7    5.23    0.67
   0   7  -7    6.95    0.86
   0  -7   7    7.28    0.83
  -1   7  -7   25.69    1.42
   1  -7   7   27.51    1.49
   1  -7   7   26.40    1.17
  -2   7  -7    4.85    0.81
   2  -7   7    5.89    0.91
   2  -7   7    5.09    0.52
  -3   7  -7    0.81    0.56
  -4   7  -7   -0.06    0.57
   4  -7   7    0.60    0.68
  -5   7  -7    0.24    0.59
   5  -7   7    0.42    0.68
  -6   7  -7    0.23    0.74
   6  -7   7    0.52    0.81
  -7   7  -7    2.60    1.06
   7  -7   7    1.14    1.01
   8  -7   7    0.49    1.08
   8   6  -7    2.42    1.04
   7   6  -7    1.57    0.82
  -7  -6   7    0.46    0.55
   6   6  -7   13.52    1.53
  -6  -6   7   10.10    1.19
   5   6  -7    8.49    1.19
  -5  -6   7    9.37    1.10
   4   6  -7    7.51    1.02
   4   6  -7    5.22    0.80
  -4  -6   7    6.55    0.67
   3   6  -7   12.45    1.13
   3   6  -7   14.17    1.28
  -3  -6   7   12.25    0.81
   2   6  -7   74.16    2.77
   2   6  -7   77.62    2.62
  -2  -6   7   77.47    2.49
   1   6  -7    0.42    0.34
   1   6  -7    1.45    0.50
  -1  -6   7    0.55    0.38
   0   6  -7   17.45    1.11
   0   6  -7   18.01    0.99
   0  -6   7   18.10    1.14
  -1   6  -7   -0.01    0.39
  -1   6  -7    0.06    0.27
   1  -6   7    0.56    0.46
  -2   6  -7    2.73    0.65
   2  -6   7    3.45    0.72
  -3   6  -7    0.24    0.47
   3  -6   7    0.28    0.56
  -4   6  -7    5.49    1.01
   4  -6   7    5.55    1.03
  -5   6  -7    0.69    0.63
   5  -6   7    0.37    0.70
  -6   6  -7    1.93    0.82
   6  -6   7    0.80    0.81
  -7   6  -7    0.26    0.79
   7  -6   7    0.62    0.93
   8   5  -7    2.60    1.04
   7   5  -7    0.37    0.64
  -7  -5   7    1.21    0.65
   6   5  -7   18.84    1.76
  -6  -5   7   15.31    1.42
   5   5  -7    2.08    0.60
   5   5  -7    3.25    0.81
   4   5  -7   11.81    1.11
   4   5  -7    7.69    1.01
  -4  -5   7    9.58    0.84
   3   5  -7    4.90    0.78
   3   5  -7    6.60    0.81
  -3  -5   7    5.74    0.66
   2   5  -7   48.14    2.00
   2   5  -7   48.29    1.86
  -2  -5   7   47.62    1.80
   1   5  -7   58.27    2.22
   1   5  -7   59.96    2.07
  -1  -5   7   60.54    2.15
   0   5  -7    1.71    0.40
   0   5  -7    1.41    0.46
   0  -5   7    2.48    0.56
  -1   5  -7   29.39    1.20
  -1   5  -7   31.22    1.50
   1  -5   7   32.20    1.58
  -2   5  -7   32.96    1.20
  -2   5  -7   35.22    1.68
   2  -5   7   35.10    1.77
  -3   5  -7    5.26    0.88
   3  -5   7    6.80    1.00
  -4   5  -7    0.00    0.54
   4  -5   7    0.20    0.59
  -5   5  -7    1.27    0.71
   5  -5   7   -0.19    0.64
  -6   5  -7    0.41    0.69
   6  -5   7    2.35    0.91
  -7   5  -7   -0.44    0.71
   7  -5   7   -1.29    0.76
   8   4  -7    0.22    0.75
   7   4  -7    5.74    1.11
  -7  -4   7    3.61    0.80
   6   4  -7    6.32    0.92
   6   4  -7    6.08    1.07
   5   4  -7   -0.09    0.46
   5   4  -7   -0.29    0.40
   4   4  -7   25.40    1.22
   4   4  -7   23.60    1.36
   4   4  -7   26.81    1.53
   3   4  -7    0.07    0.32
   3   4  -7    0.04    0.36
  -3  -4   7    0.02    0.31
   2   4  -7   10.45    0.98
   2   4  -7   10.75    0.92
  -2  -4   7   11.17    0.83
   1   4  -7  119.31    3.45
   1   4  -7  117.00    3.63
  -1  -4   7  115.66    3.60
   0   4  -7   22.23    1.18
   0   4  -7   22.93    1.04
   0  -4   7   20.35    1.20
  -1   4  -7  154.40    4.06
  -1   4  -7  147.58    4.51
   1  -4   7  149.46    4.63
  -2   4  -7    7.95    0.59
  -2   4  -7    8.46    0.95
   2  -4   7   10.90    1.11
  -3   4  -7    5.13    0.83
   3  -4   7    5.80    0.92
  -4   4  -7    5.96    1.00
   4  -4   7    5.97    1.03
  -5   4  -7    0.01    0.54
   5  -4   7   -0.65    0.53
  -6   4  -7    1.22    0.76
   6  -4   7    1.14    0.83
  -7   4  -7   -0.11    0.72
   7  -4   7    0.16    0.81
   9   3  -7   -0.79    0.88
   8   3  -7    0.80    0.78
   7   3  -7    2.39    0.87
   6   3  -7    1.17    0.63
   6   3  -7    1.52    0.58
   5   3  -7    1.65    0.55
   5   3  -7    1.77    0.62
   5   3  -7    0.52    0.47
   4   3  -7   44.94    2.03
   4   3  -7   44.15    1.88
   4   3  -7   44.38    1.79
   3   3  -7   25.77    1.29
   3   3  -7   22.76    1.30
   2   3  -7  207.51    5.63
   2   3  -7  204.05    5.84
  -2  -3   7  206.68    5.81
   1   3  -7   72.54    2.33
   1   3  -7   70.22    2.42
  -1  -3   7   70.36    2.47
   0   3  -7   21.23    1.02
   0   3  -7   21.64    1.16
   0  -3   7   22.58    1.24
  -1   3  -7   41.95    1.73
  -1   3  -7   39.70    1.44
   1  -3   7   38.08    1.78
  -2   3  -7   12.84    1.18
  -2   3  -7   12.89    0.71
   2  -3   7   13.71    1.24
  -3   3  -7    6.00    0.94
   3  -3   7    7.45    1.02
  -4   3  -7    0.84    0.61
   4  -3   7    1.33    0.72
  -5   3  -7   -0.34    0.51
   5  -3   7    0.56    0.65
  -6   3  -7    2.98    0.91
   6  -3   7    3.37    0.96
  -7   3  -7    0.04    0.71
   9   2  -7   -0.10    0.91
   8   2  -7    0.76    0.80
   7   2  -7    6.18    0.96
   7   2  -7    6.59    1.15
   6   2  -7    0.79    0.58
   6   2  -7    1.93    0.60
   5   2  -7    3.59    0.70
   5   2  -7    1.97    0.56
   4   2  -7   12.49    0.94
   4   2  -7   11.68    1.15
   4   2  -7   12.68    1.08
   3   2  -7   -0.15    0.32
   3   2  -7    0.06    0.31
   3   2  -7    0.23    0.35
   2   2  -7   91.98    2.90
   2   2  -7   89.29    2.96
  -2  -2   7   94.24    3.03
   1   2  -7   67.87    2.22
   1   2  -7   64.80    2.24
  -1  -2   7   62.42    2.33
   0   2  -7   89.87    2.93
   0   2  -7   91.87    2.74
   0  -2   7   92.45    3.06
  -1   2  -7   64.43    2.37
  -1   2  -7   67.25    2.09
   1  -2   7   68.16    2.51
  -2   2  -7   -0.01    0.39
  -2   2  -7    0.64    0.29
   2  -2   7    0.43    0.47
  -3   2  -7    5.74    0.90
  -3   2  -7    4.18    0.48
   3  -2   7    5.74    0.93
  -4   2  -7    2.77    0.76
   4  -2   7    6.56    1.00
  -5   2  -7    2.61    0.79
   5  -2   7    2.03    0.76
  -6   2  -7    1.71    0.85
   6  -2   7    0.36    0.73
  -7   2  -7    0.61    0.83
   9   1  -7    2.36    1.13
   8   1  -7    1.47    0.83
   7   1  -7    6.78    1.17
   6   1  -7    0.32    0.51
   6   1  -7    0.55    0.59
   6   1  -7    0.67    0.40
   5   1  -7    9.92    1.10
   5   1  -7   10.18    1.08
   5   1  -7   11.35    1.08
   4   1  -7    2.32    0.61
   4   1  -7    1.29    0.51
   4   1  -7    0.71    0.41
   3   1  -7    7.12    0.81
   3   1  -7    9.45    0.94
   3   1  -7    9.74    0.91
   2   1  -7  114.78    3.63
   2   1  -7  115.63    3.50
   2   1  -7  117.00    3.53
   1   1  -7   11.72    0.80
   1   1  -7   13.06    0.83
  -1  -1   7   11.50    0.90
   0   1  -7   35.85    1.41
   0   1  -7   36.37    1.50
   0  -1   7   35.14    1.62
  -1   1  -7    3.03    0.48
  -1   1  -7    3.44    0.62
   1  -1   7    3.70    0.70
  -2   1  -7    2.68    0.45
  -2   1  -7    1.38    0.52
   2  -1   7    2.14    0.60
  -3   1  -7    2.20    0.68
  -3   1  -7    4.35    0.54
   3  -1   7    6.26    0.97
  -4   1  -7    7.76    1.11
   4  -1   7    7.70    1.14
  -5   1  -7   23.42    1.75
   5  -1   7   19.82    1.77
  -6   1  -7    3.76    1.02
  -7   1  -7    1.84    0.98
   9   0  -7    0.57    0.95
   8   0  -7    0.61    0.80
   7   0  -7   14.26    1.55
   6   0  -7    0.20    0.32
   6   0  -7   -0.62    0.45
   6   0  -7   -0.13    0.22
   5   0  -7   16.18    1.15
   5   0  -7   15.66    1.38
   5   0  -7   14.91    1.11
   4   0  -7   13.48    1.13
   4   0  -7   10.34    1.09
   3   0  -7   41.89    1.87
   3   0  -7   46.25    1.84
   3   0  -7   43.30    1.73
   2   0  -7   37.28    1.50
   2   0  -7   38.73    1.68
   2   0  -7   35.41    1.55
   1   0  -7    0.19    0.28
   1   0  -7   -0.03    0.23
  -1   0   7    0.22    0.36
   0   0  -7    7.90    0.77
   0   0  -7    8.12    0.78
   0   0   7    7.14    0.85
  -1   0  -7   14.37    0.97
  -1   0  -7   12.69    0.84
   1   0   7   12.73    1.02
  -2   0  -7   16.38    0.93
  -2   0  -7   14.56    1.09
   2   0   7   17.14    1.21
  -3   0  -7    5.38    0.90
  -3   0  -7    4.05    0.59
   3   0   7    5.90    0.96
  -4   0  -7    0.81    0.59
   4   0   7    0.74    0.66
  -5   0  -7   11.46    1.41
   5   0   7    9.96    1.27
  -6   0  -7    0.50    0.73
  -7   0  -7    0.57    0.82
   8  -1  -7   -0.06    0.71
   7  -1  -7    5.68    1.01
   6  -1  -7    1.63    0.68
   6  -1  -7   -0.01    0.35
   6  -1  -7    0.92    0.45
   5  -1  -7   16.70    1.48
   5  -1  -7   18.10    1.21
   5  -1  -7   18.89    1.22
   4  -1  -7    1.02    0.44
   4  -1  -7    0.93    0.44
   4  -1  -7    0.24    0.47
   3  -1  -7   41.84    1.64
   3  -1  -7   41.44    1.91
   3  -1  -7   42.64    1.77
   2  -1  -7   22.51    1.20
   2  -1  -7   24.03    1.09
   2  -1  -7   21.57    1.29
   1  -1  -7    0.17    0.30
   1  -1  -7    0.00    0.30
   0  -1  -7   13.11    0.90
   0  -1  -7   14.13    0.84
   0   1   7   12.39    0.98
  -1  -1  -7    6.14    0.76
  -1  -1  -7    7.98    0.80
   1   1   7    7.64    0.93
  -2  -1  -7    1.34    0.44
  -2  -1  -7    1.69    0.52
   2   1   7    1.44    0.58
  -3  -1  -7    7.23    0.77
  -3  -1  -7    4.68    0.85
   3   1   7    4.11    0.85
  -4  -1  -7    5.20    0.96
   4   1   7    2.03    0.67
  -5  -1  -7    6.94    1.16
   5   1   7    7.85    1.19
  -6  -1  -7    0.96    0.75
  -7  -1  -7    1.68    0.98
   7  -2  -7    1.96    0.71
   7  -2  -7    3.66    0.98
   6  -2  -7    3.70    0.73
   6  -2  -7    3.99    0.88
   6  -2  -7    5.58    0.91
   5  -2  -7    5.57    0.96
   5  -2  -7    3.91    0.68
   5  -2  -7    6.14    0.83
   4  -2  -7   -0.57    0.43
   4  -2  -7    0.22    0.38
   4  -2  -7    0.33    0.37
   3  -2  -7   73.89    2.38
   3  -2  -7   73.06    2.56
   3  -2  -7   69.78    2.78
   2  -2  -7   -0.20    0.25
   2  -2  -7   -0.22    0.28
   2  -2  -7    0.15    0.43
   1  -2  -7   11.95    1.12
   1  -2  -7    9.83    0.68
   1  -2  -7   13.46    1.08
   0  -2  -7   17.33    1.02
   0  -2  -7   15.39    0.90
   0   2   7   15.80    1.14
  -1  -2  -7    2.88    0.54
   1   2   7    3.85    0.74
  -2  -2  -7   21.94    1.31
  -2  -2  -7   21.98    1.21
   2   2   7   19.94    1.35
  -3  -2  -7   10.80    1.00
  -3  -2  -7   11.32    1.23
  -4  -2  -7    5.25    0.97
   4   2   7    4.53    0.92
  -5  -2  -7    2.36    0.83
  -6  -2  -7   -0.03    0.68
  -7  -2  -7    0.90    0.92
   8  -3  -7    0.19    0.80
   7  -3  -7    2.98    0.93
   6  -3  -7    8.46    0.99
   6  -3  -7   11.11    1.41
   5  -3  -7    4.92    0.95
   5  -3  -7    3.98    0.66
   5  -3  -7    3.33    0.70
   4  -3  -7    6.93    1.05
   4  -3  -7    7.40    0.89
   4  -3  -7    8.08    0.77
   3  -3  -7   38.41    1.68
   3  -3  -7   35.00    1.38
   3  -3  -7   34.15    1.84
   2  -3  -7    8.11    0.89
   2  -3  -7    9.21    1.07
   2  -3  -7   10.33    0.65
   1  -3  -7   78.39    2.44
   1  -3  -7   86.49    2.97
   1  -3  -7   79.37    2.74
   0  -3  -7    4.98    0.71
   0  -3  -7    5.53    0.60
   0   3   7    3.37    0.67
  -1  -3  -7   10.37    0.98
  -1  -3  -7   11.29    0.99
   1   3   7   10.66    1.14
  -2  -3  -7   27.25    1.45
  -2  -3  -7   26.61    1.50
   2   3   7   27.85    1.57
  -3  -3  -7    0.28    0.48
  -3  -3  -7   -0.20    0.45
   3   3   7   -0.24    0.53
  -4  -3  -7   16.79    1.64
   4   3   7   20.29    1.43
  -5  -3  -7    2.99    0.88
  -6  -3  -7    0.15    0.68
   8  -4  -7    0.29    0.84
   7  -4  -7   -0.49    0.68
   6  -4  -7    0.51    0.71
   6  -4  -7    0.91    0.53
   5  -4  -7    0.81    0.68
   5  -4  -7    0.25    0.42
   4  -4  -7    1.22    0.66
   4  -4  -7    1.11    0.47
   3  -4  -7   10.67    1.23
   3  -4  -7    9.08    0.61
   3  -4  -7   10.38    1.04
   2  -4  -7    0.40    0.27
   2  -4  -7    0.43    0.40
   2  -4  -7    1.21    0.55
   1  -4  -7   14.96    1.11
   1  -4  -7   16.55    0.80
   1  -4  -7   16.51    1.21
   0  -4  -7    0.06    0.37
   0  -4  -7    0.15    0.32
   0   4   7    0.21    0.45
  -1  -4  -7   17.86    1.10
  -1  -4  -7   20.53    1.26
   1   4   7   18.18    1.32
  -2  -4  -7    2.63    0.67
  -2  -4  -7    0.20    0.21
   2   4   7    0.79    0.37
  -3  -4  -7   -0.25    0.48
  -3  -4  -7    0.62    0.55
   3   4   7    0.74    0.63
  -4  -4  -7    2.85    0.82
  -4  -4  -7    3.32    0.78
  -5  -4  -7   -0.09    0.62
  -6  -4  -7    0.83    0.80
   8  -5  -7    1.16    0.98
   7  -5  -7    1.69    0.92
   6  -5  -7    0.78    0.52
   6  -5  -7    0.98    0.73
   5  -5  -7   37.33    2.18
   5  -5  -7   38.04    1.85
   4  -5  -7    9.57    1.24
   4  -5  -7    9.37    1.07
   3  -5  -7   25.51    1.44
   3  -5  -7   25.05    1.64
   2  -5  -7   -0.05    0.50
   2  -5  -7    0.30    0.43
   1  -5  -7    8.53    0.98
   1  -5  -7   10.23    1.14
   0  -5  -7    3.16    0.67
   0  -5  -7    6.22    0.64
  -1  -5  -7    8.65    0.90
  -1  -5  -7   11.11    1.16
   1   5   7    8.51    1.08
  -2  -5  -7    8.43    1.07
  -2  -5  -7    9.35    1.03
   2   5   7    8.63    1.10
  -3  -5  -7    4.77    0.87
  -3  -5  -7    5.06    0.89
   3   5   7    3.40    0.81
  -4  -5  -7    4.81    0.91
  -4  -5  -7    5.15    0.97
  -5  -5  -7    1.78    0.79
  -6  -5  -7    1.20    0.86
   8  -6  -7   -0.26    0.90
   7  -6  -7   -0.07    0.79
   6  -6  -7    3.36    1.01
   6  -6  -7    3.90    0.79
   5  -6  -7   -0.38    0.58
   5  -6  -7    0.04    0.43
   4  -6  -7   11.74    1.22
   4  -6  -7   12.85    1.44
   3  -6  -7    9.74    1.07
   3  -6  -7   10.65    1.28
   2  -6  -7   -0.14    0.51
   2  -6  -7   -0.06    0.41
   1  -6  -7   24.27    1.48
   1  -6  -7   24.40    1.53
   0  -6  -7   -0.66    0.34
   0  -6  -7    0.90    0.59
  -1  -6  -7   19.55    1.14
  -1  -6  -7   18.13    1.34
   1   6   7   16.49    1.27
  -2  -6  -7    4.46    0.87
  -2  -6  -7    2.96    0.71
   2   6   7    4.56    0.90
  -3  -6  -7   -0.68    0.45
  -3  -6  -7    0.24    0.34
  -4  -6  -7    7.10    1.10
  -4  -6  -7    7.76    1.19
  -6  -6  -7    0.74    0.83
   8  -7  -7    0.83    1.06
   7  -7  -7    5.84    1.28
   6  -7  -7    6.92    1.29
   5  -7  -7    0.07    0.67
   5  -7  -7   -0.32    0.45
   4  -7  -7    6.28    0.92
   4  -7  -7    5.70    1.05
   3  -7  -7   -0.57    0.52
   3  -7  -7    0.17    0.46
   2  -7  -7    0.10    0.47
   2  -7  -7    0.50    0.63
   1  -7  -7    9.18    1.16
   1  -7  -7    7.85    1.08
   0  -7  -7    6.43    0.98
   0  -7  -7    7.94    1.07
  -1  -7  -7   19.79    1.67
  -2  -7  -7    5.54    0.94
   2   7   7    4.67    0.92
  -3  -7  -7    0.23    0.57
  -3  -7  -7    2.96    0.75
  -4  -7  -7    1.77    0.75
  -4  -7  -7    3.09    0.87
  -5  -7  -7    0.65    0.75
  -6  -7  -7    0.96    0.91
   7  -8  -7    1.40    0.98
   6  -8  -7    1.64    0.90
   5  -8  -7    2.50    0.94
   5  -8  -7    1.58    0.63
   4  -8  -7   11.61    1.47
   4  -8  -7    8.44    1.08
   3  -8  -7   -0.53    0.42
   3  -8  -7   -1.02    0.54
   2  -8  -7    0.69    0.55
   2  -8  -7    0.36    0.61
   1  -8  -7    4.39    0.89
   1  -8  -7    3.78    0.86
   0  -8  -7   15.07    1.42
   0  -8  -7   13.69    1.43
  -1  -8  -7   65.41    2.85
   1   8   7   65.63    2.78
  -2  -8  -7    0.46    0.61
  -3  -8  -7    2.36    0.81
  -4  -8  -7    2.29    0.88
  -6  -8  -7    1.34    0.95
   7  -9  -7    2.85    1.15
   6  -9  -7    0.45    0.88
   5  -9  -7    0.38    0.55
   5  -9  -7    1.93    0.93
   4  -9  -7    2.12    0.84
   4  -9  -7    2.43    0.73
   3  -9  -7    0.13    0.50
   3  -9  -7    0.28    0.65
   2  -9  -7    5.39    1.03
   2  -9  -7    3.35    0.88
   1  -9  -7    2.49    0.77
   1  -9  -7    2.10    0.73
   0  -9  -7    9.78    1.28
   0  -9  -7    6.20    1.03
  -1  -9  -7    8.91    1.29
   1   9   7   12.21    1.38
  -2  -9  -7    0.79    0.69
  -3  -9  -7    1.04    0.75
  -4  -9  -7    1.23    0.80
   6 -10  -7    0.34    0.86
   5 -10  -7    2.03    0.97
   5 -10  -7    1.87    0.73
   4 -10  -7    0.52    0.61
   4 -10  -7    0.58    0.75
   3 -10  -7    1.07    0.75
   3 -10  -7    0.62    0.62
   2 -10  -7    8.71    1.27
   2 -10  -7    6.48    1.07
   1 -10  -7    1.08    0.68
   1 -10  -7    2.37    0.77
   0 -10  -7   19.42    1.50
   0 -10  -7   21.58    1.94
  -1 -10  -7    0.38    0.63
  -2 -10  -7    0.20    0.70
  -3 -10  -7    3.11    0.98
  -4 -10  -7    0.64    0.78
   6 -11  -7    0.53    0.95
   5 -11  -7    1.66    0.71
   5 -11  -7    1.18    0.95
   4 -11  -7    0.77    0.65
   4 -11  -7    3.29    1.05
   3 -11  -7    6.20    1.20
   3 -11  -7    4.39    1.00
   2 -11  -7    0.87    0.67
   2 -11  -7    0.12    0.65
   1 -11  -7    1.01    0.71
   1 -11  -7    1.04    0.67
   0 -11  -7    0.78    0.66
   0 -11  -7    0.64    0.71
  -1 -11  -7    4.49    1.06
  -2 -11  -7    1.18    0.86
  -3 -11  -7    2.84    1.02
  -4 -11  -7   -0.87    0.78
   5 -12  -7    2.16    0.82
   5 -12  -7    3.75    1.15
   4 -12  -7    0.80    0.72
   4 -12  -7    2.73    1.01
   3 -12  -7    5.89    1.18
   3 -12  -7    4.54    1.04
   2 -12  -7    1.96    0.82
   2 -12  -7    3.37    0.98
   1 -12  -7   -0.42    0.62
   1 -12  -7   -0.18    0.59
   0 -12  -7    1.57    0.84
  -1 -12  -7    0.28    0.79
  -2 -12  -7   -0.34    0.73
  -3 -12  -7    2.74    1.06
  -4 -12  -7   -0.74    0.80
   5 -13  -7    0.75    0.91
   4 -13  -7   -0.29    0.67
   4 -13  -7   -0.43    0.76
   3 -13  -7    1.41    0.82
   3 -13  -7    3.98    1.12
   2 -13  -7    1.02    0.78
   2 -13  -7    2.65    0.96
   1 -13  -7    0.33    0.70
   1 -13  -7    1.44    0.79
   0 -13  -7    1.00    0.83
  -1 -13  -7    0.45    0.87
  -2 -13  -7    0.82    0.87
   4 -14  -7    0.93    0.79
   4 -14  -7    0.55    0.87
   3 -14  -7    1.80    0.97
   3 -14  -7    0.17    0.75
   2 -14  -7    0.47    0.74
   2 -14  -7   -0.40    0.68
   1 -14  -7   -0.66    0.67
   0 -14  -7    1.61    0.98
  -1 -14  -7   -0.50    0.75
   4 -15  -7    1.31    0.87
   3 -15  -7    2.67    1.09
   3 -15  -7    1.13    0.91
   2 -15  -7    0.76    0.81
   2 -15  -7   -0.15    0.75
  -1 -20   8    1.59    0.97
   0 -20   8    0.43    0.87
  -2 -19   8    2.26    1.00
  -1 -19   8    2.27    1.05
   0 -19   8    0.77    0.79
   3 -19   8   -0.45    0.94
  -3 -18   8    1.43    0.90
  -2 -18   8    2.54    0.95
  -1 -18   8    0.62    0.75
   0 -18   8    1.26    0.80
   2 -18   8    0.41    0.81
   3 -18   8    1.70    1.05
   5  17  -8    1.88    0.91
   4  17  -8    2.13    0.92
  -4 -17   8    1.21    0.85
  -3 -17   8    2.00    0.90
   2  17  -8    1.75    0.73
  -2 -17   8    1.99    0.80
  -1 -17   8    0.37    0.63
   0 -17   8    0.39    0.66
   2 -17   8    0.93    0.81
   3 -17   8    1.50    0.99
   4 -17   8    0.13    0.99
   5  16  -8    0.53    0.75
  -5 -16   8    0.58    0.77
   4  16  -8    0.72    0.73
  -4 -16   8   -0.27    0.65
   3  16  -8    4.65    1.01
  -3 -16   8    3.37    0.90
   2  16  -8    3.88    0.91
  -2 -16   8    5.66    1.01
   1  16  -8    0.27    0.62
  -1 -16   8    0.86    0.66
   0  16  -8    6.33    1.05
   0 -16   8    6.44    1.03
   1 -16   8    0.32    0.70
   1 -16   8    0.29    0.38
   2 -16   8    5.35    1.14
   3 -16   8    0.96    0.90
   4 -16   8    0.40    0.96
   6  15  -8    0.55    0.80
   5  15  -8    2.10    0.87
  -5 -15   8    0.79    0.76
   4  15  -8    0.01    0.59
  -4 -15   8    0.41    0.63
   3  15  -8    1.07    0.67
  -3 -15   8    2.79    0.80
   2  15  -8    0.57    0.64
  -2 -15   8    0.41    0.57
   1  15  -8    0.04    0.55
  -1 -15   8   -0.87    0.43
   0  15  -8    4.69    0.92
   0 -15   8    5.74    0.93
  -1  15  -8   -0.58    0.55
   1 -15   8   -0.66    0.57
   1 -15   8    0.14    0.40
  -2  15  -8   10.96    1.32
   2 -15   8   12.78    1.58
   3 -15   8   -0.34    0.76
   4 -15   8   -0.73    0.78
   5 -15   8    1.11    0.99
   6  14  -8   -0.24    0.71
  -6 -14   8    1.52    0.83
   5  14  -8    2.40    0.89
  -5 -14   8    1.69    0.79
   4  14  -8    0.82    0.69
  -4 -14   8    0.87    0.64
   3  14  -8    9.68    1.29
  -3 -14   8   10.14    1.30
   2  14  -8    4.54    0.91
  -2 -14   8    4.87    0.91
   1  14  -8    7.52    1.15
  -1 -14   8    5.80    0.93
   0  14  -8    3.32    0.81
   0 -14   8    3.78    0.84
   0 -14   8    2.57    0.68
  -1  14  -8    1.31    0.69
   1 -14   8    0.85    0.65
   1 -14   8    0.51    0.54
  -2  14  -8    8.59    1.20
   2 -14   8    9.30    1.31
  -3  14  -8    0.88    0.75
   3 -14   8    0.94    0.78
  -4  14  -8   -0.10    0.72
   4 -14   8    1.30    0.92
   5 -14   8    0.70    0.92
  -7 -13   8    0.59    0.76
   6  13  -8    0.72    0.79
  -6 -13   8    2.83    0.96
   5  13  -8    1.04    0.77
  -5 -13   8    1.17    0.73
   4  13  -8    1.04    0.71
  -4 -13   8    1.34    0.69
   3  13  -8    2.30    0.74
  -3 -13   8    2.64    0.77
   2  13  -8   -0.33    0.50
  -2 -13   8   -0.50    0.42
   1  13  -8    9.25    1.17
  -1 -13   8   10.47    1.19
   0  13  -8    1.04    0.63
   0 -13   8    1.23    0.56
   0 -13   8    1.00    0.59
  -1  13  -8    3.64    0.84
   1 -13   8    2.20    0.76
   1 -13   8    4.04    0.74
  -2  13  -8   11.41    1.31
   2 -13   8   11.28    1.39
  -3  13  -8   -0.11    0.67
   3 -13   8   -0.12    0.66
  -4  13  -8    1.10    0.84
   4 -13   8    0.47    0.77
  -5  13  -8    1.95    0.90
   5 -13   8    1.90    1.00
   6 -13   8    1.32    0.94
   7  12  -8   -0.02    0.76
  -7 -12   8   -0.55    0.68
   6  12  -8    0.82    0.77
  -6 -12   8   -0.21    0.61
   5  12  -8   -0.16    0.58
  -5 -12   8    0.46    0.60
   4  12  -8    0.07    0.57
  -4 -12   8    0.89    0.62
   3  12  -8    5.98    1.01
  -3 -12   8    6.47    0.99
   2  12  -8    0.48    0.57
  -2 -12   8    0.28    0.52
   1  12  -8    4.20    0.87
  -1 -12   8    2.54    0.65
  -1 -12   8    3.84    0.74
   0  12  -8    4.68    0.88
   0 -12   8    4.78    0.81
   0 -12   8    3.00    0.75
  -1  12  -8    4.26    0.86
   1 -12   8    3.32    0.67
   1 -12   8    6.47    0.99
  -2  12  -8    0.75    0.63
   2 -12   8    0.78    0.69
  -3  12  -8    1.63    0.78
   3 -12   8    0.93    0.72
  -4  12  -8   -0.28    0.65
   4 -12   8    0.17    0.69
  -5  12  -8    0.26    0.71
   5 -12   8    0.47    0.82
  -6  12  -8   -0.30    0.83
   6 -12   8   -0.08    0.99
  -8 -11   8    0.35    0.80
   7  11  -8    0.18    0.73
  -7 -11   8    0.17    0.72
   6  11  -8    3.25    0.95
  -6 -11   8    4.35    0.95
   5  11  -8    0.80    0.69
  -5 -11   8    1.26    0.66
   4  11  -8    1.44    0.70
  -4 -11   8    1.72    0.63
   3  11  -8    8.97    1.19
  -3 -11   8    5.75    0.91
   2  11  -8    0.04    0.47
  -2 -11   8    0.74    0.48
   1  11  -8   12.44    1.31
  -1 -11   8   16.16    1.15
  -1 -11   8   12.99    1.21
   0  11  -8   11.96    1.26
   0 -11   8   13.15    1.24
   0 -11   8   12.59    1.14
  -1  11  -8    5.31    0.91
   1 -11   8    6.95    1.01
   1 -11   8    5.98    0.78
  -2  11  -8   18.20    1.40
   2 -11   8   22.70    1.64
  -3  11  -8    0.29    0.66
   3 -11   8    0.36    0.65
  -4  11  -8    0.53    0.71
   4 -11   8    1.97    0.87
  -5  11  -8    0.44    0.76
   5 -11   8   -0.26    0.72
  -6  11  -8    0.01    0.84
   6 -11   8   -1.52    0.75
  -7  11  -8   -0.31    0.86
  -8 -10   8    1.37    0.80
   7  10  -8    0.27    0.77
  -7 -10   8    1.59    0.81
   6  10  -8    3.38    0.94
  -6 -10   8    3.22    0.86
   5  10  -8    1.59    0.75
  -5 -10   8    1.54    0.62
   4  10  -8   17.87    1.68
  -4 -10   8   14.98    1.42
   3  10  -8    6.49    1.05
  -3 -10   8    4.66    0.85
   2  10  -8    0.49    0.51
  -2 -10   8    0.65    0.46
  -2 -10   8    0.39    0.45
   1  10  -8   41.37    2.05
  -1 -10   8   42.73    1.85
  -1 -10   8   41.87    1.91
   0  10  -8    2.36    0.65
   0 -10   8    0.88    0.48
   0 -10   8    1.70    0.63
  -1  10  -8   14.59    1.38
   1 -10   8   12.49    0.93
  -2  10  -8   12.82    1.31
   2 -10   8   15.14    1.49
  -3  10  -8    1.38    0.73
   3 -10   8    0.89    0.69
  -4  10  -8    3.02    0.87
   4 -10   8    1.68    0.80
  -5  10  -8    0.25    0.67
   5 -10   8    0.32    0.75
  -6  10  -8   -0.19    0.76
   6 -10   8   -0.84    0.81
  -7  10  -8   -0.65    0.80
  -8  -9   8    0.06    0.69
   7   9  -8    2.36    0.94
  -7  -9   8    2.69    0.85
   6   9  -8    2.88    0.96
  -6  -9   8    2.69    0.79
   5   9  -8    4.00    0.95
  -5  -9   8    6.98    1.09
   4   9  -8    3.88    0.86
  -4  -9   8    3.92    0.82
   3   9  -8    1.53    0.63
  -3  -9   8    0.83    0.48
   2   9  -8   55.29    2.47
  -2  -9   8   59.39    2.36
  -2  -9   8   57.34    2.11
   1   9  -8    5.67    0.88
  -1  -9   8    5.42    0.77
  -1  -9   8    5.74    0.81
   0   9  -8    2.37    0.63
   0  -9   8    1.00    0.52
   0  -9   8    1.09    0.43
  -1   9  -8   12.84    1.28
   1  -9   8   11.16    0.96
   1  -9   8    8.09    1.02
  -2   9  -8    8.65    1.12
   2  -9   8    8.34    1.14
  -3   9  -8    3.83    0.88
   3  -9   8    4.03    0.93
  -4   9  -8    0.23    0.64
   4  -9   8   -0.13    0.60
  -5   9  -8   -0.06    0.66
   5  -9   8    0.74    0.77
  -6   9  -8    2.74    1.03
   6  -9   8    1.96    0.87
  -7   9  -8    0.80    0.99
   7  -9   8    0.66    1.05
   8   8  -8    1.28    1.01
   7   8  -8    1.71    0.88
  -7  -8   8    2.89    0.83
   6   8  -8    2.08    0.80
  -6  -8   8    1.17    0.63
   5   8  -8    0.82    0.61
  -5  -8   8    1.15    0.57
   4   8  -8   13.03    1.39
  -4  -8   8   12.54    1.29
   3   8  -8   -0.03    0.42
  -3  -8   8    0.70    0.46
  -3  -8   8    0.33    0.40
   2   8  -8   13.98    1.35
  -2  -8   8   15.32    1.03
   1   8  -8    8.05    0.99
  -1  -8   8    7.33    0.85
   0   8  -8    1.15    0.54
   0  -8   8    2.98    0.68
  -1   8  -8   21.35    1.35
   1  -8   8   23.92    1.46
   1  -8   8   23.93    1.17
  -2   8  -8    0.39    0.53
   2  -8   8   -0.03    0.52
   2  -8   8    0.35    0.31
  -3   8  -8    4.50    0.88
   3  -8   8    5.61    1.03
  -4   8  -8    1.26    0.70
   4  -8   8   -0.23    0.58
  -5   8  -8   -0.63    0.61
   5  -8   8    0.64    0.76
  -6   8  -8    0.90    0.84
   6  -8   8    2.36    1.00
  -7   8  -8    0.13    0.84
   7  -8   8    0.20    0.96
   8   7  -8   -0.33    0.79
   7   7  -8    0.84    0.75
  -7  -7   8    0.50    0.63
   6   7  -8    0.47    0.63
  -6  -7   8    0.18    0.51
   5   7  -8    9.90    1.33
  -5  -7   8   13.86    1.35
   4   7  -8    9.93    1.20
   3   7  -8   -0.21    0.38
   3   7  -8   -0.02    0.41
  -3  -7   8   -0.49    0.34
   2   7  -8   54.87    2.14
   2   7  -8   49.64    2.25
  -2  -7   8   55.98    2.03
   1   7  -8    2.98    0.59
   1   7  -8    2.47    0.63
  -1  -7   8    3.75    0.65
   0   7  -8   22.38    1.36
   0   7  -8   22.15    1.16
   0  -7   8   20.99    1.31
  -1   7  -8   35.60    1.46
  -1   7  -8   36.61    1.80
   1  -7   8   39.19    1.88
  -2   7  -8    2.79    0.70
   2  -7   8    2.78    0.44
   2  -7   8    3.03    0.75
  -3   7  -8    4.85    0.91
   3  -7   8    6.34    1.04
  -4   7  -8    0.17    0.62
   4  -7   8    1.12    0.73
  -5   7  -8    1.32    0.80
   5  -7   8    2.43    0.83
  -6   7  -8    2.83    0.99
   6  -7   8    2.24    0.84
  -7   7  -8    0.12    0.85
   7  -7   8   -0.61    0.90
   8   6  -8   -0.30    0.76
   7   6  -8    1.19    0.78
  -7  -6   8    1.54    0.65
   6   6  -8   -0.05    0.56
  -6  -6   8   -0.30    0.48
   5   6  -8    3.06    0.72
   5   6  -8    4.46    0.91
   4   6  -8   17.29    1.34
   4   6  -8   16.84    1.24
  -4  -6   8   18.75    1.07
   3   6  -8    2.96    0.64
   3   6  -8    4.65    0.80
  -3  -6   8    3.97    0.64
   2   6  -8  174.61    4.98
   2   6  -8  171.11    5.26
  -2  -6   8  172.36    4.99
   1   6  -8   40.06    1.82
   1   6  -8   40.72    1.66
  -1  -6   8   38.35    1.72
   0   6  -8    3.75    0.67
   0   6  -8    4.15    0.60
   0  -6   8    4.82    0.77
  -1   6  -8    3.64    0.73
  -1   6  -8    2.68    0.48
   1  -6   8    2.76    0.68
  -2   6  -8    0.48    0.48
  -2   6  -8    0.71    0.32
   2  -6   8    0.70    0.58
  -3   6  -8   13.51    1.37
   3  -6   8   15.07    1.52
  -4   6  -8    1.56    0.74
   4  -6   8    3.57    0.90
  -5   6  -8    2.17    0.84
   5  -6   8    1.89    0.76
  -6   6  -8    1.18    0.81
   6  -6   8    0.86    0.84
  -7   6  -8    3.02    0.99
   7  -6   8   -1.50    0.81
   8   5  -8    0.68    0.87
   7   5  -8    0.74    0.72
  -7  -5   8    0.70    0.59
   6   5  -8    1.92    0.63
   6   5  -8    2.21    0.77
   5   5  -8   29.79    1.64
   4   5  -8    5.37    0.82
   4   5  -8    4.07    0.79
  -4  -5   8    4.82    0.69
   3   5  -8   22.01    1.38
   3   5  -8   23.52    1.32
  -3  -5   8   23.47    1.24
   2   5  -8   88.51    2.91
   2   5  -8   86.05    3.08
  -2  -5   8   88.54    2.91
   1   5  -8   58.33    2.26
   1   5  -8   56.94    2.07
  -1  -5   8   59.20    2.23
   0   5  -8    0.59    0.33
   0   5  -8    1.04    0.47
   0  -5   8    0.57    0.45
  -1   5  -8   55.24    2.24
  -1   5  -8   51.97    1.82
   1  -5   8   57.20    2.34
  -2   5  -8    1.49    0.36
  -2   5  -8    1.29    0.57
   2  -5   8    2.14    0.68
  -3   5  -8   14.65    1.43
   3  -5   8   18.35    1.60
  -4   5  -8    2.60    0.80
   4  -5   8    2.43    0.83
  -5   5  -8    0.53    0.68
   5  -5   8    1.80    0.81
  -6   5  -8    0.40    0.74
   6  -5   8   -0.36    0.74
  -7   5  -8    0.66    0.87
   7  -5   8   -0.64    0.86
   8   4  -8    0.73    0.85
   7   4  -8   -0.35    0.58
   6   4  -8    4.20    0.95
   6   4  -8    5.88    0.91
   5   4  -8   19.39    1.30
   5   4  -8   17.91    1.37
   5   4  -8   17.68    1.10
   4   4  -8   -0.12    0.43
   4   4  -8    0.66    0.43
   3   4  -8   23.99    1.42
   3   4  -8   25.72    1.36
  -3  -4   8   25.47    1.31
   2   4  -8   25.82    1.41
   2   4  -8   26.44    1.33
  -2  -4   8   27.56    1.36
   1   4  -8   -0.10    0.28
   1   4  -8    0.16    0.35
  -1  -4   8    0.01    0.36
   0   4  -8  150.64    4.23
   0   4  -8  151.45    4.55
   0  -4   8  152.54    4.65
  -1   4  -8    0.09    0.29
  -1   4  -8    0.62    0.45
   1  -4   8    0.66    0.47
  -2   4  -8   30.15    1.61
  -2   4  -8   28.53    1.16
   2  -4   8   28.90    1.68
  -3   4  -8    2.42    0.70
   3  -4   8    1.54    0.70
  -4   4  -8    0.06    0.55
   4  -4   8    0.38    0.66
  -5   4  -8    3.91    0.96
   5  -4   8    4.95    1.01
  -6   4  -8    0.17    0.68
   6  -4   8    1.75    0.87
  -7   4  -8   -0.12    0.75
   9   3  -8    0.01    0.89
   8   3  -8    0.79    0.84
   7   3  -8   -0.63    0.41
   7   3  -8   -0.09    0.57
   6   3  -8   12.21    1.40
   6   3  -8   10.97    1.19
   5   3  -8   11.01    1.15
   5   3  -8   11.67    1.09
   5   3  -8   11.29    1.26
   4   3  -8   15.14    1.36
   4   3  -8   17.72    1.15
   4   3  -8   17.47    1.10
   3   3  -8    2.22    0.52
   3   3  -8    1.43    0.51
  -3  -3   8    1.77    0.51
   2   3  -8   69.08    2.50
   2   3  -8   66.54    2.38
  -2  -3   8   68.56    2.49
   1   3  -8    6.93    0.76
   1   3  -8    6.57    0.77
  -1  -3   8    5.64    0.79
   0   3  -8  125.35    3.55
   0   3  -8  119.32    3.77
   0  -3   8  117.95    3.88
  -1   3  -8    1.78    0.42
  -1   3  -8    3.05    0.63
   1  -3   8    2.70    0.68
  -2   3  -8   17.32    0.90
  -2   3  -8   17.13    1.24
   2  -3   8   17.70    1.34
  -3   3  -8    4.56    0.85
   3  -3   8    4.55    0.93
  -4   3  -8    9.57    1.28
   4  -3   8   13.25    1.38
  -5   3  -8   -0.76    0.51
   5  -3   8    0.55    0.68
  -6   3  -8   -0.42    0.58
   6  -3   8    0.18    0.84
  -7   3  -8    0.99    0.90
   9   2  -8    0.01    0.92
   8   2  -8    0.46    0.78
   7   2  -8    0.12    0.34
   7   2  -8    0.26    0.60
   6   2  -8    6.58    0.94
   6   2  -8    8.77    1.05
   6   2  -8    9.53    1.22
   5   2  -8    2.02    0.66
   5   2  -8    2.29    0.61
   5   2  -8    1.07    0.57
   4   2  -8    1.76    0.53
   4   2  -8    1.27    0.52
   3   2  -8   14.81    1.04
   3   2  -8   17.10    1.10
   3   2  -8   16.53    1.09
   2   2  -8    0.81    0.39
   2   2  -8    0.44    0.39
  -2  -2   8    0.73    0.43
   1   2  -8   90.98    2.95
   1   2  -8   89.86    2.88
  -1  -2   8   87.97    3.07
   0   2  -8    1.10    0.40
   0   2  -8    1.00    0.47
   0  -2   8    1.60    0.56
  -1   2  -8    7.14    0.87
  -1   2  -8    6.49    0.68
   1  -2   8    7.15    0.93
  -2   2  -8    8.35    0.74
  -2   2  -8    9.00    1.06
   2  -2   8   10.71    1.18
  -3   2  -8    0.21    0.51
   3  -2   8    0.81    0.63
  -4   2  -8    1.63    0.68
   4  -2   8    2.19    0.81
  -5   2  -8   -0.62    0.50
   5  -2   8    1.23    0.79
  -6   2  -8   -0.37    0.63
   6  -2   8    0.18    0.74
  -7   2  -8    0.76    0.92
   9   1  -8   -0.27    0.90
   8   1  -8    0.98    0.80
   7   1  -8    0.13    0.38
   7   1  -8    0.82    0.70
   6   1  -8    7.28    1.02
   6   1  -8    6.80    1.06
   6   1  -8    6.82    0.89
   5   1  -8   10.59    1.10
   5   1  -8    8.95    1.08
   4   1  -8    1.10    0.47
   4   1  -8    1.94    0.59
   4   1  -8    1.42    0.52
   3   1  -8   12.98    0.95
   3   1  -8   12.73    1.15
   3   1  -8   12.95    0.97
   2   1  -8   10.60    0.81
   2   1  -8   12.42    1.05
  -2  -1   8   12.63    1.16
   1   1  -8    4.50    0.64
   1   1  -8    3.07    0.56
  -1  -1   8    4.54    0.75
   0   1  -8   12.15    0.91
   0   1  -8   12.07    0.86
   0  -1   8   12.75    1.18
  -1   1  -8    3.49    0.65
  -1   1  -8    2.49    0.49
   1  -1   8    3.51    0.74
  -2   1  -8    6.06    0.68
  -2   1  -8    6.18    0.90
   2  -1   8    6.36    0.97
  -3   1  -8    2.01    0.46
  -3   1  -8    1.45    0.63
   3  -1   8    3.56    0.88
  -4   1  -8    0.50    0.54
   4  -1   8   -0.25    0.61
  -5   1  -8    4.20    0.98
   5  -1   8    5.62    1.08
  -6   1  -8    4.65    1.12
  -7   1  -8   -0.48    0.77
   8   0  -8    4.03    1.02
   7   0  -8    0.12    0.59
   6   0  -8   16.85    1.33
   6   0  -8   18.01    1.27
   6   0  -8   17.99    1.35
   5   0  -8    1.85    0.68
   5   0  -8    0.18    0.29
   5   0  -8    1.41    0.54
   4   0  -8   24.84    1.37
   4   0  -8   22.00    1.41
   4   0  -8   23.36    1.31
   3   0  -8   19.13    1.18
   3   0  -8   17.93    1.08
   3   0  -8   17.48    1.22
   2   0  -8    0.33    0.34
   2   0  -8   -0.07    0.31
   2   0  -8    0.36    0.45
   1   0  -8  113.49    3.33
   1   0  -8   97.12    3.21
  -1   0   8  107.91    3.58
   0   0  -8    0.08    0.35
   0   0  -8    0.40    0.34
   0   0   8    0.15    0.43
  -1   0  -8    1.45    0.45
  -1   0  -8    2.21    0.55
   1   0   8    1.50    0.60
  -2   0  -8   20.69    1.34
  -2   0  -8   19.39    1.08
   2   0   8   18.86    1.39
  -3   0  -8    2.72    0.56
  -3   0  -8    2.26    0.68
   3   0   8    3.73    0.86
  -4   0  -8    3.28    0.84
   4   0   8    4.63    0.96
  -5   0  -8    2.02    0.79
   5   0   8   -0.21    0.39
  -6   0  -8    3.83    1.07
  -7   0  -8    0.22    0.88
   7  -1  -8    0.41    0.44
   7  -1  -8    0.39    0.64
   6  -1  -8    7.26    1.09
   6  -1  -8    7.16    1.02
   6  -1  -8    6.68    0.96
   5  -1  -8    0.01    0.42
   5  -1  -8   -0.49    0.51
   5  -1  -8    0.09    0.43
   4  -1  -8   19.27    1.40
   4  -1  -8   21.09    1.23
   4  -1  -8   21.00    1.30
   3  -1  -8   26.18    1.49
   3  -1  -8   22.44    1.30
   3  -1  -8   22.13    1.18
   2  -1  -8   13.56    1.25
   2  -1  -8   15.65    0.91
   2  -1  -8   13.34    0.97
   1  -1  -8   57.10    2.10
   1  -1  -8   55.17    1.98
  -1   1   8   54.32    2.31
   0  -1  -8    0.29    0.35
   0  -1  -8    0.03    0.32
   0   1   8    0.35    0.42
  -1  -1  -8    0.47    0.39
  -1  -1  -8    1.02    0.47
   1   1   8    0.70    0.52
  -2  -1  -8   20.99    1.35
  -2  -1  -8   22.97    1.23
   2   1   8   18.80    1.38
  -3  -1  -8   -0.10    0.40
  -3  -1  -8    0.30    0.53
   3   1   8    0.33    0.60
  -4  -1  -8    4.23    0.92
   4   1   8    1.00    0.49
  -5  -1  -8    2.42    0.85
  -6  -1  -8   -0.28    0.65
   7  -2  -8   -0.61    0.56
   6  -2  -8    7.28    0.98
   6  -2  -8    6.98    1.00
   6  -2  -8    5.23    1.00
   5  -2  -8    0.73    0.64
   5  -2  -8   -0.08    0.41
   5  -2  -8    0.10    0.40
   4  -2  -8   22.48    1.53
   4  -2  -8   21.18    1.17
   4  -2  -8   21.56    1.30
   3  -2  -8   35.13    1.87
   3  -2  -8   38.65    1.53
   3  -2  -8   34.95    1.68
   2  -2  -8   44.24    1.91
   2  -2  -8   49.88    1.76
   2  -2  -8   45.30    2.10
   1  -2  -8   74.23    2.57
   1  -2  -8   70.30    2.35
   0  -2  -8    4.13    0.60
   0  -2  -8    3.11    0.61
   0   2   8    3.55    0.75
  -1  -2  -8   27.85    1.43
   1   2   8   29.29    1.63
  -2  -2  -8   66.31    2.41
  -2  -2  -8   64.05    2.61
   2   2   8   65.96    2.72
  -3  -2  -8   -0.17    0.40
  -3  -2  -8    0.19    0.55
   3   2   8   -0.23    0.59
  -4  -2  -8    3.85    0.91
   4   2   8    3.65    0.90
  -5  -2  -8   -0.66    0.54
  -6  -2  -8    3.62    1.06
   8  -3  -8    0.38    0.75
   7  -3  -8   -0.02    0.65
   6  -3  -8   12.17    1.46
   6  -3  -8   11.36    1.21
   5  -3  -8    7.85    1.19
   5  -3  -8    8.76    1.05
   4  -3  -8   36.19    1.52
   4  -3  -8   32.09    1.67
   4  -3  -8   36.53    2.02
   3  -3  -8    4.47    0.89
   3  -3  -8    3.26    0.66
   2  -3  -8   82.34    3.13
   2  -3  -8   82.06    2.55
   2  -3  -8   80.87    2.87
   1  -3  -8   26.68    1.53
   1  -3  -8   23.88    1.36
   1  -3  -8   24.24    1.12
   0  -3  -8   17.59    1.01
   0  -3  -8   18.37    1.17
   0   3   8   17.87    1.54
  -1  -3  -8   29.44    1.52
  -1  -3  -8   30.53    1.52
   1   3   8   29.44    1.70
  -2  -3  -8    3.13    0.70
  -2  -3  -8    2.16    0.60
   2   3   8    3.13    0.80
  -3  -3  -8    0.98    0.65
  -3  -3  -8    0.45    0.52
   3   3   8    0.12    0.47
  -4  -3  -8    0.90    0.65
  -5  -3  -8    0.43    0.66
  -6  -3  -8    1.29    0.87
   8  -4  -8    0.43    0.83
   7  -4  -8    0.82    0.70
   6  -4  -8    2.21    0.65
   6  -4  -8    2.05    0.81
   5  -4  -8    0.15    0.43
   5  -4  -8    0.96    0.70
   4  -4  -8   12.40    1.42
   4  -4  -8   10.62    1.16
   3  -4  -8    1.04    0.49
   3  -4  -8    1.58    0.71
   2  -4  -8   37.45    1.97
   2  -4  -8   39.24    1.82
   1  -4  -8    8.16    0.95
   1  -4  -8    9.73    0.70
   1  -4  -8   12.46    1.28
   0  -4  -8   14.07    1.26
   0  -4  -8   16.72    0.98
   0   4   8   16.55    1.52
  -1  -4  -8   14.16    1.25
  -1  -4  -8   14.89    1.06
   1   4   8   14.48    1.45
  -2  -4  -8   11.75    1.19
   2   4   8   11.95    1.33
  -3  -4  -8    0.48    0.56
  -3  -4  -8    0.23    0.55
   3   4   8    1.53    0.69
  -4  -4  -8    0.19    0.59
  -5  -4  -8    0.73    0.70
  -6  -4  -8    1.82    0.91
   8  -5  -8    0.54    0.92
   7  -5  -8    2.88    1.03
   6  -5  -8    0.67    0.49
   6  -5  -8    0.35    0.67
   5  -5  -8    1.54    0.81
   5  -5  -8    2.69    0.67
   4  -5  -8   12.92    1.26
   4  -5  -8   13.78    1.55
   3  -5  -8    0.12    0.43
   3  -5  -8    0.02    0.59
   2  -5  -8   11.63    1.28
   2  -5  -8    9.67    1.07
   1  -5  -8   17.64    1.27
   1  -5  -8   18.02    1.35
   0  -5  -8    6.13    0.69
   0  -5  -8    5.52    0.84
   0   5   8    6.79    1.03
  -1  -5  -8   34.71    1.62
  -1  -5  -8   30.80    1.69
   1   5   8   30.56    1.80
  -2  -5  -8    3.10    0.79
  -2  -5  -8    3.89    0.77
  -3  -5  -8   11.71    1.30
  -3  -5  -8   12.70    1.31
   3   5   8   12.55    1.38
  -4  -5  -8    1.24    0.72
  -5  -5  -8    3.14    0.91
  -6  -5  -8    1.09    0.84
   8  -6  -8   -0.34    0.87
   7  -6  -8    0.25    0.79
   6  -6  -8    0.06    0.43
   6  -6  -8    0.68    0.78
   5  -6  -8   13.88    1.35
   5  -6  -8   13.63    1.62
   4  -6  -8   -0.01    0.58
   4  -6  -8    0.53    0.50
   3  -6  -8    4.83    0.85
   3  -6  -8    5.62    1.08
   2  -6  -8    8.36    1.15
   2  -6  -8    8.70    1.08
   1  -6  -8    4.09    0.79
   1  -6  -8    4.87    0.93
   0  -6  -8   41.94    2.04
   0   6   8   38.47    2.10
  -1  -6  -8    1.28    0.63
   1   6   8    0.42    0.60
  -2  -6  -8    0.86    0.60
  -2  -6  -8    1.15    0.56
   2   6   8    1.32    0.67
  -3  -6  -8    0.04    0.31
  -3  -6  -8    1.05    0.63
  -4  -6  -8    2.09    0.78
  -5  -6  -8    1.01    0.79
  -6  -6  -8    0.76    0.85
   8  -7  -8    0.83    0.98
   7  -7  -8    0.27    0.88
   6  -7  -8    0.74    0.84
   6  -7  -8    0.11    0.48
   5  -7  -8    0.42    0.71
   5  -7  -8    0.50    0.50
   4  -7  -8    0.04    0.64
   4  -7  -8    1.33    0.60
   3  -7  -8    9.87    1.37
   3  -7  -8   10.31    1.22
   2  -7  -8    7.10    1.10
   2  -7  -8    5.27    0.93
   1  -7  -8    0.26    0.50
   1  -7  -8    0.76    0.61
   0  -7  -8    3.21    0.81
  -1  -7  -8    6.83    1.07
   1   7   8    6.28    1.03
  -2  -7  -8    5.77    1.05
   2   7   8    6.58    1.07
  -3  -7  -8    1.32    0.76
  -4  -7  -8    0.20    0.69
  -5  -7  -8    1.75    0.90
  -6  -7  -8    0.44    0.87
   7  -8  -8    0.77    1.00
   6  -8  -8   -0.06    0.75
   5  -8  -8    5.43    1.17
   5  -8  -8    4.02    0.87
   4  -8  -8   -0.01    0.64
   4  -8  -8   -0.49    0.43
   3  -8  -8   10.90    1.29
   3  -8  -8   12.32    1.50
   2  -8  -8    4.31    0.94
   2  -8  -8    4.23    0.93
   1  -8  -8    7.53    1.15
   1  -8  -8    4.20    0.91
   0  -8  -8    4.32    0.92
  -1  -8  -8   10.43    1.32
  -2  -8  -8    6.30    1.16
  -3  -8  -8   -0.84    0.60
  -4  -8  -8    0.62    0.71
   7  -9  -8    0.92    1.03
   6  -9  -8   -0.06    0.82
   5  -9  -8    0.49    0.79
   5  -9  -8    0.43    0.57
   4  -9  -8    4.90    1.12
   4  -9  -8    1.98    0.73
   3  -9  -8    5.27    1.10
   3  -9  -8    5.52    1.02
   2  -9  -8    1.27    0.71
   2  -9  -8    1.09    0.70
   1  -9  -8    3.23    0.83
   1  -9  -8    1.98    0.74
   0  -9  -8    4.12    0.97
  -1  -9  -8   -0.14    0.63
   1   9   8    0.86    0.65
  -2  -9  -8    4.97    1.11
  -3  -9  -8    0.32    0.76
  -4  -9  -8   -1.11    0.70
   6 -10  -8   -0.07    0.87
   5 -10  -8    1.32    0.91
   5 -10  -8    1.63    0.73
   4 -10  -8    0.41    0.80
   4 -10  -8    0.79    0.63
   3 -10  -8    7.62    1.33
   3 -10  -8    6.38    1.11
   2 -10  -8    1.12    0.67
   2 -10  -8    1.20    0.77
   1 -10  -8    7.12    1.11
   1 -10  -8    9.59    1.34
   0 -10  -8   -0.79    0.58
  -1 -10  -8    1.70    0.86
  -2 -10  -8    0.42    0.71
  -3 -10  -8    1.40    0.88
  -4 -10  -8    1.13    0.92
   6 -11  -8    1.16    1.03
   5 -11  -8    0.89    0.68
   5 -11  -8    0.27    0.86
   4 -11  -8    0.17    0.63
   4 -11  -8    0.92    0.85
   3 -11  -8   13.32    1.70
   3 -11  -8   10.04    1.34
   2 -11  -8    0.18    0.66
   2 -11  -8   -0.11    0.62
   1 -11  -8    8.61    1.28
   1 -11  -8    6.76    1.18
   0 -11  -8    0.26    0.69
  -1 -11  -8   -0.58    0.65
  -2 -11  -8    2.91    1.01
  -3 -11  -8    0.09    0.81
  -4 -11  -8    0.38    0.90
   5 -12  -8    0.14    0.63
   5 -12  -8   -0.73    0.80
   4 -12  -8    1.01    0.79
   4 -12  -8    3.52    1.18
   3 -12  -8    5.26    1.13
   3 -12  -8    7.21    1.38
   2 -12  -8    0.05    0.69
   2 -12  -8   -0.82    0.61
   1 -12  -8    2.64    0.94
   1 -12  -8    4.19    1.05
   0 -12  -8   -0.15    0.73
  -1 -12  -8    0.34    0.78
  -2 -12  -8    0.47    0.91
  -3 -12  -8   -1.08    0.80
   5 -13  -8   -0.13    0.71
   4 -13  -8    0.43    0.93
   4 -13  -8    0.64    0.80
   3 -13  -8    3.12    1.01
   3 -13  -8    3.24    1.10
   2 -13  -8    0.49    0.76
   2 -13  -8    0.01    0.76
   1 -13  -8    2.17    0.95
   1 -13  -8    4.03    1.04
   0 -13  -8    0.16    0.76
  -1 -13  -8    1.04    0.96
   4 -14  -8    1.85    0.95
   3 -14  -8    0.13    0.88
   3 -14  -8    0.21    0.77
   2 -14  -8    0.75    0.83
   2 -14  -8    1.01    0.83
   1 -14  -8    2.48    1.01
   2 -15  -8    2.69    1.06
  -1 -20   9    2.12    1.03
   0 -20   9    0.69    0.88
  -2 -19   9    0.32    0.79
  -1 -19   9    0.91    0.85
   0 -19   9    0.37    0.78
   3 -19   9   -0.16    0.97
   4  18  -9    0.95    0.87
   3  18  -9    1.33    0.79
  -3 -18   9    0.96    0.83
  -2 -18   9    0.03    0.72
  -1 -18   9    0.27    0.71
   0 -18   9   -0.64    0.62
   2 -18   9    0.51    0.86
   3 -18   9    0.62    0.94
   5  17  -9    0.06    0.76
   4  17  -9   -0.85    0.62
  -4 -17   9   -0.09    0.70
   3  17  -9    2.60    0.91
  -3 -17   9    2.85    0.98
   2  17  -9    1.37    0.76
  -2 -17   9   -0.15    0.58
   1  17  -9    0.02    0.62
  -1 -17   9    0.51    0.64
   0 -17   9    2.21    0.82
   1 -17   9    1.62    0.80
   2 -17   9    0.36    0.80
   3 -17   9    0.62    0.96
   4 -17   9    0.29    0.99
   5  16  -9    3.04    1.03
  -5 -16   9    0.90    0.80
   4  16  -9    1.80    0.88
  -4 -16   9    0.63    0.71
   3  16  -9   -0.05    0.62
  -3 -16   9    0.78    0.68
   2  16  -9    1.32    0.73
  -2 -16   9    2.04    0.78
   1  16  -9    2.71    0.85
  -1 -16   9    1.27    0.62
   0  16  -9    1.38    0.74
   0 -16   9    1.18    0.68
  -1  16  -9    1.78    0.82
   1 -16   9    2.35    0.85
   2 -16   9    0.82    0.87
   3 -16   9    0.48    0.94
   4 -16   9    2.77    1.13
   5  15  -9   -0.16    0.67
  -5 -15   9   -0.11    0.63
   4  15  -9    1.64    0.80
  -4 -15   9    1.92    0.80
   3  15  -9    1.45    0.72
  -3 -15   9    1.68    0.75
   2  15  -9    6.95    1.15
  -2 -15   9    5.09    0.97
   1  15  -9    4.79    0.98
  -1 -15   9    3.23    0.80
   0  15  -9    0.07    0.60
   0 -15   9   -0.31    0.55
   0 -15   9   -0.49    0.48
  -1  15  -9    7.29    1.14
   1 -15   9    5.11    1.04
  -2  15  -9    3.68    0.93
   2 -15   9    3.25    0.97
  -3  15  -9    6.53    1.19
   3 -15   9    4.71    1.14
   4 -15   9    2.93    1.14
   5 -15   9   -0.11    0.92
   6  14  -9    0.37    0.75
  -6 -14   9    0.02    0.71
   5  14  -9    0.25    0.72
  -5 -14   9   -0.11    0.66
   4  14  -9    1.25    0.71
  -4 -14   9    0.58    0.64
   3  14  -9   -0.85    0.48
  -3 -14   9    0.15    0.54
   2  14  -9    2.43    0.83
  -2 -14   9    3.33    0.81
   1  14  -9    6.42    1.06
  -1 -14   9    5.56    0.91
   0  14  -9    0.07    0.61
   0 -14   9    0.68    0.63
   0 -14   9    0.67    0.52
  -1  14  -9    7.26    1.12
   1 -14   9    6.49    0.94
   1 -14   9    8.26    1.20
  -2  14  -9    0.79    0.69
   2 -14   9    0.97    0.75
  -3  14  -9    3.00    0.91
   3 -14   9    3.61    1.06
  -4  14  -9   -0.51    0.68
   4 -14   9    0.04    0.81
   5 -14   9    0.00    0.91
   6  13  -9    1.89    0.88
  -6 -13   9    1.90    0.86
   5  13  -9   -0.11    0.64
  -5 -13   9   -0.04    0.58
   4  13  -9    4.12    0.99
  -4 -13   9    2.94    0.78
   3  13  -9    1.67    0.72
  -3 -13   9    1.60    0.67
   2  13  -9    3.08    0.83
  -2 -13   9    2.26    0.71
   1  13  -9    8.77    1.20
  -1 -13   9   10.76    1.14
  -1 -13   9    8.57    1.07
   0  13  -9    1.82    0.73
   0 -13   9    2.38    0.73
   0 -13   9    1.51    0.63
  -1  13  -9    9.16    1.21
   1 -13   9   11.08    1.13
   1 -13   9   11.78    1.37
  -2  13  -9    0.67    0.64
   2 -13   9   -0.96    0.55
  -3  13  -9    4.93    1.03
   3 -13   9    4.85    1.12
  -4  13  -9    0.43    0.79
   4 -13   9    1.37    0.94
  -5  13  -9    0.15    0.84
   5 -13   9   -0.65    0.74
  -6  13  -9    0.36    0.92
  -7 -12   9    7.48    1.32
   6  12  -9    1.29    0.89
  -6 -12   9    1.38    0.77
   5  12  -9    5.99    1.24
  -5 -12   9    4.51    0.99
   4  12  -9    1.53    0.69
  -4 -12   9    2.20    0.73
   3  12  -9    0.26    0.56
  -3 -12   9   -0.18    0.46
   2  12  -9    6.51    1.07
  -2 -12   9    4.91    0.87
   1  12  -9    5.02    0.97
  -1 -12   9    6.80    0.94
  -1 -12   9    6.23    0.95
   0  12  -9    0.77    0.59
   0 -12   9    1.55    0.67
   0 -12   9    1.51    0.61
  -1  12  -9    5.34    1.01
   1 -12   9    4.77    0.78
   1 -12   9    4.66    0.94
  -2  12  -9    0.24    0.61
   2 -12   9   -0.54    0.55
  -3  12  -9    6.60    1.10
   3 -12   9    5.29    1.09
  -4  12  -9    0.67    0.80
   4 -12   9    0.19    0.75
  -5  12  -9    3.15    1.06
   5 -12   9    1.34    0.99
  -6  12  -9   -1.31    0.76
   6 -12   9    1.14    1.04
   7  11  -9    0.97    0.88
  -7 -11   9    2.91    0.93
   6  11  -9   -0.12    0.63
  -6 -11   9    0.18    0.62
   5  11  -9    2.00    0.85
  -5 -11   9    3.24    0.82
   4  11  -9   -0.64    0.49
  -4 -11   9    0.11    0.51
   3  11  -9   -0.04    0.51
  -3 -11   9   -0.09    0.43
   2  11  -9    4.63    0.91
  -2 -11   9    4.87    0.85
   1  11  -9    6.60    1.03
  -1 -11   9    4.27    0.79
  -1 -11   9    6.50    0.90
   0  11  -9    7.85    1.07
   0 -11   9    7.59    0.91
   0 -11   9    5.21    0.91
  -1  11  -9    6.05    1.02
   1 -11   9    5.20    0.77
   1 -11   9    7.55    1.09
  -2  11  -9    0.33    0.62
   2 -11   9    0.02    0.61
  -3  11  -9    6.21    1.11
   3 -11   9    7.40    1.23
  -4  11  -9   -0.01    0.68
   4 -11   9    0.39    0.73
  -5  11  -9    2.23    0.94
   5 -11   9    2.53    1.01
  -6  11  -9    0.42    0.87
   6 -11   9   -0.77    0.92
  -8 -10   9    0.72    0.77
   7  10  -9    0.80    0.86
  -7 -10   9    0.76    0.70
   6  10  -9    0.10    0.67
  -6 -10   9    0.08    0.61
   5  10  -9    8.38    1.35
  -5 -10   9    9.99    1.28
   4  10  -9    4.01    0.93
  -4 -10   9    3.40    0.80
   3  10  -9    8.72    1.21
  -3 -10   9    9.74    1.13
   2  10  -9   14.56    1.43
  -2 -10   9   14.45    1.08
  -2 -10   9   14.78    1.32
   1  10  -9    0.11    0.50
  -1 -10   9    0.61    0.46
  -1 -10   9   -0.58    0.46
   0  10  -9   14.78    1.41
   0 -10   9   15.87    1.38
   0 -10   9   13.54    1.04
  -1  10  -9    6.86    1.03
   1 -10   9    7.42    1.09
   1 -10   9    5.74    0.77
  -2  10  -9   13.38    1.41
  -3  10  -9   11.90    1.39
   3 -10   9   12.80    1.51
  -4  10  -9    0.79    0.74
   4 -10   9    0.73    0.78
  -5  10  -9    6.17    1.21
   5 -10   9    3.41    0.99
  -6  10  -9   -1.13    0.71
   6 -10   9   -0.16    0.90
  -8  -9   9    0.92    0.79
   7   9  -9    2.72    1.02
  -7  -9   9    3.94    0.96
   6   9  -9    1.80    0.82
  -6  -9   9    1.68    0.68
   5   9  -9    2.04    0.79
  -5  -9   9    1.53    0.66
   4   9  -9    2.64    0.77
  -4  -9   9    1.62    0.61
   3   9  -9    4.73    0.93
  -3  -9   9    3.64    0.74
   2   9  -9    6.83    1.03
  -2  -9   9    6.84    0.86
  -2  -9   9    8.27    1.02
   1   9  -9    7.73    1.06
  -1  -9   9    5.98    0.85
  -1  -9   9    6.78    0.87
   0   9  -9   12.68    1.31
   0  -9   9   13.67    1.27
   0  -9   9   13.53    1.00
  -1   9  -9    7.45    1.07
   1  -9   9    7.68    1.08
   1  -9   9    7.59    0.83
  -2   9  -9    0.69    0.62
   2  -9   9    0.45    0.62
  -3   9  -9    3.77    0.93
   3  -9   9    3.61    0.97
  -4   9  -9    1.39    0.74
   4  -9   9    1.71    0.85
  -5   9  -9    3.98    1.05
   5  -9   9    2.07    0.83
  -6   9  -9    1.11    0.88
   6  -9   9   -0.26    0.81
   8   8  -9   -0.39    0.78
  -8  -8   9    0.15    0.68
   7   8  -9    2.75    0.98
  -7  -8   9    1.94    0.77
   6   8  -9    0.28    0.65
  -6  -8   9    0.66    0.59
   5   8  -9    3.77    0.94
  -5  -8   9    4.96    0.96
   4   8  -9    5.68    1.02
   3   8  -9   22.04    1.40
   3   8  -9   23.59    1.54
  -3  -8   9   22.24    1.23
   2   8  -9    0.03    0.40
   2   8  -9   -0.15    0.43
  -2  -8   9   -0.13    0.43
   1   8  -9    2.28    0.67
   1   8  -9    4.48    0.72
  -1  -8   9    3.26    0.69
   0   8  -9    1.38    0.49
   0   8  -9    1.29    0.56
   0  -8   9    2.51    0.69
  -1   8  -9    0.08    0.47
   1  -8   9   -0.57    0.46
  -2   8  -9    2.57    0.75
   2  -8   9    3.57    0.85
  -3   8  -9   12.70    1.42
   3  -8   9   14.38    1.54
  -4   8  -9    1.03    0.68
   4  -8   9    1.00    0.74
  -5   8  -9    2.31    0.88
   5  -8   9    2.00    0.81
  -6   8  -9    0.20    0.81
   6  -8   9   -0.39    0.83
   7  -8   9    1.07    1.11
   8   7  -9    0.42    0.82
  -8  -7   9   -0.35    0.63
   7   7  -9    1.58    0.86
  -7  -7   9    1.71    0.72
   6   7  -9   -0.31    0.52
  -6  -7   9    0.11    0.48
   5   7  -9    5.60    1.07
   4   7  -9    1.33    0.66
   4   7  -9    2.46    0.66
   3   7  -9   43.86    2.12
   3   7  -9   43.75    1.98
  -3  -7   9   41.76    1.79
   2   7  -9    0.45    0.48
   2   7  -9    0.56    0.41
  -2  -7   9    0.18    0.41
   1   7  -9    5.78    0.89
   1   7  -9    5.58    0.78
  -1  -7   9    6.36    0.86
   0   7  -9   18.93    1.29
   0   7  -9   18.57    1.10
   0  -7   9   19.86    1.35
  -1   7  -9    1.12    0.54
  -1   7  -9    1.44    0.46
   1  -7   9    0.94    0.59
  -2   7  -9   23.10    1.50
  -2   7  -9   20.75    1.05
   2  -7   9   20.31    1.53
  -3   7  -9    1.45    0.71
   3  -7   9    1.00    0.71
  -4   7  -9   10.85    1.34
   4  -7   9   10.75    1.35
  -5   7  -9    0.92    0.77
   5  -7   9    1.21    0.85
  -6   7  -9   -0.48    0.73
   6  -7   9    0.29    0.84
   7  -7   9   -0.75    0.86
   8   6  -9    1.84    1.01
   7   6  -9    0.84    0.72
  -7  -6   9    0.98    0.65
   6   6  -9    4.27    1.00
   6   6  -9    6.68    1.03
   5   6  -9    0.11    0.45
   5   6  -9    0.72    0.62
   4   6  -9    2.50    0.65
   4   6  -9    2.13    0.69
  -4  -6   9    2.90    0.61
   3   6  -9    6.02    0.94
   3   6  -9    7.57    0.95
  -3  -6   9    6.77    0.83
   2   6  -9   32.81    1.71
   2   6  -9   30.86    1.55
  -2  -6   9   31.77    1.56
   1   6  -9    9.96    1.07
   1   6  -9   12.21    1.08
  -1  -6   9   12.19    1.13
   0   6  -9    0.77    0.49
   0   6  -9   -0.15    0.32
   0  -6   9    0.27    0.47
  -1   6  -9    1.30    0.41
  -1   6  -9    0.67    0.51
   1  -6   9    0.66    0.55
  -2   6  -9   11.31    1.25
  -2   6  -9   10.28    0.84
   2  -6   9   12.37    1.36
  -3   6  -9    0.38    0.56
   3  -6   9    1.53    0.77
  -4   6  -9    1.75    0.76
   4  -6   9    1.85    0.78
  -5   6  -9    0.47    0.66
   5  -6   9    0.47    0.75
  -6   6  -9    0.65    0.78
   6  -6   9    0.23    0.85
   7  -6   9   -0.24    0.95
   8   5  -9    0.70    0.85
   7   5  -9   -0.01    0.65
   6   5  -9    0.85    0.65
   6   5  -9    0.22    0.48
   5   5  -9    0.44    0.57
   5   5  -9    0.22    0.47
   4   5  -9    6.89    1.03
   4   5  -9    6.80    0.94
  -4  -5   9    6.79    0.88
   3   5  -9   16.51    1.22
   3   5  -9   16.14    1.16
  -3  -5   9   14.53    1.12
   2   5  -9   31.30    1.55
   2   5  -9   31.43    1.67
  -2  -5   9   33.98    1.59
   1   5  -9   49.21    1.92
   1   5  -9   49.01    2.09
  -1  -5   9   48.72    2.08
   0   5  -9   43.16    1.96
   0   5  -9   43.80    1.72
   0  -5   9   44.14    2.01
  -1   5  -9   26.36    1.52
  -1   5  -9   24.79    1.19
   1  -5   9   22.96    1.49
  -2   5  -9   11.12    1.20
  -2   5  -9   13.11    0.84
   2  -5   9   14.44    1.44
  -3   5  -9    1.76    0.71
   3  -5   9    2.87    0.87
  -4   5  -9    1.30    0.74
   4  -5   9    1.40    0.80
  -5   5  -9    0.86    0.72
   5  -5   9   -0.38    0.65
  -6   5  -9    0.25    0.76
   6  -5   9   -0.52    0.76
   7  -5   9    0.21    0.93
   8   4  -9    1.42    0.91
   7   4  -9   -0.01    0.51
   7   4  -9    0.83    0.70
   6   4  -9    4.23    0.82
   6   4  -9    4.58    0.96
   5   4  -9   -0.09    0.44
   5   4  -9    0.35    0.47
   5   4  -9    0.05    0.52
   4   4  -9   34.11    1.83
   4   4  -9   37.73    1.79
  -4  -4   9   36.46    1.74
   3   4  -9    3.71    0.76
   3   4  -9    3.75    0.67
  -3  -4   9    4.47    0.75
   2   4  -9    1.49    0.50
   2   4  -9    2.52    0.61
  -2  -4   9    1.34    0.53
   1   4  -9    6.02    0.81
   1   4  -9    5.34    0.72
  -1  -4   9    6.54    0.87
   0   4  -9    7.82    0.82
   0   4  -9   10.31    1.02
   0  -4   9    8.90    1.06
  -1   4  -9   85.33    3.11
  -1   4  -9   88.41    2.73
   1  -4   9   86.78    3.24
  -2   4  -9   22.48    1.10
  -2   4  -9   24.55    1.51
   2  -4   9   20.26    1.52
  -3   4  -9    4.25    0.88
   3  -4   9    3.39    0.88
  -4   4  -9    2.78    0.83
   4  -4   9    4.77    0.99
  -5   4  -9   -0.57    0.57
   5  -4   9    0.79    0.80
  -6   4  -9   -0.54    0.68
   6  -4   9   -0.10    0.82
   9   3  -9    2.24    1.12
   8   3  -9    0.55    0.83
   7   3  -9    0.79    0.66
   7   3  -9    1.71    0.71
   6   3  -9    0.23    0.48
   6   3  -9    0.27    0.55
   5   3  -9    4.65    0.81
   5   3  -9    6.41    0.90
   5   3  -9    5.12    0.91
   4   3  -9   23.93    1.44
   4   3  -9   26.56    1.52
   3   3  -9    1.53    0.54
   3   3  -9    1.22    0.47
  -3  -3   9    1.82    0.59
   2   3  -9    0.99    0.47
   2   3  -9    0.07    0.35
  -2  -3   9    0.48    0.45
   1   3  -9   38.38    1.68
   1   3  -9   40.65    1.77
  -1  -3   9   39.82    1.87
   0   3  -9   29.33    1.49
   0   3  -9   29.40    1.39
   0  -3   9   27.96    1.58
  -1   3  -9   13.65    0.94
  -1   3  -9   17.12    1.19
   1  -3   9   14.78    1.39
  -2   3  -9    2.50    0.49
  -2   3  -9    1.62    0.64
   2  -3   9    2.03    0.74
  -3   3  -9    0.93    0.64
   3  -3   9   -0.10    0.66
  -4   3  -9   25.98    1.83
  -5   3  -9    1.79    0.83
   5  -3   9    1.58    0.81
  -6   3  -9    1.29    0.89
   6  -3   9    1.76    0.84
   9   2  -9    0.49    0.93
   8   2  -9    0.02    0.74
   7   2  -9   -0.20    0.59
   7   2  -9    0.30    0.50
   6   2  -9    3.04    0.78
   6   2  -9    2.37    0.69
   6   2  -9    2.86    0.69
   5   2  -9    7.21    0.96
   5   2  -9    7.65    1.04
   5   2  -9    5.32    0.84
   4   2  -9    7.17    0.93
   4   2  -9    7.05    0.94
   4   2  -9    7.67    0.95
   3   2  -9    0.32    0.43
   3   2  -9    1.03    0.47
   2   2  -9    0.06    0.39
   2   2  -9   -0.26    0.30
  -2  -2   9   -0.17    0.40
   1   2  -9    5.83    0.76
   1   2  -9    3.74    0.62
  -1  -2   9    4.05    0.74
   0   2  -9    1.52    0.45
   0   2  -9    0.30    0.44
   0  -2   9    0.65    0.49
  -1   2  -9   73.31    2.77
  -1   2  -9   73.62    2.45
   1  -2   9   75.49    2.91
  -2   2  -9    0.41    0.34
  -2   2  -9    0.35    0.53
   2  -2   9    1.15    0.67
  -3   2  -9    9.12    1.18
   3  -2   9    7.49    1.15
  -4   2  -9    7.87    1.20
   4  -2   9    9.79    1.28
  -5   2  -9    8.11    1.29
   5  -2   9    5.16    1.06
  -6   2  -9    2.75    0.95
   6  -2   9    2.07    0.91
   9   1  -9    0.03    0.87
   8   1  -9    0.10    0.73
   7   1  -9    5.71    0.95
   7   1  -9    7.50    1.18
   6   1  -9    0.64    0.51
   6   1  -9    0.44    0.41
   6   1  -9    0.78    0.57
   5   1  -9   11.17    1.21
   5   1  -9   10.08    1.14
   5   1  -9   12.05    1.25
   4   1  -9   49.35    2.23
   4   1  -9   50.66    2.15
   4   1  -9   51.25    2.18
   3   1  -9   -0.38    0.42
   3   1  -9   -0.25    0.30
   3   1  -9    0.09    0.26
   2   1  -9    0.53    0.35
   2   1  -9   -0.16    0.32
  -2  -1   9   -0.07    0.39
   1   1  -9    5.04    0.70
   1   1  -9    5.57    0.73
  -1  -1   9    5.05    0.82
   0   1  -9   26.12    1.41
   0   1  -9   28.48    1.36
   0  -1   9   27.71    1.61
  -1   1  -9   67.86    2.58
  -1   1  -9   66.85    2.33
   1  -1   9   66.82    2.75
  -2   1  -9    5.80    0.95
  -2   1  -9    4.98    0.67
   2  -1   9    5.89    1.02
  -3   1  -9    1.53    0.71
   3  -1   9    2.05    0.84
  -4   1  -9    2.68    0.80
   4  -1   9    1.93    0.82
  -5   1  -9    0.82    0.74
   5  -1   9    1.08    0.81
  -6   1  -9    2.35    0.95
   7   0  -9    4.27    0.94
   7   0  -9    3.71    0.79
   6   0  -9    0.54    0.42
   6   0  -9    0.10    0.45
   6   0  -9    0.09    0.60
   5   0  -9    8.90    1.05
   5   0  -9   12.13    1.21
   5   0  -9   12.40    1.30
   4   0  -9   20.71    1.28
   4   0  -9   22.94    1.48
   4   0  -9   23.68    1.44
   3   0  -9   17.65    1.14
   3   0  -9   18.91    1.25
   3   0  -9   22.28    1.40
   2   0  -9   36.57    1.62
   2   0  -9   36.91    1.68
   1   0  -9    0.79    0.38
   1   0  -9    0.75    0.41
  -1   0   9    1.65    0.61
   0   0  -9   19.99    1.14
   0   0  -9   18.22    1.14
   0   0   9   19.99    1.39
  -1   0  -9    5.31    0.80
  -1   0  -9    5.76    0.76
   1   0   9    5.14    0.91
  -2   0  -9   -0.14    0.39
  -2   0  -9   -0.90    0.43
   2   0   9   -0.32    0.52
  -3   0  -9   12.34    1.36
   3   0   9   13.50    1.49
  -4   0  -9    2.21    0.76
   4   0   9    2.03    0.79
  -5   0  -9    8.78    1.34
   5   0   9    7.44    1.17
  -6   0  -9   -0.24    0.75
   7  -1  -9    4.93    1.06
   6  -1  -9    0.25    0.51
   6  -1  -9    0.49    0.67
   6  -1  -9    0.54    0.53
   5  -1  -9   13.01    1.40
   5  -1  -9   10.15    1.15
   5  -1  -9   11.37    1.11
   4  -1  -9   23.24    1.57
   4  -1  -9   21.53    1.41
   4  -1  -9   24.05    1.31
   3  -1  -9   11.48    1.00
   3  -1  -9   12.28    1.31
   3  -1  -9    9.10    1.01
   2  -1  -9    3.34    0.58
   2  -1  -9    4.23    0.70
   2  -1  -9    3.74    0.81
   1  -1  -9   -0.74    0.26
   1  -1  -9    0.44    0.40
  -1   1   9    0.71    0.50
   0  -1  -9   65.87    2.43
   0  -1  -9   67.94    2.44
   0   1   9   67.89    2.77
  -1  -1  -9    3.33    0.64
  -1  -1  -9    1.68    0.58
   1   1   9    3.72    0.84
  -2  -1  -9   -0.29    0.49
  -2  -1  -9   -0.44    0.41
   2   1   9    0.15    0.61
  -3  -1  -9    0.99    0.66
  -3  -1  -9    1.10    0.54
   3   1   9    1.19    0.77
  -4  -1  -9    0.13    0.57
   4   1   9   -0.50    0.63
  -5  -1  -9    2.33    0.90
  -6  -1  -9    1.61    0.86
   7  -2  -9    3.54    0.99
   6  -2  -9    0.71    0.54
   6  -2  -9    1.01    0.70
   5  -2  -9    3.03    0.89
   5  -2  -9    3.11    0.73
   4  -2  -9   -0.11    0.41
   4  -2  -9    0.41    0.65
   4  -2  -9    0.67    0.45
   3  -2  -9    0.54    0.46
   3  -2  -9    0.32    0.58
   3  -2  -9    0.42    0.40
   2  -2  -9   52.74    2.36
   2  -2  -9   52.19    1.93
   2  -2  -9   47.81    2.09
   1  -2  -9    2.72    0.58
   1  -2  -9    3.12    0.56
  -1   2   9    3.55    0.79
   0  -2  -9   35.40    1.59
   0  -2  -9   33.10    1.62
   0   2   9   36.55    1.91
  -1  -2  -9    0.51    0.43
  -1  -2  -9   -0.04    0.18
   1   2   9    1.40    0.66
  -2  -2  -9    9.71    1.14
  -2  -2  -9    9.65    1.05
   2   2   9    9.63    1.27
  -3  -2  -9    0.42    0.51
  -3  -2  -9    0.22    0.55
   3   2   9   -0.27    0.62
  -4  -2  -9    0.48    0.62
   4   2   9    0.07    0.47
  -5  -2  -9    0.24    0.71
  -6  -2  -9    2.31    0.98
   8  -3  -9    2.00    0.95
   7  -3  -9    0.53    0.74
   6  -3  -9    0.69    0.66
   6  -3  -9    0.56    0.55
   5  -3  -9    1.72    0.60
   5  -3  -9    2.28    0.84
   4  -3  -9   17.87    1.26
   4  -3  -9   16.55    1.62
   3  -3  -9    8.53    1.16
   2  -3  -9    9.92    0.84
   2  -3  -9   10.19    1.09
   2  -3  -9   10.40    1.23
   1  -3  -9    6.36    0.89
   1  -3  -9    6.41    0.72
  -1   3   9    6.37    1.05
   0  -3  -9   30.59    1.45
   0  -3  -9   28.19    1.56
   0   3   9   31.20    1.81
  -1  -3  -9    3.51    0.74
  -1  -3  -9    2.37    0.63
   1   3   9    1.21    0.68
  -2  -3  -9   14.96    1.32
  -2  -3  -9   11.16    1.23
   2   3   9   13.37    1.46
  -3  -3  -9    1.73    0.59
  -3  -3  -9    0.84    0.63
   3   3   9    0.11    0.54
  -4  -3  -9    2.14    0.79
  -5  -3  -9    2.94    0.96
  -6  -3  -9   -0.15    0.80
   8  -4  -9    1.07    0.90
   7  -4  -9   -0.59    0.65
   6  -4  -9    0.35    0.54
   6  -4  -9    0.82    0.77
   5  -4  -9   10.04    1.40
   5  -4  -9    8.37    1.06
   4  -4  -9    1.32    0.62
   4  -4  -9    2.42    0.84
   3  -4  -9   25.05    1.53
   3  -4  -9   24.40    1.68
   2  -4  -9   -0.79    0.34
   2  -4  -9    0.16    0.53
   1  -4  -9   -0.08    0.41
   0  -4  -9   21.39    1.39
   0  -4  -9   21.10    1.18
   0   4   9   19.66    1.47
  -1  -4  -9    3.20    0.71
  -1  -4  -9    2.56    0.72
   1   4   9    3.80    0.93
  -2  -4  -9   14.03    1.30
  -2  -4  -9    8.62    1.06
   2   4   9   13.59    1.48
  -3  -4  -9    0.75    0.58
  -3  -4  -9    0.94    0.64
   3   4   9    1.61    0.74
  -4  -4  -9    3.64    0.94
  -5  -4  -9    1.34    0.82
  -6  -4  -9    0.37    0.86
   8  -5  -9    1.96    1.01
   7  -5  -9   -0.53    0.71
   6  -5  -9    1.11    0.82
   6  -5  -9    0.39    0.54
   5  -5  -9    6.36    0.94
   5  -5  -9    7.53    1.26
   4  -5  -9   -0.50    0.67
   4  -5  -9    0.79    0.51
   3  -5  -9    8.01    1.03
   3  -5  -9   11.48    1.37
   2  -5  -9    0.79    0.66
   2  -5  -9    0.17    0.46
   1  -5  -9    6.75    0.95
   1  -5  -9    5.83    0.98
   0  -5  -9    7.39    1.05
   0   5   9    6.18    1.06
  -1  -5  -9    1.33    0.57
  -1  -5  -9    0.06    0.51
   1   5   9    0.74    0.70
  -2  -5  -9    2.81    0.74
  -2  -5  -9    2.23    0.70
   2   5   9    2.39    0.77
  -3  -5  -9    0.95    0.67
  -3  -5  -9    0.84    0.59
  -4  -5  -9    4.43    1.01
  -5  -5  -9    0.05    0.69
  -6  -5  -9   -0.73    0.75
   8  -6  -9    1.61    1.04
   7  -6  -9   -0.61    0.79
   6  -6  -9    2.88    1.02
   6  -6  -9    1.68    0.67
   5  -6  -9    0.21    0.69
   5  -6  -9    0.62    0.55
   4  -6  -9    7.33    1.25
   4  -6  -9    6.64    0.99
   3  -6  -9   23.50    1.53
   3  -6  -9   19.10    1.81
   2  -6  -9   -0.02    0.46
   2  -6  -9    0.39    0.66
   1  -6  -9    0.16    0.49
   1  -6  -9    0.04    0.63
   0  -6  -9   27.91    1.70
   0   6   9   23.61    1.69
  -1  -6  -9    0.67    0.62
   1   6   9    0.55    0.69
  -2  -6  -9   20.82    1.50
   2   6   9   13.94    1.48
  -3  -6  -9    1.83    0.73
  -4  -6  -9    6.72    1.19
  -5  -6  -9    0.23    0.74
   7  -7  -9   -0.75    0.83
   6  -7  -9    1.55    0.66
   6  -7  -9    0.78    0.86
   5  -7  -9   -0.03    0.72
   5  -7  -9    0.42    0.54
   4  -7  -9    5.75    1.03
   4  -7  -9    5.43    1.19
   3  -7  -9    6.65    1.14
   3  -7  -9    4.93    0.95
   2  -7  -9    2.66    0.78
   2  -7  -9    2.26    0.81
   1  -7  -9    5.38    0.97
   1  -7  -9    4.75    1.00
   0  -7  -9   15.09    1.53
   0   7   9   13.33    1.47
  -1  -7  -9   18.19    1.67
   1   7   9   18.97    1.74
  -2  -7  -9    7.55    1.21
  -3  -7  -9    1.24    0.76
   7  -8  -9   -0.45    0.86
   6  -8  -9    1.46    0.94
   6  -8  -9    1.45    0.70
   5  -8  -9   -0.53    0.71
   5  -8  -9    0.28    0.53
   4  -8  -9    5.66    1.23
   4  -8  -9    5.13    0.97
   3  -8  -9   10.60    1.29
   3  -8  -9    9.64    1.41
   2  -8  -9    1.09    0.73
   2  -8  -9    1.03    0.58
   1  -8  -9   13.07    1.49
   1  -8  -9   11.08    1.39
   0  -8  -9    0.41    0.62
   0   8   9   -0.04    0.65
  -1  -8  -9   13.63    1.54
   1   8   9   11.98    1.42
  -2  -8  -9    1.35    0.79
  -3  -8  -9   -0.43    0.67
   6  -9  -9   -0.25    0.83
   5  -9  -9   -0.50    0.48
   5  -9  -9    0.12    0.84
   4  -9  -9    5.03    1.01
   4  -9  -9    4.84    1.18
   3  -9  -9    4.08    1.08
   3  -9  -9    3.24    0.88
   2  -9  -9    4.20    0.96
   2  -9  -9    5.18    1.09
   1  -9  -9    6.51    1.14
   1  -9  -9    5.99    1.11
   0  -9  -9    9.72    1.41
   0   9   9   12.77    1.50
  -1  -9  -9   -0.09    0.64
  -2  -9  -9    0.11    0.72
  -3  -9  -9    1.13    0.88
   6 -10  -9    1.15    0.98
   5 -10  -9   -0.29    0.58
   5 -10  -9    0.27    0.82
   4 -10  -9    2.50    0.81
   4 -10  -9    3.32    1.13
   3 -10  -9    2.69    0.88
   3 -10  -9    0.74    0.81
   2 -10  -9    3.16    0.95
   2 -10  -9    3.75    1.00
   1 -10  -9    1.02    0.72
   0 -10  -9    1.28    0.83
   0  10   9    3.10    0.94
  -1 -10  -9    2.35    0.92
  -2 -10  -9    2.09    0.98
  -3 -10  -9   -0.56    0.78
   5 -11  -9   -0.36    0.62
   5 -11  -9    0.67    0.90
   4 -11  -9    3.31    1.17
   4 -11  -9    1.38    0.77
   3 -11  -9   -0.41    0.60
   3 -11  -9    0.26    0.74
   2 -11  -9    3.71    1.04
   2 -11  -9    2.00    0.88
   1 -11  -9    0.35    0.72
   1 -11  -9   -0.27    0.65
   0 -11  -9    2.94    1.05
  -1 -11  -9   -0.66    0.80
  -2 -11  -9   -0.73    0.73
  -3 -11  -9    1.37    0.98
   5 -12  -9   -0.27    0.66
   4 -12  -9    1.32    0.85
   4 -12  -9    1.81    1.04
   3 -12  -9   -0.06    0.74
   3 -12  -9    0.00    0.70
   2 -12  -9    1.28    0.86
   2 -12  -9    0.46    0.76
   1 -12  -9    0.51    0.81
   1 -12  -9    0.09    0.71
   0 -12  -9    0.35    0.84
  -1 -12  -9    0.15    0.83
  -2 -12  -9   -0.35    0.83
   5 -13  -9    0.05    0.76
   4 -13  -9    0.18    0.78
   3 -13  -9    0.27    0.75
   3 -13  -9    1.66    0.97
   2 -13  -9    3.28    1.04
   2 -13  -9    0.97    0.88
   1 -13  -9   -0.04    0.86
   0 -13  -9    3.01    1.08
   2 -14  -9   -0.06    0.84
  -1 -20  10   -0.13    0.82
  -2 -19  10    0.45    0.80
  -1 -19  10    0.42    0.78
   4  18 -10    2.18    0.98
   3  18 -10    0.25    0.74
  -3 -18  10   -0.35    0.69
   2  18 -10    2.02    0.89
  -2 -18  10    2.27    0.85
  -1 -18  10   -0.25    0.60
   0 -18  10    0.09    0.71
   2 -18  10    1.46    0.98
   3 -18  10    1.62    1.09
   4  17 -10    2.45    0.99
  -4 -17  10    1.19    0.84
   3  17 -10    0.26    0.70
  -3 -17  10    0.15    0.64
   2  17 -10    1.49    0.80
  -2 -17  10    1.38    0.74
   1  17 -10    0.53    0.76
  -1 -17  10    0.53    0.64
   0  17 -10    1.62    0.82
   0 -17  10    0.60    0.65
   1 -17  10    3.24    0.97
   2 -17  10   -0.48    0.81
   3 -17  10    1.81    1.02
   5  16 -10    1.10    0.87
   4  16 -10    0.91    0.76
  -4 -16  10    0.30    0.69
   3  16 -10   -1.11    0.49
  -3 -16  10    0.85    0.73
   2  16 -10    3.87    1.01
  -2 -16  10    2.41    0.78
   1  16 -10   -0.18    0.62
  -1 -16  10    0.63    0.57
   0  16 -10    8.99    1.31
   0 -16  10    6.19    1.02
  -1  16 -10    1.75    0.83
   1 -16  10    2.00    0.90
  -2  16 -10    1.53    0.83
   2 -16  10    2.81    1.02
   3 -16  10    0.74    0.88
   4 -16  10   -0.60    0.90
   5  15 -10   -0.42    0.63
  -5 -15  10   -0.54    0.64
   4  15 -10   -0.62    0.61
  -4 -15  10   -0.31    0.57
   3  15 -10    0.84    0.69
  -3 -15  10    0.11    0.59
   2  15 -10    6.26    1.13
  -2 -15  10    4.56    0.94
   1  15 -10    7.91    1.24
  -1 -15  10    8.16    1.14
   0  15 -10    3.10    0.93
   0 -15  10    2.32    0.71
   0 -15  10    2.46    0.82
  -1  15 -10    0.90    0.76
   1 -15  10    1.67    0.79
  -2  15 -10    0.77    0.77
   2 -15  10    1.46    0.84
  -3  15 -10    2.07    0.95
   3 -15  10    1.41    0.92
  -4  15 -10    0.44    0.86
   4 -15  10    0.77    0.90
   6  14 -10   -0.24    0.75
  -6 -14  10    1.17    0.81
   5  14 -10    1.34    0.85
  -5 -14  10    0.53    0.68
   4  14 -10    1.34    0.75
  -4 -14  10    2.45    0.80
   3  14 -10    0.71    0.65
   2  14 -10    0.60    0.62
  -2 -14  10    0.10    0.47
   1  14 -10    2.16    0.79
  -1 -14  10    1.47    0.66
   0  14 -10    3.19    0.89
   0 -14  10    4.41    0.91
   0 -14  10    3.45    0.79
  -1  14 -10    1.76    0.75
   1 -14  10    2.40    0.84
  -2  14 -10    2.07    0.88
   2 -14  10    1.93    0.87
  -3  14 -10   -0.43    0.69
   3 -14  10   -0.86    0.71
  -4  14 -10    0.41    0.83
   4 -14  10    0.47    0.88
  -5  14 -10    1.54    1.08
   5 -14  10    0.87    0.88
   6  13 -10   -0.33    0.71
  -6 -13  10    0.56    0.71
   5  13 -10    2.91    0.99
  -5 -13  10    3.21    0.92
   4  13 -10    0.22    0.60
  -4 -13  10    0.61    0.58
   3  13 -10    2.87    0.83
  -3 -13  10    1.50    0.63
   2  13 -10    4.88    0.99
  -2 -13  10    3.61    0.81
   1  13 -10    2.43    0.78
  -1 -13  10    3.06    0.76
  -1 -13  10    3.21    0.79
   0  13 -10    6.01    1.08
   0 -13  10    8.19    1.02
   0 -13  10    8.12    1.15
  -1  13 -10   -0.09    0.59
   1 -13  10   -0.10    0.47
   1 -13  10    0.79    0.69
  -2  13 -10    3.28    0.94
   2 -13  10    4.61    1.06
  -3  13 -10    0.63    0.76
   3 -13  10    2.29    0.92
  -4  13 -10    2.10    0.97
   4 -13  10    1.24    0.94
  -5  13 -10    2.81    1.11
   5 -13  10    1.95    0.93
  -6  13 -10   -1.06    0.84
  -7 -12  10    4.58    1.14
   6  12 -10    0.68    0.80
  -6 -12  10    1.57    0.81
   5  12 -10    0.07    0.69
  -5 -12  10    1.52    0.77
   4  12 -10    1.01    0.70
  -4 -12  10    1.14    0.65
   3  12 -10    3.06    0.89
  -3 -12  10    2.38    0.77
   2  12 -10    0.13    0.53
  -2 -12  10   -0.08    0.47
   1  12 -10    4.21    0.93
  -1 -12  10    2.23    0.66
  -1 -12  10    3.52    0.80
   0  12 -10    5.37    0.99
   0 -12  10    7.25    0.97
   0 -12  10    7.30    1.07
  -1  12 -10   -0.65    0.53
   1 -12  10    0.24    0.47
   1 -12  10   -0.27    0.57
  -2  12 -10    3.39    0.93
   2 -12  10    2.79    0.88
  -3  12 -10    0.06    0.68
   3 -12  10   -0.47    0.70
  -4  12 -10    7.09    1.27
   4 -12  10    6.35    1.25
  -5  12 -10    0.10    0.83
   5 -12  10   -0.62    0.78
  -6  12 -10    0.50    0.96
   7  11 -10    1.12    0.86
  -7 -11  10    1.67    0.83
   6  11 -10    1.09    0.85
  -6 -11  10    1.27    0.76
   5  11 -10    3.58    1.00
  -5 -11  10    2.88    0.87
   4  11 -10    8.33    1.29
  -4 -11  10    8.31    1.15
   3  11 -10    1.10    0.66
  -3 -11  10    1.47    0.62
   2  11 -10    1.79    0.70
  -2 -11  10    1.00    0.57
  -2 -11  10    1.67    0.61
   1  11 -10   12.21    1.38
  -1 -11  10   15.86    1.39
  -1 -11  10   13.69    1.25
   0  11 -10    1.54    0.67
   0 -11  10    2.14    0.63
   0 -11  10    2.50    0.76
  -1  11 -10    0.69    0.67
   1 -11  10    0.86    0.71
   1 -11  10    0.12    0.45
  -2  11 -10   10.89    1.36
   2 -11  10   12.73    1.49
  -3  11 -10    0.50    0.71
   3 -11  10    2.08    0.90
  -4  11 -10    2.57    0.91
   4 -11  10    2.97    0.98
  -5  11 -10   -0.62    0.74
   5 -11  10    0.60    0.87
  -6  11 -10   -0.37    0.83
   6 -11  10    0.01    1.02
  -8 -10  10    2.87    1.01
   7  10 -10   -0.75    0.69
  -7 -10  10    0.16    0.68
   6  10 -10    6.39    1.23
  -6 -10  10    6.68    1.18
   5  10 -10    0.45    0.63
  -5 -10  10   -0.35    0.48
   4  10 -10    0.98    0.64
  -4 -10  10    0.43    0.55
   3  10 -10    6.14    1.04
  -3 -10  10    9.68    1.18
   2  10 -10    0.72    0.59
  -2 -10  10    0.34    0.43
  -2 -10  10    0.49    0.52
   1  10 -10   26.60    1.70
  -1 -10  10   27.91    1.57
  -1 -10  10   24.22    1.47
   0  10 -10    1.19    0.66
   0 -10  10    1.06    0.53
   0 -10  10    1.82    0.66
  -1  10 -10    6.22    1.01
   1 -10  10    4.37    0.71
   1 -10  10    5.50    1.00
  -2  10 -10    7.54    1.13
   2 -10  10    8.48    1.25
  -3  10 -10    0.78    0.71
   3 -10  10    0.56    0.66
  -4  10 -10    8.65    1.31
   4 -10  10    7.58    1.29
  -5  10 -10    3.50    1.03
   5 -10  10    3.66    0.99
  -6  10 -10    1.65    0.94
   6 -10  10    0.63    0.96
  -8  -9  10    1.39    0.84
   7   9 -10    0.24    0.71
  -7  -9  10    0.38    0.67
   6   9 -10   -0.08    0.62
  -6  -9  10    0.20    0.57
   5   9 -10    1.11    0.69
  -5  -9  10    1.01    0.61
   4   9 -10   17.59    1.71
  -4  -9  10   14.26    1.43
   3   9 -10   12.76    1.45
  -3  -9  10   15.23    1.12
   2   9 -10    2.70    0.76
   2   9 -10    1.79    0.63
  -2  -9  10    1.56    0.61
   1   9 -10   19.60    1.45
   1   9 -10   19.02    1.27
  -1  -9  10   19.70    1.35
   0   9 -10    0.42    0.53
   0  -9  10    0.97    0.61
  -1   9 -10   24.61    1.66
   1  -9  10   27.86    1.76
   1  -9  10   26.27    1.35
  -2   9 -10    9.30    1.26
   2  -9  10    7.21    1.12
  -3   9 -10   -0.50    0.55
   3  -9  10    0.05    0.63
  -4   9 -10    6.56    1.23
   4  -9  10    9.41    1.34
  -5   9 -10    1.19    0.83
   5  -9  10    0.65    0.90
  -6   9 -10    2.13    1.04
   6  -9  10    0.57    0.91
   8   8 -10   -1.12    0.72
  -8  -8  10    0.32    0.73
   7   8 -10   -0.04    0.72
  -7  -8  10    0.16    0.63
   6   8 -10    2.58    0.88
  -6  -8  10    3.47    0.83
   5   8 -10    2.80    0.83
   4   8 -10    1.46    0.61
   4   8 -10    1.88    0.70
   3   8 -10    9.51    1.11
   3   8 -10    8.90    1.20
  -3  -8  10   13.28    1.12
   2   8 -10   18.29    1.25
   2   8 -10   16.86    1.54
  -2  -8  10   16.56    1.36
   1   8 -10   12.02    1.31
   1   8 -10   11.07    1.11
  -1  -8  10   11.97    1.22
   0   8 -10    1.12    0.50
   0   8 -10    1.35    0.59
   0  -8  10    1.07    0.60
  -1   8 -10   23.44    1.55
  -1   8 -10   21.81    1.25
   1  -8  10   23.11    1.57
  -2   8 -10    0.33    0.59
   2  -8  10    0.41    0.63
  -3   8 -10    3.11    0.88
   3  -8  10    2.12    0.84
  -4   8 -10    2.57    0.86
   4  -8  10    4.01    0.96
  -5   8 -10    0.14    0.69
   5  -8  10    1.01    0.92
  -6   8 -10    1.61    0.98
   6  -8  10    0.31    0.96
   8   7 -10    0.28    0.80
  -8  -7  10    1.58    0.81
   7   7 -10    0.20    0.72
  -7  -7  10   -0.02    0.59
   6   7 -10    8.48    1.33
   5   7 -10   -0.40    0.47
   5   7 -10   -0.08    0.47
   4   7 -10   13.78    1.45
   4   7 -10   14.42    1.39
   3   7 -10   20.34    1.39
   3   7 -10   22.05    1.55
  -3  -7  10   22.75    1.37
   2   7 -10   18.09    1.56
   2   7 -10   15.26    1.13
  -2  -7  10   15.78    1.19
   1   7 -10    0.22    0.50
   1   7 -10    0.20    0.38
  -1  -7  10   -0.38    0.46
   0   7 -10   18.58    1.34
   0   7 -10   15.82    1.07
   0  -7  10   19.64    1.36
  -1   7 -10    9.53    1.17
  -1   7 -10   12.18    1.02
   1  -7  10    9.44    1.20
  -2   7 -10    4.32    0.90
   2  -7  10    3.92    0.93
  -3   7 -10    1.99    0.77
   3  -7  10    1.10    0.79
  -4   7 -10    2.01    0.79
   4  -7  10    1.73    0.86
  -5   7 -10    0.97    0.75
   5  -7  10    0.52    0.82
  -6   7 -10    1.52    0.94
   6  -7  10    0.00    0.91
   7  -7  10   -0.11    1.00
   8   6 -10   -0.08    0.81
  -8  -6  10    0.88    0.78
   7   6 -10    0.53    0.70
   6   6 -10    5.77    0.97
   6   6 -10    5.94    1.13
   5   6 -10    0.78    0.65
   5   6 -10    2.25    0.71
   4   6 -10    2.45    0.67
   4   6 -10    2.85    0.76
  -4  -6  10    3.56    0.73
   3   6 -10    0.48    0.52
   3   6 -10    0.26    0.43
  -3  -6  10   -0.01    0.47
   2   6 -10    7.76    0.94
   2   6 -10    8.82    1.10
  -2  -6  10    7.54    0.96
   1   6 -10    4.92    0.85
   1   6 -10    4.29    0.71
  -1  -6  10    3.95    0.78
   0   6 -10    0.55    0.50
   0   6 -10   -0.15    0.37
   0  -6  10    1.29    0.58
  -1   6 -10   40.47    2.05
  -1   6 -10   39.01    1.62
   1  -6  10   40.91    2.08
  -2   6 -10   -0.13    0.53
   2  -6  10    0.36    0.65
  -3   6 -10   19.97    1.56
   3  -6  10   21.04    1.65
  -4   6 -10    0.98    0.69
   4  -6  10    1.20    0.79
  -5   6 -10    3.46    1.03
   5  -6  10    1.55    0.92
  -6   6 -10    0.93    0.91
   6  -6  10    2.56    1.17
   7  -6  10   -0.17    1.04
   8   5 -10   -0.39    0.71
  -8  -5  10    0.86    0.74
   7   5 -10    1.13    0.64
   7   5 -10    1.39    0.80
   6   5 -10    2.90    0.85
   6   5 -10    2.91    0.80
   5   5 -10    2.00    0.65
   5   5 -10    1.75    0.69
   4   5 -10    3.00    0.77
   4   5 -10    3.83    0.76
  -4  -5  10    5.25    0.84
   3   5 -10    6.67    0.91
   3   5 -10    7.34    1.00
  -3  -5  10    7.10    0.92
   2   5 -10    1.52    0.59
   2   5 -10    2.37    0.58
  -2  -5  10    1.49    0.59
   1   5 -10    0.90    0.53
   1   5 -10    1.15    0.46
  -1  -5  10    1.88    0.64
   0   5 -10    5.15    0.84
   0   5 -10    3.74    0.63
   0  -5  10    4.11    0.83
  -1   5 -10   58.45    2.15
  -1   5 -10   59.93    2.58
   1  -5  10   65.43    2.71
  -2   5 -10    1.21    0.43
  -2   5 -10    1.30    0.65
   2  -5  10    1.08    0.70
  -3   5 -10    8.68    1.23
   3  -5  10    7.29    1.21
  -4   5 -10   -0.68    0.55
   4  -5  10    0.15    0.70
  -5   5 -10    1.88    0.86
   5  -5  10    1.20    0.86
  -6   5 -10    0.20    0.77
   6  -5  10    0.75    0.96
   7  -5  10   -0.21    0.92
   8   4 -10    0.16    0.77
   7   4 -10    2.04    0.78
   7   4 -10    2.71    0.92
   6   4 -10    1.05    0.60
   6   4 -10    0.89    0.66
   5   4 -10   -0.23    0.43
   5   4 -10    0.56    0.57
   4   4 -10    0.15    0.41
   4   4 -10   -0.06    0.47
  -4  -4  10   -0.30    0.44
   3   4 -10    3.60    0.76
   3   4 -10    3.36    0.69
  -3  -4  10    4.20    0.78
   2   4 -10    2.02    0.62
   2   4 -10    3.48    0.66
  -2  -4  10    2.87    0.69
   1   4 -10    0.97    0.52
   1   4 -10    0.82    0.46
  -1  -4  10    0.87    0.57
   0   4 -10   68.76    2.44
   0   4 -10   70.03    2.69
   0  -4  10   68.36    2.79
  -1   4 -10   21.75    1.22
  -1   4 -10   20.93    1.42
   1  -4  10   22.52    1.57
  -2   4 -10   12.72    1.33
  -2   4 -10   13.48    0.93
   2  -4  10   12.28    1.46
  -3   4 -10   22.55    1.66
   3  -4  10   20.71    1.61
  -4   4 -10    2.53    0.85
   4  -4  10    1.05    0.78
  -5   4 -10    1.24    0.80
   5  -4  10    0.33    0.76
  -6   4 -10    0.19    0.79
   6  -4  10    2.00    1.00
   9   3 -10    0.60    0.98
   8   3 -10    1.72    0.91
   7   3 -10    0.67    0.70
   7   3 -10    0.59    0.59
   6   3 -10    1.79    0.74
   6   3 -10    1.48    0.62
   5   3 -10    0.13    0.53
   5   3 -10    0.47    0.58
   5   3 -10    0.19    0.43
   4   3 -10    1.37    0.54
   4   3 -10    1.95    0.63
  -4  -3  10    1.79    0.63
   3   3 -10    1.11    0.51
   3   3 -10    1.75    0.58
  -3  -3  10    1.48    0.60
   2   3 -10    0.26    0.39
   2   3 -10    0.16    0.42
  -2  -3  10    0.65    0.51
   1   3 -10    0.37    0.45
   1   3 -10    1.17    0.47
  -1  -3  10    0.24    0.51
   0   3 -10   15.72    1.16
   0   3 -10   15.40    1.07
   0  -3  10   16.48    1.51
  -1   3 -10   12.53    1.05
  -1   3 -10   11.78    1.21
   1  -3  10   17.13    1.58
  -2   3 -10   13.19    1.36
  -2   3 -10   13.40    0.94
   2  -3  10   10.24    1.31
  -3   3 -10    4.04    0.95
   3  -3  10    4.68    1.02
  -4   3 -10   -0.42    0.58
   4  -3  10   -0.09    0.64
  -5   3 -10    6.31    1.22
   5  -3  10    4.29    0.97
  -6   3 -10   -0.02    0.76
   6  -3  10    0.38    0.85
   9   2 -10    2.89    1.15
   8   2 -10    1.89    0.93
   7   2 -10    4.65    1.02
   7   2 -10    4.21    0.87
   6   2 -10    0.53    0.61
   6   2 -10    0.25    0.56
   6   2 -10    0.03    0.47
   5   2 -10    0.52    0.51
   5   2 -10    0.36    0.49
   5   2 -10   -0.23    0.50
   4   2 -10    0.28    0.54
   4   2 -10    0.10    0.44
   4   2 -10   -0.19    0.45
   3   2 -10   13.15    1.23
   3   2 -10   16.39    1.17
  -3  -2  10   14.95    1.39
   2   2 -10    6.58    0.87
   2   2 -10    5.83    0.82
  -2  -2  10    8.66    1.09
   1   2 -10   15.28    1.09
   1   2 -10   13.15    1.03
  -1  -2  10   12.94    1.29
   0   2 -10   14.03    1.10
   0   2 -10   15.06    1.06
   0  -2  10   17.17    1.52
  -1   2 -10    3.70    0.76
  -1   2 -10    1.67    0.53
   1  -2  10    3.35    0.83
  -2   2 -10    1.95    0.71
  -2   2 -10    3.63    0.62
   2  -2  10    2.61    0.84
  -3   2 -10    2.87    0.90
   3  -2  10    2.46    0.85
  -4   2 -10    0.48    0.64
   4  -2  10    1.22    0.84
  -5   2 -10    5.70    1.19
   5  -2  10    4.56    1.04
  -6   2 -10    0.30    0.84
   8   1 -10    1.90    0.88
   7   1 -10    2.37    0.79
   7   1 -10    3.72    0.86
   6   1 -10   -0.09    0.53
   6   1 -10   -0.03    0.50
   6   1 -10   -0.22    0.44
   5   1 -10    1.13    0.54
   5   1 -10    2.04    0.74
   5   1 -10    2.97    0.77
   4   1 -10    2.85    0.76
   4   1 -10    2.13    0.65
   3   1 -10   15.05    1.34
   2   1 -10    0.02    0.23
   2   1 -10    1.43    0.49
  -2  -1  10    1.64    0.62
   1   1 -10    3.02    0.64
   1   1 -10    3.89    0.67
  -1  -1  10    2.27    0.68
   0   1 -10    0.19    0.40
   0   1 -10    0.00    0.45
   0  -1  10   -0.28    0.45
  -1   1 -10    4.40    0.70
  -1   1 -10    5.56    0.89
   1  -1  10    5.03    0.95
  -2   1 -10   10.27    1.22
  -2   1 -10   10.04    0.99
   2  -1  10    9.38    1.26
  -3   1 -10    1.80    0.77
   3  -1  10    2.56    0.92
  -4   1 -10    0.64    0.65
   4  -1  10   -0.97    0.59
  -5   1 -10    6.36    1.23
   5  -1  10    7.64    1.23
  -6   1 -10   -0.04    0.81
   7   0 -10    0.41    0.55
   7   0 -10    1.22    0.74
   7   0 -10    0.26    0.44
   6   0 -10    1.21    0.54
   6   0 -10    0.02    0.61
   5   0 -10   -0.01    0.46
   5   0 -10   -0.15    0.43
   5   0 -10    0.06    0.57
   4   0 -10    0.48    0.46
   4   0 -10    0.38    0.46
   4   0 -10    0.21    0.59
   3   0 -10   32.19    1.60
   3   0 -10   30.21    1.67
   3   0 -10   31.74    1.82
   2   0 -10    8.81    0.97
   2   0 -10    9.78    0.98
  -2   0  10    9.19    1.18
   1   0 -10    2.73    0.59
   1   0 -10    2.35    0.56
  -1   0  10    0.82    0.58
   0   0 -10   20.11    1.26
   0   0 -10   19.33    1.19
   0   0  10   17.38    1.38
  -1   0 -10    0.50    0.53
  -1   0 -10   -0.17    0.37
   1   0  10    0.43    0.63
  -2   0 -10   12.62    1.36
  -2   0 -10   13.74    1.15
   2   0  10   11.73    1.39
  -3   0 -10    2.84    0.84
   3   0  10    4.05    0.98
  -4   0 -10    2.23    0.82
   4   0  10    0.57    0.75
  -5   0 -10    2.49    0.93
   5   0  10    1.42    0.87
  -6   0 -10    0.57    0.82
   7  -1 -10    1.20    0.62
   7  -1 -10    2.12    0.85
   6  -1 -10    1.07    0.57
   6  -1 -10    1.25    0.72
   5  -1 -10   -0.32    0.40
   5  -1 -10    0.35    0.46
   5  -1 -10    0.49    0.62
   4  -1 -10    3.09    0.73
   4  -1 -10    4.34    0.73
   4  -1 -10    5.60    1.04
   3  -1 -10   47.30    2.10
   3  -1 -10   45.61    1.94
   3  -1 -10   47.27    2.30
   2  -1 -10    2.41    0.59
   2  -1 -10    2.85    0.60
  -2   1  10    1.89    0.72
   1  -1 -10   17.22    1.22
   1  -1 -10   19.04    1.16
  -1   1  10   20.86    1.50
   0  -1 -10    1.28    0.51
   0  -1 -10    2.72    0.65
   0   1  10    2.75    0.78
  -1  -1 -10    3.59    0.76
  -1  -1 -10    3.92    0.74
   1   1  10    4.27    0.96
  -2  -1 -10   37.20    2.00
  -2  -1 -10   35.62    1.72
   2   1  10   38.39    2.10
  -3  -1 -10    4.41    0.96
   3   1  10    3.71    0.96
  -4  -1 -10    8.03    1.26
   4   1  10    8.04    1.22
  -5  -1 -10    0.20    0.69
  -6  -1 -10   -0.59    0.77
   7  -2 -10    0.55    0.76
   7  -2 -10    0.21    0.54
   6  -2 -10    4.13    1.02
   6  -2 -10    5.32    0.91
   5  -2 -10    4.93    0.89
   5  -2 -10    7.41    1.17
   4  -2 -10    4.80    0.98
   4  -2 -10    4.09    0.77
   3  -2 -10    9.40    1.07
   3  -2 -10    8.13    0.88
   3  -2 -10    8.69    1.21
   2  -2 -10    0.89    0.45
   2  -2 -10    0.01    0.40
   2  -2 -10    0.52    0.61
   1  -2 -10   11.51    1.01
   1  -2 -10    9.73    1.07
  -1   2  10   11.47    1.35
   0  -2 -10   -0.02    0.42
   0  -2 -10   -0.04    0.43
   0   2  10    0.11    0.57
  -1  -2 -10   15.93    1.19
   1   2  10   15.14    1.58
  -2  -2 -10   20.24    1.33
  -2  -2 -10   19.42    1.48
   2   2  10   18.65    1.75
  -3  -2 -10    2.29    0.77
  -3  -2 -10    1.58    0.64
   3   2  10    2.73    0.88
  -4  -2 -10    3.68    0.94
   4   2  10    0.78    0.62
  -5  -2 -10    1.42    0.87
  -6  -2 -10    0.20    0.81
   8  -3 -10   -0.24    0.88
   7  -3 -10    0.08    0.77
   6  -3 -10    1.03    0.77
   6  -3 -10    0.66    0.56
   5  -3 -10   -0.04    0.64
   5  -3 -10    0.22    0.49
   4  -3 -10    3.67    0.79
   4  -3 -10    4.12    0.98
   3  -3 -10   17.01    1.66
   3  -3 -10   14.44    1.34
   2  -3 -10    9.92    1.27
   2  -3 -10   11.22    1.17
   1  -3 -10    2.08    0.63
   1  -3 -10    4.02    0.65
  -1   3  10    4.30    0.93
   0  -3 -10    2.26    0.65
   0  -3 -10    2.62    0.64
   0   3  10    2.33    0.78
  -1  -3 -10   25.31    1.49
  -1  -3 -10   23.67    1.46
   1   3  10   23.94    1.68
  -2  -3 -10   16.98    1.46
  -2  -3 -10   13.28    1.40
   2   3  10   15.32    1.60
  -3  -3 -10   18.00    1.35
  -3  -3 -10   18.12    1.72
   3   3  10   19.93    1.80
  -4  -3 -10    4.94    1.11
  -5  -3 -10    1.67    0.87
  -6  -3 -10    2.01    1.00
   8  -4 -10    1.67    1.04
   7  -4 -10    1.70    0.99
   6  -4 -10    0.63    0.61
   6  -4 -10   -0.33    0.68
   5  -4 -10   -0.03    0.46
   5  -4 -10    0.01    0.67
   4  -4 -10   18.70    1.79
   4  -4 -10   14.48    1.44
   3  -4 -10    2.23    0.87
   3  -4 -10    4.01    0.82
   2  -4 -10    2.84    0.72
   2  -4 -10    4.94    0.99
   1  -4 -10    0.49    0.50
  -1   4  10    2.17    0.78
   0  -4 -10    7.97    1.04
   0   4  10    7.55    1.19
  -1  -4 -10    9.66    1.08
  -1  -4 -10    8.42    1.11
   1   4  10    8.86    1.26
  -2  -4 -10    3.04    0.77
  -2  -4 -10    3.14    0.84
   2   4  10    3.53    0.93
  -3  -4 -10   10.83    1.26
  -3  -4 -10    8.43    1.23
  -4  -4 -10    1.22    0.74
  -5  -4 -10   -0.40    0.67
   8  -5 -10    1.00    1.03
   7  -5 -10    1.29    0.96
   6  -5 -10    3.33    0.85
   6  -5 -10    1.21    0.87
   5  -5 -10    3.91    1.05
   5  -5 -10    3.64    0.84
   4  -5 -10    0.69    0.51
   4  -5 -10    0.11    0.67
   3  -5 -10    0.13    0.68
   3  -5 -10    1.38    0.61
   2  -5 -10    0.27    0.50
   2  -5 -10    1.38    0.74
   1  -5 -10    4.33    0.84
  -1   5  10    4.33    0.98
   0  -5 -10    4.54    0.88
   0   5  10    5.78    1.09
  -1  -5 -10    9.81    1.20
   1   5  10    9.19    1.31
  -2  -5 -10    5.28    0.98
   2   5  10    5.91    1.10
  -3  -5 -10    1.67    0.59
  -3  -5 -10    3.94    0.89
  -4  -5 -10    2.79    0.90
  -5  -5 -10    1.08    0.85
   7  -6 -10    3.24    1.13
   6  -6 -10   -0.47    0.75
   6  -6 -10    0.48    0.59
   5  -6 -10    1.38    0.67
   5  -6 -10    1.16    0.92
   4  -6 -10   10.82    1.30
   4  -6 -10   12.56    1.56
   3  -6 -10    0.96    0.73
   3  -6 -10    0.01    0.48
   2  -6 -10    5.94    1.01
   2  -6 -10    5.39    1.07
   1  -6 -10   -0.25    0.48
   0  -6 -10    1.52    0.71
   0   6  10    2.47    0.82
  -1  -6 -10   15.61    1.52
   1   6  10   13.69    1.52
  -2  -6 -10    0.15    0.58
   2   6  10   -0.13    0.51
  -3  -6 -10    5.89    1.06
   7  -7 -10    2.27    1.11
   6  -7 -10    0.39    0.59
   6  -7 -10    0.58    0.87
   5  -7 -10    1.68    0.64
   5  -7 -10    1.54    0.94
   4  -7 -10    0.22    0.52
   4  -7 -10   -0.35    0.68
   3  -7 -10    0.50    0.58
   3  -7 -10   -0.63    0.64
   2  -7 -10    3.28    0.94
   2  -7 -10    3.92    0.87
   1  -7 -10    3.34    0.88
   0  -7 -10    0.88    0.64
   0   7  10    0.52    0.70
  -1  -7 -10   15.58    1.59
   1   7  10   14.48    1.61
  -2  -7 -10    0.39    0.68
  -3  -7 -10    3.84    1.01
   6  -8 -10   -0.09    0.85
   6  -8 -10    1.25    0.71
   5  -8 -10    1.31    0.99
   5  -8 -10    1.60    0.72
   4  -8 -10   -0.28    0.52
   4  -8 -10   -0.14    0.73
   3  -8 -10    0.59    0.78
   3  -8 -10    0.74    0.62
   2  -8 -10    2.34    0.93
   2  -8 -10    0.85    0.60
   1  -8 -10    0.47    0.61
   1  -8 -10    0.26    0.71
   0  -8 -10   14.18    1.59
   0   8  10   16.79    1.69
  -1  -8 -10   -0.48    0.61
   1   8  10   -0.16    0.66
  -2  -8 -10    0.27    0.69
  -3  -8 -10    0.85    0.83
   6  -9 -10    0.13    0.97
   6  -9 -10   -0.02    0.67
   5  -9 -10    1.36    0.72
   5  -9 -10    1.56    1.04
   4  -9 -10    0.88    0.69
   4  -9 -10    1.09    0.88
   3  -9 -10    0.25    0.76
   3  -9 -10   -0.34    0.56
   2  -9 -10    5.19    1.09
   2  -9 -10    3.40    1.06
   1  -9 -10    0.58    0.75
   1  -9 -10    1.17    0.79
   0  -9 -10    5.96    1.21
   0   9  10    3.52    1.00
  -1  -9 -10    0.45    0.75
  -2  -9 -10    2.82    0.93
  -3  -9 -10    1.39    0.93
   5 -10 -10    1.12    1.06
   5 -10 -10    0.71    0.75
   4 -10 -10    0.48    0.67
   4 -10 -10   -0.13    0.82
   3 -10 -10    1.26    0.92
   3 -10 -10    0.86    0.72
   2 -10 -10   -0.39    0.58
   2 -10 -10   -0.15    0.68
   1 -10 -10    4.21    1.04
   1 -10 -10    2.95    1.02
   0 -10 -10    1.79    0.94
   0  10  10    1.13    0.83
  -1 -10 -10    0.15    0.74
  -2 -10 -10    1.05    0.90
  -3 -10 -10    1.22    0.98
   5 -11 -10   -0.16    0.70
   4 -11 -10   -1.05    0.61
   4 -11 -10   -0.39    0.82
   3 -11 -10    0.73    0.82
   3 -11 -10    0.79    0.91
   2 -11 -10    0.85    0.85
   2 -11 -10    1.45    0.84
   1 -11 -10    1.78    0.92
   1 -11 -10    1.29    0.90
   0 -11 -10    3.90    1.12
  -1 -11 -10   -0.79    0.73
  -2 -11 -10    1.56    0.97
   5 -12 -10   -0.61    0.72
   4 -12 -10    0.54    0.81
   4 -12 -10   -0.35    0.84
   3 -12 -10    1.22    0.96
   3 -12 -10    1.71    0.91
   2 -12 -10   -0.29    0.81
   2 -12 -10    0.32    0.81
   1 -12 -10    2.16    0.98
   0 -12 -10    2.97    1.08
   3 -13 -10    1.35    1.02
   2 -13 -10    0.22    0.89
  -1 -20  11    0.42    0.86
   3  19 -11    1.23    0.86
  -2 -19  11    0.47    0.78
  -1 -19  11    0.65    0.77
   4  18 -11    0.06    0.77
   3  18 -11    3.69    1.07
  -3 -18  11    2.77    0.95
   2  18 -11    3.46    1.06
  -2 -18  11    2.74    0.93
   1  18 -11   -0.50    0.73
  -1 -18  11    0.33    0.69
   2 -18  11   -0.18    0.89
   3 -18  11    0.18    0.99
   4  17 -11    0.10    0.77
   3  17 -11    1.28    0.88
  -3 -17  11    2.40    0.89
   2  17 -11    0.39    0.75
  -2 -17  11    0.19    0.66
   1  17 -11    0.85    0.74
  -1 -17  11    0.55    0.63
   0  17 -11    1.37    0.83
   0 -17  11    1.57    0.72
  -1  17 -11   -1.55    0.66
   1 -17  11   -0.11    0.77
   2 -17  11    1.49    0.98
   3 -17  11    0.61    0.97
   5  16 -11    0.67    0.82
   4  16 -11    2.06    0.90
  -4 -16  11    1.06    0.78
   3  16 -11    3.59    1.02
  -3 -16  11    1.82    0.79
   2  16 -11    1.08    0.79
  -2 -16  11    0.57    0.66
   1  16 -11   -0.01    0.69
  -1 -16  11    0.76    0.66
   0  16 -11   -0.48    0.69
   0 -16  11   -0.16    0.57
  -1  16 -11   -0.38    0.70
   1 -16  11   -0.88    0.68
  -2  16 -11    1.80    0.89
   2 -16  11    0.77    0.85
  -3  16 -11    0.10    0.80
   3 -16  11    0.00    0.87
   4 -16  11   -0.15    0.90
   5  15 -11   -0.21    0.76
  -5 -15  11    1.19    0.80
   4  15 -11    0.93    0.77
  -4 -15  11    0.59    0.69
   3  15 -11    0.56    0.75
  -3 -15  11    1.67    0.75
   2  15 -11    0.79    0.77
  -2 -15  11    1.61    0.74
   1  15 -11    5.53    1.11
  -1 -15  11    5.40    0.97
   0  15 -11   -0.40    0.66
   0 -15  11   -0.16    0.65
   0 -15  11    0.08    0.56
  -1  15 -11    1.45    0.77
   1 -15  11    3.81    0.99
  -2  15 -11    1.43    0.88
   2 -15  11    1.39    0.92
  -3  15 -11   -0.69    0.78
   3 -15  11   -0.17    0.85
  -4  15 -11    1.07    0.97
   4 -15  11    0.84    0.94
   6  14 -11    1.14    0.92
   5  14 -11    0.34    0.75
  -5 -14  11   -0.01    0.59
   4  14 -11    4.34    1.07
  -4 -14  11    1.95    0.79
   3  14 -11    3.15    0.94
  -3 -14  11    3.41    0.83
   2  14 -11    0.16    0.65
  -2 -14  11   -0.36    0.47
   1  14 -11    2.52    0.86
  -1 -14  11    2.75    0.74
   0  14 -11    1.47    0.77
   0 -14  11    1.92    0.77
   0 -14  11    2.60    0.74
  -1  14 -11    5.80    1.11
   1 -14  11    7.62    1.26
  -2  14 -11    2.34    0.88
   2 -14  11    0.50    0.77
  -3  14 -11   -0.51    0.73
   3 -14  11    1.02    0.86
  -4  14 -11    0.04    0.88
   4 -14  11    0.22    0.87
  -5  14 -11   -1.00    0.95
   6  13 -11    3.19    1.07
  -6 -13  11    2.82    0.91
   5  13 -11   -0.01    0.70
  -5 -13  11   -0.03    0.63
   4  13 -11    2.29    0.89
  -4 -13  11    1.90    0.72
   3  13 -11    0.35    0.64
  -3 -13  11    0.54    0.53
   2  13 -11    0.34    0.63
  -2 -13  11   -0.12    0.45
   1  13 -11    0.19    0.61
  -1 -13  11    0.09    0.52
  -1 -13  11    0.14    0.59
   0  13 -11    0.19    0.62
   0 -13  11    1.30    0.68
   0 -13  11    0.92    0.57
  -1  13 -11    7.94    1.25
   1 -13  11    8.37    1.26
  -2  13 -11    1.17    0.77
   2 -13  11    1.45    0.83
  -3  13 -11   -0.09    0.69
   3 -13  11   -0.98    0.72
  -4  13 -11    1.53    0.95
   4 -13  11    2.37    0.99
  -5  13 -11    0.33    0.89
   5 -13  11    0.60    1.00
  -7 -12  11    0.69    0.81
   6  12 -11    2.76    0.99
  -6 -12  11    0.97    0.72
   5  12 -11    1.26    0.80
  -5 -12  11    0.00    0.59
   4  12 -11   11.59    1.49
  -4 -12  11   11.78    1.43
   3  12 -11    0.82    0.71
  -3 -12  11    1.49    0.66
   2  12 -11    2.67    0.80
  -2 -12  11    0.56    0.54
   1  12 -11    5.10    1.00
  -1 -12  11    3.32    0.77
  -1 -12  11    2.06    0.73
   0  12 -11    7.50    1.18
   0 -12  11    9.03    1.08
   0 -12  11    7.50    1.13
  -1  12 -11    8.53    1.25
   1 -12  11    6.59    1.16
  -2  12 -11    2.29    0.86
   2 -12  11   -0.52    0.63
  -3  12 -11    1.63    0.80
   3 -12  11    0.22    0.81
  -4  12 -11    6.37    1.28
   4 -12  11    1.88    0.98
  -5  12 -11    2.48    1.11
   5 -12  11    0.13    0.92
   7  11 -11    1.06    0.91
  -7 -11  11    1.07    0.84
   6  11 -11    3.62    1.08
  -6 -11  11    1.15    0.81
   5  11 -11    4.50    1.12
  -5 -11  11    4.35    0.98
   4  11 -11    2.27    0.85
  -4 -11  11    1.91    0.72
   3  11 -11    1.85    0.75
  -3 -11  11    1.87    0.67
   2  11 -11    5.72    1.11
  -2 -11  11    2.31    0.67
  -2 -11  11    3.80    0.79
   1  11 -11    2.14    0.79
  -1 -11  11    2.08    0.66
  -1 -11  11    1.22    0.63
   0  11 -11   16.83    1.61
   0 -11  11   20.64    1.54
   0 -11  11   17.16    1.24
  -1  11 -11    5.29    1.06
   1 -11  11    5.61    0.82
   1 -11  11    4.79    1.04
  -2  11 -11   -0.25    0.63
   2 -11  11   -0.13    0.63
  -3  11 -11   -0.71    0.62
   3 -11  11    0.23    0.74
  -4  11 -11    0.05    0.76
   4 -11  11    1.04    0.83
  -5  11 -11    0.44    0.84
   5 -11  11    0.86    0.97
   7  10 -11    0.38    0.83
  -7 -10  11    2.29    0.94
   6  10 -11    1.07    0.75
  -6 -10  11    1.33    0.72
   5  10 -11   -0.25    0.57
  -5 -10  11    0.16    0.56
   4  10 -11   15.70    1.68
  -4 -10  11   10.81    1.31
   3  10 -11    0.39    0.59
  -3 -10  11   -0.19    0.42
   2  10 -11    7.69    1.17
  -2 -10  11    7.95    1.00
   1  10 -11    0.63    0.59
  -1 -10  11    0.07    0.54
   0  10 -11   23.38    1.67
   0 -10  11   22.97    1.61
   0 -10  11   22.25    1.36
  -1  10 -11    6.49    1.11
   1 -10  11    5.21    0.79
   1 -10  11    5.78    1.06
  -2  10 -11   -0.17    0.63
   2 -10  11    0.33    0.72
  -3  10 -11    0.87    0.75
   3 -10  11    3.81    1.05
  -4  10 -11    1.56    0.84
   4 -10  11    0.17    0.79
  -5  10 -11   -0.27    0.76
   5 -10  11    0.49    0.90
  -6  10 -11    1.06    0.95
  -8  -9  11   -0.36    0.69
   7   9 -11    4.74    1.15
  -7  -9  11    3.15    0.95
   6   9 -11   -0.67    0.57
  -6  -9  11    0.03    0.62
   5   9 -11   -0.03    0.58
  -5  -9  11   -0.32    0.48
   4   9 -11    7.99    1.23
   4   9 -11    4.63    0.90
   3   9 -11   22.37    1.50
   3   9 -11   18.39    1.76
  -3  -9  11   21.69    1.38
   2   9 -11    2.33    0.64
   2   9 -11    2.48    0.76
  -2  -9  11    3.23    0.76
   1   9 -11    1.16    0.52
   1   9 -11   -0.15    0.49
  -1  -9  11    0.20    0.55
   0   9 -11   29.81    1.84
   0   9 -11   28.51    1.54
   0  -9  11   37.66    1.97
  -1   9 -11    2.28    0.80
  -1   9 -11    4.13    0.75
   1  -9  11    4.08    0.94
  -2   9 -11    5.34    1.06
   2  -9  11    6.29    1.13
  -3   9 -11   -0.43    0.59
   3  -9  11    1.08    0.76
  -4   9 -11    0.92    0.80
   4  -9  11    0.20    0.78
  -5   9 -11    2.45    0.97
   5  -9  11    1.92    0.89
  -6   9 -11    0.09    0.85
   6  -9  11    0.13    0.97
  -8  -8  11    1.29    0.87
   7   8 -11    2.72    0.98
  -7  -8  11    1.61    0.81
   6   8 -11    3.40    0.99
   5   8 -11    1.33    0.76
   5   8 -11    1.17    0.61
   4   8 -11    0.63    0.54
   4   8 -11    1.05    0.69
   3   8 -11    4.55    0.94
   3   8 -11    1.65    0.64
  -3  -8  11    2.24    0.68
   2   8 -11    2.38    0.77
   2   8 -11    2.09    0.64
  -2  -8  11    2.70    0.72
   1   8 -11    4.67    0.78
   1   8 -11    5.22    0.95
  -1  -8  11    6.85    1.00
   0   8 -11   13.26    1.41
   0   8 -11   10.59    1.06
   0  -8  11   14.11    1.43
  -1   8 -11    0.92    0.51
  -1   8 -11   -0.38    0.51
   1  -8  11    0.27    0.63
  -2   8 -11   -0.70    0.54
   2  -8  11    0.26    0.68
  -3   8 -11   -0.48    0.61
   3  -8  11   -0.75    0.59
  -4   8 -11    0.69    0.74
   4  -8  11   -0.18    0.70
  -5   8 -11    1.41    0.88
   5  -8  11    0.77    0.91
  -6   8 -11    0.18    0.85
   6  -8  11   -0.08    0.97
   8   7 -11   -0.24    0.82
  -8  -7  11   -0.18    0.72
   7   7 -11    2.12    0.90
   6   7 -11   -0.21    0.58
   6   7 -11    2.12    0.70
   5   7 -11    4.30    0.98
   5   7 -11    3.11    0.78
   4   7 -11    6.68    1.11
   4   7 -11    7.87    1.09
  -4  -7  11    7.06    0.95
   3   7 -11    8.45    1.10
   3   7 -11    9.64    1.26
  -3  -7  11    8.52    1.06
   2   7 -11   22.72    1.58
   2   7 -11   22.65    1.45
  -2  -7  11   24.96    1.52
   1   7 -11    4.07    0.76
   1   7 -11    3.95    0.82
  -1  -7  11    5.31    0.91
   0   7 -11   13.95    1.06
   0   7 -11   16.34    1.49
   0  -7  11   14.32    1.42
  -1   7 -11   15.76    1.52
  -1   7 -11   15.12    1.08
   1  -7  11   15.74    1.57
  -2   7 -11    4.22    0.93
   2  -7  11    6.41    1.11
  -3   7 -11    3.67    0.94
   3  -7  11    5.12    1.09
  -4   7 -11    1.31    0.78
   4  -7  11    2.56    0.85
  -5   7 -11    2.02    0.87
   5  -7  11    0.70    0.86
  -6   7 -11    0.08    0.84
   6  -7  11   -0.25    0.92
   8   6 -11    2.48    1.04
  -8  -6  11    3.95    1.03
   7   6 -11    1.50    0.70
   7   6 -11    0.90    0.76
   6   6 -11   -0.19    0.59
   6   6 -11   -0.11    0.51
   5   6 -11    9.06    1.19
   5   6 -11   10.19    1.33
   4   6 -11    0.29    0.56
   4   6 -11    1.50    0.63
  -4  -6  11    0.48    0.55
   3   6 -11   41.87    2.15
   3   6 -11   39.81    1.97
  -3  -6  11   40.27    1.98
   2   6 -11    6.57    0.90
   2   6 -11   10.03    1.20
  -2  -6  11    7.68    1.01
   1   6 -11   17.95    1.34
   1   6 -11   18.35    1.20
  -1  -6  11   17.79    1.54
   0   6 -11   17.26    1.14
   0   6 -11   15.91    1.48
   0  -6  11   19.30    1.51
  -1   6 -11    1.79    0.55
  -1   6 -11    2.23    0.75
   1  -6  11    2.67    0.84
  -2   6 -11   22.71    1.64
   2  -6  11   21.53    1.94
  -3   6 -11    0.52    0.69
   3  -6  11    0.16    0.69
  -4   6 -11    1.27    0.78
   4  -6  11    2.20    0.81
  -5   6 -11    1.32    0.89
   5  -6  11    2.10    0.99
  -6   6 -11    0.04    0.82
   6  -6  11   -1.37    0.82
   8   5 -11    0.39    0.81
   7   5 -11    0.43    0.68
   7   5 -11    0.27    0.60
   6   5 -11   -0.27    0.55
   6   5 -11    0.08    0.52
   5   5 -11    5.09    0.98
   5   5 -11    5.12    0.91
  -5  -5  11    4.95    0.88
   4   5 -11    3.11    0.73
   4   5 -11    2.44    0.76
  -4  -5  11    2.51    0.71
   3   5 -11   16.13    1.41
   3   5 -11   18.53    1.37
  -3  -5  11   15.42    1.40
   2   5 -11    1.57    0.62
   2   5 -11    1.54    0.57
  -2  -5  11    0.60    0.55
   1   5 -11    1.93    0.64
   1   5 -11    1.92    0.58
  -1  -5  11    1.82    0.69
   0   5 -11   62.98    2.67
   0   5 -11   65.80    2.40
   0  -5  11   61.43    2.68
  -1   5 -11    2.14    0.57
  -1   5 -11    0.77    0.67
   1  -5  11    1.91    0.74
  -2   5 -11   11.32    1.34
   2  -5  11   11.51    1.43
  -3   5 -11    1.70    0.75
   3  -5  11    1.32    0.79
  -4   5 -11    3.01    0.95
  -5   5 -11    2.31    0.98
   5  -5  11    3.31    0.98
  -6   5 -11    0.46    0.87
   6  -5  11   -0.63    0.88
   8   4 -11    0.37    0.78
   7   4 -11    0.30    0.67
   7   4 -11   -0.06    0.55
   6   4 -11    1.03    0.66
   6   4 -11    0.04    0.53
   5   4 -11    4.22    0.84
   5   4 -11    3.90    0.86
  -5  -4  11    3.44    0.83
   4   4 -11    8.28    1.11
   4   4 -11    6.74    0.99
  -4  -4  11    9.49    1.16
   3   4 -11    9.03    1.07
   3   4 -11   10.04    1.16
  -3  -4  11   12.14    1.28
   2   4 -11    0.68    0.48
   2   4 -11    1.68    0.62
  -2  -4  11    1.07    0.59
   1   4 -11   23.62    1.46
   1   4 -11   24.87    1.40
  -1  -4  11   22.82    1.51
   0   4 -11    1.82    0.60
   0   4 -11    1.79    0.65
   0  -4  11    1.60    0.69
  -1   4 -11    1.78    0.55
  -1   4 -11    1.70    0.69
   1  -4  11    1.61    0.77
  -2   4 -11   10.24    1.30
  -2   4 -11   15.17    1.02
   2  -4  11   12.86    1.53
  -3   4 -11    3.10    0.88
   3  -4  11    2.89    0.93
  -4   4 -11   14.37    1.62
  -5   4 -11   -0.06    0.77
   5  -4  11    0.90    0.92
  -6   4 -11    0.03    0.84
   6  -4  11   -0.47    0.85
   8   3 -11    1.33    0.89
   7   3 -11   -0.19    0.55
   7   3 -11   -0.51    0.61
   6   3 -11    2.73    0.77
   6   3 -11    4.03    0.93
   5   3 -11    3.57    0.77
   5   3 -11    2.13    0.73
   4   3 -11    3.49    0.81
   4   3 -11    3.07    0.76
  -4  -3  11    1.78    0.70
   3   3 -11   29.27    1.65
   3   3 -11   26.94    1.59
  -3  -3  11   29.14    1.74
   2   3 -11    0.67    0.50
   2   3 -11    0.73    0.47
  -2  -3  11    0.80    0.54
   1   3 -11    6.41    0.86
   1   3 -11    7.66    1.00
  -1  -3  11    5.39    0.96
   0   3 -11    4.70    0.74
   0   3 -11    4.56    0.85
   0  -3  11    4.13    0.88
  -1   3 -11   20.30    1.24
  -1   3 -11   20.23    1.46
   1  -3  11   19.14    1.51
  -2   3 -11    6.17    0.81
  -2   3 -11    6.13    1.05
   2  -3  11    5.09    1.10
  -3   3 -11    1.27    0.74
   3  -3  11    1.51    0.76
  -4   3 -11    4.61    1.10
   4  -3  11    2.99    0.90
  -5   3 -11    0.52    0.78
   5  -3  11   -0.16    0.78
  -6   3 -11    0.09    0.85
   6  -3  11    0.44    0.94
   8   2 -11    1.85    0.89
   7   2 -11    0.32    0.55
   7   2 -11   -0.31    0.62
   6   2 -11    0.35    0.42
   6   2 -11    1.99    0.75
   6   2 -11    1.95    0.67
   5   2 -11    0.49    0.54
   5   2 -11    0.82    0.63
   5   2 -11    2.07    0.71
   4   2 -11   10.42    1.19
   4   2 -11   13.81    1.34
   3   2 -11    0.08    0.45
   3   2 -11   -0.14    0.45
  -3  -2  11    0.94    0.60
   2   2 -11    1.20    0.54
   2   2 -11    0.57    0.46
  -2  -2  11    0.55    0.57
   1   2 -11    7.32    0.92
   1   2 -11    7.37    0.96
  -1  -2  11    6.51    1.04
   0   2 -11    1.24    0.58
   0   2 -11    0.47    0.43
   0  -2  11    0.44    0.56
  -1   2 -11    8.67    1.12
  -1   2 -11    8.75    0.96
   1  -2  11   10.33    1.32
  -2   2 -11    1.87    0.75
  -2   2 -11    1.60    0.53
   2  -2  11    1.02    0.74
  -3   2 -11    0.66    0.70
   3  -2  11    0.55    0.78
  -4   2 -11    3.35    0.97
   4  -2  11    4.05    0.99
  -5   2 -11    0.64    0.79
   5  -2  11    0.75    0.86
  -6   2 -11    1.77    1.09
   7   1 -11    1.34    0.75
   7   1 -11    2.93    0.84
   6   1 -11    4.73    1.00
   6   1 -11    6.21    1.04
   6   1 -11    5.64    1.03
   5   1 -11   -0.03    0.30
   5   1 -11    0.66    0.54
   5   1 -11    0.23    0.59
   4   1 -11    3.22    0.86
   4   1 -11    3.73    0.78
   3   1 -11    0.98    0.54
   3   1 -11    0.48    0.37
  -3  -1  11    1.78    0.68
   2   1 -11    1.21    0.51
  -2  -1  11    1.09    0.65
   1   1 -11    2.24    0.63
   1   1 -11    2.75    0.63
  -1  -1  11    3.09    0.78
   0   1 -11    5.65    0.84
   0   1 -11    7.67    1.00
   0  -1  11    8.97    1.24
  -1   1 -11    6.87    1.04
  -1   1 -11    5.98    0.82
   1  -1  11    9.32    1.27
  -2   1 -11    1.15    0.51
  -2   1 -11    1.54    0.69
   2  -1  11    1.84    0.83
  -3   1 -11    0.98    0.71
   3  -1  11    1.34    0.84
  -4   1 -11    1.44    0.79
   4  -1  11    2.00    0.89
  -5   1 -11    0.50    0.82
   5  -1  11    0.76    0.83
  -6   1 -11    0.50    0.95
   7   0 -11    1.35    0.67
   7   0 -11    2.28    0.87
   6   0 -11    0.27    0.66
   6   0 -11    0.26    0.54
   5   0 -11   -0.31    0.44
   5   0 -11    0.51    0.64
   5   0 -11   -0.02    0.45
   4   0 -11    5.46    0.84
   4   0 -11    5.71    1.02
   4   0 -11    5.14    0.90
   3   0 -11    0.28    0.47
   3   0 -11    0.36    0.49
   2   0 -11    9.52    1.06
   2   0 -11    9.53    1.02
  -2   0  11    9.05    1.21
   1   0 -11    9.12    1.01
   1   0 -11    9.15    1.02
  -1   0  11    7.26    1.12
   0   0 -11    6.04    0.93
   0   0 -11    6.85    0.93
   0   0  11    9.22    1.24
  -1   0 -11    5.21    0.80
  -1   0 -11    4.03    0.87
   1   0  11    5.64    1.09
  -2   0 -11    6.94    0.89
  -2   0 -11    6.62    1.07
   2   0  11    7.47    1.20
  -3   0 -11    7.62    1.20
   3   0  11    4.36    1.06
  -4   0 -11    4.97    1.11
   4   0  11    4.84    1.10
  -5   0 -11    0.25    0.77
   7  -1 -11    0.96    0.64
   7  -1 -11    0.89    0.81
   6  -1 -11    1.79    0.65
   6  -1 -11    0.86    0.71
   5  -1 -11    0.69    0.55
   5  -1 -11   -0.07    0.63
   4  -1 -11   -0.17    0.46
   4  -1 -11   -0.23    0.42
   4  -1 -11    0.70    0.70
   3  -1 -11   -1.19    0.51
   3  -1 -11   -0.05    0.44
   3  -1 -11    0.01    0.44
   2  -1 -11   20.76    1.36
   2  -1 -11   16.83    1.15
  -2   1  11   20.13    1.54
   1  -1 -11    2.27    0.63
   1  -1 -11    1.72    0.57
  -1   1  11    2.34    0.80
   0  -1 -11   15.91    1.39
   0  -1 -11   14.88    1.30
   0   1  11   18.75    1.75
  -1  -1 -11   14.52    1.30
  -1  -1 -11   13.53    1.35
   1   1  11   16.88    1.68
  -2  -1 -11    0.48    0.60
  -2  -1 -11    0.43    0.51
   2   1  11   -0.51    0.61
  -3  -1 -11    9.38    1.31
   3   1  11   10.22    1.35
  -4  -1 -11    0.49    0.76
   4   1  11    0.28    0.83
  -5  -1 -11    0.94    0.83
   7  -2 -11   -0.29    0.52
   7  -2 -11    0.34    0.77
   6  -2 -11    1.40    0.68
   6  -2 -11    1.84    0.88
   5  -2 -11   -0.53    0.60
   5  -2 -11    0.08    0.47
   4  -2 -11    2.41    0.70
   4  -2 -11    2.75    0.90
   3  -2 -11    2.30    0.86
   3  -2 -11    2.45    0.66
   2  -2 -11   21.33    1.43
   2  -2 -11   22.04    1.26
  -2   2  11   21.54    1.67
   1  -2 -11    1.46    0.58
   1  -2 -11    1.80    0.64
  -1   2  11    1.28    0.73
   0  -2 -11   14.70    1.32
   0  -2 -11   14.79    1.33
   0   2  11   17.85    1.72
  -1  -2 -11    5.55    0.87
   1   2  11    4.72    1.02
  -2  -2 -11   -0.51    0.42
  -2  -2 -11    0.79    0.64
   2   2  11   -0.09    0.61
  -3  -2 -11    3.41    0.92
   3   2  11    3.89    1.02
  -4  -2 -11    1.07    0.81
   4   2  11    0.01    0.78
  -5  -2 -11    1.73    0.91
   8  -3 -11    0.96    0.98
   7  -3 -11    0.85    0.82
   7  -3 -11   -0.15    0.53
   6  -3 -11    0.33    0.54
   6  -3 -11    1.60    0.86
   5  -3 -11   -0.86    0.60
   5  -3 -11   -0.35    0.48
   4  -3 -11    1.09    0.76
   4  -3 -11    1.51    0.61
   3  -3 -11    0.19    0.65
   3  -3 -11    0.07    0.46
   2  -3 -11    9.31    1.16
   1  -3 -11   -0.79    0.37
  -1   3  11   -0.67    0.53
   0  -3 -11    3.59    0.76
   0  -3 -11    3.90    0.83
   0   3  11    3.93    0.95
  -1  -3 -11    1.96    0.68
  -1  -3 -11    0.82    0.60
   1   3  11    1.90    0.84
  -2  -3 -11    0.96    0.65
  -2  -3 -11    1.39    0.57
   2   3  11    1.43    0.79
  -3  -3 -11   10.55    1.38
   3   3  11   12.09    1.44
  -4  -3 -11    0.24    0.75
  -5  -3 -11    0.69    0.86
   8  -4 -11    0.67    0.99
   7  -4 -11    2.12    0.80
   7  -4 -11    2.56    1.04
   6  -4 -11    0.42    0.77
   6  -4 -11    0.60    0.63
   5  -4 -11    4.43    0.88
   5  -4 -11    5.54    1.18
   4  -4 -11    0.17    0.48
   4  -4 -11   -0.19    0.64
   3  -4 -11    9.85    1.35
   3  -4 -11    6.47    1.02
   2  -4 -11    3.20    0.78
   2  -4 -11    4.78    1.05
   1  -4 -11    0.54    0.56
  -1   4  11    0.81    0.74
   0  -4 -11   14.87    1.44
   0   4  11   10.44    1.39
  -1  -4 -11    8.37    1.13
   1   4  11    6.03    1.12
  -2  -4 -11    0.60    0.56
  -2  -4 -11   -0.53    0.54
   2   4  11    0.20    0.72
  -3  -4 -11    6.91    1.16
   3   4  11    6.19    1.17
  -4  -4 -11    0.64    0.75
  -5  -4 -11    2.44    1.06
   7  -5 -11    0.42    0.93
   6  -5 -11   -0.05    0.57
   6  -5 -11   -0.36    0.78
   5  -5 -11   -0.28    0.71
   5  -5 -11    0.75    0.59
   4  -5 -11    0.89    0.58
   4  -5 -11    1.37    0.86
   3  -5 -11    3.02    0.81
   3  -5 -11    3.68    1.01
   2  -5 -11    1.96    0.68
   2  -5 -11    2.06    0.89
   1  -5 -11    0.27    0.58
  -1   5  11    0.62    0.72
   0  -5 -11   21.90    1.57
   0   5  11   20.47    1.88
  -1  -5 -11    0.73    0.66
   1   5  11    2.01    0.84
  -2  -5 -11    1.96    0.79
   2   5  11    2.70    0.88
  -3  -5 -11    1.05    0.76
   7  -6 -11    0.72    1.00
   6  -6 -11   -0.46    0.52
   6  -6 -11    0.63    0.88
   5  -6 -11    1.40    0.91
   5  -6 -11    0.08    0.55
   4  -6 -11    0.55    0.76
   4  -6 -11   -0.41    0.46
   3  -6 -11    4.25    1.10
   3  -6 -11    4.26    0.90
   2  -6 -11    2.55    0.93
   2  -6 -11    1.28    0.64
   1  -6 -11    0.27    0.58
  -1   6  11    0.79    0.76
   0  -6 -11    7.73    1.15
   0   6  11    6.03    1.12
  -1  -6 -11    0.21    0.68
   1   6  11    1.62    0.83
  -2  -6 -11    2.77    0.87
   2   6  11    2.64    0.95
  -3  -6 -11    1.10    0.74
   6  -7 -11    0.94    0.67
   6  -7 -11    0.57    0.93
   5  -7 -11    1.46    0.95
   5  -7 -11    0.24    0.58
   4  -7 -11    5.60    1.05
   4  -7 -11    6.91    1.35
   3  -7 -11    2.41    0.80
   3  -7 -11    4.24    1.14
   2  -7 -11    0.19    0.70
   2  -7 -11    0.69    0.62
   1  -7 -11    5.04    1.05
  -1   7  11    2.70    0.93
   0  -7 -11    7.88    1.25
   0   7  11    9.76    1.37
  -1  -7 -11    7.69    1.26
   1   7  11    7.05    1.22
  -2  -7 -11    3.58    1.00
  -3  -7 -11   -0.52    0.67
   6  -8 -11    1.88    1.10
   6  -8 -11   -0.01    0.61
   5  -8 -11    0.23    0.92
   5  -8 -11    1.33    0.73
   4  -8 -11    4.20    0.95
   4  -8 -11    2.36    1.05
   3  -8 -11   -0.41    0.73
   3  -8 -11   -0.19    0.56
   2  -8 -11    0.12    0.57
   2  -8 -11    1.09    0.86
   1  -8 -11    3.04    0.91
  -1   8  11    3.46    0.98
   0  -8 -11   -0.15    0.69
   0   8  11    0.44    0.78
  -1  -8 -11   -0.06    0.74
   1   8  11    0.69    0.89
  -2  -8 -11    0.64    0.81
  -3  -8 -11    0.30    0.77
   6  -9 -11    1.80    0.85
   5  -9 -11    0.59    0.90
   5  -9 -11    1.05    0.75
   4  -9 -11    2.06    1.03
   4  -9 -11    1.92    0.85
   3  -9 -11    0.73    0.69
   3  -9 -11    2.54    1.05
   2  -9 -11   -0.52    0.79
   2  -9 -11    1.16    0.77
   1  -9 -11    5.38    1.13
  -1   9  11    4.97    1.10
   0  -9 -11   -0.56    0.66
   0   9  11    0.31    0.77
  -1  -9 -11    0.94    0.87
  -2  -9 -11    1.81    0.94
  -3  -9 -11    0.90    0.94
   6 -10 -11    1.00    0.85
   5 -10 -11   -0.55    0.68
   4 -10 -11   -1.00    0.80
   4 -10 -11    0.69    0.79
   3 -10 -11    0.15    0.70
   3 -10 -11    1.08    0.90
   2 -10 -11   -0.92    0.61
   2 -10 -11   -0.11    0.79
   1 -10 -11    0.92    0.77
  -1  10  11    1.60    0.92
   0 -10 -11    0.83    0.87
   0  10  11    0.40    0.84
  -1 -10 -11    1.98    1.00
  -2 -10 -11    1.32    0.97
   5 -11 -11   -0.99    0.68
   4 -11 -11    1.51    1.09
   4 -11 -11    1.44    0.86
   3 -11 -11    0.39    0.90
   3 -11 -11    0.69    0.79
   2 -11 -11    0.00    0.73
   2 -11 -11   -0.35    0.77
   1 -11 -11    1.44    0.92
  -1  11  11    1.38    0.90
   0 -11 -11   -0.34    0.77
   2 -12 -11    0.10    0.88
  -1  12  11    1.41    1.08
   3  19 -12    0.43    0.89
   2  19 -12   -0.24    0.81
  -1 -19  12    0.87    0.79
   2 -19  12    0.98    1.09
   3  18 -12   -0.27    0.73
   2  18 -12   -0.78    0.69
  -2 -18  12    0.44    0.72
   1  18 -12    0.21    0.85
  -1 -18  12    0.64    0.75
   0  18 -12   -0.31    0.77
   2 -18  12   -0.14    0.93
   4  17 -12    0.91    0.87
   3  17 -12    0.23    0.74
  -3 -17  12    0.46    0.74
   2  17 -12    0.27    0.80
  -2 -17  12    1.69    0.82
   1  17 -12    0.81    0.83
  -1 -17  12    1.10    0.71
   0  17 -12   -0.09    0.77
  -1  17 -12    1.18    0.92
   1 -17  12    0.97    0.85
  -2  17 -12   -0.97    0.76
   2 -17  12   -0.53    0.87
   3 -17  12    0.98    1.01
   4  16 -12    0.93    0.82
  -4 -16  12    0.49    0.72
   3  16 -12    1.45    0.88
  -3 -16  12    1.49    0.79
   2  16 -12    0.57    0.83
  -2 -16  12    1.18    0.72
   1  16 -12   -0.36    0.63
  -1 -16  12    0.56    0.62
   0  16 -12    0.36    0.73
   0 -16  12    0.36    0.61
  -1  16 -12    2.40    0.94
   1 -16  12    2.77    1.01
  -2  16 -12   -0.08    0.80
   2 -16  12    0.11    0.84
  -3  16 -12    2.14    1.09
   3 -16  12    0.92    0.97
  -4  16 -12   -0.88    0.95
   5  15 -12    0.39    0.81
  -5 -15  12   -0.22    0.63
   4  15 -12    4.73    1.16
  -4 -15  12    2.23    0.86
   3  15 -12    0.21    0.72
  -3 -15  12    0.14    0.61
   2  15 -12    2.20    0.91
  -2 -15  12    2.17    0.78
   1  15 -12    0.73    0.75
  -1 -15  12    1.71    0.67
   0  15 -12    1.71    0.84
   0 -15  12    1.56    0.83
   0 -15  12    0.71    0.60
  -1  15 -12    1.57    0.87
   1 -15  12    0.51    0.77
  -2  15 -12   -0.04    0.73
   2 -15  12    0.95    0.87
  -3  15 -12    0.10    0.85
   3 -15  12   -0.83    0.77
  -4  15 -12    1.46    1.00
   4 -15  12   -0.08    0.91
   5  14 -12    0.68    0.81
  -5 -14  12    1.17    0.76
   4  14 -12   -0.56    0.64
  -4 -14  12    0.56    0.65
   3  14 -12    1.35    0.82
  -3 -14  12    1.14    0.62
   2  14 -12    0.44    0.74
  -2 -14  12   -0.29    0.48
   1  14 -12   -0.35    0.60
  -1 -14  12    0.33    0.56
   0  14 -12   -0.10    0.64
   0 -14  12   -0.19    0.50
   0 -14  12    0.65    0.65
  -1  14 -12    1.09    0.80
   1 -14  12    1.42    0.82
  -2  14 -12   -0.09    0.71
   2 -14  12    0.29    0.77
  -3  14 -12    0.27    0.82
   3 -14  12    0.54    0.93
  -4  14 -12   -1.23    0.82
   4 -14  12    0.78    1.01
  -5  14 -12    0.69    1.04
   6  13 -12    0.00    0.82
  -6 -13  12    0.15    0.67
   5  13 -12    3.17    1.02
  -5 -13  12    3.49    0.96
   4  13 -12    0.64    0.74
  -4 -13  12    0.81    0.67
   3  13 -12   -0.13    0.59
  -3 -13  12    1.28    0.65
   2  13 -12    1.13    0.76
  -2 -13  12    2.35    0.71
   1  13 -12    2.76    0.91
  -1 -13  12    2.74    0.72
  -1 -13  12    3.03    0.82
   0  13 -12    1.14    0.75
   0 -13  12    1.58    0.61
   0 -13  12    0.60    0.71
  -1  13 -12    0.16    0.67
   1 -13  12    0.13    0.71
  -2  13 -12    0.44    0.76
   2 -13  12   -0.46    0.71
  -3  13 -12   -1.13    0.64
   3 -13  12   -0.19    0.79
  -4  13 -12   -0.52    0.78
   4 -13  12    0.28    0.88
  -5  13 -12    0.09    1.03
   6  12 -12   -0.18    0.74
  -6 -12  12    0.13    0.69
   5  12 -12    2.31    0.94
  -5 -12  12    4.18    0.99
   4  12 -12    1.09    0.74
  -4 -12  12   -0.33    0.53
   3  12 -12    3.35    0.94
  -3 -12  12    3.05    0.81
   2  12 -12    4.44    1.05
  -2 -12  12    5.74    0.96
   1  12 -12   -0.48    0.58
  -1 -12  12   -0.66    0.52
  -1 -12  12    0.13    0.52
   0  12 -12    0.74    0.62
   0 -12  12    1.80    0.77
   0 -12  12    1.18    0.53
  -1  12 -12    0.32    0.70
   1 -12  12    0.12    0.68
  -2  12 -12    3.08    0.97
   2 -12  12    3.91    1.06
  -3  12 -12   -0.02    0.76
   3 -12  12    1.01    0.85
  -4  12 -12   -0.09    0.84
   4 -12  12    0.27    0.94
  -5  12 -12   -0.08    0.87
   5 -12  12    0.29    0.99
  -7 -11  12    0.93    0.83
   6  11 -12    0.68    0.87
  -6 -11  12    1.32    0.77
   5  11 -12   -0.02    0.66
  -5 -11  12    0.51    0.68
   4  11 -12    0.15    0.64
  -4 -11  12    0.16    0.51
   3  11 -12    5.35    1.10
  -3 -11  12    4.25    0.88
   2  11 -12    6.84    1.17
  -2 -11  12    7.42    1.03
  -2 -11  12    6.68    1.04
   1  11 -12    1.44    0.69
  -1 -11  12    0.59    0.64
  -1 -11  12    0.20    0.45
   0  11 -12    3.42    0.90
   0 -11  12    5.97    1.03
   0 -11  12    3.46    0.72
  -1  11 -12    1.12    0.73
   1 -11  12    0.81    0.69
  -2  11 -12    6.03    1.15
   2 -11  12    2.68    0.96
  -3  11 -12    0.37    0.74
   3 -11  12    0.37    0.78
  -4  11 -12    0.63    0.87
   4 -11  12    0.47    0.91
  -5  11 -12    0.69    0.89
   5 -11  12    1.13    1.06
   7  10 -12   -0.69    0.81
  -7 -10  12    1.06    0.81
   6  10 -12    2.97    1.02
  -6 -10  12    2.75    0.92
   5  10 -12    0.37    0.66
  -5 -10  12    0.55    0.60
   4  10 -12    0.31    0.62
   3  10 -12    5.47    0.95
   3  10 -12    5.31    1.07
   2  10 -12    1.87    0.70
   2  10 -12    1.73    0.75
  -2 -10  12    1.86    0.70
   1  10 -12    5.19    0.88
   1  10 -12    3.61    0.91
  -1 -10  12    4.63    0.95
   0  10 -12   -0.14    0.47
   0  10 -12    0.38    0.58
   0 -10  12    1.51    0.74
  -1  10 -12   12.42    1.45
   1 -10  12   14.29    1.57
  -2  10 -12    0.62    0.64
   2 -10  12    1.01    0.81
  -3  10 -12   -0.36    0.64
   3 -10  12   -0.02    0.72
  -4  10 -12   -0.49    0.69
   4 -10  12    0.48    0.81
  -5  10 -12   -0.14    0.87
   5 -10  12   -0.21    0.92
   7   9 -12   -0.16    0.79
  -7  -9  12    0.54    0.77
   6   9 -12    0.42    0.73
  -6  -9  12    0.06    0.63
   5   9 -12    2.99    0.95
   5   9 -12    3.49    0.88
   4   9 -12    0.59    0.56
   4   9 -12    0.14    0.58
   3   9 -12   51.40    2.64
   3   9 -12   47.82    2.35
  -3  -9  12   52.76    2.28
   2   9 -12    2.32    0.79
   2   9 -12    4.33    0.82
  -2  -9  12    4.60    0.90
   1   9 -12    1.74    0.72
   1   9 -12    0.51    0.50
  -1  -9  12    0.50    0.66
   0   9 -12    0.53    0.64
   0   9 -12    0.75    0.56
   0  -9  12    0.51    0.66
  -1   9 -12    4.75    0.82
  -1   9 -12    3.63    0.92
   1  -9  12    1.90    0.82
  -2   9 -12    2.87    0.91
   2  -9  12    3.96    1.03
  -3   9 -12    0.70    0.73
   3  -9  12    0.21    0.76
  -4   9 -12    1.50    0.85
   4  -9  12    2.23    0.95
  -5   9 -12    1.13    0.96
   5  -9  12    1.00    1.01
  -8  -8  12    0.03    0.75
   7   8 -12    0.70    0.82
  -7  -8  12   -0.93    0.62
   6   8 -12    5.61    1.23
   6   8 -12    3.96    0.94
   5   8 -12    1.06    0.63
   5   8 -12    1.05    0.73
   4   8 -12    4.44    0.88
   4   8 -12    3.47    0.91
   3   8 -12   12.87    1.47
   3   8 -12   12.22    1.34
  -3  -8  12   14.17    1.36
   2   8 -12    5.56    1.05
   2   8 -12    5.88    0.91
  -2  -8  12    5.72    0.98
   1   8 -12    1.45    0.58
   1   8 -12    1.23    0.68
  -1  -8  12    2.14    0.75
   0   8 -12    0.42    0.47
   0   8 -12    0.57    0.57
   0  -8  12   -0.17    0.64
  -1   8 -12    5.24    1.04
  -1   8 -12    5.81    0.83
   1  -8  12    4.67    1.07
  -2   8 -12    8.51    1.28
   2  -8  12    8.28    1.31
  -3   8 -12    0.54    0.71
   3  -8  12    0.48    0.74
  -4   8 -12    3.17    1.03
   4  -8  12    1.86    0.99
  -5   8 -12   -0.93    0.70
   5  -8  12   -0.49    0.84
   6  -8  12   -0.09    0.99
   8   7 -12    2.17    1.01
  -8  -7  12    1.87    0.89
   7   7 -12    0.48    0.78
   7   7 -12    0.74    0.67
   6   7 -12    3.97    0.93
   6   7 -12    4.21    1.08
   5   7 -12    0.34    0.60
   5   7 -12   -0.63    0.43
   4   7 -12    4.26    0.88
   4   7 -12    2.72    0.85
  -4  -7  12    3.44    0.83
   3   7 -12   17.71    1.66
   3   7 -12   12.97    1.36
  -3  -7  12   17.92    1.35
   2   7 -12    0.58    0.62
   2   7 -12    0.11    0.45
  -2  -7  12    0.83    0.63
   1   7 -12    8.77    1.16
   1   7 -12    8.99    1.07
  -1  -7  12    8.33    1.16
   0   7 -12    3.97    0.92
   0   7 -12    3.53    0.69
   0  -7  12    4.58    0.95
  -1   7 -12    4.63    0.96
  -1   7 -12    5.98    0.83
   1  -7  12    3.79    0.99
  -2   7 -12    1.25    0.73
   2  -7  12    1.87    0.86
  -3   7 -12    1.20    0.78
   3  -7  12    2.90    0.95
  -4   7 -12   -0.23    0.67
   4  -7  12    0.25    0.81
  -5   7 -12   -0.50    0.71
   5  -7  12    0.79    0.98
   6  -7  12    0.41    1.07
   8   6 -12    0.80    0.89
   7   6 -12    1.16    0.82
   7   6 -12    1.93    0.77
   6   6 -12    2.42    0.83
   6   6 -12    3.55    0.97
   5   6 -12    0.15    0.48
   5   6 -12    0.12    0.56
   4   6 -12   12.71    1.45
   4   6 -12   11.19    1.26
  -4  -6  12   14.69    1.43
   3   6 -12   10.59    1.20
   3   6 -12    7.89    1.16
  -3  -6  12    7.71    1.09
   2   6 -12    6.30    1.06
   2   6 -12    4.77    0.83
  -2  -6  12    5.45    0.96
   1   6 -12    3.18    0.71
   1   6 -12    4.18    0.87
  -1  -6  12    2.45    0.80
   0   6 -12    0.69    0.59
   0   6 -12    0.74    0.47
   0  -6  12    1.24    0.70
  -1   6 -12   32.73    1.95
  -1   6 -12   30.15    1.54
   1  -6  12   29.83    1.97
  -2   6 -12    4.88    1.01
   2  -6  12    4.72    1.07
  -3   6 -12    8.85    1.31
   3  -6  12    6.46    1.18
  -4   6 -12    0.32    0.73
   4  -6  12   -1.23    0.69
  -5   6 -12   -0.74    0.70
   5  -6  12   -1.28    0.76
   6  -6  12    0.86    1.08
   8   5 -12    0.56    0.84
   8   5 -12   -0.32    0.61
   7   5 -12    1.33    0.73
   7   5 -12    2.78    0.98
   6   5 -12    1.57    0.68
   6   5 -12    0.59    0.70
   5   5 -12    0.79    0.60
   5   5 -12   -0.21    0.44
  -5  -5  12   -0.38    0.50
   4   5 -12    6.98    1.11
   4   5 -12    8.57    1.12
  -4  -5  12   12.95    1.36
   3   5 -12    0.65    0.53
   3   5 -12    0.98    0.59
  -3  -5  12    1.36    0.68
   2   5 -12    9.13    1.08
   2   5 -12    8.50    1.14
  -2  -5  12    9.49    1.22
   1   5 -12    6.57    1.03
   1   5 -12    7.07    0.96
  -1  -5  12    7.13    1.12
   0   5 -12    7.47    1.10
   0   5 -12    7.67    0.95
   0  -5  12    8.29    1.20
  -1   5 -12    6.42    0.88
  -1   5 -12    5.23    1.01
   1  -5  12    4.41    1.03
  -2   5 -12   -0.29    0.61
   2  -5  12    0.63    0.76
  -3   5 -12    6.50    1.15
   3  -5  12    3.62    1.00
  -4   5 -12   -0.43    0.58
   4  -5  12   -0.63    0.73
  -5   5 -12    0.80    0.84
   5  -5  12   -1.50    0.77
   6  -5  12   -0.06    0.98
   8   4 -12   -1.01    0.72
   8   4 -12   -0.18    0.68
   7   4 -12    2.28    0.85
   7   4 -12    2.11    0.82
   6   4 -12    0.89    0.64
   6   4 -12    2.16    0.85
   5   4 -12    2.65    0.73
   5   4 -12    1.97    0.69
  -5  -4  12    2.62    0.77
   4   4 -12    3.28    0.79
   4   4 -12    3.72    0.84
  -4  -4  12    0.96    0.70
   3   4 -12    5.14    0.96
   3   4 -12    4.67    0.87
  -3  -4  12    4.32    0.88
   2   4 -12    7.06    1.06
   2   4 -12    6.29    0.91
  -2  -4  12    6.67    1.08
   1   4 -12    3.91    0.76
   1   4 -12    4.17    0.83
  -1  -4  12    3.29    0.85
   0   4 -12   19.18    1.45
   0   4 -12   22.55    1.35
   0  -4  12   23.13    1.65
  -1   4 -12    4.57    0.98
  -1   4 -12    5.56    0.81
   1  -4  12    5.49    1.08
  -2   4 -12   -0.47    0.59
   2  -4  12    0.03    0.69
  -3   4 -12    0.79    0.67
   3  -4  12    0.65    0.79
  -4   4 -12    1.39    0.84
   4  -4  12    1.55    0.96
  -5   4 -12    1.48    0.94
   5  -4  12    0.91    0.95
   6  -4  12   -0.21    0.96
   8   3 -12   -0.04    0.75
   8   3 -12    0.59    0.70
   7   3 -12    1.62    0.73
   7   3 -12    3.56    0.99
   6   3 -12    1.62    0.75
   6   3 -12    2.33    0.70
   5   3 -12    5.39    0.99
   5   3 -12    4.88    0.93
  -5  -3  12    5.63    1.06
   4   3 -12    5.57    0.96
   4   3 -12    6.29    1.03
  -4  -3  12    6.11    1.06
   3   3 -12   -0.02    0.45
   3   3 -12   -0.22    0.50
  -3  -3  12   -0.10    0.55
   2   3 -12   10.71    1.18
   2   3 -12    8.02    1.02
  -2  -3  12   10.13    1.27
   1   3 -12   -0.39    0.44
   1   3 -12   -0.13    0.43
  -1  -3  12    0.19    0.57
   0   3 -12    2.30    0.65
   0   3 -12    2.46    0.76
   0  -3  12    2.09    0.79
  -1   3 -12    5.76    1.02
  -1   3 -12    6.64    0.86
   1  -3  12    5.97    1.14
  -2   3 -12    3.95    0.97
   2  -3  12    3.40    1.05
  -3   3 -12    4.37    0.99
   3  -3  12    4.58    1.02
  -4   3 -12    0.22    0.76
   4  -3  12    0.46    0.83
  -5   3 -12    1.26    0.94
   5  -3  12    1.35    0.98
   6  -3  12    1.98    0.99
   7   2 -12    4.22    1.00
   7   2 -12    4.15    1.02
   6   2 -12    0.38    0.60
   6   2 -12    0.52    0.57
   6   2 -12    1.46    0.74
   5   2 -12    3.75    0.85
   5   2 -12    3.40    0.81
   4   2 -12   10.09    1.19
   4   2 -12    7.62    1.06
  -4  -2  12   10.24    1.33
   3   2 -12    0.52    0.49
   3   2 -12    1.51    0.60
  -3  -2  12    2.20    0.78
   2   2 -12   18.14    1.31
   2   2 -12   16.28    1.48
  -2  -2  12   19.63    1.77
   1   2 -12    0.18    0.45
   1   2 -12    0.40    0.54
  -1  -2  12    0.72    0.65
   0   2 -12    7.04    0.94
   0   2 -12    7.94    1.07
   0  -2  12    7.44    1.19
  -1   2 -12    8.10    0.98
  -1   2 -12    8.51    1.18
   1  -2  12    8.85    1.32
  -2   2 -12    1.56    0.52
  -2   2 -12    2.05    0.83
   2  -2  12    3.52    1.00
  -3   2 -12    2.19    0.86
   3  -2  12    1.05    0.84
  -4   2 -12    0.86    0.79
   4  -2  12   -1.04    0.67
  -5   2 -12    0.38    0.84
   5  -2  12    3.64    1.01
   7   1 -12    2.57    0.82
   6   1 -12    0.18    0.66
   6   1 -12    0.09    0.36
   6   1 -12   -0.52    0.47
   5   1 -12    7.06    1.02
   5   1 -12    5.66    1.08
   5   1 -12    8.40    1.11
   4   1 -12   10.77    1.19
   4   1 -12    8.31    1.14
   3   1 -12   11.74    1.18
   3   1 -12    7.60    1.03
  -3  -1  12   13.24    1.48
   2   1 -12   10.98    1.22
  -2  -1  12   11.66    1.41
   1   1 -12    6.74    0.92
   1   1 -12    9.03    1.07
  -1  -1  12    5.57    1.09
   0   1 -12    9.32    1.14
   0   1 -12   11.53    1.17
   0  -1  12    8.41    1.27
  -1   1 -12    2.30    0.77
  -1   1 -12    2.54    0.66
   1  -1  12    0.42    0.76
  -2   1 -12   -0.51    0.38
  -2   1 -12   -0.23    0.55
   2  -1  12    0.67    0.72
  -3   1 -12    8.13    1.27
   3  -1  12    6.27    1.14
  -4   1 -12    0.17    0.73
   4  -1  12   -0.02    0.85
  -5   1 -12    4.11    1.17
   5  -1  12    2.90    0.99
   7   0 -12    1.91    0.75
   7   0 -12    2.89    0.96
   6   0 -12    2.13    0.87
   6   0 -12    1.43    0.67
   5   0 -12    6.42    1.04
   5   0 -12   10.39    1.32
   4   0 -12    1.05    0.58
   4   0 -12    1.09    0.77
   4   0 -12    1.29    0.60
   3   0 -12    8.63    1.14
   3   0 -12   10.62    1.14
  -3   0  12   11.50    1.45
   2   0 -12   10.82    1.12
   2   0 -12    7.00    0.96
  -2   0  12   11.27    1.40
   1   0 -12    1.55    0.59
   1   0 -12    0.24    0.51
  -1   0  12    0.39    0.70
   0   0 -12   10.64    1.16
   0   0 -12   13.12    1.30
   0   0  12   14.06    1.56
  -1   0 -12    0.31    0.61
  -1   0 -12    0.08    0.47
   1   0  12   -0.22    0.64
  -2   0 -12    3.72    0.92
  -2   0 -12    4.81    0.82
   2   0  12    3.23    0.95
  -3   0 -12    1.62    0.82
   3   0  12    0.01    0.73
  -4   0 -12    0.93    0.85
   4   0  12    0.71    0.84
  -5   0 -12    1.94    1.01
   7  -1 -12    1.07    0.67
   7  -1 -12    1.08    0.86
   6  -1 -12    0.73    0.59
   6  -1 -12    3.06    0.99
   5  -1 -12    2.94    0.93
   5  -1 -12    2.61    0.74
   4  -1 -12    0.99    0.60
   4  -1 -12    0.31    0.68
   3  -1 -12    3.38    0.77
   2  -1 -12   15.54    1.17
   2  -1 -12   17.83    1.33
  -2   1  12   19.03    1.84
   1  -1 -12   34.10    1.77
   1  -1 -12   31.57    1.69
  -1   1  12   32.83    2.03
   0  -1 -12   11.17    1.18
   0  -1 -12    9.90    1.16
   0   1  12    8.99    1.30
  -1  -1 -12   -0.25    0.54
  -1  -1 -12   -0.04    0.47
   1   1  12   -0.23    0.64
  -2  -1 -12    7.93    1.19
  -2  -1 -12    4.55    0.84
   2   1  12    7.08    1.15
  -3  -1 -12    1.64    0.80
   3   1  12    1.01    0.85
  -4  -1 -12    1.27    0.86
   4   1  12    3.36    1.08
  -5  -1 -12    2.44    1.07
   7  -2 -12    0.29    0.80
   7  -2 -12   -0.57    0.54
   6  -2 -12   -0.03    0.57
   6  -2 -12    1.22    0.88
   5  -2 -12    0.73    0.81
   5  -2 -12    0.44    0.58
   4  -2 -12    1.02    0.75
   4  -2 -12    0.50    0.53
   3  -2 -12    4.64    0.85
   2  -2 -12    0.15    0.47
  -2   2  12   -0.39    0.64
  -1   2  12    4.04    0.98
   0  -2 -12    1.49    0.63
   0  -2 -12    1.63    0.68
   0   2  12    2.02    0.84
  -1  -2 -12    1.63    0.69
  -1  -2 -12    3.45    0.78
   1   2  12    2.72    0.91
  -2  -2 -12    1.18    0.59
  -2  -2 -12    3.38    0.87
   2   2  12    2.14    0.91
  -3  -2 -12    0.88    0.79
   3   2  12   -0.23    0.82
  -4  -2 -12    1.00    0.88
  -5  -2 -12    0.12    0.82
   8  -3 -12    0.27    0.91
   7  -3 -12    0.70    0.84
   7  -3 -12    0.45    0.60
   6  -3 -12   -0.08    0.80
   6  -3 -12    0.55    0.64
   5  -3 -12    8.75    1.20
   5  -3 -12   13.43    1.71
   4  -3 -12    0.06    0.48
   4  -3 -12   -0.11    0.69
   3  -3 -12    2.00    0.67
   3  -3 -12    1.26    0.79
   2  -3 -12    0.35    0.50
  -2   3  12    0.44    0.71
   1  -3 -12   12.81    1.33
  -1   3  12   13.97    1.62
   0  -3 -12    1.69    0.68
   0   3  12    2.65    0.88
  -1  -3 -12    2.64    0.76
   1   3  12    1.10    0.82
  -2  -3 -12    0.29    0.39
  -2  -3 -12    0.30    0.56
   2   3  12    1.49    0.89
  -3  -3 -12    0.32    0.73
   3   3  12    0.32    0.84
  -4  -3 -12    0.66    0.85
  -5  -3 -12    1.63    1.00
   7  -4 -12    0.53    0.93
   7  -4 -12   -0.44    0.56
   6  -4 -12    1.23    0.91
   6  -4 -12    2.19    0.82
   5  -4 -12   -0.06    0.50
   5  -4 -12    0.45    0.82
   4  -4 -12    1.23    0.65
   4  -4 -12    1.67    0.90
   3  -4 -12    3.89    1.08
   3  -4 -12    4.67    0.90
   2  -4 -12   -1.14    0.37
  -2   4  12    0.51    0.77
   1  -4 -12    5.65    0.99
  -1   4  12    9.25    1.35
   0  -4 -12   -0.64    0.48
   0   4  12    1.29    0.72
  -1  -4 -12    3.77    0.86
   1   4  12    1.65    0.82
  -2  -4 -12    0.30    0.62
   2   4  12   -0.35    0.76
  -4  -4 -12    3.86    1.11
  -5  -4 -12    0.74    0.92
   7  -5 -12    0.52    0.71
   7  -5 -12   -0.03    0.88
   6  -5 -12    2.00    1.00
   6  -5 -12    2.25    0.86
   5  -5 -12   -0.10    0.80
   5  -5 -12   -0.37    0.50
   4  -5 -12    2.87    0.83
   4  -5 -12    2.36    0.99
   3  -5 -12    1.89    0.73
   3  -5 -12    0.41    0.79
   2  -5 -12    5.64    0.96
   1  -5 -12   -0.19    0.55
  -1   5  12    0.19    0.68
   0  -5 -12    4.99    0.98
   0   5  12    3.15    0.93
  -1  -5 -12    0.92    0.73
   1   5  12    1.84    0.90
  -2  -5 -12   -0.59    0.59
   2   5  12    2.12    0.98
   6  -6 -12    1.29    1.02
   6  -6 -12    0.44    0.69
   5  -6 -12   -1.40    0.75
   5  -6 -12    0.11    0.57
   4  -6 -12    0.32    0.60
   4  -6 -12    2.79    1.03
   3  -6 -12    0.31    0.83
   3  -6 -12    0.04    0.58
   2  -6 -12    0.06    0.56
   1  -6 -12    0.15    0.62
  -1   6  12    1.57    0.75
   0  -6 -12    3.55    0.96
   0   6  12    6.57    1.15
  -1  -6 -12   14.19    1.56
   1   6  12   12.41    1.52
  -2  -6 -12   -0.31    0.61
   2   6  12    0.87    0.87
   6  -7 -12    1.22    1.11
   6  -7 -12    0.40    0.69
   5  -7 -12    0.36    0.94
   5  -7 -12    0.17    0.63
   4  -7 -12    2.91    1.15
   4  -7 -12    2.56    0.83
   3  -7 -12   -0.02    0.77
   3  -7 -12    0.04    0.60
   2  -7 -12    4.33    1.00
   1  -7 -12    4.16    0.99
  -1   7  12    3.42    0.99
   0  -7 -12    0.33    0.72
   0   7  12    0.70    0.84
  -1  -7 -12    1.51    0.78
   1   7  12    1.50    0.85
  -2  -7 -12   -0.10    0.74
   6  -8 -12    0.30    0.73
   5  -8 -12    0.35    0.96
   5  -8 -12    1.34    0.76
   4  -8 -12    0.54    0.94
   4  -8 -12    1.23    0.75
   3  -8 -12    0.29    0.83
   3  -8 -12   -0.30    0.57
   2  -8 -12    3.89    1.01
   1  -8 -12    0.04    0.69
  -1   8  12    0.93    0.86
   0  -8 -12    0.96    0.78
   0   8  12    1.34    0.93
  -1  -8 -12    0.87    0.81
   1   8  12    0.83    0.85
  -2  -8 -12   -0.61    0.75
   6  -9 -12    0.41    0.77
   5  -9 -12    0.34    0.73
   4  -9 -12    2.36    0.92
   4  -9 -12    2.47    1.09
   3  -9 -12    0.29    0.71
   3  -9 -12   -0.57    0.80
   2  -9 -12    4.06    1.11
   2  -9 -12    3.83    1.19
   1  -9 -12   -0.01    0.77
  -1   9  12    0.23    0.89
   0  -9 -12   -0.51    0.65
   0   9  12    0.76    0.88
  -1  -9 -12   -0.42    0.82
  -2  -9 -12    0.01    0.90
   4 -10 -12    0.13    0.73
   3 -10 -12   -0.08    0.90
   3 -10 -12    0.71    0.84
   2 -10 -12    1.41    0.90
   1 -10 -12   -0.56    0.69
  -1  10  12    0.02    0.92
   0 -10 -12    0.42    0.86
  -1  11  12    1.36    1.03
   2  19 -13    0.03    0.85
   1  19 -13   -0.23    0.84
  -1 -19  13    0.37    0.76
   3  18 -13    0.55    0.91
   2  18 -13    1.09    0.97
  -2 -18  13   -0.21    0.69
   1  18 -13   -0.15    0.77
  -1 -18  13   -0.27    0.66
   0  18 -13    0.92    0.92
  -1  18 -13    0.61    0.98
   2 -18  13    1.03    1.11
   3  17 -13    0.16    0.81
  -3 -17  13    0.39    0.73
   2  17 -13    1.37    0.92
  -2 -17  13   -0.26    0.61
   1  17 -13    0.09    0.76
  -1 -17  13   -0.28    0.62
   0  17 -13    2.37    1.01
  -1  17 -13    0.58    0.89
   1 -17  13    0.61    0.90
  -2  17 -13    0.45    0.91
   2 -17  13    0.61    0.95
  -3  17 -13   -1.36    0.87
   4  16 -13    0.64    0.85
  -4 -16  13   -0.17    0.67
   3  16 -13    2.39    1.00
  -3 -16  13    1.26    0.76
   2  16 -13    0.05    0.77
  -2 -16  13    0.82    0.68
   1  16 -13    0.12    0.82
  -1 -16  13    2.18    0.79
   0  16 -13    0.93    0.85
  -1  16 -13   -0.88    0.71
   1 -16  13    0.02    0.77
  -2  16 -13    1.48    1.00
   2 -16  13    2.22    0.96
  -3  16 -13   -0.92    0.85
   3 -16  13   -0.23    0.98
   5  15 -13   -0.27    0.73
   4  15 -13    0.13    0.74
  -4 -15  13    0.07    0.64
   3  15 -13    2.18    0.95
  -3 -15  13    1.08    0.69
   2  15 -13   -0.66    0.66
  -2 -15  13    0.52    0.63
   1  15 -13   -0.09    0.71
  -1 -15  13    0.40    0.58
   0  15 -13    3.09    1.04
   0 -15  13    1.27    0.82
  -1  15 -13   -0.76    0.65
   1 -15  13   -0.66    0.76
  -2  15 -13   -0.81    0.74
   2 -15  13    1.03    0.98
  -3  15 -13   -0.68    0.86
   3 -15  13   -0.09    0.94
  -4  15 -13    1.72    1.16
   5  14 -13    1.48    0.90
  -5 -14  13    1.38    0.83
   4  14 -13    0.51    0.80
  -4 -14  13    0.19    0.67
   3  14 -13    1.59    0.87
  -3 -14  13    1.30    0.71
   2  14 -13   -0.10    0.65
  -2 -14  13    0.46    0.62
   1  14 -13    0.50    0.75
  -1 -14  13    1.45    0.67
   0  14 -13    1.39    0.82
   0 -14  13    2.31    0.64
   0 -14  13    1.60    0.82
  -1  14 -13    0.68    0.80
   1 -14  13    0.36    0.76
  -2  14 -13    1.76    0.95
   2 -14  13    1.09    0.92
  -3  14 -13   -0.01    0.85
   3 -14  13   -0.43    0.80
  -4  14 -13    0.04    0.97
   5  13 -13    2.05    0.98
  -5 -13  13    1.64    0.86
   4  13 -13    2.13    0.96
  -4 -13  13    1.86    0.79
   3  13 -13    1.13    0.79
  -3 -13  13    1.74    0.71
   2  13 -13    0.40    0.68
  -2 -13  13   -0.15    0.48
   1  13 -13    0.13    0.69
  -1 -13  13    0.63    0.64
  -1 -13  13    0.82    0.55
   0  13 -13    1.20    0.79
   0 -13  13    1.06    0.51
   0 -13  13    0.64    0.73
  -1  13 -13   -0.53    0.61
   1 -13  13    0.09    0.79
  -2  13 -13    1.54    0.90
   2 -13  13    2.59    1.01
  -3  13 -13    0.48    0.91
   3 -13  13   -1.21    0.74
  -4  13 -13    1.58    1.04
   4 -13  13    1.15    1.00
   6  12 -13    1.66    1.03
  -6 -12  13    0.43    0.76
   5  12 -13   -0.25    0.69
  -5 -12  13   -0.07    0.61
   4  12 -13    1.28    0.79
  -4 -12  13    1.99    0.79
   3  12 -13    1.16    0.74
  -3 -12  13   -0.19    0.48
   2  12 -13    0.43    0.68
  -2 -12  13    0.60    0.56
   1  12 -13    6.12    1.16
  -1 -12  13    8.04    1.08
  -1 -12  13    6.73    1.10
   0  12 -13    0.47    0.66
   0 -12  13    0.43    0.64
   0 -12  13    0.20    0.34
  -1  12 -13   -0.02    0.67
   1 -12  13   -0.39    0.63
  -2  12 -13    1.89    0.85
   2 -12  13    1.16    0.89
  -3  12 -13    0.41    0.77
   3 -12  13    2.19    1.06
  -4  12 -13    1.92    1.07
   4 -12  13    0.90    0.94
   6  11 -13    1.55    0.97
  -6 -11  13    0.14    0.68
   5  11 -13    0.71    0.81
  -5 -11  13   -0.33    0.59
   4  11 -13    3.73    1.02
  -4 -11  13    3.42    0.88
   3  11 -13    0.43    0.65
   2  11 -13    4.99    1.10
  -2 -11  13    5.46    0.98
   1  11 -13    1.33    0.74
  -1 -11  13    1.90    0.75
   0  11 -13    0.76    0.69
   0 -11  13   -0.71    0.57
   0 -11  13    0.28    0.33
  -1  11 -13    0.58    0.72
   1 -11  13    0.11    0.72
  -2  11 -13   -0.04    0.68
   2 -11  13    0.36    0.81
  -3  11 -13    0.98    0.85
   3 -11  13    0.37    0.81
  -4  11 -13    1.14    0.96
   4 -11  13    0.66    1.00
   7  10 -13    0.28    0.87
  -7 -10  13    0.24    0.78
   6  10 -13    0.49    0.83
  -6 -10  13   -0.38    0.58
   5  10 -13    1.69    0.87
   4  10 -13    1.05    0.67
   4  10 -13    2.35    0.87
   3  10 -13    0.42    0.66
   3  10 -13    1.01    0.62
   2  10 -13   -0.29    0.47
   2  10 -13   -0.47    0.57
  -2 -10  13    0.14    0.60
   1  10 -13    1.68    0.79
   1  10 -13    2.67    0.74
  -1 -10  13    2.29    0.83
   0  10 -13    1.04    0.73
   0  10 -13    0.63    0.54
   0 -10  13    1.27    0.73
  -1  10 -13    0.90    0.73
   1 -10  13    0.62    0.74
  -2  10 -13   -0.02    0.64
   2 -10  13   -0.37    0.65
  -3  10 -13    0.41    0.79
   3 -10  13    0.95    0.91
  -4  10 -13   -0.37    0.78
   4 -10  13    1.30    1.04
  -5  10 -13   -0.34    0.84
   5 -10  13    0.57    1.06
   7   9 -13    1.31    0.90
  -7  -9  13    0.70    0.82
   6   9 -13    0.92    0.84
   5   9 -13    0.47    0.58
   5   9 -13    0.10    0.63
   4   9 -13    3.88    0.92
   4   9 -13    6.37    1.18
   3   9 -13    9.70    1.35
   3   9 -13   13.15    1.42
  -3  -9  13   14.20    1.41
   2   9 -13    6.54    1.01
   2   9 -13    8.01    1.28
  -2  -9  13    8.38    1.16
   1   9 -13    6.04    0.95
   1   9 -13    4.39    0.98
  -1  -9  13    5.99    1.06
   0   9 -13    0.99    0.57
   0   9 -13    0.29    0.60
   0  -9  13    0.70    0.70
  -1   9 -13    1.86    0.78
   1  -9  13    1.86    0.81
  -2   9 -13   -0.10    0.63
   2  -9  13    0.39    0.83
  -3   9 -13    1.42    0.89
   3  -9  13    1.61    0.91
  -4   9 -13    0.37    0.81
   4  -9  13    1.30    0.97
  -5   9 -13    0.07    0.84
   5  -9  13   -0.56    0.97
   7   8 -13    2.99    1.08
   6   8 -13    0.25    0.74
   6   8 -13    0.90    0.69
   5   8 -13    0.13    0.61
   5   8 -13    0.88    0.68
   4   8 -13    2.46    0.75
   4   8 -13    2.19    0.82
   3   8 -13    0.71    0.64
   3   8 -13    0.60    0.60
  -3  -8  13   -0.36    0.55
   2   8 -13   33.62    1.85
   2   8 -13   30.42    2.01
  -2  -8  13   34.75    1.94
   1   8 -13   -0.07    0.49
   1   8 -13    0.64    0.63
  -1  -8  13    0.87    0.70
   0   8 -13    3.17    0.71
   0   8 -13    2.21    0.84
   0  -8  13    1.87    0.86
  -1   8 -13    1.70    0.78
  -1   8 -13    1.46    0.58
   1  -8  13    1.83    0.86
  -2   8 -13    0.24    0.68
   2  -8  13    1.38    0.84
  -3   8 -13    1.64    0.83
   3  -8  13    2.39    0.92
  -4   8 -13    0.91    0.89
   4  -8  13    0.09    0.84
  -5   8 -13   -0.02    0.85
   5  -8  13    0.26    0.92
   7   7 -13    1.11    0.74
   7   7 -13    0.95    0.88
   6   7 -13    0.44    0.70
   6   7 -13    0.05    0.59
   5   7 -13    4.68    0.95
   4   7 -13    3.45    0.92
   4   7 -13    3.15    0.83
  -4  -7  13    3.75    0.89
   3   7 -13    1.15    0.73
   3   7 -13    0.42    0.56
  -3  -7  13    1.23    0.68
   2   7 -13    0.32    0.54
   2   7 -13    1.08    0.66
  -2  -7  13    1.80    0.76
   1   7 -13   -0.35    0.40
   1   7 -13    0.66    0.60
  -1  -7  13   -0.25    0.61
   0   7 -13    1.89    0.78
   0   7 -13    1.78    0.59
   0  -7  13    1.80    0.79
  -1   7 -13    4.77    0.76
  -1   7 -13    3.62    0.93
   1  -7  13    4.26    1.05
  -2   7 -13    1.17    0.77
   2  -7  13    0.63    0.76
  -3   7 -13    3.59    1.00
   3  -7  13    3.52    1.03
  -4   7 -13   -0.30    0.75
   4  -7  13   -0.42    0.82
  -5   7 -13   -0.50    0.78
   5  -7  13    2.36    1.17
   8   6 -13    1.69    0.88
   8   6 -13    0.91    0.93
   7   6 -13    1.47    0.76
   7   6 -13    1.10    0.86
   6   6 -13    0.55    0.73
   6   6 -13   -0.05    0.54
   5   6 -13    4.72    1.05
   5   6 -13    4.09    0.89
   4   6 -13    1.14    0.60
   4   6 -13    0.60    0.64
  -4  -6  13    0.55    0.62
   3   6 -13    3.48    0.87
   3   6 -13    4.81    0.90
  -3  -6  13    3.51    0.88
   2   6 -13   11.32    1.25
   2   6 -13   11.74    1.37
  -2  -6  13   10.91    1.32
   1   6 -13    2.79    0.71
   1   6 -13    2.04    0.74
  -1  -6  13    2.74    0.86
   0   6 -13   10.04    1.11
   0   6 -13   10.07    1.31
   0  -6  13   11.70    1.44
  -1   6 -13    1.10    0.54
  -1   6 -13    0.68    0.69
   1  -6  13    1.65    0.85
  -2   6 -13    7.03    1.19
   2  -6  13    5.57    1.13
  -3   6 -13    6.52    1.23
   3  -6  13    4.34    1.03
  -4   6 -13    0.69    0.84
   4  -6  13    0.09    0.83
  -5   6 -13    1.27    0.98
   5  -6  13    0.93    1.01
   8   5 -13    1.17    0.83
   8   5 -13    0.86    0.90
   7   5 -13    2.29    0.84
   7   5 -13    2.37    0.97
   6   5 -13    0.27    0.64
   6   5 -13    0.69    0.73
   5   5 -13    5.42    1.00
   5   5 -13    7.33    1.17
  -5  -5  13    8.79    1.22
   4   5 -13    1.23    0.65
   4   5 -13    1.34    0.62
  -4  -5  13    1.71    0.70
   3   5 -13    0.19    0.50
   3   5 -13    0.15    0.53
  -3  -5  13    0.36    0.63
   2   5 -13    0.34    0.50
   2   5 -13    1.13    0.65
  -2  -5  13    0.97    0.69
   1   5 -13    0.39    0.50
   1   5 -13    0.45    0.61
  -1  -5  13    0.49    0.65
   0   5 -13   14.68    1.32
   0   5 -13   13.96    1.48
   0  -5  13   13.81    1.61
  -1   5 -13    0.64    0.71
  -1   5 -13    2.35    0.65
   1  -5  13    2.63    0.93
  -2   5 -13    6.97    1.21
   2  -5  13    6.98    1.22
  -3   5 -13    3.96    1.03
   3  -5  13    3.76    0.99
  -4   5 -13    4.37    1.17
   4  -5  13    2.44    0.91
  -5   5 -13   -0.84    0.77
   5  -5  13    0.10    0.99
   8   4 -13   -0.03    0.70
   8   4 -13    1.26    0.92
   7   4 -13    0.34    0.77
   7   4 -13    0.22    0.64
   6   4 -13    0.15    0.61
   6   4 -13    0.44    0.67
   5   4 -13    3.48    0.83
   5   4 -13    5.97    1.06
  -5  -4  13    4.47    0.98
   4   4 -13    0.38    0.55
   4   4 -13    0.07    0.52
  -4  -4  13    0.08    0.58
   3   4 -13    2.51    0.78
   3   4 -13    1.81    0.66
  -3  -4  13    2.32    0.78
   2   4 -13    0.78    0.63
   2   4 -13    0.36    0.47
  -2  -4  13   -0.32    0.57
   1   4 -13    1.68    0.64
   1   4 -13    0.65    0.63
  -1  -4  13    1.80    0.75
   0   4 -13    6.13    1.11
   0   4 -13    5.14    0.89
   0  -4  13    4.55    1.02
  -1   4 -13    4.42    1.02
  -1   4 -13    3.77    0.72
   1  -4  13    4.47    1.01
  -2   4 -13    8.18    1.25
   2  -4  13    7.61    1.28
  -3   4 -13    0.51    0.74
   3  -4  13    0.82    0.83
  -4   4 -13    1.77    0.96
   4  -4  13    1.47    0.94
  -5   4 -13   -0.03    0.84
   5  -4  13    0.06    0.93
   6  -4  13    0.26    1.05
   8   3 -13    0.33    0.72
   7   3 -13    0.95    0.67
   7   3 -13    0.60    0.79
   6   3 -13    2.40    0.88
   6   3 -13    2.36    0.79
  -6  -3  13    2.91    0.92
   5   3 -13   11.92    1.41
   5   3 -13    9.61    1.29
  -5  -3  13   14.98    1.61
   4   3 -13    1.13    0.67
   4   3 -13    0.09    0.52
  -4  -3  13    1.55    0.75
   3   3 -13    2.03    0.72
   3   3 -13    3.01    0.79
  -3  -3  13    4.27    0.99
   2   3 -13   -0.14    0.51
   2   3 -13    0.18    0.50
  -2  -3  13   -0.75    0.50
   1   3 -13    9.93    1.21
   1   3 -13   10.34    1.20
  -1  -3  13    8.07    1.26
   0   3 -13    0.21    0.52
   0   3 -13    1.14    0.69
   0  -3  13    0.87    0.71
  -1   3 -13    6.57    1.14
  -1   3 -13    8.06    1.00
   1  -3  13    7.86    1.29
  -2   3 -13    2.14    0.83
   2  -3  13    1.77    0.87
  -3   3 -13   -0.81    0.62
   3  -3  13    1.46    0.92
  -4   3 -13    3.33    1.04
   4  -3  13    1.21    0.94
  -5   3 -13    0.45    0.93
   5  -3  13    1.04    1.01
   8   2 -13    1.78    0.84
   7   2 -13    0.47    0.65
   6   2 -13    5.73    1.07
   6   2 -13    3.75    0.92
   5   2 -13    4.39    0.93
   5   2 -13    4.19    0.92
  -5  -2  13    5.38    1.12
   4   2 -13    5.36    0.98
   4   2 -13    5.25    0.96
  -4  -2  13    5.81    1.11
   3   2 -13    3.07    0.79
   3   2 -13    2.55    0.73
  -3  -2  13    7.21    1.18
   2   2 -13   -0.19    0.52
   2   2 -13   -0.22    0.42
  -2  -2  13   -0.46    0.54
   1   2 -13    9.98    1.16
   1   2 -13    8.80    1.14
  -1  -2  13    9.68    1.34
   0   2 -13    1.11    0.67
   0   2 -13    1.31    0.57
   0  -2  13    1.66    0.81
  -1   2 -13    2.03    0.76
  -1   2 -13    0.21    0.51
   1  -2  13    2.52    0.93
  -2   2 -13   -0.11    0.61
   2  -2  13    1.15    0.84
  -3   2 -13    0.79    0.76
   3  -2  13   -0.26    0.80
  -4   2 -13    1.01    0.83
   4  -2  13    2.44    1.06
  -5   2 -13    0.39    0.87
   5  -2  13   -0.24    0.89
   8   1 -13    1.86    0.88
   7   1 -13    0.23    0.62
   6   1 -13    1.49    0.86
   6   1 -13    0.35    0.61
   5   1 -13    2.97    0.80
   5   1 -13    3.44    0.89
   4   1 -13    1.02    0.60
   4   1 -13    0.56    0.55
  -4  -1  13    0.25    0.64
   3   1 -13    4.55    0.90
   3   1 -13    4.64    0.88
  -3  -1  13    5.12    1.12
   2   1 -13   -0.12    0.34
   2   1 -13    0.76    0.55
  -2  -1  13    1.09    0.75
   1   1 -13   12.52    1.27
   1   1 -13   11.43    1.29
  -1  -1  13   11.12    1.47
   0   1 -13    0.54    0.63
   0   1 -13    1.24    0.56
   0  -1  13    0.36    0.71
  -1   1 -13    4.64    0.84
  -1   1 -13    4.88    0.96
   1  -1  13    3.62    0.97
  -2   1 -13    1.52    0.78
   2  -1  13    1.98    0.95
  -3   1 -13    0.38    0.74
   3  -1  13   -0.01    0.76
  -4   1 -13    1.43    0.92
   4  -1  13    1.86    1.06
  -5   1 -13    0.11    0.89
   5  -1  13    0.24    1.00
   7   0 -13   -0.26    0.63
   7   0 -13    0.20    0.77
   6   0 -13    1.94    0.73
   6   0 -13    2.49    0.94
   5   0 -13    1.65    0.85
   5   0 -13    1.80    0.70
   4   0 -13    3.24    0.82
  -4   0  13    4.19    1.07
   3   0 -13    8.48    1.06
   3   0 -13    6.49    1.01
  -3   0  13    8.43    1.33
   2   0 -13    0.24    0.50
   2   0 -13    0.72    0.56
  -2   0  13    0.54    0.72
   1   0 -13   13.84    1.36
   1   0 -13   14.21    1.38
  -1   0  13   14.93    1.67
   0   0 -13    0.69    0.55
   0   0 -13    0.64    0.56
   0   0  13    0.56    0.70
  -1   0 -13    3.53    0.74
  -1   0 -13    3.13    0.87
   1   0  13    3.22    0.92
  -2   0 -13   -0.26    0.49
  -2   0 -13   -0.87    0.57
   2   0  13    0.01    0.71
  -3   0 -13   -0.03    0.67
   3   0  13   -0.21    0.76
  -4   0 -13    1.10    0.87
   4   0  13   -0.33    0.85
  -5   0 -13   -0.60    0.83
   7  -1 -13   -0.07    0.62
   7  -1 -13   -0.48    0.77
   6  -1 -13    3.03    0.87
   6  -1 -13    4.78    1.10
   5  -1 -13   -0.08    0.56
   5  -1 -13    0.87    0.80
   4  -1 -13    1.59    0.65
   3  -1 -13    1.63    0.65
  -3   1  13    1.82    0.84
   2  -1 -13    2.46    0.71
  -2   1  13    2.81    0.93
   1  -1 -13    9.46    1.12
   1  -1 -13    9.06    1.15
  -1   1  13   10.24    1.46
   0  -1 -13   -0.02    0.54
   0  -1 -13    0.11    0.48
   0   1  13    0.47    0.66
  -1  -1 -13    6.60    0.98
  -1  -1 -13    5.43    1.01
   1   1  13    4.32    1.00
  -2  -1 -13    1.34    0.79
  -2  -1 -13    1.73    0.63
   2   1  13    1.32    0.86
  -3  -1 -13    3.36    1.01
   3   1  13    0.97    0.95
  -4  -1 -13    0.65    0.86
   4   1  13    1.92    1.08
  -5  -1 -13    0.70    1.03
   7  -2 -13    0.59    0.91
   7  -2 -13    0.72    0.72
   6  -2 -13    0.54    0.62
   6  -2 -13   -0.30    0.73
   5  -2 -13    0.24    0.53
   5  -2 -13    1.14    0.84
   4  -2 -13    6.71    1.28
   4  -2 -13    6.83    1.07
   3  -2 -13    2.12    0.71
  -3   2  13    5.06    1.17
   2  -2 -13    4.18    0.87
  -2   2  13    5.17    1.11
   1  -2 -13    2.47    0.72
  -1   2  13    1.75    0.80
   0  -2 -13    0.83    0.58
   0   2  13    2.22    0.86
  -1  -2 -13    2.85    0.84
  -1  -2 -13    3.08    0.77
   1   2  13    2.70    0.90
  -2  -2 -13   -0.27    0.63
  -2  -2 -13   -0.10    0.55
   2   2  13    0.52    0.79
  -3  -2 -13    7.17    1.26
   3   2  13    4.73    1.11
  -4  -2 -13   -0.36    0.82
   7  -3 -13    0.26    0.67
   7  -3 -13    0.29    0.97
   6  -3 -13    0.33    0.86
   6  -3 -13    1.43    0.74
   5  -3 -13    1.26    0.91
   5  -3 -13    1.05    0.68
   4  -3 -13    4.77    0.95
   4  -3 -13    6.70    1.32
   3  -3 -13    0.65    0.54
   2  -3 -13   -0.84    0.42
  -2   3  13   -0.18    0.65
   1  -3 -13    4.37    0.91
  -1   3  13    5.96    1.16
   0  -3 -13    2.87    0.78
   0   3  13    1.49    0.90
  -1  -3 -13    1.20    0.66
   1   3  13    0.67    0.85
  -2  -3 -13    0.51    0.64
   2   3  13   -0.19    0.80
   3   3  13    2.23    0.96
  -4  -3 -13    0.98    0.88
   7  -4 -13    0.28    0.65
   7  -4 -13    0.92    1.03
   6  -4 -13    0.39    0.64
   6  -4 -13    0.06    0.82
   5  -4 -13    2.67    0.80
   5  -4 -13    3.25    1.13
   4  -4 -13    3.88    0.92
   4  -4 -13    4.48    1.20
   3  -4 -13    0.25    0.54
   2  -4 -13    0.37    0.58
  -2   4  13    0.12    0.71
   1  -4 -13    2.84    0.79
  -1   4  13    3.10    0.90
   0  -4 -13    4.45    0.95
   0   4  13    4.24    1.02
  -1  -4 -13    1.31    0.72
   1   4  13    0.22    0.79
  -2  -4 -13    0.32    0.65
   2   4  13    1.20    0.91
   7  -5 -13    0.21    0.75
   6  -5 -13    0.87    0.73
   6  -5 -13    1.65    1.06
   5  -5 -13    1.65    1.05
   5  -5 -13    0.59    0.66
   4  -5 -13    4.80    1.00
   4  -5 -13    8.70    1.50
   3  -5 -13    3.15    0.84
   3  -5 -13    2.20    1.04
   2  -5 -13    1.74    0.74
  -2   5  13    3.02    0.95
   1  -5 -13   -0.34    0.55
  -1   5  13    0.65    0.82
   0  -5 -13    2.39    0.82
   0   5  13    1.52    0.90
  -1  -5 -13    3.64    0.96
   1   5  13    3.54    1.01
  -2  -5 -13    4.37    1.00
   2   5  13    3.79    1.02
   7  -6 -13   -0.45    0.65
   6  -6 -13    0.01    1.01
   6  -6 -13   -0.69    0.58
   5  -6 -13    4.29    1.32
   5  -6 -13    3.22    0.91
   4  -6 -13    2.03    0.78
   4  -6 -13    2.99    1.13
   3  -6 -13   -0.03    0.84
   3  -6 -13    0.27    0.61
   2  -6 -13   -0.31    0.52
  -2   6  13   -0.25    0.80
   1  -6 -13    0.41    0.69
  -1   6  13    0.64    0.86
   0  -6 -13    1.45    0.81
   0   6  13    1.61    0.95
  -1  -6 -13    0.16    0.70
   1   6  13   -0.24    0.79
  -2  -6 -13    1.32    0.86
   6  -7 -13    0.47    0.73
   5  -7 -13    2.12    1.13
   5  -7 -13    1.37    0.79
   4  -7 -13    1.32    0.81
   4  -7 -13    1.10    0.94
   3  -7 -13    0.99    0.70
   3  -7 -13    0.66    0.92
   2  -7 -13    1.60    0.84
  -2   7  13    0.51    0.89
   1  -7 -13   -0.16    0.68
  -1   7  13   -0.44    0.78
   0  -7 -13    3.94    1.05
   0   7  13    3.47    1.01
  -1  -7 -13    0.93    0.84
   1   7  13    1.59    0.98
  -2  -7 -13    0.61    0.87
   5  -8 -13    1.79    0.88
   4  -8 -13    1.11    0.81
   4  -8 -13   -0.80    0.84
   3  -8 -13   -1.27    0.78
   3  -8 -13    1.15    0.84
   2  -8 -13   -0.20    0.68
  -2   8  13    1.10    0.97
   1  -8 -13    3.68    1.11
  -1   8  13    3.89    1.03
   0  -8 -13   -0.04    0.76
   0   8  13   -0.86    0.82
  -1  -8 -13   -0.91    0.72
  -2  -8 -13   -0.46    0.80
   4  -9 -13   -0.90    0.64
   3  -9 -13    2.34    1.15
   3  -9 -13   -0.40    0.66
   2  -9 -13   -0.64    0.67
  -2   9  13   -0.37    0.88
   1  -9 -13    1.05    0.85
  -1   9  13    1.81    1.08
   0  -9 -13    0.10    0.79
   0   9  13    1.81    1.01
  -2  10  13    0.20    1.01
   0  19 -14    0.74    0.95
   2  18 -14    0.19    0.85
  -2 -18  14   -0.09    0.73
   1  18 -14   -0.05    0.87
  -1 -18  14    0.48    0.73
   0  18 -14   -1.10    0.85
  -1  18 -14   -0.99    0.84
   3  17 -14    0.83    0.91
  -3 -17  14    0.43    0.73
   2  17 -14    1.05    0.89
  -2 -17  14    0.13    0.71
   1  17 -14    0.29    0.88
  -1 -17  14    1.45    0.76
   0  17 -14    1.12    0.98
  -1  17 -14    0.05    0.88
   1 -17  14    0.71    0.96
  -2  17 -14    0.12    0.86
   2 -17  14    1.62    1.09
   4  16 -14   -0.01    0.80
   3  16 -14   -0.54    0.75
  -3 -16  14    0.69    0.73
   2  16 -14    0.19    0.80
  -2 -16  14    0.39    0.66
   1  16 -14    1.31    0.90
  -1 -16  14    2.03    0.76
   0  16 -14   -0.64    0.80
  -1  16 -14    0.49    0.87
   1 -16  14    1.18    0.95
  -2  16 -14   -0.18    0.90
   2 -16  14   -0.07    0.92
  -3  16 -14    0.63    0.99
   4  15 -14    0.41    0.82
  -4 -15  14    1.81    0.88
   3  15 -14    0.20    0.78
  -3 -15  14    0.53    0.69
   2  15 -14    1.64    0.89
  -2 -15  14    1.88    0.76
   1  15 -14    0.82    0.88
  -1 -15  14    1.42    0.71
   0  15 -14    0.52    0.80
   0 -15  14   -0.41    0.74
  -1  15 -14   -0.15    0.78
   1 -15  14    0.56    0.90
  -2  15 -14    0.04    0.89
   2 -15  14    0.37    0.91
  -3  15 -14    1.77    1.14
   3 -15  14    1.13    1.06
   5  14 -14    0.70    0.86
  -5 -14  14    0.76    0.80
   4  14 -14    3.07    1.06
  -4 -14  14    1.59    0.82
   3  14 -14    0.55    0.80
  -3 -14  14    0.36    0.65
   2  14 -14    2.04    0.92
  -2 -14  14    1.91    0.74
   1  14 -14    0.78    0.80
  -1 -14  14    0.61    0.62
   0  14 -14    0.17    0.78
   0 -14  14    0.38    0.80
   1 -14  14    1.39    0.93
  -2  14 -14   -1.03    0.73
   2 -14  14   -0.41    0.83
  -3  14 -14    2.84    1.11
   3 -14  14    0.45    0.93
   5  13 -14    3.45    1.10
  -5 -13  14    2.98    0.99
   4  13 -14    0.32    0.71
  -4 -13  14    0.88    0.74
   3  13 -14   -0.34    0.66
  -3 -13  14    0.13    0.59
   2  13 -14    2.11    0.92
  -2 -13  14    1.26    0.66
   1  13 -14    0.41    0.79
  -1 -13  14    1.41    0.80
  -1 -13  14    1.26    0.64
   0  13 -14    0.57    0.74
   0 -13  14   -0.18    0.68
  -1  13 -14    2.10    0.95
   1 -13  14    2.24    0.98
  -2  13 -14   -0.61    0.79
   2 -13  14    0.18    0.79
  -3  13 -14    0.68    1.00
   3 -13  14    1.15    1.01
  -4  13 -14   -0.83    0.85
   6  12 -14    0.45    0.86
  -6 -12  14    0.76    0.80
   5  12 -14    3.99    1.14
  -5 -12  14    5.14    1.10
   4  12 -14    2.01    0.92
  -4 -12  14    1.00    0.71
   3  12 -14    0.43    0.73
  -3 -12  14    0.46    0.60
   2  12 -14    5.84    1.22
  -2 -12  14    4.23    0.87
   1  12 -14    0.31    0.67
  -1 -12  14    1.05    0.73
  -1 -12  14    0.92    0.60
   0  12 -14    5.04    1.13
   0 -12  14    4.21    1.02
  -1  12 -14    2.16    0.96
   1 -12  14    0.67    0.77
  -2  12 -14   -0.74    0.68
   2 -12  14    0.19    0.83
  -3  12 -14    3.30    1.11
   3 -12  14    2.48    1.10
  -4  12 -14    0.42    0.94
   4 -12  14   -1.25    0.80
   6  11 -14    1.84    1.01
  -6 -11  14   -0.01    0.73
   5  11 -14   -0.25    0.69
  -5 -11  14   -0.51    0.61
   4  11 -14    1.41    0.82
   3  11 -14   -0.40    0.65
   3  11 -14    0.90    0.70
   2  11 -14    4.68    0.97
   2  11 -14    6.09    1.21
  -2 -11  14    7.84    1.19
   1  11 -14   -0.36    0.61
   1  11 -14   -0.54    0.52
  -1 -11  14    1.13    0.76
   0  11 -14    7.11    1.27
   0 -11  14    5.60    1.14
  -1  11 -14   -0.04    0.68
   1 -11  14   -0.30    0.72
  -2  11 -14    0.13    0.78
   2 -11  14    0.88    0.92
  -3  11 -14    1.41    0.90
   3 -11  14    1.44    0.93
  -4  11 -14   -0.25    0.84
   4 -11  14    0.82    1.08
   6  10 -14   -0.35    0.72
  -6 -10  14    0.10    0.71
   5  10 -14    3.49    1.10
   5  10 -14    3.33    0.94
   4  10 -14    3.18    1.01
   4  10 -14    4.26    0.96
   3  10 -14    4.51    1.07
   3  10 -14    3.75    0.91
   2  10 -14    0.97    0.63
   2  10 -14   -0.31    0.56
  -2 -10  14    0.16    0.63
   1  10 -14    2.24    0.84
   1  10 -14    2.69    0.78
  -1 -10  14    0.98    0.72
   0  10 -14    7.71    1.08
   0  10 -14    7.61    1.28
   0 -10  14    7.76    1.27
  -1  10 -14    0.31    0.65
   1 -10  14   -0.41    0.70
  -2  10 -14    0.48    0.73
   2 -10  14   -0.11    0.79
  -3  10 -14    0.77    0.79
   3 -10  14    0.09    0.87
  -4  10 -14   -1.31    0.71
   4 -10  14    0.56    1.08
   7   9 -14    0.16    0.82
  -7  -9  14    1.23    0.91
   6   9 -14    0.91    0.82
   6   9 -14    1.03    0.74
   5   9 -14    3.24    0.93
   5   9 -14    3.30    1.00
   4   9 -14    0.20    0.59
   4   9 -14   -0.05    0.66
   3   9 -14    0.08    0.58
   3   9 -14    1.32    0.63
  -3  -9  14    1.00    0.69
   2   9 -14    2.04    0.86
   2   9 -14    2.25    0.71
  -2  -9  14    2.96    0.85
   1   9 -14    1.75    0.81
   1   9 -14    3.47    0.79
  -1  -9  14    2.73    0.89
   0   9 -14    1.66    0.64
   0   9 -14    1.26    0.75
   0  -9  14    1.37    0.82
  -1   9 -14   -0.91    0.54
   1  -9  14   -0.02    0.69
  -2   9 -14    0.33    0.68
   2  -9  14   -0.72    0.69
  -3   9 -14    0.53    0.83
   3  -9  14    1.19    0.94
  -4   9 -14   -0.69    0.80
   4  -9  14    0.20    1.00
   7   8 -14    0.24    0.75
   7   8 -14    0.88    0.88
   6   8 -14    2.43    0.87
   6   8 -14    4.71    1.11
   5   8 -14    0.13    0.68
   5   8 -14    1.40    0.72
   4   8 -14   -0.09    0.58
   4   8 -14   -0.09    0.56
   3   8 -14    0.20    0.56
   3   8 -14    1.72    0.76
  -3  -8  14    0.31    0.64
   2   8 -14    0.75    0.56
   2   8 -14    0.31    0.65
  -2  -8  14    0.02    0.59
   1   8 -14    2.90    0.86
   1   8 -14    2.74    0.75
  -1  -8  14    2.78    0.90
   0   8 -14    4.17    1.05
   0   8 -14    7.02    0.99
   0  -8  14    7.86    1.26
  -1   8 -14    3.69    1.01
   1  -8  14    4.80    1.12
  -2   8 -14    3.27    0.98
   2  -8  14    3.19    1.02
  -3   8 -14   -0.86    0.62
   3  -8  14   -0.38    0.79
  -4   8 -14    0.84    0.87
   4  -8  14    0.58    1.00
   7   7 -14    0.66    0.83
   7   7 -14    0.26    0.69
   6   7 -14    0.97    0.83
   6   7 -14    0.67    0.68
   5   7 -14    1.81    0.75
   5   7 -14    1.28    0.72
   4   7 -14   -0.13    0.51
   4   7 -14    0.03    0.60
  -4  -7  14    0.37    0.58
   3   7 -14   -0.73    0.52
   3   7 -14   -0.21    0.51
  -3  -7  14    0.15    0.60
   2   7 -14   -0.27    0.49
   2   7 -14    0.49    0.66
  -2  -7  14   -0.19    0.56
   1   7 -14    7.18    1.03
   1   7 -14    6.71    1.13
  -1  -7  14    5.66    1.15
   0   7 -14   14.17    1.34
   0   7 -14   11.34    1.46
   0  -7  14   15.97    1.71
  -1   7 -14    0.23    0.68
  -2   7 -14    3.82    1.06
   2  -7  14    1.59    0.90
  -3   7 -14    1.75    0.88
   3  -7  14    0.00    0.83
  -4   7 -14   -0.09    0.82
   4  -7  14    0.74    0.96
   5  -7  14   -0.39    0.97
   7   6 -14   -0.06    0.75
   7   6 -14   -0.53    0.63
   6   6 -14    1.04    0.80
   6   6 -14    1.00    0.77
   5   6 -14    0.97    0.66
   5   6 -14    0.81    0.72
   4   6 -14    4.01    0.88
   4   6 -14    4.82    1.02
  -4  -6  14    4.27    0.95
   3   6 -14    0.25    0.59
   3   6 -14    0.51    0.57
  -3  -6  14   -0.41    0.55
   2   6 -14    0.14    0.57
   2   6 -14   -0.52    0.45
  -2  -6  14   -0.27    0.57
   1   6 -14    4.78    0.91
   1   6 -14    5.54    1.05
  -1  -6  14    5.51    1.08
   0   6 -14    8.10    1.25
   0   6 -14    6.79    0.98
   0  -6  14    6.91    1.23
  -1   6 -14   -0.24    0.45
  -1   6 -14    0.90    0.69
   1  -6  14    1.29    0.88
  -2   6 -14    1.26    0.84
   2  -6  14    1.75    0.88
  -3   6 -14    0.58    0.82
   3  -6  14   -0.23    0.79
  -4   6 -14    1.81    0.96
   4  -6  14    2.40    0.92
   5  -6  14   -0.87    0.97
   8   5 -14   -0.08    0.83
   8   5 -14    0.30    0.80
   7   5 -14   -0.32    0.77
   7   5 -14    1.25    0.78
   6   5 -14    0.56    0.74
   6   5 -14    1.78    0.78
   5   5 -14    0.29    0.61
   5   5 -14    0.17    0.53
  -5  -5  14   -0.71    0.60
   4   5 -14    2.78    0.85
   4   5 -14    2.22    0.75
  -4  -5  14    2.25    0.76
   3   5 -14   -1.29    0.45
   3   5 -14   -0.13    0.52
  -3  -5  14    0.20    0.59
   2   5 -14    3.33    0.87
   2   5 -14    4.23    0.89
  -2  -5  14    3.26    0.93
   1   5 -14   15.83    1.49
   1   5 -14   14.17    1.56
  -1  -5  14   17.05    1.75
   0   5 -14    0.24    0.67
   0   5 -14    0.66    0.57
   0  -5  14    0.29    0.73
  -1   5 -14   -0.65    0.40
  -1   5 -14    0.38    0.66
   1  -5  14    1.17    0.83
  -2   5 -14    0.32    0.70
   2  -5  14   -0.81    0.62
  -3   5 -14   -0.03    0.73
   3  -5  14   -0.32    0.79
  -4   5 -14    3.72    1.12
   4  -5  14    1.80    0.95
   5  -5  14   -0.44    1.08
   8   4 -14   -0.11    0.71
   8   4 -14    0.44    0.90
   7   4 -14   -0.53    0.56
   7   4 -14   -0.08    0.76
   6   4 -14    0.94    0.77
   6   4 -14    2.42    0.81
   5   4 -14   -0.77    0.54
   5   4 -14    0.64    0.56
  -5  -4  14   -0.39    0.61
   4   4 -14    4.15    0.93
   4   4 -14    2.70    0.80
  -4  -4  14    2.93    0.91
   3   4 -14    1.52    0.70
   3   4 -14    0.82    0.62
  -3  -4  14    1.80    0.77
   2   4 -14    2.96    0.80
   2   4 -14    1.85    0.72
  -2  -4  14    0.89    0.74
   1   4 -14    1.73    0.69
   1   4 -14    1.46    0.70
  -1  -4  14    1.36    0.78
   0   4 -14    7.37    1.18
   0   4 -14    7.95    1.07
   0  -4  14    6.60    1.23
  -1   4 -14    1.59    0.61
  -1   4 -14    0.72    0.72
   1  -4  14    2.03    0.88
  -2   4 -14    0.39    0.68
   2  -4  14   -0.65    0.70
  -3   4 -14   -0.05    0.74
   3  -4  14    0.11    0.86
  -4   4 -14    0.77    0.91
   4  -4  14    1.17    1.01
   5  -4  14   -1.18    0.94
   8   3 -14    0.12    0.75
   7   3 -14    0.89    0.73
   6   3 -14    0.79    0.73
   6   3 -14    1.90    0.79
  -6  -3  14    3.31    1.01
   5   3 -14   -0.23    0.56
   5   3 -14   -0.14    0.53
  -5  -3  14    0.34    0.67
   4   3 -14   10.76    1.35
   4   3 -14   11.36    1.39
  -4  -3  14   11.16    1.47
   3   3 -14    0.42    0.53
   3   3 -14   -0.15    0.52
  -3  -3  14    0.20    0.64
   2   3 -14    3.31    0.76
   2   3 -14    2.27    0.77
  -2  -3  14    3.88    1.00
   1   3 -14    3.24    0.87
   1   3 -14    4.08    0.85
  -1  -3  14    4.39    1.06
   0   3 -14    0.32    0.66
   0   3 -14    0.19    0.54
   0  -3  14    0.22    0.72
  -1   3 -14    1.20    0.76
  -1   3 -14    1.18    0.61
   1  -3  14    1.88    0.92
  -2   3 -14    1.40    0.83
   2  -3  14    0.07    0.74
  -3   3 -14    0.41    0.80
   3  -3  14   -1.04    0.79
  -4   3 -14    2.30    1.01
   4  -3  14    2.31    0.92
   5  -3  14    1.11    1.09
   8   2 -14    1.08    0.83
   7   2 -14    1.87    0.82
   6   2 -14    0.39    0.60
  -6  -2  14    0.93    0.81
   5   2 -14    3.85    0.96
   5   2 -14    0.68    0.48
  -5  -2  14    3.85    1.01
   4   2 -14    6.16    1.01
  -4  -2  14   10.24    1.45
   3   2 -14    0.54    0.53
   3   2 -14    0.38    0.53
  -3  -2  14   -0.47    0.57
   2   2 -14    7.64    1.09
   2   2 -14    5.38    0.95
  -2  -2  14    6.45    1.21
   1   2 -14    1.76    0.67
   1   2 -14    2.26    0.76
  -1  -2  14    2.65    0.88
   0   2 -14   -0.10    0.46
   0   2 -14    0.49    0.64
   0  -2  14   -0.04    0.66
  -1   2 -14    0.71    0.55
  -1   2 -14    0.31    0.69
   1  -2  14    1.26    0.82
  -2   2 -14    2.40    0.96
   2  -2  14    2.65    0.97
  -3   2 -14    3.73    1.06
   3  -2  14    3.49    1.02
  -4   2 -14    0.85    0.89
   4  -2  14    1.56    1.03
   5  -2  14    0.62    1.09
   8   1 -14   -0.44    0.69
   7   1 -14    1.11    0.71
   6   1 -14   -0.45    0.54
   5   1 -14    1.58    0.68
  -5  -1  14    0.54    0.78
   4   1 -14    1.22    0.61
  -4  -1  14    2.58    0.93
   3   1 -14    0.37    0.56
   3   1 -14   -0.54    0.49
  -3  -1  14   -0.47    0.59
   2   1 -14    3.97    0.81
   2   1 -14    2.67    0.74
  -2  -1  14    4.74    1.12
   1   1 -14    2.40    0.73
   1   1 -14    4.39    0.85
  -1  -1  14    3.90    1.01
   0   1 -14    6.05    1.04
   0   1 -14    4.50    0.87
   0  -1  14    6.55    1.20
  -1   1 -14    0.85    0.69
  -1   1 -14    1.48    0.62
   1  -1  14    2.41    0.89
  -2   1 -14    1.58    0.84
   2  -1  14    1.76    0.92
  -3   1 -14    1.92    0.93
   3  -1  14    2.67    1.12
  -4   1 -14   -0.21    0.79
   4  -1  14   -0.37    0.96
   8   0 -14    0.43    0.76
   7   0 -14    1.46    0.96
   7   0 -14    0.75    0.74
   6   0 -14   -0.25    0.58
   6   0 -14    0.10    0.78
   5   0 -14    4.29    0.95
   4   0 -14    1.76    0.70
  -4   0  14    1.39    0.86
   3   0 -14   -0.23    0.53
  -3   0  14    0.38    0.70
   2   0 -14    5.58    0.94
   2   0 -14    3.03    0.78
  -2   0  14    7.45    1.27
   1   0 -14    0.46    0.59
   1   0 -14    1.16    0.67
  -1   0  14    0.56    0.72
   0   0 -14    1.02    0.53
   0   0 -14    2.66    0.74
   0   0  14    3.65    1.02
  -1   0 -14    1.57    0.63
  -1   0 -14    2.11    0.82
   1   0  14    1.60    0.81
  -2   0 -14   11.53    1.52
  -3   0 -14    1.82    0.94
   3   0  14    1.82    1.09
  -4   0 -14    1.00    0.91
   4   0  14   -1.29    0.89
   7  -1 -14    0.78    0.73
   7  -1 -14    1.10    0.94
   6  -1 -14    1.27    0.72
   6  -1 -14    0.52    0.87
   5  -1 -14    0.41    0.79
   5  -1 -14    0.56    0.66
   4  -1 -14    5.15    1.00
  -4   1  14    6.81    1.39
   3  -1 -14    1.23    0.63
  -3   1  14    0.30    0.74
   2  -1 -14    4.93    0.94
  -2   1  14    4.54    1.12
   1  -1 -14    0.37    0.55
  -1   1  14    1.50    0.85
   0  -1 -14    3.47    0.89
   0  -1 -14    4.85    0.94
   0   1  14    2.67    0.96
  -1  -1 -14    1.38    0.72
  -1  -1 -14   -0.06    0.58
   1   1  14    0.58    0.79
  -2  -1 -14    5.53    1.14
   2   1  14    5.99    1.16
  -3  -1 -14    0.57    0.82
   3   1  14    0.92    0.94
  -4  -1 -14   -0.43    0.81
   7  -2 -14    0.30    0.69
   7  -2 -14    0.74    0.96
   6  -2 -14   -0.16    0.58
   6  -2 -14   -0.68    0.81
   5  -2 -14    2.64    0.90
   5  -2 -14    5.38    1.27
   4  -2 -14    1.09    0.65
   3  -2 -14    2.19    0.75
  -3   2  14    2.72    1.00
   2  -2 -14    1.44    0.70
  -2   2  14    1.06    0.82
   1  -2 -14    4.16    0.90
  -1   2  14    2.40    0.85
   0  -2 -14    1.91    0.76
   0   2  14    1.65    0.95
  -1  -2 -14    0.41    0.60
   1   2  14   -0.04    0.75
   2   2  14    2.84    0.90
  -3  -2 -14    0.88    0.90
   3   2  14    1.81    1.07
  -4  -2 -14   -0.70    0.82
   7  -3 -14   -0.40    0.91
   7  -3 -14   -0.08    0.67
   6  -3 -14   -0.38    0.67
   6  -3 -14    0.42    0.85
   5  -3 -14    3.41    1.19
   5  -3 -14    1.42    0.79
   4  -3 -14   -0.91    0.44
   3  -3 -14    3.10    0.86
  -3   3  14    2.65    1.02
   2  -3 -14    0.25    0.59
  -2   3  14    0.17    0.72
   1  -3 -14   -0.41    0.56
  -1   3  14    0.59    0.77
   0  -3 -14    2.37    0.77
   0   3  14    0.73    0.85
  -1  -3 -14    0.51    0.63
   1   3  14    0.26    0.78
  -2  -3 -14    0.97    0.73
   2   3  14    2.53    0.95
   3   3  14    0.11    0.98
   7  -4 -14    0.30    0.78
   6  -4 -14    2.86    1.20
   6  -4 -14    0.31    0.75
   5  -4 -14    0.19    0.96
   5  -4 -14    0.44    0.64
   4  -4 -14    2.19    1.09
   3  -4 -14    1.67    0.76
  -3   4  14    2.07    0.93
   2  -4 -14   -0.31    0.56
  -2   4  14    0.70    0.85
   1  -4 -14   -0.14    0.61
  -1   4  14    0.07    0.78
   0  -4 -14    2.96    0.85
   0   4  14    4.29    1.04
  -1  -4 -14    1.01    0.73
   1   4  14    0.02    0.86
  -2  -4 -14    2.83    0.92
   2   4  14    2.44    1.10
   6  -5 -14    1.13    0.83
   6  -5 -14    1.89    1.16
   5  -5 -14    0.54    0.68
   5  -5 -14   -0.21    0.95
   4  -5 -14   -0.26    0.91
   4  -5 -14   -0.28    0.60
   3  -5 -14    2.05    0.81
  -3   5  14    1.88    0.93
   2  -5 -14   -0.22    0.62
  -2   5  14    0.94    0.89
   1  -5 -14    2.13    0.81
  -1   5  14    1.62    0.85
   0  -5 -14    1.72    0.86
   0   5  14    2.48    0.91
  -1  -5 -14    1.64    0.85
   1   5  14    1.82    0.94
  -2  -5 -14    2.18    0.87
   2   5  14    1.18    1.07
   5  -6 -14    0.28    1.01
   5  -6 -14   -0.04    0.64
   4  -6 -14    0.19    0.90
   4  -6 -14    0.83    0.73
   3  -6 -14   -0.08    0.64
   2  -6 -14    0.13    0.67
  -2   6  14   -0.27    0.84
   1  -6 -14    1.26    0.80
  -1   6  14    0.05    0.84
   0  -6 -14    0.83    0.79
   0   6  14    2.06    1.08
  -1  -6 -14    3.02    0.97
   1   6  14    1.75    0.87
  -2  -6 -14   -0.66    0.73
   5  -7 -14    0.03    0.73
   4  -7 -14   -0.10    0.74
   4  -7 -14    0.70    1.00
   3  -7 -14    0.87    0.79
   2  -7 -14    0.99    0.75
  -2   7  14   -0.33    0.85
   1  -7 -14    2.32    0.97
  -1   7  14    2.63    1.03
   0  -7 -14    1.06    0.84
   0   7  14   -0.70    0.86
  -1  -7 -14    0.40    0.85
   1   7  14    1.33    1.07
  -2  -7 -14    1.31    0.89
   3  -8 -14   -0.03    0.70
   2  -8 -14    0.89    0.82
  -2   8  14    2.57    1.21
   1  -8 -14    0.00    0.77
  -1   8  14    3.01    1.09
   0  -8 -14   -0.01    0.83
   0   8  14   -0.19    0.97
  -2   9  14    0.92    1.07
  -1   9  14    2.35    1.23
   0   9  14    1.66    1.15
  -2 -18  15    0.53    0.74
   2  17 -15    2.01    1.02
  -2 -17  15    1.45    0.80
   1  17 -15   -0.97    0.76
  -1 -17  15    0.68    0.71
   0  17 -15    0.65    0.97
  -1  17 -15    1.93    1.08
   1 -17  15    1.24    1.01
   3  16 -15   -0.57    0.77
  -3 -16  15    0.75    0.72
   2  16 -15    1.92    1.02
  -2 -16  15    0.87    0.70
   1  16 -15    0.68    0.93
  -1 -16  15    0.06    0.61
   0  16 -15    1.61    1.06
  -1  16 -15    0.97    0.96
   1 -16  15   -0.09    0.80
  -2  16 -15    0.56    0.99
   2 -16  15    0.10    0.98
   4  15 -15   -1.37    0.68
  -4 -15  15    0.31    0.73
   3  15 -15    2.51    1.08
  -3 -15  15    0.97    0.72
   2  15 -15    0.24    0.82
  -2 -15  15    1.08    0.73
   1  15 -15   -0.19    0.78
  -1 -15  15    1.07    0.66
   0  15 -15    0.24    0.82
   0 -15  15    0.17    0.82
  -1  15 -15   -0.84    0.75
   1 -15  15    0.09    0.89
  -2  15 -15   -0.62    0.83
   2 -15  15    0.16    0.93
   4  14 -15    0.71    0.93
  -4 -14  15    0.12    0.70
   3  14 -15    0.78    0.85
  -3 -14  15    0.95    0.70
   2  14 -15   -0.75    0.68
  -2 -14  15    1.16    0.70
   1  14 -15   -0.12    0.81
  -1 -14  15    0.44    0.73
  -1 -14  15    1.08    0.64
   0  14 -15    2.82    1.06
   0 -14  15    3.43    1.05
  -1  14 -15    0.29    0.87
   1 -14  15    1.08    0.97
  -2  14 -15    0.59    0.86
   2 -14  15    0.28    0.95
   5  13 -15    4.27    1.24
  -5 -13  15    4.03    1.13
   4  13 -15    0.81    0.87
  -4 -13  15   -0.27    0.62
   3  13 -15    0.98    0.90
  -3 -13  15    0.47    0.65
   2  13 -15   -0.17    0.77
  -2 -13  15    0.34    0.62
   1  13 -15    6.57    1.36
  -1 -13  15    3.81    1.03
  -1 -13  15    3.97    0.89
   0  13 -15    1.25    0.92
   0 -13  15    1.99    0.92
  -1  13 -15   -0.09    0.77
   1 -13  15   -0.37    0.79
  -2  13 -15    0.29    0.88
   2 -13  15    2.47    1.11
  -3  13 -15    0.04    0.88
   3 -13  15    2.04    1.10
   5  12 -15    0.46    0.86
  -5 -12  15   -0.60    0.69
   4  12 -15    1.02    0.86
  -4 -12  15    0.76    0.72
   3  12 -15   -0.96    0.63
   2  12 -15    0.31    0.77
  -2 -12  15    0.76    0.77
   1  12 -15    3.76    1.10
  -1 -12  15    3.05    0.95
   0  12 -15    2.31    0.97
   0 -12  15    3.58    1.05
  -1  12 -15    0.41    0.79
   1 -12  15    0.19    0.80
  -2  12 -15   -1.65    0.61
   2 -12  15    0.83    0.91
  -3  12 -15   -0.38    0.80
   3 -12  15    0.07    0.92
   6  11 -15    0.92    0.95
  -6 -11  15    0.00    0.71
   5  11 -15    1.95    0.98
   4  11 -15    1.64    0.94
   4  11 -15    0.86    0.75
   3  11 -15    5.00    1.16
   3  11 -15    5.08    1.04
   2  11 -15   -0.24    0.65
   2  11 -15    0.62    0.62
  -2 -11  15   -0.48    0.66
   1  11 -15   10.91    1.53
   1  11 -15   13.34    1.45
  -1 -11  15   10.68    1.45
   0  11 -15    0.69    0.61
   0  11 -15    2.24    0.94
   0 -11  15    1.66    0.88
  -1  11 -15    1.50    0.91
   1 -11  15    1.75    0.92
  -2  11 -15    0.52    0.82
   2 -11  15   -0.53    0.80
  -3  11 -15    0.09    0.83
   3 -11  15   -1.10    0.87
   6  10 -15    0.10    0.85
   5  10 -15    0.27    0.80
   5  10 -15    0.63    0.71
   4  10 -15    1.43    0.88
   4  10 -15    1.59    0.81
   3  10 -15    3.88    0.90
   3  10 -15    3.87    1.08
  -3 -10  15    3.55    0.95
   2  10 -15    5.05    1.00
   2  10 -15    4.06    1.03
  -2 -10  15    4.14    1.02
   1  10 -15    3.67    0.89
   1  10 -15    2.85    0.97
  -1 -10  15    4.42    1.03
   0  10 -15    0.39    0.59
   0  10 -15   -0.50    0.63
   0 -10  15    0.25    0.75
  -1  10 -15    1.01    0.82
   1 -10  15    2.83    1.03
  -2  10 -15   -0.51    0.71
   2 -10  15   -0.16    0.72
  -3  10 -15    0.24    0.89
   3 -10  15   -0.12    0.87
   6   9 -15    1.79    0.85
   6   9 -15    0.96    0.87
   5   9 -15    0.30    0.77
   5   9 -15   -0.31    0.61
   4   9 -15    2.41    0.98
   4   9 -15    2.43    0.87
   3   9 -15    2.24    0.82
   3   9 -15    2.76    0.91
  -3  -9  15    3.79    0.92
   2   9 -15    0.41    0.60
   2   9 -15   -0.41    0.58
  -2  -9  15   -1.04    0.59
   1   9 -15    5.06    0.95
   1   9 -15    6.31    1.21
  -1  -9  15    6.11    1.17
   0   9 -15    1.21    0.62
   0   9 -15    0.12    0.66
   0  -9  15    1.11    0.80
  -1   9 -15    0.90    0.80
   1  -9  15    1.16    0.90
  -2   9 -15    1.18    0.87
   2  -9  15   -0.37    0.77
  -3   9 -15    0.01    0.85
   3  -9  15    0.14    0.87
  -4   9 -15    1.91    1.05
   4  -9  15    2.08    1.19
   7   8 -15    0.82    0.94
   6   8 -15    1.80    0.87
   6   8 -15   -0.61    0.69
   5   8 -15    0.15    0.64
   5   8 -15    0.34    0.70
   4   8 -15    8.72    1.37
   4   8 -15    5.88    1.07
   3   8 -15    2.59    0.92
   3   8 -15    0.33    0.62
  -3  -8  15    3.14    0.94
   2   8 -15    8.72    1.36
   2   8 -15    9.29    1.25
  -2  -8  15    9.10    1.32
   1   8 -15   11.37    1.48
   1   8 -15    8.98    1.17
  -1  -8  15    7.60    1.32
   0   8 -15   -0.52    0.62
   0   8 -15    0.58    0.58
   0  -8  15   -0.73    0.63
  -1   8 -15    6.14    1.24
   1  -8  15    4.77    1.18
  -2   8 -15    1.59    0.89
   2  -8  15    1.21    0.91
  -3   8 -15    2.12    1.01
   3  -8  15    1.67    0.93
  -4   8 -15    0.46    0.95
   4  -8  15    0.23    1.02
   7   7 -15    0.87    0.77
   7   7 -15   -0.59    0.77
   6   7 -15   -0.29    0.61
   6   7 -15    2.06    0.89
   5   7 -15    1.54    0.78
   5   7 -15    1.45    0.83
   4   7 -15    8.84    1.31
   4   7 -15    9.29    1.39
  -4  -7  15    9.87    1.35
   3   7 -15    1.32    0.76
   3   7 -15    0.54    0.64
  -3  -7  15    2.38    0.85
   2   7 -15    1.23    0.65
   2   7 -15    0.57    0.68
  -2  -7  15   -0.09    0.65
   1   7 -15   -0.21    0.58
   1   7 -15   -0.15    0.52
  -1  -7  15    0.42    0.73
   0   7 -15    1.20    0.60
   0   7 -15    0.57    0.71
   0  -7  15   -0.15    0.65
  -1   7 -15    5.71    1.17
   1  -7  15    5.07    1.26
  -2   7 -15    1.35    0.92
   2  -7  15    1.12    0.93
  -3   7 -15    4.25    1.21
   3  -7  15    3.86    1.06
  -4   7 -15   -0.43    0.85
   4  -7  15    0.56    1.04
   7   6 -15    1.00    0.93
   7   6 -15    0.23    0.74
   6   6 -15    0.35    0.66
   6   6 -15    0.67    0.80
   5   6 -15    1.57    0.74
   5   6 -15    1.23    0.80
   4   6 -15    3.30    0.91
   4   6 -15    3.94    1.04
  -4  -6  15    5.52    1.10
   3   6 -15    0.64    0.62
   3   6 -15    0.06    0.62
  -3  -6  15    0.55    0.71
   2   6 -15    0.91    0.63
   2   6 -15    0.60    0.64
  -2  -6  15    1.14    0.78
   1   6 -15    5.53    0.98
   1   6 -15    5.97    1.11
  -1  -6  15    6.90    1.25
   0   6 -15    5.42    0.95
   0   6 -15    3.83    1.05
   0  -6  15    6.02    1.22
  -1   6 -15    2.41    0.90
   1  -6  15    3.44    1.06
  -2   6 -15   -0.08    0.75
   2  -6  15    0.71    0.89
  -3   6 -15    1.37    1.03
   3  -6  15    0.82    1.01
  -4   6 -15   -0.29    0.87
   4  -6  15   -0.50    0.90
   7   5 -15    0.07    0.71
   7   5 -15    0.73    0.83
   6   5 -15    0.91    0.73
   6   5 -15   -0.15    0.71
   5   5 -15    2.00    0.77
   5   5 -15    4.79    1.09
  -5  -5  15    3.58    1.00
   4   5 -15    2.01    0.84
   4   5 -15    1.14    0.70
  -4  -5  15    3.69    1.03
   3   5 -15    0.81    0.67
   3   5 -15    0.58    0.62
  -3  -5  15    1.36    0.80
   2   5 -15    2.39    0.84
  -2  -5  15    3.17    0.97
   1   5 -15    0.63    0.58
   1   5 -15   -0.72    0.52
  -1  -5  15   -0.43    0.64
   0   5 -15    3.08    0.91
   0   5 -15    3.87    0.86
   0  -5  15    2.93    0.99
  -1   5 -15   -0.54    0.64
   1  -5  15    0.67    0.82
  -2   5 -15    0.12    0.77
  -3   5 -15   -0.05    0.81
   3  -5  15    1.53    1.02
  -4   5 -15   -0.59    0.87
   4  -5  15   -0.93    0.88
   7   4 -15    1.50    0.85
   7   4 -15    1.64    0.89
   6   4 -15    0.38    0.70
   6   4 -15   -0.09    0.66
   5   4 -15    3.54    0.97
   5   4 -15    3.83    0.95
  -5  -4  15    4.74    1.13
   4   4 -15    0.53    0.61
   4   4 -15    1.43    0.75
  -4  -4  15    0.43    0.71
   3   4 -15    0.93    0.68
   3   4 -15    0.76    0.61
  -3  -4  15    0.25    0.69
   2   4 -15    1.02    0.73
   2   4 -15    0.76    0.62
  -2  -4  15    1.41    0.77
   1   4 -15    0.31    0.56
   1   4 -15    1.88    0.75
  -1  -4  15    0.81    0.75
   0   4 -15    2.64    0.77
   0   4 -15    2.78    0.91
   0  -4  15    1.28    0.87
  -1   4 -15    1.50    0.83
  -1   4 -15    2.84    0.76
   1  -4  15    2.43    0.95
  -2   4 -15    0.27    0.81
   2  -4  15    0.36    0.91
  -3   4 -15   -0.31    0.73
   3  -4  15   -1.16    0.82
  -4   4 -15    0.44    0.94
   4  -4  15    0.24    0.95
   7   3 -15    0.60    0.71
   6   3 -15    1.06    0.72
  -6  -3  15    1.08    0.83
   5   3 -15    3.40    0.90
   5   3 -15    1.72    0.75
  -5  -3  15    3.04    1.03
   4   3 -15    1.81    0.77
   4   3 -15    0.80    0.65
  -4  -3  15    1.78    0.87
   3   3 -15    0.93    0.70
   3   3 -15    2.01    0.74
  -3  -3  15    2.33    0.91
   2   3 -15    0.49    0.68
   2   3 -15    1.48    0.65
  -2  -3  15    1.58    0.80
   1   3 -15    0.77    0.65
   1   3 -15    1.01    0.64
  -1  -3  15    1.26    0.78
   0   3 -15    3.75    0.98
   0   3 -15    3.05    0.81
   0  -3  15    4.14    1.07
  -1   3 -15    1.30    0.83
  -1   3 -15    1.06    0.63
   1  -3  15    1.47    0.93
  -2   3 -15   -0.31    0.74
   2  -3  15    0.43    0.86
  -3   3 -15   -0.28    0.76
   3  -3  15    0.26    0.95
  -4   3 -15   -0.40    0.88
   4  -3  15   -1.07    0.92
   7   2 -15   -0.60    0.63
   6   2 -15    1.26    0.73
  -6  -2  15    0.37    0.78
   5   2 -15    1.45    0.73
  -5  -2  15    3.33    1.07
   4   2 -15    0.16    0.60
   4   2 -15    0.17    0.42
  -4  -2  15    0.00    0.73
   3   2 -15    5.32    1.01
  -3  -2  15    4.33    1.15
   2   2 -15    0.70    0.63
   2   2 -15   -0.60    0.56
  -2  -2  15   -0.52    0.65
   1   2 -15    2.04    0.72
   1   2 -15    2.18    0.77
  -1  -2  15    4.50    1.11
   0   2 -15    6.38    1.02
   0   2 -15    2.80    0.87
   0  -2  15    3.86    1.06
  -1   2 -15    1.07    0.64
  -1   2 -15    0.67    0.79
   1  -2  15    0.17    0.80
  -2   2 -15   -0.41    0.76
   2  -2  15   -0.06    0.83
  -3   2 -15    1.14    0.90
   3  -2  15   -1.03    0.91
  -4   2 -15    0.79    1.02
   4  -2  15    1.34    1.11
   7   1 -15   -0.19    0.71
   6   1 -15    1.92    0.78
  -6  -1  15    1.58    0.96
   5   1 -15    0.12    0.60
  -5  -1  15    0.16    0.77
   4   1 -15   -0.08    0.58
  -4  -1  15    1.26    0.89
   3   1 -15    1.65    0.71
  -3  -1  15    3.92    1.12
   2   1 -15    0.18    0.57
   2   1 -15   -0.19    0.56
  -2  -1  15    1.27    0.85
   1   1 -15    8.62    1.19
  -1  -1  15    6.82    1.29
   0   1 -15    6.70    1.17
   0   1 -15    5.40    0.96
   0  -1  15    5.52    1.13
  -1   1 -15    0.86    0.62
  -1   1 -15    3.08    0.98
   1  -1  15    1.27    0.78
  -2   1 -15    3.25    1.06
   2  -1  15    2.00    0.93
  -3   1 -15    0.33    0.90
   3  -1  15   -0.35    0.91
  -4   1 -15    1.90    1.10
   4  -1  15    0.27    1.08
   7   0 -15   -1.23    0.84
   7   0 -15   -0.34    0.72
   6   0 -15    2.37    0.82
   5   0 -15    0.11    0.62
  -5   0  15   -0.19    0.82
   4   0 -15    0.03    0.61
  -4   0  15   -0.09    0.70
   3   0 -15    1.75    0.72
  -3   0  15    4.72    1.19
   2   0 -15    0.46    0.62
  -2   0  15   -0.33    0.73
   1   0 -15    9.26    1.25
  -1   0  15    8.68    1.40
   0   0 -15    2.12    0.75
   0   0 -15   -0.19    0.39
   0   0  15    0.97    0.85
  -1   0 -15   -0.71    0.50
  -1   0 -15    1.58    0.84
   1   0  15   -0.28    0.82
  -2   0 -15    1.29    0.93
   2   0  15    2.16    0.90
  -3   0 -15   -0.85    0.76
   3   0  15    0.05    0.95
  -4   0 -15    1.17    1.00
   4   0  15   -1.07    0.99
   7  -1 -15    0.64    0.80
   7  -1 -15   -0.21    0.92
   6  -1 -15   -0.01    0.65
   6  -1 -15    1.29    0.99
   5  -1 -15   -0.77    0.56
  -5   1  15    0.28    0.91
   4  -1 -15    1.18    0.75
  -4   1  15    1.67    0.99
   3  -1 -15    2.14    0.77
  -3   1  15    2.94    1.06
   2  -1 -15    1.71    0.74
  -2   1  15   -0.14    0.69
   1  -1 -15    3.52    0.88
  -1   1  15    3.10    0.99
   0  -1 -15    1.75    0.74
   0   1  15    3.82    1.05
  -1  -1 -15    0.48    0.63
   1   1  15    1.65    1.00
  -2  -1 -15    1.25    0.93
   2   1  15    1.06    1.03
  -3  -1 -15   -0.02    0.82
   3   1  15   -0.19    0.97
  -4  -1 -15    0.22    0.98
   7  -2 -15   -0.72    0.99
   6  -2 -15    0.48    0.76
   6  -2 -15   -0.17    0.91
   5  -2 -15   -0.14    0.62
   4  -2 -15    1.14    0.74
  -4   2  15    2.54    1.11
   3  -2 -15    0.66    0.64
  -3   2  15    1.08    0.87
   2  -2 -15    0.26    0.65
  -2   2  15    1.27    0.92
   1  -2 -15   10.94    1.36
   0  -2 -15   -0.29    0.59
   0   2  15    0.98    0.89
  -1  -2 -15    0.88    0.69
   1   2  15   -0.97    0.80
   2   2  15    0.56    0.99
   3   2  15    0.36    1.04
   6  -3 -15    1.77    0.84
   6  -3 -15    0.36    0.99
   5  -3 -15    0.89    1.04
   5  -3 -15    0.23    0.71
   4  -3 -15    2.12    0.83
  -4   3  15    3.22    1.18
   3  -3 -15    0.20    0.63
  -3   3  15    0.12    0.83
   2  -3 -15    0.87    0.72
  -2   3  15    2.04    0.93
   1  -3 -15    2.37    0.85
  -1   3  15    4.72    1.12
   0  -3 -15   -0.43    0.63
   0   3  15    0.32    0.85
  -1  -3 -15    0.55    0.69
   1   3  15   -0.21    0.86
   2   3  15    0.39    0.94
   6  -4 -15    0.22    0.71
   5  -4 -15    0.58    0.72
   5  -4 -15   -0.41    1.01
   4  -4 -15    2.60    0.89
  -4   4  15    2.61    1.08
   3  -4 -15   -0.01    0.64
  -3   4  15    0.21    0.93
   2  -4 -15    0.66    0.74
  -2   4  15    1.48    0.89
   1  -4 -15    0.69    0.75
  -1   4  15    0.74    0.96
   0  -4 -15   -0.44    0.65
   0   4  15   -0.90    0.79
  -1  -4 -15   -0.67    0.63
   1   4  15    0.87    0.97
   2   4  15   -0.07    0.97
   5  -5 -15    0.78    0.77
   4  -5 -15    1.38    0.77
   3  -5 -15    0.13    0.66
  -3   5  15   -1.21    0.74
   2  -5 -15    0.50    0.70
  -2   5  15    1.80    0.94
   1  -5 -15    2.17    0.91
  -1   5  15    2.23    1.13
   0  -5 -15    0.27    0.76
   0   5  15    0.64    0.96
  -1  -5 -15    0.42    0.79
   1   5  15    2.12    1.14
   4  -6 -15    0.05    0.71
   3  -6 -15    0.52    0.78
  -3   6  15    0.53    1.00
   2  -6 -15    1.05    0.83
  -2   6  15   -0.23    0.93
   1  -6 -15   -0.22    0.70
  -1   6  15    0.29    0.93
   0  -6 -15    3.80    1.09
   0   6  15    1.67    0.95
  -1  -6 -15   -0.12    0.83
   1   6  15   -0.22    0.99
  -2   7  15    1.03    1.12
   1  -7 -15   -0.03    0.76
  -1   7  15   -0.48    0.95
   0   7  15    1.75    1.13
  -2 -17  16   -0.81    0.65
   1 -17  16   -1.24    0.91
  -3 -16  16    0.17    0.71
   2  16 -16   -0.57    0.82
  -2 -16  16    0.39    0.69
   1  16 -16   -0.09    0.86
   0  16 -16   -0.37    0.85
   1 -16  16    0.03    0.90
   3  15 -16    0.19    0.84
  -3 -15  16    0.99    0.76
   2  15 -16   -0.86    0.70
  -2 -15  16    0.96    0.71
   1  15 -16   -0.22    0.82
  -1 -15  16    1.46    0.79
   0  15 -16   -0.56    0.79
   0 -15  16    0.69    0.87
  -1  15 -16   -0.21    0.84
   1 -15  16   -0.59    0.85
   4  14 -16    3.18    1.14
  -4 -14  16    1.47    0.87
   3  14 -16   -0.80    0.73
  -3 -14  16    0.16    0.70
   2  14 -16    0.09    0.85
  -2 -14  16    1.50    0.75
   1  14 -16    2.16    1.07
  -1 -14  16    1.97    0.91
  -1 -14  16    2.31    0.80
   0  14 -16    0.09    0.82
   0 -14  16   -0.38    0.79
  -1  14 -16    0.74    0.95
   1 -14  16   -0.46    0.83
  -2  14 -16   -0.07    0.93
   2 -14  16   -0.15    0.99
   4  13 -16    1.25    0.98
  -4 -13  16    0.73    0.79
   3  13 -16    0.85    0.89
  -3 -13  16    0.28    0.66
   2  13 -16    1.00    0.95
  -2 -13  16    0.49    0.70
   1  13 -16    3.00    1.12
  -1 -13  16    3.43    0.89
  -1 -13  16    2.11    0.93
   0  13 -16    0.76    0.86
   0 -13  16    0.62    0.91
  -1  13 -16    1.96    1.00
   1 -13  16    0.91    0.95
  -2  13 -16    0.71    0.96
   2 -13  16    0.52    0.98
   5  12 -16    0.25    0.89
  -5 -12  16    0.17    0.78
   4  12 -16    5.14    1.28
   3  12 -16    0.90    0.84
   2  12 -16    3.60    0.96
   2  12 -16    2.47    1.07
  -2 -12  16    3.27    0.93
   1  12 -16   -0.04    0.79
  -1 -12  16    1.30    0.80
   0  12 -16    0.99    0.85
   0 -12  16    0.40    0.84
  -1  12 -16    0.17    0.86
   1 -12  16   -0.03    0.87
  -2  12 -16    0.01    0.87
   2 -12  16   -0.10    0.83
   5  11 -16    0.58    0.72
   5  11 -16    0.10    0.82
   4  11 -16    2.17    0.89
   4  11 -16    3.32    1.08
   3  11 -16    0.93    0.78
   3  11 -16    0.51    0.83
   2  11 -16    0.17    0.64
   2  11 -16    0.03    0.78
  -2 -11  16    1.42    0.86
   1  11 -16    0.55    0.78
   1  11 -16    0.38    0.65
  -1 -11  16    0.92    0.83
   0  11 -16    1.29    0.86
   0 -11  16    1.73    0.94
  -1  11 -16    1.80    0.96
   1 -11  16    2.25    1.09
  -2  11 -16    0.04    0.84
   2 -11  16    1.49    0.99
  -3  11 -16   -0.89    0.78
   3 -11  16    0.46    0.94
   6  10 -16   -0.80    0.76
   5  10 -16    0.77    0.78
   5  10 -16   -0.09    0.73
   4  10 -16    1.39    0.84
   4  10 -16    1.14    0.87
   3  10 -16   -0.37    0.69
   3  10 -16    0.20    0.66
  -3 -10  16   -0.42    0.67
   2  10 -16    4.96    1.21
   2  10 -16    7.56    1.18
  -2 -10  16    7.51    1.27
   1  10 -16    0.15    0.59
   1  10 -16   -0.13    0.73
  -1 -10  16    0.35    0.78
   0  10 -16    3.92    1.09
   0  10 -16    3.44    0.89
   0 -10  16    3.37    1.08
  -1  10 -16    0.69    0.85
   1 -10  16    0.11    0.90
  -2  10 -16    1.09    0.91
   2 -10  16    0.50    0.86
  -3  10 -16    0.02    0.87
   3 -10  16    1.41    1.07
   6   9 -16   -0.12    0.79
   6   9 -16   -0.65    0.70
   5   9 -16    2.12    0.94
   5   9 -16    2.05    0.91
   4   9 -16    4.84    1.05
   4   9 -16    3.68    1.12
   3   9 -16    1.87    0.79
   3   9 -16    0.61    0.78
  -3  -9  16    0.76    0.76
   2   9 -16    3.61    1.05
   2   9 -16    3.27    0.88
  -2  -9  16    2.42    0.92
   1   9 -16    1.40    0.72
   1   9 -16    1.91    0.90
  -1  -9  16   -0.27    0.79
   0   9 -16    0.54    0.75
   0   9 -16    1.35    0.69
   0  -9  16    2.31    1.01
  -1   9 -16    2.14    0.99
   1  -9  16    2.97    1.08
  -2   9 -16    2.26    1.04
   2  -9  16    2.33    1.06
  -3   9 -16   -0.60    0.83
   3  -9  16    2.01    1.13
   6   8 -16    0.50    0.72
   6   8 -16    1.83    0.95
   5   8 -16    1.29    0.81
   5   8 -16    2.94    1.00
   4   8 -16   -0.04    0.72
   4   8 -16    0.72    0.70
  -4  -8  16    0.66    0.77
   3   8 -16   10.26    1.38
   3   8 -16    3.29    1.00
  -3  -8  16    5.80    1.17
   2   8 -16    3.19    0.93
   2   8 -16    4.52    1.12
  -2  -8  16    3.62    1.04
   1   8 -16   -1.57    0.46
   1   8 -16    1.21    0.73
  -1  -8  16   -0.74    0.63
   0   8 -16    0.85    0.63
   0   8 -16    2.03    0.86
   0  -8  16    0.94    0.83
  -1   8 -16    1.81    0.91
   1  -8  16    0.59    0.92
  -2   8 -16    1.55    0.92
   2  -8  16    1.08    0.95
  -3   8 -16    1.29    1.01
   3  -8  16    0.38    0.98
   7   7 -16   -1.09    0.84
   6   7 -16    0.87    0.79
   6   7 -16    0.40    0.86
   5   7 -16    0.90    0.77
   5   7 -16    1.93    0.95
   4   7 -16   -0.60    0.67
   4   7 -16   -0.49    0.63
  -4  -7  16   -0.46    0.65
   3   7 -16    1.73    0.87
   3   7 -16    0.28    0.64
  -3  -7  16    1.20    0.84
   2   7 -16    0.60    0.74
   2   7 -16    1.16    0.68
  -2  -7  16    1.46    0.86
   1   7 -16    2.19    0.89
   1   7 -16    3.28    0.81
  -1  -7  16    2.46    1.04
   0   7 -16    9.64    1.47
   0   7 -16    7.81    1.10
   0  -7  16   10.02    1.56
  -1   7 -16   -0.30    0.74
   1  -7  16   -0.07    0.83
  -2   7 -16    0.03    0.85
   2  -7  16    0.35    0.89
  -3   7 -16    0.57    0.98
   3  -7  16    0.07    1.02
   7   6 -16    0.35    0.95
   6   6 -16    0.22    0.69
   6   6 -16    0.16    0.78
   5   6 -16    3.03    0.94
   5   6 -16    1.17    0.83
   4   6 -16    1.23    0.84
   4   6 -16    0.10    0.63
  -4  -6  16    0.57    0.77
   3   6 -16    2.99    0.95
   3   6 -16    3.94    1.04
  -3  -6  16    1.16    0.78
   2   6 -16    0.44    0.66
   2   6 -16    0.80    0.76
  -2  -6  16    1.40    0.86
   1   6 -16    0.73    0.72
   1   6 -16    0.40    0.60
  -1  -6  16    0.95    0.78
   0   6 -16    1.21    0.82
   0   6 -16    0.10    0.59
   0  -6  16    1.55    0.90
  -1   6 -16   -0.46    0.71
   1  -6  16    0.43    0.79
  -2   6 -16    0.87    0.91
   2  -6  16    0.82    0.95
  -3   6 -16    0.46    0.89
   3  -6  16   -1.02    0.87
   7   5 -16    0.15    0.87
   6   5 -16    2.05    0.89
   6   5 -16    1.55    0.91
   5   5 -16    1.05    0.71
   5   5 -16    1.63    0.84
  -5  -5  16    3.24    1.04
   4   5 -16    1.01    0.80
   4   5 -16    0.44    0.63
  -4  -5  16    0.24    0.73
   3   5 -16    5.14    1.07
   3   5 -16    7.27    1.22
  -3  -5  16    6.18    1.27
   2   5 -16   -0.37    0.55
   2   5 -16    0.26    0.66
  -2  -5  16   -0.70    0.66
   1   5 -16    2.20    0.74
   1   5 -16    2.45    0.90
  -1  -5  16    2.26    0.94
   0   5 -16    6.19    1.27
   0   5 -16    5.29    0.98
   0  -5  16    5.04    1.21
  -1   5 -16   -0.67    0.67
   1  -5  16    0.93    0.89
  -2   5 -16    1.10    0.92
  -3   5 -16   -0.84    0.84
   3  -5  16    0.14    0.96
   6   4 -16    1.20    0.80
   6   4 -16    3.12    0.97
   5   4 -16    0.18    0.61
   5   4 -16    1.21    0.80
  -5  -4  16    2.31    1.01
   4   4 -16    2.93    1.00
   4   4 -16    4.16    1.01
  -4  -4  16    5.70    1.28
   3   4 -16    2.28    0.83
   3   4 -16    2.86    0.90
  -3  -4  16    3.91    1.09
   2   4 -16    0.43    0.69
   2   4 -16   -0.29    0.58
  -2  -4  16    0.76    0.79
   1   4 -16    4.24    0.94
   1   4 -16    5.22    1.12
  -1  -4  16    1.87    0.93
   0   4 -16    0.72    0.76
   0   4 -16    1.06    0.71
   0  -4  16    0.04    0.74
  -1   4 -16    1.61    0.87
   1  -4  16    1.59    1.02
  -2   4 -16    0.75    0.90
   2  -4  16    0.44    0.94
  -3   4 -16   -1.47    0.74
   3  -4  16    0.80    1.03
   6   3 -16    0.98    0.77
  -6  -3  16    3.38    1.10
   5   3 -16    0.49    0.70
  -5  -3  16    0.16    0.74
   4   3 -16    0.63    0.69
   4   3 -16    1.34    0.79
  -4  -3  16    2.55    1.03
   3   3 -16    3.44    0.98
   3   3 -16    2.84    0.89
  -3  -3  16    2.30    0.96
   2   3 -16   -0.33    0.62
   2   3 -16    1.05    0.72
  -2  -3  16   -0.08    0.75
   1   3 -16    3.11    0.94
   1   3 -16    2.91    0.84
  -1  -3  16    2.28    0.97
   0   3 -16    0.60    0.63
   0   3 -16    0.14    0.72
   0  -3  16    0.53    0.81
  -1   3 -16    0.90    0.85
   1  -3  16    0.98    0.90
  -2   3 -16    1.37    0.99
   2  -3  16   -0.35    0.89
  -3   3 -16    0.10    0.89
   3  -3  16    0.39    1.04
   6   2 -16    0.57    0.74
  -6  -2  16    1.91    1.01
   5   2 -16   -0.68    0.59
  -5  -2  16    0.50    0.89
   4   2 -16    2.62    0.89
  -4  -2  16    3.30    1.06
   3   2 -16    2.56    0.84
   3   2 -16   -0.23    0.37
  -3  -2  16    1.08    0.89
   2   2 -16    2.60    0.83
   2   2 -16    0.72    0.70
  -2  -2  16    1.18    0.90
   1   2 -16    7.30    1.15
   1   2 -16    5.86    1.12
  -1  -2  16    5.07    1.19
   0   2 -16   -0.44    0.67
   0   2 -16    0.42    0.60
   0  -2  16   -0.32    0.74
  -1   2 -16    2.38    0.97
   1  -2  16    1.80    1.06
  -2   2 -16    2.79    1.10
   2  -2  16    2.07    1.08
  -3   2 -16    0.21    0.89
   3  -2  16   -0.62    0.95
   6   1 -16    0.00    0.69
  -6  -1  16    1.77    1.02
   5   1 -16    0.86    0.71
  -5  -1  16    1.42    0.95
   4   1 -16    1.31    0.70
  -4  -1  16   -1.13    0.74
   3   1 -16    0.51    0.68
  -3  -1  16    1.48    0.93
   2   1 -16    3.71    0.98
  -2  -1  16    3.60    1.11
   1   1 -16    2.40    0.82
  -1  -1  16    3.95    1.09
   0   1 -16   -0.65    0.65
   0   1 -16    1.83    0.75
   0  -1  16    0.67    0.83
  -1   1 -16    2.49    0.77
  -1   1 -16    2.36    0.98
   1  -1  16    3.03    0.92
  -2   1 -16   -0.23    0.83
   2  -1  16    0.12    0.98
  -3   1 -16    0.68    0.99
   3  -1  16   -0.86    0.97
  -7   0  16    2.26    1.16
   6   0 -16    0.79    0.76
  -6   0  16    0.62    0.99
   5   0 -16    1.07    0.77
  -5   0  16   -0.28    0.83
   4   0 -16    0.51    0.68
  -4   0  16    0.44    0.87
   3   0 -16    1.63    0.82
  -3   0  16    1.25    0.91
   2   0 -16    6.54    1.14
  -2   0  16    5.23    1.23
   1   0 -16   -0.12    0.55
  -1   0  16    0.48    0.82
   0   0 -16    1.43    0.74
   0   0  16    1.21    0.98
  -1   0 -16    0.51    0.70
   1   0  16    0.92    1.02
  -2   0 -16   -0.68    0.80
   2   0  16    0.75    0.99
  -3   0 -16    0.23    0.97
   3   0  16    0.76    1.12
   6  -1 -16   -0.24    0.67
  -6   1  16    0.46    0.99
   5  -1 -16   -0.35    0.60
  -5   1  16    1.31    1.03
   4  -1 -16    1.34    0.78
  -4   1  16    1.28    0.99
   3  -1 -16   -0.50    0.54
  -3   1  16    0.02    0.83
   2  -1 -16    3.30    0.95
  -2   1  16    3.82    1.13
   1  -1 -16   -0.18    0.62
  -1   1  16    0.47    0.83
   0  -1 -16    0.33    0.66
   0   1  16    0.95    0.91
  -1  -1 -16    0.84    0.67
   1   1  16   -0.84    0.88
   2   1  16   -0.59    0.93
   3   1  16   -0.30    1.05
   5  -2 -16    2.80    0.93
  -5   2  16    2.77    1.25
   4  -2 -16    0.89    0.73
  -4   2  16    1.84    1.02
   3  -2 -16    1.14    0.79
  -3   2  16    1.71    1.03
   2  -2 -16    0.11    0.67
  -2   2  16   -0.84    0.74
   1  -2 -16    1.12    0.75
  -1   2  16    1.66    1.03
   0  -2 -16    3.01    0.91
   0   2  16    2.17    0.88
  -1  -2 -16   -0.04    0.65
   1   2  16    0.92    1.02
   2   2  16    0.96    1.09
   3   2  16    0.37    1.11
   5  -3 -16    0.95    0.78
  -5   3  16    1.21    1.09
   4  -3 -16   -0.36    0.63
  -4   3  16   -0.16    0.86
   3  -3 -16    0.96    0.74
  -3   3  16    1.40    0.99
   2  -3 -16    0.47    0.73
  -2   3  16    0.94    0.95
   1  -3 -16    0.42    0.71
  -1   3  16    0.32    0.95
   0  -3 -16    1.20    0.81
   0   3  16    2.60    1.00
  -1  -3 -16   -0.74    0.67
   1   3  16    1.29    1.13
   2   3  16    0.71    1.09
   4  -4 -16    0.42    0.75
  -4   4  16    0.32    0.91
   3  -4 -16    0.69    0.73
  -3   4  16    1.83    1.13
   2  -4 -16    0.00    0.70
  -2   4  16   -0.40    0.90
   1  -4 -16   -1.37    0.61
  -1   4  16    0.00    0.91
   0  -4 -16    1.02    0.83
   0   4  16    0.95    1.06
  -1  -4 -16    1.30    0.83
   1   4  16    0.20    1.04
   2   4  16    1.83    1.18
   3  -5 -16    0.05    0.70
  -3   5  16    2.91    1.24
   2  -5 -16    0.14    0.77
  -2   5  16    0.94    1.10
   1  -5 -16    0.27    0.81
  -1   5  16   -0.07    0.99
   0   5  16    2.96    1.17
  -1  -5 -16    0.78    0.90
   1   5  16    0.36    1.08
  -1   6  16    1.36    1.14
  -2 -16  17    0.43    0.76
  -3 -15  17    1.00    0.76
  -2 -15  17   -0.19    0.65
   0 -15  17   -0.73    0.85
   1 -15  17   -0.56    0.94
   3  14 -17    2.15    1.07
  -3 -14  17   -0.05    0.69
   2  14 -17    1.05    1.02
  -2 -14  17    0.59    0.69
   1  14 -17   -0.06    0.81
  -1 -14  17   -1.65    0.78
   0  14 -17    0.17    0.88
   0 -14  17    1.90    0.98
   1 -14  17    0.42    0.99
  -4 -13  17    0.45    0.80
   3  13 -17   -0.40    0.83
  -3 -13  17    1.75    0.82
   2  13 -17    1.06    0.97
   1  13 -17   -0.01    0.88
  -1 -13  17    0.63    0.84
  -1 -13  17    1.07    0.72
   0  13 -17    2.06    1.06
   0 -13  17    1.52    1.02
  -1  13 -17    1.98    1.03
   1 -13  17   -0.79    0.81
   4  12 -17    0.48    0.86
   4  12 -17    0.14    0.74
   3  12 -17    3.00    1.02
   3  12 -17    1.79    1.05
   2  12 -17    0.59    0.74
   2  12 -17   -1.14    0.74
  -2 -12  17   -1.15    0.70
   1  12 -17    0.89    0.75
   1  12 -17    0.99    0.89
  -1 -12  17   -0.54    0.74
   0  12 -17    0.57    0.90
   0 -12  17    1.34    0.96
  -1  12 -17    1.73    1.00
   1 -12  17   -0.12    0.91
   2 -12  17    1.31    1.05
   5  11 -17    1.50    1.04
   4  11 -17    0.63    0.79
   4  11 -17   -0.56    0.78
   3  11 -17    5.00    1.14
   3  11 -17    4.60    1.26
   2  11 -17   -0.18    0.78
   2  11 -17    0.58    0.72
  -2 -11  17    0.86    0.84
   1  11 -17   -0.01    0.66
   1  11 -17    0.65    0.85
  -1 -11  17    0.55    0.89
   0  11 -17   -0.38    0.71
   0 -11  17    1.25    1.00
  -1  11 -17   -0.66    0.82
   1 -11  17   -0.96    0.84
  -2  11 -17   -1.05    0.77
   2 -11  17    1.00    1.01
   5  10 -17    1.26    0.95
   5  10 -17    1.15    0.85
   4  10 -17   -0.12    0.84
   4  10 -17    1.79    0.84
   3  10 -17    2.14    0.98
   3  10 -17    3.45    0.98
  -3 -10  17    2.57    0.98
   2  10 -17    0.41    0.67
   2  10 -17    0.05    0.77
  -2 -10  17    1.10    0.87
   1  10 -17    3.13    0.90
   1  10 -17    1.84    0.96
  -1 -10  17    4.38    1.19
   0  10 -17    0.38    0.85
   0 -10  17    0.45    0.91
  -1  10 -17    0.69    0.93
   1 -10  17    1.05    0.96
  -2  10 -17    1.66    1.10
   2 -10  17    1.33    1.11
   5   9 -17   -0.36    0.68
   5   9 -17   -0.20    0.82
   4   9 -17    0.33    0.81
   4   9 -17    0.24    0.69
   3   9 -17   -0.56    0.70
   3   9 -17    0.34    0.70
  -3  -9  17    1.12    0.88
   2   9 -17    0.35    0.78
   2   9 -17    1.03    0.73
  -2  -9  17    1.02    0.90
   1   9 -17    1.31    0.73
   1   9 -17    0.23    0.79
  -1  -9  17   -0.71    0.73
   0   9 -17   -0.02    0.79
  -1   9 -17   -0.18    0.80
   1  -9  17    0.94    0.96
  -2   9 -17    0.41    0.89
   2  -9  17   -0.03    0.87
   6   8 -17    0.87    0.96
   5   8 -17    0.58    0.76
   5   8 -17   -0.34    0.79
   4   8 -17   -0.04    0.78
   4   8 -17   -0.32    0.69
  -4  -8  17    0.02    0.77
   3   8 -17    1.94    0.84
   3   8 -17    0.81    0.79
  -3  -8  17    2.27    0.93
   2   8 -17    0.24    0.65
   2   8 -17   -0.02    0.76
  -2  -8  17   -0.04    0.77
   1   8 -17    2.05    0.93
   1   8 -17    1.42    0.77
  -1  -8  17    4.31    1.22
   0   8 -17    0.59    0.83
   0  -8  17   -0.83    0.77
  -1   8 -17    1.16    0.90
   1  -8  17    3.30    1.18
  -2   8 -17    1.14    0.99
   2  -8  17    1.46    1.07
   6   7 -17    0.45    0.87
   5   7 -17    0.33    0.82
   5   7 -17    0.53    0.71
   4   7 -17    1.63    0.94
   4   7 -17    0.93    0.82
  -4  -7  17    0.53    0.81
   3   7 -17   -0.14    0.69
   3   7 -17    0.37    0.68
  -3  -7  17   -0.93    0.67
   2   7 -17    4.96    1.01
   2   7 -17    2.77    0.99
  -2  -7  17    3.21    1.09
   1   7 -17    3.21    1.04
   1   7 -17    5.31    1.04
  -1  -7  17    5.56    1.24
   0   7 -17    2.05    0.96
   0   7 -17    0.84    0.74
   0  -7  17    3.54    1.14
  -1   7 -17    2.51    1.06
   1  -7  17    1.15    1.03
  -2   7 -17    0.65    0.92
   2  -7  17   -0.92    0.90
   6   6 -17    0.89    0.89
   5   6 -17    0.95    0.79
   5   6 -17   -0.33    0.77
   4   6 -17   -0.49    0.67
   4   6 -17   -0.30    0.63
  -4  -6  17    0.44    0.83
   3   6 -17    0.56    0.72
   3   6 -17    0.27    0.75
  -3  -6  17    0.23    0.78
   2   6 -17    2.09    0.90
   2   6 -17    1.36    0.79
  -2  -6  17    1.63    0.92
   1   6 -17    1.05    0.68
   1   6 -17    2.55    0.93
  -1  -6  17    2.22    0.97
   0   6 -17    1.45    0.74
   0   6 -17    0.51    0.87
   0  -6  17    2.43    1.00
  -1   6 -17    2.20    0.99
   1  -6  17    2.77    1.08
  -2   6 -17    0.63    0.88
   2  -6  17   -0.12    0.93
   6   5 -17    0.17    0.70
   6   5 -17   -0.72    0.78
   5   5 -17   -0.15    0.71
   5   5 -17    0.73    0.74
  -5  -5  17    0.86    0.84
   4   5 -17    1.63    0.88
   4   5 -17    1.64    0.82
  -4  -5  17    1.63    0.97
   3   5 -17    0.89    0.75
   3   5 -17   -0.32    0.64
   2   5 -17    6.56    1.17
   2   5 -17    3.99    1.08
  -2  -5  17    5.00    1.21
   1   5 -17    1.35    0.84
   1   5 -17    2.19    0.80
  -1  -5  17    1.90    0.98
   0   5 -17    0.23    0.63
   0   5 -17    0.39    0.80
   0  -5  17   -0.22    0.73
  -1   5 -17    1.42    0.95
   1  -5  17    1.59    1.02
  -2   5 -17   -0.41    0.84
   2  -5  17    0.10    1.03
  -3   5 -17    1.52    1.13
   6   4 -17    0.32    0.76
   5   4 -17    0.66    0.82
   5   4 -17    2.25    0.97
  -5  -4  17    2.90    1.06
   4   4 -17    1.75    0.88
   4   4 -17    1.93    0.89
  -4  -4  17    1.41    0.94
   3   4 -17    0.54    0.71
   3   4 -17    1.15    0.79
  -3  -4  17    1.13    0.88
   2   4 -17    3.58    0.95
   2   4 -17    4.03    1.06
  -2  -4  17    2.42    1.01
   1   4 -17    0.05    0.73
   1   4 -17    1.12    0.72
  -1  -4  17    1.16    0.88
   0   4 -17    0.75    0.79
   0   4 -17    0.82    0.74
   0  -4  17   -0.40    0.80
  -1   4 -17    0.87    0.94
   1  -4  17    1.05    0.95
  -2   4 -17   -1.02    0.83
   2  -4  17   -1.01    0.85
  -3   4 -17    1.46    1.07
   6   3 -17    0.09    0.71
  -6  -3  17    1.24    0.96
   5   3 -17    1.10    0.82
  -5  -3  17    2.12    1.09
   4   3 -17    1.04    0.81
  -4  -3  17    1.64    0.99
   3   3 -17    0.95    0.71
   3   3 -17    1.09    0.80
  -3  -3  17   -0.85    0.81
   2   3 -17    4.86    1.08
   2   3 -17    4.75    1.05
  -2  -3  17    4.34    1.28
   1   3 -17    0.65    0.65
   1   3 -17    0.12    0.73
  -1  -3  17    0.33    0.78
   0   3 -17    1.76    0.77
   0   3 -17    3.05    1.05
   0  -3  17    2.55    1.02
  -1   3 -17    0.09    0.82
   1  -3  17   -0.08    0.89
  -2   3 -17    0.39    0.95
   2  -3  17   -0.91    0.93
  -3   3 -17    0.17    1.01
  -6  -2  17    0.43    1.00
   5   2 -17    3.24    0.99
  -5  -2  17    3.80    1.17
   4   2 -17    0.16    0.65
  -4  -2  17    0.64    0.89
   3   2 -17    1.87    0.83
  -3  -2  17    0.34    0.86
   2   2 -17    2.83    0.92
  -2  -2  17    4.15    1.19
   1   2 -17   -0.30    0.60
   1   2 -17    0.09    0.71
  -1  -2  17   -0.71    0.77
   0   2 -17    4.88    1.07
   0   2 -17    4.98    1.14
   0  -2  17    3.02    1.04
  -1   2 -17   -0.75    0.77
   1  -2  17    0.42    0.97
  -2   2 -17    1.35    1.01
   2  -2  17    2.29    1.19
  -3   2 -17    0.58    1.07
  -6  -1  17    0.93    1.00
   5   1 -17    1.09    0.75
  -5  -1  17    0.86    1.02
   4   1 -17    0.18    0.66
  -4  -1  17    1.41    0.96
   3   1 -17   -0.07    0.69
  -3  -1  17    1.86    0.99
   2   1 -17    3.21    0.97
  -2  -1  17    5.21    1.25
   1   1 -17    0.09    0.67
  -1  -1  17    1.11    0.99
   0   1 -17    1.03    0.76
   0  -1  17    1.45    0.89
  -1   1 -17    0.65    0.84
   1  -1  17    0.77    0.99
  -2   1 -17    4.67    1.32
   2  -1  17    2.36    1.23
  -3   1 -17   -1.44    0.91
  -6   0  17    0.83    0.97
   5   0 -17    0.07    0.70
  -5   0  17   -0.90    0.83
   4   0 -17    0.07    0.64
  -4   0  17   -0.09    0.91
   3   0 -17   -0.11    0.66
  -3   0  17    0.73    0.92
   2   0 -17    0.04    0.70
  -2   0  17    2.02    1.01
   1   0 -17    1.53    0.81
  -1   0  17    0.75    0.99
   0   0 -17    1.26    0.76
   0   0  17    2.18    0.90
   1   0  17    1.09    1.02
   2   0  17    1.91    1.18
   5  -1 -17    1.77    0.96
  -5   1  17    2.63    1.18
   4  -1 -17    0.25    0.73
  -4   1  17    1.32    1.05
   3  -1 -17    0.85    0.80
  -3   1  17    1.49    1.06
   2  -1 -17    1.94    0.88
  -2   1  17    2.01    1.08
   1  -1 -17    1.24    0.81
  -1   1  17    2.31    0.95
   0  -1 -17    0.20    0.73
   0   1  17    0.73    0.96
   1   1  17    0.88    1.11
   4  -2 -17    1.50    0.84
  -4   2  17    2.09    1.09
   3  -2 -17    1.23    0.81
  -3   2  17    1.78    1.14
   2  -2 -17    0.32    0.74
  -2   2  17    0.79    1.00
   1  -2 -17    1.06    0.80
  -1   2  17    0.37    0.98
   0  -2 -17   -0.19    0.70
   0   2  17    0.51    1.00
  -1  -2 -17    0.74    0.80
   1   2  17    0.29    1.07
   3  -3 -17   -0.93    0.62
  -3   3  17   -0.35    0.92
   2  -3 -17    0.29    0.75
  -2   3  17    0.19    1.03
   1  -3 -17    0.46    0.82
  -1   3  17    0.64    1.11
   0  -3 -17   -0.19    0.74
   0   3  17    1.35    1.10
  -1  -3 -17    0.96    0.86
   1  -4 -17    0.48    0.80
   0  -4 -17    0.69    0.82
  -2 -15  18   -0.62    0.73
   0 -15  18   -0.14    0.97
  -2 -14  18    0.31    0.73
  -1 -14  18    0.59    0.96
   0 -14  18   -0.19    0.90
   2  13 -18    0.50    0.98
   1  13 -18    0.49    0.94
  -1 -13  18    1.54    1.03
   0 -13  18   -0.90    0.83
   3  12 -18    1.99    0.97
   3  12 -18   -0.52    0.85
   2  12 -18    0.32    0.92
   2  12 -18    1.54    0.85
  -2 -12  18    0.59    0.90
   1  12 -18    2.61    0.90
   1  12 -18    1.65    0.99
  -1 -12  18    0.41    0.90
   0  12 -18    1.21    0.97
   0 -12  18    1.23    1.01
   1 -12  18    1.56    1.11
   4  11 -18    0.15    0.91
   4  11 -18   -0.12    0.77
   3  11 -18    1.00    0.83
   3  11 -18    0.24    0.85
   2  11 -18    1.98    0.91
   2  11 -18    3.62    1.20
  -2 -11  18    2.24    1.02
   1  11 -18    0.27    0.69
   1  11 -18    2.08    1.05
  -1 -11  18   -0.96    0.76
   0  11 -18   -0.16    0.84
   0 -11  18    0.48    0.94
  -1  11 -18    0.40    0.97
   1 -11  18    0.90    1.09
   4  10 -18    1.80    1.02
   4  10 -18    0.85    0.84
   3  10 -18   -0.29    0.67
   3  10 -18    0.47    0.87
  -3 -10  18    0.05    0.77
   2  10 -18    3.59    0.99
   2  10 -18    0.77    0.96
  -2 -10  18    1.16    1.01
   1  10 -18    3.22    0.92
   1  10 -18    1.21    0.96
  -1 -10  18    1.61    1.05
   0  10 -18    0.69    0.93
   0 -10  18   -0.15    0.93
  -1  10 -18    0.59    1.00
   1 -10  18    0.87    0.95
   5   9 -18   -0.54    0.82
   4   9 -18    0.09    0.83
   4   9 -18    1.37    0.84
   3   9 -18    0.40    0.76
   3   9 -18    0.15    0.80
  -3  -9  18    0.82    0.81
   2   9 -18    4.36    1.20
   2   9 -18    2.68    0.92
  -2  -9  18    3.22    1.11
   1   9 -18    0.52    0.88
   1   9 -18    0.32    0.68
  -1  -9  18    0.11    0.88
   0   9 -18    0.33    0.90
  -1   9 -18    0.68    0.97
   1  -9  18    0.87    1.02
   5   8 -18   -0.35    0.83
   4   8 -18   -0.77    0.77
   4   8 -18    0.65    0.76
  -4  -8  18    0.75    0.85
   3   8 -18   -0.28    0.70
   3   8 -18    0.62    0.84
  -3  -8  18    2.40    1.01
   2   8 -18   -0.69    0.62
   2   8 -18    1.92    1.02
  -2  -8  18    0.34    0.87
   1   8 -18   -0.28    0.74
   1   8 -18    0.23    0.64
  -1  -8  18    0.90    0.97
   0   8 -18   -0.29    0.80
   0  -8  18    0.85    0.92
  -1   8 -18    0.76    0.99
   1  -8  18    0.43    1.02
   6   7 -18    0.69    0.93
   5   7 -18    0.82    0.84
   5   7 -18    1.02    0.89
   4   7 -18    1.07    0.92
   4   7 -18    0.36    0.76
  -4  -7  18    0.13    0.81
   3   7 -18    0.87    0.79
   3   7 -18    0.67    0.87
  -3  -7  18    1.05    0.97
   2   7 -18    1.11    0.89
   2   7 -18    1.71    0.84
  -2  -7  18    1.38    0.97
   1   7 -18    0.23    0.81
   1   7 -18    0.70    0.73
  -1  -7  18    1.01    0.99
   0   7 -18    4.65    1.24
   0  -7  18    2.70    1.17
  -1   7 -18    0.58    0.94
   1  -7  18    0.52    1.02
   6   6 -18    0.22    0.88
   5   6 -18    1.62    0.89
   5   6 -18   -0.32    0.78
   4   6 -18   -0.40    0.79
   4   6 -18    0.27    0.71
  -4  -6  18   -0.12    0.82
   3   6 -18    1.63    0.92
   3   6 -18    3.42    1.03
  -3  -6  18    4.13    1.24
   2   6 -18    0.46    0.76
   2   6 -18   -0.28    0.73
  -2  -6  18   -0.54    0.81
   1   6 -18    0.43    0.67
   1   6 -18   -0.13    0.74
  -1  -6  18   -0.57    0.81
   0   6 -18   -0.21    0.78
   0  -6  18    0.33    0.91
  -1   6 -18    0.07    0.89
   1  -6  18    1.06    1.02
  -2   6 -18   -0.44    0.90
   5   5 -18    1.10    0.92
   5   5 -18    0.87    0.78
  -5  -5  18    0.65    0.87
   4   5 -18    0.05    0.71
   4   5 -18   -0.36    0.76
  -4  -5  18    1.77    1.02
   3   5 -18    0.97    0.81
   3   5 -18    1.85    0.94
  -3  -5  18    1.85    1.04
   2   5 -18    1.39    0.89
   2   5 -18    2.54    0.92
  -2  -5  18    0.55    0.90
   1   5 -18    0.42    0.80
   1   5 -18    0.08    0.69
  -1  -5  18   -1.26    0.69
   0   5 -18    0.72    0.72
   0   5 -18    0.57    0.91
   0  -5  18    1.13    0.96
  -1   5 -18    0.25    0.92
   1  -5  18    0.37    0.98
  -2   5 -18    1.54    1.08
   5   4 -18    1.72    0.92
  -5  -4  18   -0.16    0.87
   4   4 -18   -1.00    0.60
  -4  -4  18    0.23    0.88
   3   4 -18    1.43    0.89
   3   4 -18    1.11    0.83
  -3  -4  18    1.44    1.01
   2   4 -18    0.46    0.72
   2   4 -18    0.53    0.81
  -2  -4  18    1.07    0.90
   1   4 -18    2.15    0.82
   1   4 -18    0.90    0.82
  -1  -4  18    1.63    1.06
   0   4 -18    1.67    0.83
   0   4 -18    1.06    0.95
   0  -4  18    0.69    0.97
  -1   4 -18    1.02    1.00
   1  -4  18    1.02    1.06
  -2   4 -18    1.03    1.06
  -6  -3  18   -0.02    0.94
  -5  -3  18    0.30    0.94
   4   3 -18    0.97    0.81
  -4  -3  18    2.68    1.15
   3   3 -18    0.84    0.78
  -3  -3  18    1.66    1.07
   2   3 -18   -0.53    0.67
  -2  -3  18    0.06    0.85
   1   3 -18    0.33    0.78
   1   3 -18    2.52    0.87
  -1  -3  18    1.82    1.03
   0   3 -18    0.15    0.66
   0   3 -18    1.02    0.98
   0  -3  18    1.49    1.08
  -1   3 -18    2.85    1.16
   1  -3  18    2.56    1.23
  -2   3 -18    1.48    1.14
  -6  -2  18    0.64    1.03
  -5  -2  18   -0.40    0.94
   4   2 -18   -0.52    0.65
  -4  -2  18    0.55    0.98
   3   2 -18    1.43    0.86
  -3  -2  18    0.52    0.99
   2   2 -18    0.01    0.72
  -2  -2  18    1.29    0.97
   1   2 -18    3.69    0.97
  -1  -2  18    2.21    1.15
   0   2 -18    0.89    0.77
   0  -2  18    0.49    1.00
  -1   2 -18    2.16    1.15
   1  -2  18    2.52    1.11
  -2   2 -18    0.62    1.04
  -5  -1  18    0.00    1.00
   4   1 -18    1.06    0.82
  -4  -1  18    1.55    1.07
   3   1 -18    1.94    0.92
  -3  -1  18    1.70    1.04
   2   1 -18    0.60    0.75
  -2  -1  18    1.09    1.01
   1   1 -18    0.76    0.82
  -1  -1  18    1.59    1.15
   0   1 -18    0.56    0.82
   0  -1  18   -0.16    0.94
   4   0 -18    1.84    0.87
  -4   0  18    0.40    0.94
   3   0 -18   -0.26    0.71
  -3   0  18    0.06    0.92
   2   0 -18    1.53    0.95
  -2   0  18    0.98    1.04
  -1   0  18    0.37    0.98
   0   0 -18    1.12    0.74
   0   0  18   -1.32    0.94
   3  -1 -18    1.98    0.92
  -3   1  18    0.12    0.98
   2  -1 -18    0.12    0.76
  -2   1  18    0.12    1.00
   1  -1 -18    2.94    1.00
  -1   1  18    1.71    1.02
   0  -1 -18   -0.75    0.71
   1  -2 -18   -0.28    0.78
   0  -2 -18    0.37    0.79
  -2 -14  19    0.52    0.87
  -1 -14  19   -0.54    0.93
  -1 -13  19   -0.85    0.85
   3  12 -19    0.85    0.90
   2  12 -19    0.75    0.86
  -2 -12  19    2.19    1.10
  -1 -12  19   -1.14    0.82
   0 -12  19    1.78    1.13
   3  11 -19   -0.38    0.78
   2  11 -19    2.03    1.14
   2  11 -19    0.42    0.82
  -2 -11  19   -0.38    0.90
   1  11 -19    0.04    0.92
  -1 -11  19   -0.81    0.88
   0 -11  19    1.43    1.09
   3  10 -19    1.57    0.88
   3  10 -19    3.28    1.17
  -3 -10  19    0.92    1.01
   2  10 -19    1.63    1.07
   2  10 -19   -0.06    0.76
  -2 -10  19   -0.14    0.88
   1  10 -19   -0.14    0.67
   1  10 -19    0.26    0.98
  -1 -10  19   -0.49    0.95
   0 -10  19    0.74    1.06
   4   9 -19    0.26    0.94
   3   9 -19    0.35    0.98
   3   9 -19    0.69    0.84
  -3  -9  19   -0.04    0.91
   2   9 -19    1.12    0.89
   2   9 -19   -0.69    0.79
  -2  -9  19    0.46    0.92
   1   9 -19    2.05    0.94
   1   9 -19    1.95    1.07
  -1  -9  19    0.68    0.99
   0   9 -19    0.66    0.99
   0  -9  19    0.58    1.10
   5   8 -19   -0.26    0.92
   4   8 -19    0.98    1.04
  -4  -8  19    0.05    0.90
   3   8 -19    1.29    0.99
   3   8 -19    0.31    0.79
  -3  -8  19    0.46    0.91
   2   8 -19   -0.43    0.65
   2   8 -19   -0.66    0.85
  -2  -8  19    0.01    0.85
   1   8 -19    0.47    0.92
   1   8 -19   -0.47    0.67
  -1  -8  19    0.92    1.09
   0   8 -19    0.92    0.96
   0  -8  19   -1.39    0.78
   5   7 -19    0.39    0.89
   4   7 -19    0.15    0.85
   4   7 -19    0.73    0.93
  -4  -7  19    2.67    0.98
   3   7 -19   -0.60    0.67
   3   7 -19    1.03    0.94
  -3  -7  19    0.13    0.95
   2   7 -19    1.31    0.78
   2   7 -19    0.84    0.89
  -2  -7  19   -0.18    0.86
   1   7 -19    1.31    0.82
   1   7 -19    0.71    0.92
  -1  -7  19    0.88    0.95
   0   7 -19   -0.43    0.90
   0  -7  19    0.23    0.96
  -1   7 -19    1.42    1.08
   5   6 -19    0.21    0.89
   4   6 -19    0.31    0.86
   4   6 -19    1.92    0.97
  -4  -6  19    1.98    1.07
   3   6 -19   -0.08    0.77
   3   6 -19   -0.05    0.86
  -3  -6  19   -0.07    0.87
   2   6 -19   -0.57    0.78
   2   6 -19    0.18    0.69
  -2  -6  19    1.13    1.03
   1   6 -19   -0.02    0.74
   1   6 -19    1.14    0.90
  -1  -6  19    0.40    0.89
   0   6 -19   -0.07    0.89
   0  -6  19   -0.08    0.93
  -1   6 -19    2.00    1.16
  -5  -5  19    0.28    0.95
   4   5 -19    1.85    0.94
  -4  -5  19    4.16    1.25
   3   5 -19    0.13    0.79
   3   5 -19    0.79    0.81
  -3  -5  19    0.58    0.95
   2   5 -19    0.42    0.87
   2   5 -19    0.34    0.84
  -2  -5  19    1.37    1.01
   1   5 -19    0.20    0.80
   1   5 -19    0.39    0.86
  -1  -5  19    1.83    1.11
   0   5 -19    0.71    0.97
   0  -5  19    0.69    0.92
  -1   5 -19    1.27    1.08
  -5  -4  19    0.73    1.02
  -4  -4  19    2.81    1.18
   3   4 -19   -0.62    0.72
  -3  -4  19    0.55    0.98
   2   4 -19    0.22    0.87
   2   4 -19    0.95    0.86
  -2  -4  19    1.01    1.01
   1   4 -19    0.99    0.95
   1   4 -19    1.44    0.83
  -1  -4  19    0.75    1.02
   0   4 -19    0.31    0.95
   0  -4  19    1.45    1.12
  -1   4 -19    1.19    1.12
  -4  -3  19   -0.22    0.94
   3   3 -19    0.41    0.80
  -3  -3  19    1.49    1.09
   2   3 -19    0.86    0.87
  -2  -3  19    1.80    1.09
   1   3 -19    1.00    0.84
  -1  -3  19    0.99    0.99
   0   3 -19   -1.24    0.84
  -1   3 -19    0.15    1.05
   3   2 -19   -0.11    0.73
  -3  -2  19    0.31    0.93
   2   2 -19    0.98    0.86
  -2  -2  19    3.35    1.19
   1   2 -19   -0.14    0.75
  -1  -2  19    0.44    0.97
   0   2 -19    2.06    0.89
   2   1 -19    4.55    1.19
   1   1 -19    0.11    0.78
   0   1 -19    0.38    0.82
   1   0 -19    0.29    0.81
   0   0 -19   -0.26    0.75
  -2 -12  20    0.69    1.06
   2  11 -20   -0.54    0.74
  -2 -11  20   -0.58    1.00
  -3 -10  20    0.29    1.00
   2  10 -20    0.60    0.82
  -2 -10  20    0.37    1.04
  -3  -9  20   -0.15    0.87
   2   9 -20    0.44    0.81
  -2  -9  20    0.89    0.98
  -4  -8  20    0.55    0.96
   3   8 -20    0.30    0.92
  -3  -8  20    0.20    0.96
   2   8 -20    1.00    1.05
   2   8 -20    1.09    0.93
  -2  -8  20    1.02    1.08
   1   8 -20    0.38    0.79
   4   7 -20    0.23    0.96
  -4  -7  20    1.27    1.11
   3   7 -20    1.16    0.96
  -3  -7  20    1.43    1.07
   2   7 -20    1.07    0.86
   2   7 -20    0.50    0.99
  -2  -7  20   -0.40    0.97
   1   7 -20    0.19    0.79
   1   7 -20   -0.84    0.88
   4   6 -20   -0.84    0.91
  -4  -6  20   -0.62    0.90
   3   6 -20    0.07    0.90
  -3  -6  20    1.38    1.11
   2   6 -20    1.40    1.02
   2   6 -20    1.81    0.94
  -2  -6  20   -0.99    0.89
   1   6 -20   -0.14    0.78
   1   6 -20    0.18    0.92
   2   5 -20    0.15    0.80
   2   5 -20   -0.56    0.89
   1   5 -20    0.11    0.96
   1   5 -20    0.86    0.88
   0   5 -20    1.01    1.10
   2   4 -20   -0.07    0.79
   1   4 -20   -0.54    0.76
   0   4 -20    0.86    1.09
   1   3 -20    0.31    0.82
   0   0   0    0.00    0.00
;
_shelx_hkl_checksum              362
loop_
_space_group_symop_operation_xyz
'x, y, z'
'-x, -y, -z'
loop_
_atom_site_label
_atom_site_type_symbol
_atom_site_fract_x
_atom_site_fract_y
_atom_site_fract_z
_atom_site_U_iso_or_equiv
_atom_site_adp_type
_atom_site_occupancy
_atom_site_site_symmetry_order
_atom_site_calc_flag
_atom_site_refinement_flags_posn
_atom_site_refinement_flags_adp
_atom_site_refinement_flags_occupancy
_atom_site_disorder_assembly
_atom_site_disorder_group
Zn1 Zn 0.70280(6) 0.04248(3) 0.21018(3) 0.05442(18) Uani 1 1 d . . . . .
O1 O 0.6552(4) 0.21686(18) 0.2887(2) 0.0771(9) Uani 1 1 d . . . . .
O2 O 0.8699(4) 0.14223(19) 0.23330(19) 0.0711(8) Uani 1 1 d . . . . .
O3 O 1.1905(7) 0.2140(3) 0.2791(3) 0.099(2) Uani 0.7 1 d . . P A 1
H3B H 1.1074 0.1749 0.2580 0.149 Uiso 0.7 1 d R U P A 1
H10H H 0.774(10) 0.371(9) 0.371(9) 0.119 Uiso 0.7 1 d D U P B 1
O3' O 0.7267(16) 0.3741(11) 0.3659(12) 0.069(3) Uani 0.3 1 d . . P C 2
H1 H 0.6747 0.3249 0.3435 0.104 Uiso 0.3 1 d R U P C 2
H12A H 1.17(3) 0.251(9) 0.262(8) 0.083 Uiso 0.3 1 d D U P D 2
O4 O 0.7826(4) -0.06789(17) 0.14618(19) 0.0657(8) Uani 1 1 d . . . . .
O5 O 1.0507(4) -0.03880(19) 0.2384(2) 0.0839(10) Uani 1 1 d . . . . .
O6 O 1.3013(4) -0.14136(19) 0.2071(2) 0.0856(10) Uani 1 1 d . . . . .
H6A H 1.2566 -0.0973 0.2323 0.128 Uiso 1 1 d R U . . .
N1 N 0.6362(5) 0.0344(2) 0.3192(2) 0.0590(9) Uani 1 1 d . U . . .
N2 N 0.4566(4) 0.0318(2) 0.12479(19) 0.0514(8) Uani 1 1 d . . . . .
C1 C 1.2558(7) 0.5963(3) 0.3910(3) 0.0836(15) Uani 1 1 d . . . . .
C2 C 1.3043(8) 0.6828(4) 0.4491(4) 0.115(2) Uani 1 1 d . . . . .
H2A H 1.3628 0.6936 0.5077 0.138 Uiso 1 1 calc R U . . .
C3 C 1.2652(11) 0.7514(4) 0.4192(5) 0.142(3) Uani 1 1 d . . . . .
H3A H 1.2974 0.8081 0.4580 0.170 Uiso 1 1 calc R U . . .
C4 C 1.1796(11) 0.7367(5) 0.3329(6) 0.140(3) Uani 1 1 d . . . . .
H4A H 1.1568 0.7829 0.3126 0.168 Uiso 1 1 calc R U . . .
C5 C 1.1280(9) 0.6526(5) 0.2768(4) 0.121(2) Uani 1 1 d . . . . .
H5A H 1.0682 0.6419 0.2184 0.146 Uiso 1 1 calc R U . . .
C6 C 1.1638(7) 0.5846(4) 0.3060(4) 0.0915(16) Uani 1 1 d . . . . .
H6B H 1.1246 0.5285 0.2672 0.110 Uiso 1 1 calc R U . . .
C8 C 1.1838(7) 0.4426(3) 0.3818(3) 0.0678(13) Uani 1 1 d . . . . .
C9 C 1.0029(7) 0.4468(3) 0.3882(3) 0.0717(13) Uani 1 1 d . . . . .
H9A H 0.9611 0.5000 0.4152 0.086 Uiso 1 1 calc R U . . .
C10 C 0.8848(7) 0.3722(3) 0.3547(3) 0.0623(12) Uani 1 1 d D . . . .
C11 C 0.9427(6) 0.2921(3) 0.3143(2) 0.0537(10) Uani 1 1 d . . . . .
C12 C 1.1234(7) 0.2880(3) 0.3093(3) 0.0677(12) Uani 1 1 d D . . . .
C13 C 1.2436(6) 0.3632(3) 0.3434(3) 0.0787(14) Uani 1 1 d . . . . .
H13A H 1.3652 0.3594 0.3401 0.094 Uiso 1 1 calc R U . . .
C14 C 0.8124(7) 0.2135(3) 0.2776(3) 0.0604(11) Uani 1 1 d . . . . .
C15 C 1.3091(7) 0.5242(3) 0.4202(3) 0.0838(15) Uani 1 1 d . . . . .
C16 C 1.4663(7) 0.5311(3) 0.4796(3) 0.0985(18) Uani 1 1 d . . . . .
H16A H 1.5407 0.5824 0.4966 0.118 Uiso 1 1 calc R U . . .
C18 C 1.5144(8) -0.4938(4) -0.1497(4) 0.1034(18) Uani 1 1 d . . . . .
H18A H 1.5865 -0.5400 -0.1621 0.124 Uiso 1 1 calc R U . . .
C19 C 1.5353(8) -0.4281(5) -0.1810(4) 0.0988(17) Uani 1 1 d . . . . .
H19A H 1.6169 -0.4307 -0.2169 0.119 Uiso 1 1 calc R U . . .
C20 C 1.4360(8) -0.3590(4) -0.1594(3) 0.0912(16) Uani 1 1 d . . . . .
H20A H 1.4533 -0.3130 -0.1788 0.109 Uiso 1 1 calc R U . . .
C21 C 1.3088(7) -0.3562(3) -0.1088(3) 0.0819(14) Uani 1 1 d . . . . .
H21A H 1.2413 -0.3084 -0.0948 0.098 Uiso 1 1 calc R U . . .
C22 C 1.2813(6) -0.4242(3) -0.0786(3) 0.0661(12) Uani 1 1 d . . . . .
C23 C 1.3884(7) -0.4927(3) -0.1001(3) 0.0822(14) Uani 1 1 d . . . . .
H23A H 1.3746 -0.5388 -0.0805 0.099 Uiso 1 1 calc R U . . .
C24 C 1.1427(6) -0.4222(3) -0.0263(3) 0.0651(12) Uani 1 1 d . . . . .
C25 C 1.0643(6) -0.4964(3) -0.0257(3) 0.0735(13) Uani 1 1 d . . . . .
H25A H 1.0966 -0.5481 -0.0622 0.088 Uiso 1 1 calc R U . . .
C26 C 1.0919(6) -0.3359(3) 0.0254(3) 0.0603(11) Uani 1 1 d . . . . .
C27 C 1.2187(6) -0.2767(3) 0.0921(3) 0.0626(11) Uani 1 1 d . . . . .
H27A H 1.3386 -0.2903 0.1044 0.075 Uiso 1 1 calc R U . . .
C28 C 1.1706(6) -0.1964(3) 0.1416(3) 0.0581(11) Uani 1 1 d . . . . .
C29 C 0.9934(6) -0.1736(2) 0.1225(3) 0.0545(10) Uani 1 1 d . . . . .
C30 C 0.8667(6) -0.2342(3) 0.0541(3) 0.0700(13) Uani 1 1 d . . . . .
H30A H 0.7474 -0.2205 0.0400 0.084 Uiso 1 1 calc R U . . .
C31 C 0.9151(7) -0.3138(3) 0.0069(3) 0.0758(14) Uani 1 1 d . . . . .
H31A H 0.8278 -0.3532 -0.0381 0.091 Uiso 1 1 calc R U . . .
C32 C 0.9407(7) -0.0879(3) 0.1733(3) 0.0574(11) Uani 1 1 d . . . . .
C33 C 0.7436(8) 0.0057(4) 0.3735(4) 0.1024(17) Uani 1 1 d . U . . .
H33A H 0.8604 -0.0052 0.3648 0.123 Uiso 1 1 calc R U . . .
C34 C 0.6948(8) -0.0100(4) 0.4444(4) 0.1081(18) Uani 1 1 d . U . . .
H34A H 0.7769 -0.0329 0.4797 0.130 Uiso 1 1 calc R U . . .
C35 C 0.5273(6) 0.0080(3) 0.4627(3) 0.0656(12) Uani 1 1 d . . . . .
C36 C 0.4204(7) 0.0436(3) 0.4087(3) 0.0789(14) Uani 1 1 d . . . . .
H36A H 0.3065 0.0595 0.4184 0.095 Uiso 1 1 calc R U . . .
C37 C 0.4781(7) 0.0562(3) 0.3401(3) 0.0793(14) Uani 1 1 d . . . . .
H37A H 0.4013 0.0819 0.3057 0.095 Uiso 1 1 calc R U . . .
C38 C 0.3486(6) 0.0965(3) 0.1297(3) 0.0702(13) Uani 1 1 d . . . . .
H38A H 0.3965 0.1518 0.1679 0.084 Uiso 1 1 calc R U . . .
C39 C 0.1737(6) 0.0870(3) 0.0829(3) 0.0690(13) Uani 1 1 d . . . . .
H39A H 0.1063 0.1350 0.0899 0.083 Uiso 1 1 calc R U . . .
C40 C 0.0962(5) 0.0069(2) 0.0252(2) 0.0461(9) Uani 1 1 d . . . . .
C41 C 0.2070(6) -0.0596(3) 0.0168(3) 0.0646(12) Uani 1 1 d . . . . .
H41A H 0.1628 -0.1149 -0.0229 0.077 Uiso 1 1 calc R U . . .
C42 C 0.3825(6) -0.0455(3) 0.0665(3) 0.0648(12) Uani 1 1 d . . . . .
H42A H 0.4536 -0.0922 0.0593 0.078 Uiso 1 1 calc R U . . .
O101 O 0.0961(10) 0.1568(5) 0.5031(5) 0.248(4) Uani 1 1 d . . . . .
N101 N 0.2382(11) 0.2794(6) 0.6099(6) 0.182(3) Uani 1 1 d . . . . .
C101 C 0.1465(16) 0.2368(8) 0.5280(8) 0.186(4) Uani 1 1 d . U . . .
H10A H 0.1187 0.2662 0.4882 0.223 Uiso 1 1 calc R U . . .
C102 C 0.2772(14) 0.3726(7) 0.6348(8) 0.269(7) Uani 1 1 d . . . . .
H10B H 0.2211 0.3908 0.5866 0.403 Uiso 1 1 calc R U . . .
H10C H 0.4067 0.3866 0.6486 0.403 Uiso 1 1 calc R U . . .
H10D H 0.2296 0.4019 0.6856 0.403 Uiso 1 1 calc R U . . .
C103 C 0.2980(17) 0.2383(8) 0.6743(8) 0.279(7) Uani 1 1 d . . . . .
H10E H 0.2170 0.1877 0.6614 0.419 Uiso 1 1 calc R U . . .
H10F H 0.2978 0.2781 0.7322 0.419 Uiso 1 1 calc R U . . .
H10G H 0.4192 0.2216 0.6722 0.419 Uiso 1 1 calc R U . . .
loop_
_atom_site_aniso_label
_atom_site_aniso_U_11
_atom_site_aniso_U_22
_atom_site_aniso_U_33
_atom_site_aniso_U_23
_atom_site_aniso_U_13
_atom_site_aniso_U_12
Zn1 0.0548(3) 0.0482(3) 0.0548(3) 0.0119(2) 0.0108(2) -0.0042(2)
O1 0.066(2) 0.066(2) 0.086(2) 0.0150(17) 0.0082(18) -0.0233(17)
O2 0.072(2) 0.0516(19) 0.076(2) 0.0082(16) 0.0108(17) -0.0132(16)
O3 0.060(3) 0.078(4) 0.129(5) -0.003(3) 0.021(3) 0.006(3)
O3' 0.053(7) 0.054(6) 0.084(8) -0.002(5) 0.022(7) -0.003(6)
O4 0.061(2) 0.0505(18) 0.079(2) 0.0119(15) 0.0175(17) 0.0062(15)
O5 0.077(2) 0.066(2) 0.080(2) -0.0046(18) 0.0066(19) 0.0005(18)
O6 0.070(2) 0.066(2) 0.091(2) 0.0024(18) -0.0032(18) -0.0056(17)
N1 0.059(2) 0.060(2) 0.055(2) 0.0196(18) 0.0076(18) 0.0008(18)
N2 0.056(2) 0.044(2) 0.0467(19) 0.0081(16) 0.0085(16) -0.0046(18)
C1 0.088(4) 0.080(4) 0.074(3) 0.025(3) 0.004(3) -0.038(3)
C2 0.150(6) 0.083(4) 0.099(4) 0.030(4) 0.005(4) -0.043(4)
C3 0.196(8) 0.081(5) 0.125(6) 0.033(4) -0.004(5) -0.050(5)
C4 0.177(7) 0.111(6) 0.144(7) 0.067(5) 0.025(6) -0.031(5)
C5 0.149(6) 0.121(6) 0.097(5) 0.048(5) 0.019(4) -0.015(5)
C6 0.107(4) 0.085(4) 0.080(4) 0.029(3) 0.017(3) -0.024(3)
C8 0.070(3) 0.066(3) 0.054(3) 0.013(2) 0.001(2) -0.031(3)
C9 0.082(4) 0.053(3) 0.066(3) 0.003(2) 0.016(3) -0.013(3)
C10 0.056(3) 0.063(3) 0.060(3) 0.011(2) 0.015(2) -0.010(3)
C11 0.049(3) 0.054(3) 0.048(2) 0.010(2) 0.005(2) -0.009(2)
C12 0.063(3) 0.059(3) 0.067(3) 0.008(2) 0.010(3) -0.003(3)
C13 0.052(3) 0.086(4) 0.083(3) 0.016(3) 0.007(3) -0.019(3)
C14 0.061(3) 0.062(3) 0.052(3) 0.019(2) 0.001(2) -0.015(3)
C15 0.082(4) 0.081(4) 0.072(3) 0.022(3) -0.006(3) -0.045(3)
C16 0.097(4) 0.083(4) 0.096(4) 0.031(3) -0.014(3) -0.053(3)
C18 0.115(5) 0.098(4) 0.103(4) 0.028(4) 0.046(4) 0.022(4)
C19 0.094(5) 0.121(5) 0.084(4) 0.031(4) 0.033(3) 0.002(4)
C20 0.102(4) 0.101(4) 0.082(4) 0.047(3) 0.022(3) 0.002(4)
C21 0.091(4) 0.078(4) 0.080(3) 0.032(3) 0.016(3) 0.011(3)
C22 0.077(3) 0.057(3) 0.058(3) 0.017(2) 0.009(2) 0.001(3)
C23 0.098(4) 0.067(3) 0.088(4) 0.027(3) 0.034(3) 0.014(3)
C24 0.075(3) 0.048(3) 0.066(3) 0.013(2) 0.011(2) 0.004(2)
C25 0.090(4) 0.048(3) 0.078(3) 0.011(2) 0.028(3) 0.007(3)
C26 0.063(3) 0.047(3) 0.068(3) 0.018(2) 0.014(2) 0.003(2)
C27 0.055(3) 0.055(3) 0.072(3) 0.018(2) 0.008(2) 0.003(2)
C28 0.058(3) 0.045(3) 0.064(3) 0.012(2) 0.009(2) -0.006(2)
C29 0.055(3) 0.046(3) 0.063(3) 0.018(2) 0.014(2) 0.000(2)
C30 0.059(3) 0.051(3) 0.087(3) 0.018(3) 0.000(3) -0.002(2)
C31 0.071(4) 0.045(3) 0.089(3) 0.007(3) -0.004(3) -0.007(2)
C32 0.061(3) 0.048(3) 0.062(3) 0.014(2) 0.020(2) -0.004(2)
C33 0.090(3) 0.145(4) 0.102(3) 0.070(3) 0.036(3) 0.034(3)
C34 0.100(4) 0.151(4) 0.105(3) 0.076(3) 0.035(3) 0.031(3)
C35 0.064(3) 0.073(3) 0.068(3) 0.031(3) 0.024(3) 0.010(2)
C36 0.069(3) 0.114(4) 0.066(3) 0.042(3) 0.022(3) 0.019(3)
C37 0.084(4) 0.099(4) 0.064(3) 0.039(3) 0.019(3) 0.023(3)
C38 0.061(3) 0.044(3) 0.078(3) -0.003(2) -0.003(3) -0.009(2)
C39 0.061(3) 0.045(3) 0.079(3) 0.004(2) -0.002(3) 0.000(2)
C40 0.051(2) 0.046(2) 0.038(2) 0.0095(19) 0.0108(18) -0.003(2)
C41 0.058(3) 0.044(3) 0.068(3) 0.001(2) -0.004(2) -0.009(2)
C42 0.067(3) 0.047(3) 0.069(3) 0.008(2) 0.013(3) 0.002(2)
O101 0.191(7) 0.198(7) 0.266(8) -0.005(6) 0.002(6) 0.056(6)
N101 0.166(7) 0.172(8) 0.179(8) 0.025(7) 0.035(6) 0.038(6)
C101 0.182(8) 0.209(8) 0.159(7) 0.053(7) 0.039(6) 0.042(7)
C102 0.212(11) 0.180(10) 0.406(19) 0.045(11) 0.143(12) 0.021(9)
C103 0.292(15) 0.322(16) 0.256(13) 0.168(13) 0.013(11) 0.099(12)
loop_
_atom_type_symbol
_atom_type_description
_atom_type_scat_dispersion_real
_atom_type_scat_dispersion_imag
_atom_type_scat_source
C C 0.0033 0.0016 'International Tables Vol C Tables 4.2.6.8 and 6.1.1.4'
H H 0.0000 0.0000 'International Tables Vol C Tables 4.2.6.8 and 6.1.1.4'
N N 0.0061 0.0033 'International Tables Vol C Tables 4.2.6.8 and 6.1.1.4'
O O 0.0106 0.0060 'International Tables Vol C Tables 4.2.6.8 and 6.1.1.4'
Zn Zn 0.2839 1.4301 'International Tables Vol C Tables 4.2.6.8 and 6.1.1.4'
loop_
_geom_angle_atom_site_label_1
_geom_angle_atom_site_label_2
_geom_angle_atom_site_label_3
_geom_angle
_geom_angle_site_symmetry_1
_geom_angle_site_symmetry_3
O2 Zn1 O4 114.51(13) . .
O2 Zn1 N1 113.47(13) . .
O4 Zn1 N1 108.89(13) . .
O2 Zn1 N2 117.13(13) . .
O4 Zn1 N2 97.24(13) . .
N1 Zn1 N2 103.98(13) . .
C14 O2 Zn1 112.0(3) . .
C12 O3 H3B 109.4 . .
C10 O3' H1 109.3 . .
C32 O4 Zn1 120.0(3) . .
C28 O6 H6A 109.5 . .
C33 N1 C37 115.0(4) . .
C33 N1 Zn1 122.1(3) . .
C37 N1 Zn1 122.9(3) . .
C42 N2 C38 115.0(4) . .
C42 N2 Zn1 120.5(3) . .
C38 N2 Zn1 124.0(3) . .
C6 C1 C2 117.1(5) . .
C6 C1 C15 122.5(5) . .
C2 C1 C15 120.4(5) . .
C3 C2 C1 120.3(6) . .
C3 C2 H2A 119.9 . .
C1 C2 H2A 119.9 . .
C4 C3 C2 120.8(6) . .
C4 C3 H3A 119.6 . .
C2 C3 H3A 119.6 . .
C3 C4 C5 119.0(6) . .
C3 C4 H4A 120.5 . .
C5 C4 H4A 120.5 . .
C6 C5 C4 120.6(6) . .
C6 C5 H5A 119.7 . .
C4 C5 H5A 119.7 . .
C5 C6 C1 122.2(5) . .
C5 C6 H6B 118.9 . .
C1 C6 H6B 118.9 . .
C13 C8 C9 119.0(4) . .
C13 C8 C15 122.0(5) . .
C9 C8 C15 119.0(5) . .
C10 C9 C8 120.2(4) . .
C10 C9 H9A 119.9 . .
C8 C9 H9A 119.9 . .
O3' C10 C9 120.7(8) . .
O3' C10 C11 117.8(8) . .
C9 C10 C11 121.3(4) . .
C9 C10 H10H 121(9) . .
C11 C10 H10H 116(9) . .
C12 C11 C10 118.3(4) . .
C12 C11 C14 121.6(4) . .
C10 C11 C14 120.1(4) . .
O3 C12 C11 121.4(4) . .
O3 C12 C13 117.7(5) . .
C11 C12 C13 120.7(5) . .
C11 C12 H12A 125(10) . .
C13 C12 H12A 106(10) . .
C8 C13 C12 120.5(4) . .
C8 C13 H13A 119.7 . .
C12 C13 H13A 119.7 . .
O1 C14 O2 121.9(4) . .
O1 C14 C11 120.9(4) . .
O2 C14 C11 117.2(4) . .
C16 C15 C1 120.8(4) . .
C16 C15 C8 121.6(5) . .
C1 C15 C8 117.6(4) . .
C15 C16 C16 128.1(6) . 2_866
C15 C16 H16A 116.0 . .
C16 C16 H16A 116.0 2_866 .
C19 C18 C23 120.8(5) . .
C19 C18 H18A 119.6 . .
C23 C18 H18A 119.6 . .
C20 C19 C18 119.4(5) . .
C20 C19 H19A 120.3 . .
C18 C19 H19A 120.3 . .
C19 C20 C21 120.8(5) . .
C19 C20 H20A 119.6 . .
C21 C20 H20A 119.6 . .
C20 C21 C22 120.6(5) . .
C20 C21 H21A 119.7 . .
C22 C21 H21A 119.7 . .
C23 C22 C21 117.0(5) . .
C23 C22 C24 122.3(4) . .
C21 C22 C24 120.6(4) . .
C18 C23 C22 121.4(5) . .
C18 C23 H23A 119.3 . .
C22 C23 H23A 119.3 . .
C25 C24 C22 120.8(4) . .
C25 C24 C26 121.0(4) . .
C22 C24 C26 118.1(4) . .
C24 C25 C25 126.5(5) . 2_745
C24 C25 H25A 116.7 . .
C25 C25 H25A 116.7 2_745 .
C27 C26 C31 118.6(4) . .
C27 C26 C24 121.0(4) . .
C31 C26 C24 120.4(4) . .
C26 C27 C28 121.1(4) . .
C26 C27 H27A 119.5 . .
C28 C27 H27A 119.5 . .
O6 C28 C29 121.3(4) . .
O6 C28 C27 118.2(4) . .
C29 C28 C27 120.4(4) . .
C28 C29 C30 117.7(4) . .
C28 C29 C32 121.2(4) . .
C30 C29 C32 121.1(4) . .
C31 C30 C29 121.2(4) . .
C31 C30 H30A 119.4 . .
C29 C30 H30A 119.4 . .
C30 C31 C26 120.9(4) . .
C30 C31 H31A 119.6 . .
C26 C31 H31A 119.6 . .
O5 C32 O4 122.7(4) . .
O5 C32 C29 119.7(4) . .
O4 C32 C29 117.6(4) . .
N1 C33 C34 123.9(5) . .
N1 C33 H33A 118.1 . .
C34 C33 H33A 118.1 . .
C35 C34 C33 120.7(5) . .
C35 C34 H34A 119.6 . .
C33 C34 H34A 119.6 . .
C36 C35 C34 114.8(4) . .
C36 C35 C35 123.5(5) . 2_656
C34 C35 C35 121.7(6) . 2_656
C35 C36 C37 120.8(5) . .
C35 C36 H36A 119.6 . .
C37 C36 H36A 119.6 . .
N1 C37 C36 124.6(4) . .
N1 C37 H37A 117.7 . .
C36 C37 H37A 117.7 . .
N2 C38 C39 124.5(4) . .
N2 C38 H38A 117.7 . .
C39 C38 H38A 117.7 . .
C38 C39 C40 120.2(4) . .
C38 C39 H39A 119.9 . .
C40 C39 H39A 119.9 . .
C41 C40 C39 116.1(4) . .
C41 C40 C40 121.9(4) . 2
C39 C40 C40 122.0(4) . 2
C40 C41 C42 120.6(4) . .
C40 C41 H41A 119.7 . .
C42 C41 H41A 119.7 . .
N2 C42 C41 123.5(4) . .
N2 C42 H42A 118.3 . .
C41 C42 H42A 118.3 . .
C101 N101 C103 123.4(11) . .
C101 N101 C102 117.2(11) . .
C103 N101 C102 119.3(10) . .
O101 C101 N101 121.1(12) . .
O101 C101 H10A 119.5 . .
N101 C101 H10A 119.5 . .
N101 C102 H10B 109.5 . .
N101 C102 H10C 109.5 . .
H10B C102 H10C 109.5 . .
N101 C102 H10D 109.5 . .
H10B C102 H10D 109.5 . .
H10C C102 H10D 109.5 . .
N101 C103 H10E 109.5 . .
N101 C103 H10F 109.5 . .
H10E C103 H10F 109.5 . .
N101 C103 H10G 109.5 . .
H10E C103 H10G 109.5 . .
H10F C103 H10G 109.5 . .
loop_
_geom_bond_atom_site_label_1
_geom_bond_atom_site_label_2
_geom_bond_distance
_geom_bond_site_symmetry_2
Zn1 O2 1.932(3) .
Zn1 O4 1.941(3) .
Zn1 N1 2.008(3) .
Zn1 N2 2.047(3) .
O1 C14 1.234(5) .
O2 C14 1.290(5) .
O3 C12 1.303(5) .
O3 H3B 0.8200 .
O3' C10 1.241(9) .
O3' H1 0.8199 .
O4 C32 1.270(5) .
O5 C32 1.233(5) .
O6 C28 1.353(5) .
O6 H6A 0.8200 .
N1 C33 1.292(5) .
N1 C37 1.327(5) .
N2 C42 1.336(5) .
N2 C38 1.337(5) .
C1 C6 1.375(6) .
C1 C2 1.413(6) .
C1 C15 1.452(6) .
C2 C3 1.385(8) .
C2 H2A 0.9300 .
C3 C4 1.372(8) .
C3 H3A 0.9300 .
C4 C5 1.377(8) .
C4 H4A 0.9300 .
C5 C6 1.364(7) .
C5 H5A 0.9300 .
C6 H6B 0.9300 .
C8 C13 1.373(6) .
C8 C9 1.389(6) .
C8 C15 1.494(6) .
C9 C10 1.382(6) .
C9 H9A 0.9300 .
C10 C11 1.382(6) .
C10 H10H 0.930(10) .
C11 C12 1.381(6) .
C11 C14 1.479(5) .
C12 C13 1.397(6) .
C12 H12A 0.929(10) .
C13 H13A 0.9300 .
C15 C16 1.346(6) .
C16 C16 1.443(9) 2_866
C16 H16A 0.9300 .
C18 C19 1.362(7) .
C18 C23 1.372(7) .
C18 H18A 0.9300 .
C19 C20 1.355(7) .
C19 H19A 0.9300 .
C20 C21 1.387(7) .
C20 H20A 0.9300 .
C21 C22 1.394(6) .
C21 H21A 0.9300 .
C22 C23 1.383(6) .
C22 C24 1.479(6) .
C23 H23A 0.9300 .
C24 C25 1.350(5) .
C24 C26 1.490(5) .
C25 C25 1.441(8) 2_745
C25 H25A 0.9300 .
C26 C27 1.374(5) .
C26 C31 1.384(6) .
C27 C28 1.396(5) .
C27 H27A 0.9300 .
C28 C29 1.391(5) .
C29 C30 1.395(5) .
C29 C32 1.484(5) .
C30 C31 1.377(5) .
C30 H30A 0.9300 .
C31 H31A 0.9300 .
C33 C34 1.393(7) .
C33 H33A 0.9300 .
C34 C35 1.370(6) .
C34 H34A 0.9300 .
C35 C36 1.358(6) .
C35 C35 1.475(8) 2_656
C36 C37 1.366(6) .
C36 H36A 0.9300 .
C37 H37A 0.9300 .
C38 C39 1.358(5) .
C38 H38A 0.9300 .
C39 C40 1.373(5) .
C39 H39A 0.9300 .
C40 C41 1.371(5) .
C40 C40 1.485(7) 2
C41 C42 1.373(5) .
C41 H41A 0.9300 .
C42 H42A 0.9300 .
O101 C101 1.264(11) .
N101 C101 1.325(11) .
N101 C103 1.439(10) .
N101 C102 1.452(10) .
C101 H10A 0.9300 .
C102 H10B 0.9600 .
C102 H10C 0.9600 .
C102 H10D 0.9600 .
C103 H10E 0.9600 .
C103 H10F 0.9600 .
C103 H10G 0.9600 .
