#------------------------------------------------------------------------------
#$Date: 2018-01-01 00:13:23 +0200 (Mon, 01 Jan 2018) $
#$Revision: 204628 $
#$URL: file:///home/coder/svn-repositories/cod/cif/4/51/43/4514331.cif $
#------------------------------------------------------------------------------
#
# This file is available in the Crystallography Open Database (COD),
# http://www.crystallography.net/
#
# All data on this site have been placed in the public domain by the
# contributors.
#
data_4514331
loop_
_publ_author_name
'Angeli, Giasemi K.'
'Sartsidou, Christina'
'Vlachaki, Styliani'
'Spanopoulos, Ioannis'
'Tsangarakis, Constantinos'
'Kourtellaris, Andreas'
'Klontzas, Emmanuel'
'Froudakis, George E.'
'Tasiopoulos, Anastasios'
'Trikalitis, Pantelis N.'
_publ_section_title
;
 Reticular Chemistry and the Discovery of a New Family of Rare Earth (4,
 8)-Connected Metal-Organic Frameworks with csq Topology Based on
 RE4(\m3-O)2(COO)8 Clusters.
;
_journal_issue                   51
_journal_name_full               'ACS applied materials &amp; interfaces'
_journal_page_first              44560
_journal_page_last               44566
_journal_paper_doi               10.1021/acsami.7b16380
_journal_volume                  9
_journal_year                    2017
_chemical_formula_moiety         'C39 H29 N O12 Y2'
_chemical_formula_sum            'C39 H29 N O12 Y2'
_chemical_formula_weight         881.45
_space_group_crystal_system      hexagonal
_space_group_IT_number           191
_space_group_name_Hall           '-P 6 2'
_space_group_name_H-M_alt        'P 6/m m m'
_symmetry_space_group_name_Hall  '-P 6 2'
_symmetry_space_group_name_H-M   'P 6/m m m'
_atom_sites_solution_hydrogens   geom
_audit_creation_method           SHELXL-2014/7
_cell_angle_alpha                90
_cell_angle_beta                 90
_cell_angle_gamma                120
_cell_formula_units_Z            6
_cell_length_a                   26.4725(14)
_cell_length_b                   26.4725(14)
_cell_length_c                   16.6116(7)
_cell_measurement_reflns_used    4371
_cell_measurement_temperature    100(2)
_cell_measurement_theta_max      67.9560
_cell_measurement_theta_min      4.2280
_cell_volume                     10081.7(9)
_computing_structure_refinement  'SHELXL-2014/7 (Sheldrick, 2014)'
_diffrn_ambient_temperature      100(2)
_diffrn_detector_area_resol_mean 10.4223
_diffrn_measured_fraction_theta_full 0.995
_diffrn_measured_fraction_theta_max 0.995
_diffrn_measurement_device_type  'SuperNova, Dual, Cu at zero, Atlas'
_diffrn_radiation_type           CuK\a
_diffrn_radiation_wavelength     1.54184
_diffrn_reflns_av_R_equivalents  0.0497
_diffrn_reflns_av_unetI/netI     0.0237
_diffrn_reflns_Laue_measured_fraction_full 0.995
_diffrn_reflns_Laue_measured_fraction_max 0.995
_diffrn_reflns_limit_h_max       31
_diffrn_reflns_limit_h_min       -23
_diffrn_reflns_limit_k_max       31
_diffrn_reflns_limit_k_min       -29
_diffrn_reflns_limit_l_max       15
_diffrn_reflns_limit_l_min       -19
_diffrn_reflns_number            24034
_diffrn_reflns_point_group_measured_fraction_full 0.995
_diffrn_reflns_point_group_measured_fraction_max 0.995
_diffrn_reflns_theta_full        67.203
_diffrn_reflns_theta_max         67.203
_diffrn_reflns_theta_min         3.339
_diffrn_source                   'sealed X-ray tube'
_exptl_absorpt_coefficient_mu    2.615
_exptl_absorpt_correction_T_max  1.00000
_exptl_absorpt_correction_T_min  0.39262
_exptl_absorpt_correction_type   multi-scan
_exptl_absorpt_process_details
;
CrysAlisPro, Agilent Technologies,
Version 1.171.37.35h (release 09-02-2015 CrysAlis171 .NET)
(compiled Feb  9 2015,16:26:32)
Empirical absorption correction using spherical harmonics,
 implemented in SCALE3 ABSPACK scaling algorithm.
;
_exptl_crystal_colour            colourless
_exptl_crystal_density_diffrn    0.871
_exptl_crystal_description       polyhedra
_exptl_crystal_F_000             2664
_exptl_crystal_size_max          0.09
_exptl_crystal_size_mid          0.07
_exptl_crystal_size_min          0.06
_refine_diff_density_max         0.955
_refine_diff_density_min         -0.995
_refine_diff_density_rms         0.113
_refine_ls_extinction_method     none
_refine_ls_goodness_of_fit_ref   1.514
_refine_ls_hydrogen_treatment    constr
_refine_ls_matrix_type           full
_refine_ls_number_parameters     145
_refine_ls_number_reflns         3465
_refine_ls_number_restraints     44
_refine_ls_restrained_S_all      1.554
_refine_ls_R_factor_all          0.1590
_refine_ls_R_factor_gt           0.1371
_refine_ls_shift/su_max          0.001
_refine_ls_shift/su_mean         0.000
_refine_ls_structure_factor_coef Fsqd
_refine_ls_weighting_details
'w=1/[\s^2^(Fo^2^)+(0.2000P)^2^] where P=(Fo^2^+2Fc^2^)/3'
_refine_ls_weighting_scheme      calc
_refine_ls_wR_factor_gt          0.3982
_refine_ls_wR_factor_ref         0.4225
_reflns_Friedel_coverage         0.000
_reflns_number_gt                2230
_reflns_number_total             3465
_reflns_threshold_expression     'I > 2\s(I)'
_cod_data_source_file            am7b16380_si_002.cif
_cod_data_source_block           cs2_409_sq
_cod_original_cell_volume        10081.7(11)
_cod_database_code               4514331
_shelx_shelxl_version_number     2014/7
_shelx_space_group_comment
;
The symmetry employed for this shelxl refinement is uniquely defined
by the following loop, which should always be used as a source of
symmetry information in preference to the above space-group names.
They are only intended as comments.
;
_shelx_res_file
;

    cs2_409_sq.res created by SHELXL-2014/7

TITL shelxt_a.res in P6/mmm
CELL  1.54184  26.4725  26.4725  16.6116   90.000   90.000  120.000
ZERR  6         0.0014   0.0014   0.0007    0.000    0.000    0.000
LATT   1
SYMM  - Y,   X - Y,   Z
SYMM  - X + Y, - X,   Z
SYMM  - X, - Y,   Z
SYMM    Y, - X + Y,   Z
SYMM    X - Y,   X,   Z
SYMM    Y,   X, - Z
SYMM    X - Y, - Y, - Z
SYMM  - X, - X + Y, - Z
SYMM  - Y, - X, - Z
SYMM  - X + Y,   Y, - Z
SYMM    X,   X - Y, - Z
SFAC  C    H    N    O    Y
UNIT  234 174   6   72   12
OMIT    -3   9   1
OMIT     0   4   4
OMIT    -6  12   1
OMIT    -5  12   0
OMIT     0   1   2
OMIT    -4   8   1
OMIT     0  12   0
OMIT     0   4  14
OMIT     0  11  16
ISOR 0.01 O4
ISOR 0.01 O3
ISOR 0.015 O2
MERG   2
FMAP   2
PLAN   20
ACTA
MORE -3
BOND   $H
L.S. 20
ABIN
WGHT    0.200000
FVAR       1.72377
Y1    5    0.541208    0.458792    0.000000    10.25000    0.15338    0.15338 =
         0.12618    0.00000    0.00000    0.11989
Y2    5    0.635089    0.635089    0.000000    10.25000    0.12665    0.12665 =
         0.11725    0.00000    0.00000    0.06424
C1    1    0.710486    0.525826    0.500000    10.50000    0.09722    0.20747 =
         0.09525    0.00000    0.00000    0.07381
C2    1    0.736591    0.527974    0.427680    11.00000    0.10957    0.19812 =
         0.07292   -0.00721   -0.00738    0.08665
C3    1    0.653773    0.526529    0.500000    10.50000    0.13310    0.32466 =
         0.10581    0.00000    0.00000    0.14003
AFIX  33
H3A   2    0.640818    0.524830    0.554426    10.50000   -1.50000
H3B   2    0.659621    0.561753    0.474996    10.50000   -1.50000
H3C   2    0.624839    0.493451    0.470578    10.50000   -1.50000
AFIX   0
C4    1    0.712116    0.531658    0.351853    11.00000    0.12325    0.18319 =
         0.08160   -0.00852   -0.01505    0.08410
C5    1    0.678796    0.484534    0.303183    11.00000    0.15096    0.22465 =
         0.15684   -0.04877   -0.05456    0.09076
AFIX  43
H5    2    0.672749    0.448090    0.318282    11.00000   -1.20000
AFIX   0
C6    1    0.654559    0.489285    0.234298    11.00000    0.15760    0.25360 =
         0.17492   -0.04621   -0.07085    0.08291
AFIX  43
H6    2    0.628510    0.455823    0.206350    11.00000   -1.20000
AFIX   0
C7    1    0.667496    0.541072    0.206148    11.00000    0.15982    0.29296 =
         0.08916   -0.03866   -0.05640    0.11738
C8    1    0.702419    0.591507    0.245963    11.00000    0.26415    0.20157 =
         0.15559    0.02548   -0.09560    0.08883
AFIX  43
H8    2    0.710381    0.627837    0.227095    11.00000   -1.20000
AFIX   0
C9    1    0.726230    0.583789    0.320491    11.00000    0.24063    0.22735 =
         0.14245   -0.02568   -0.10441    0.09519
AFIX  43
H9    2    0.752935    0.617019    0.348284    11.00000   -1.20000
AFIX   0
C10   1    0.645682    0.553497    0.127466    11.00000    0.22521    0.38382 =
         0.08820   -0.05493   -0.09251    0.17119
O1    4    0.611319    0.500452    0.089406    11.00000    0.27489    0.29662 =
         0.15696   -0.02076   -0.08986    0.17752
O2    4    0.654946    0.584027    0.091406    11.00000    0.31353    0.30556 =
         0.22920    0.12484   -0.06143    0.16751
O3    4    0.549071    0.549071    0.000000    10.25000    0.08765    0.08765 =
         0.08370    0.00000    0.00000    0.04257
O4    4    0.591468    0.408532    0.000000    10.25000    0.33707    0.33707 =
         0.41866    0.00000    0.00000    0.31355
ISOR 0.01 O5
O5    4    0.700813    0.735414    0.000000    10.25000    0.24815    0.22839 =
         0.25213    0.00000    0.00000    0.11275
DFIX 1.45 0.01 N1 C12
DFIX 1.35 0.01 N1 C11
ISOR 0.01 O6 C11 C12
EQIV $1 -x+1, -y+1, z
FREE C11 O6_$1
N1    3    0.500000    0.500000    0.272435    10.25000    0.16224    0.16224 =
         0.09100    0.00000    0.00000    0.10445
O6    4    0.522623    0.477377    0.154866    10.25000    0.19856    0.19856 =
         0.18052   -0.01194    0.01194    0.10931
C11   1    0.500000    0.500000    0.192226    10.25000    0.18594    0.18594 =
         0.17366    0.00000    0.00000    0.09646
AFIX  43
H11   2    0.482356    0.517644    0.164611    10.25000   -1.20000
AFIX   0
C12   1    0.546785    0.546785    0.317978    10.50000    0.34519    0.34519 =
         0.36089   -0.00352   -0.00352    0.18717
AFIX  33
H12A  2    0.539278    0.539278    0.374517    10.50000   -1.50000
H12B  2    0.583107    0.548917    0.304771    10.50000   -1.50000
H12C  2    0.548917    0.583107    0.304771    10.50000   -1.50000

AFIX   0
HKLF    4

REM  shelxt_a.res in P6/mmm
REM R1 =  0.1371 for    2230 Fo > 4sig(Fo)  and  0.1590 for all    3465 data
REM    145 parameters refined using     44 restraints

END

WGHT      0.2000      0.0000

REM Highest difference peak  0.955,  deepest hole -0.995,  1-sigma level  0.113
Q1    1   0.6703  0.6703  0.0000  10.25000  0.05    0.96
Q2    1   0.7162  0.7162  0.0701  10.50000  0.05    0.90
Q3    1   0.5152  0.4848  0.0000  10.25000  0.05    0.81
Q4    1   0.5204  0.5454  0.0000  10.50000  0.05    0.77
Q5    1   0.5563  0.4437  0.0000  10.25000  0.05    0.76
Q6    1   0.5826  0.6082  0.0000  10.50000  0.05    0.66
Q7    1   0.5272  0.4728  0.3194  10.50000  0.05    0.66
Q8    1   0.6311  0.4512  0.0000  10.50000  0.05    0.62
Q9    1   0.6579  0.6209  0.0590  11.00000  0.05    0.58
Q10   1   0.5474  0.5064  0.1409  11.00000  0.05    0.55
Q11   1   0.6758  0.7409  0.0000  10.50000  0.05    0.55
Q12   1   0.6298  0.5478  0.0615  11.00000  0.05    0.55
Q13   1   0.5185  0.4120  0.0000  10.50000  0.05    0.47
Q14   1   0.5000  0.5000  0.3503  10.25000  0.05    0.46
Q15   1   0.5000  0.5000  0.1047  10.25000  0.05    0.41
Q16   1   0.5894  0.5894  0.1419  10.50000  0.05    0.39
Q17   1   0.6114  0.3886  0.0356  10.50000  0.05    0.39
Q18   1   0.5011  0.4344  0.0318  11.00000  0.05    0.36
Q19   1   0.6407  0.7206 -0.0531  11.00000  0.05    0.34
Q20   1   0.5937  0.5464  0.0929  11.00000  0.05    0.32
;
_shelx_res_checksum              40163
_shelx_hkl_file
;
   0   0  -2 982546. 6536.58   3
   0   0  -2 999999. 6514.88   1
   0   0  -3 756059. 5458.89   3
   0   0  -3 771907. 5427.61   1
   0   0  -4 878624. 6515.38   1
   0   0  -4 894678. 6489.27   3
   0   0  -5 3091.68 284.270   3
   0   0  -5 2872.71 275.213   1
   0   0  -6 296235. 3345.64   1
   0   0  -6 299079. 3286.39   3
   0   0  -7 43928.5 1202.72   1
   0   0  -7 45405.9 1208.86   3
   0   0  -8 189237. 2861.11   1
   0   0  -9 340123. 4326.84   1
   0   0 -10 137937. 2738.25   1
   0   0 -11 15764.5 963.104   1
   0   0 -12 40414.5 1620.51   1
   0   0 -13 3318.93 227.301   7
   0   0 -14 35864.3 647.784   7
   0   0 -15 2508.48 206.153   7
   0   0 -16 2261.01 225.699   7
   0   0 -17 1513.05 158.246   7
   0   0 -18 303.416 119.804   7
   0   0 -19 165.364 105.827   7
  -1   1  -2 12420.7 304.051   1
   0   1  -2 12782.1 328.592   3
  -1   0  -2 12595.4 380.939   3
   1   0  -2 12207.6 341.197   1
   0  -1  -2 12578.1 368.235   3
  -1   1  -2 13038.3 371.842   3
   1  -1  -2 12726.0 375.656   1
   0   1  -2 12797.3 318.003   1
   0   1  -3 31734.3 651.724   3
   0  -1  -3 30650.2 693.302   3
   1  -1  -3 30707.6 698.607   1
  -1   1  -3 33353.3 738.917   3
   1  -1  -3 29587.8 642.577   3
  -1   1  -3 31763.1 628.933   1
   0   1  -3 30858.2 625.138   1
  -1   0  -3 33544.1 777.103   3
   1   0  -3 30101.1 658.255   1
  -1   0  -4 16295.4 576.767   3
  -1   1  -4 16739.9 578.339   3
   1   0  -4 15891.1 546.616   1
   0  -1  -4 16557.5 568.442   3
   1  -1  -4 16487.6 346.665   4
   1  -1  -4 16600.4 541.622   3
   0   1  -4 15946.1 517.857   1
   0   1  -4 17097.2 553.484   3
   1  -1  -4 16198.7 575.926   1
  -1   1  -4 15596.0 510.995   1
   1   0  -5 179.826 129.803   1
   1  -1  -5 152.910 69.9573   4
  -1   1  -5 76.6183 144.091   3
   1  -1  -5 110.582 125.563   1
   0  -1  -5 165.882 136.055   1
   0  -1  -5 168.478 57.6928   4
  -1   0  -5 133.102 135.791   1
   0   1  -5 124.257 125.858   1
  -1   1  -5 191.853 129.782   1
   0   1  -5 58.8600 130.015   3
   1  -1  -5 116.651 134.336   3
   0  -1  -5 169.857 147.944   3
  -1   0  -5 131.183 148.627   3
  -1   0  -6 15361.8 655.250   1
   1  -1  -6 15444.0 672.595   1
  -1   0  -6 15257.7 662.142   3
  -1   1  -6 16171.5 650.087   1
  -1   1  -6 15488.7 657.246   3
   0  -1  -6 15370.8 678.255   1
   0   1  -6 16464.0 661.420   3
   0  -1  -6 16033.5 664.256   3
   0   1  -6 15256.2 633.354   1
   1   0  -6 14992.9 639.678   1
  -1   1  -7 3631.13 345.144   1
  -1   0  -7 3720.17 371.027   3
  -1   0  -7 3879.22 372.525   1
   0  -1  -7 3796.69 373.617   1
  -1   1  -7 3776.95 365.744   3
   0   1  -7 3866.26 365.218   1
   1   0  -7 3677.90 357.563   1
   1  -1  -7 3435.61 362.231   1
   0  -1  -7 4047.99 375.253   3
  -1   1  -8 9101.56 587.183   3
   1  -1  -8 8435.98 591.016   1
  -1   1  -8 9256.34 577.683   1
  -1   0  -8 8438.09 579.320   1
  -1   0  -8 8899.26 593.167   3
   0  -1  -8 8707.45 602.643   1
   1   0  -8 8771.07 580.305   1
   0   1  -8 8624.96 560.052   1
  -1   0  -9 18300.9 897.680   1
  -1   1  -9 18659.6 883.332   1
   0  -1  -9 18420.6 926.990   1
   1   0  -9 19418.8 944.470   1
   1  -1  -9 18593.0 933.461   1
   0   1  -9 20229.4 945.097   1
   0   1 -10 7146.63 611.103   1
  -1   0 -10 6821.94 589.715   1
   1  -1 -10 7219.13 628.668   1
   0  -1 -10 7362.09 631.027   1
   1   0 -10 7580.38 642.436   1
  -1   1 -10 8576.70 658.729   1
   0  -1 -11 870.525 273.874   1
   0   1 -11 685.886 228.761   1
  -1   0 -11 811.299 221.312   1
  -1   1 -11 916.294 271.369   1
   1  -1 -11 858.153 278.711   1
   1   0 -11 1028.45 275.923   1
   0  -1 -12 1416.28 371.645   1
   1   0 -12 1670.15 384.438   1
   1  -1 -12 1814.98 413.035   1
  -1   0 -13 123.384 141.379   7
  -1   1 -13 86.4227 129.688   7
   0   1 -13 47.2208 132.996   7
   1  -1 -13-19.2077 148.116   7
   1   0 -13 52.4369 137.145   7
   0  -1 -13 136.946 131.063   7
   1  -1 -13-80.5487 279.644   1
   1  -1 -14 1813.05 204.673   7
   1   0 -14 2395.63 228.814   7
   0   1 -14 1534.93 193.768   7
  -1   1 -14 2947.20 236.870   7
   0  -1 -14 1389.97 179.080   7
  -1   0 -14 2022.87 213.212   7
  -1   0 -15 36.2695 144.258   7
   1   0 -15 97.9931 134.762   7
   1  -1 -15 62.3465 134.378   7
   0   1 -15-103.114 147.111   7
  -1   1 -15 14.5959 143.542   7
   0  -1 -15 116.832 142.417   7
  -1   1 -16 256.034 152.010   7
   1  -1 -16 88.8590 141.055   7
   0   1 -16-324.648 145.173   7
   0  -1 -16-521.035 154.881   7
   0  -1 -17 174.785 122.940   7
  -1   0 -17-229.274 123.536   7
  -1   1 -17 242.581 125.864   7
   1  -1 -17 119.428 116.084   7
   0   1 -17 40.9006 114.559   7
   1   0 -17 7.31359 113.661   7
   0   1 -18 3.71055 101.701   7
  -1   1 -18 49.3794 102.187   7
   1  -1 -18-0.79056 99.1271   7
  -1   0 -18 7.79661 100.316   7
   0  -1 -18-62.6580 102.973   7
   1   0 -18-22.1781 103.517   7
   0  -1 -19-19.4108 90.8041   7
   1  -1 -19 66.4624 90.2547   7
  -1   1 -19-1.92486 91.7487   7
   0   1 -19 38.8276 89.6378   7
  -1   0 -19-20.3030 90.2122   7
   1   0 -19 18.1677 87.4811   7
   2  -1   0 91563.7 853.666   4
   2  -1   1 167650. 1252.56   4
  -1  -1  -1 168218. 1507.94   3
   2  -1  -1 165344. 1389.46   4
  -1   2  -1 167783. 1292.96   3
  -2   1  -1 163725. 1537.79   3
   2  -1  -1 167169. 1430.60   1
   1   1  -2 41134.1 657.993   1
  -1   2  -2 44241.3 676.182   3
  -1  -1  -2 40927.1 743.087   3
   2  -1  -2 41433.9 592.694   4
   2  -1  -2 41151.9 703.590   1
  -2   1  -2 41095.7 761.482   3
  -1   2  -2 43689.2 558.882   1
   1  -2  -2 41080.3 674.346   3
   1   1  -3 29379.1 644.783   1
   2  -1  -3 28899.9 685.049   1
  -1   2  -3 30842.1 681.141   3
   2  -1  -3 28573.0 509.351   4
   1  -2  -3 28889.1 652.962   3
  -2   1  -3 29270.0 732.431   3
  -1   2  -3 29708.8 573.394   1
  -2   1  -4 20384.6 687.152   3
   1  -2  -4 19758.4 599.492   3
  -1   2  -4 20415.1 627.273   3
  -1   2  -4 19896.4 548.752   1
   1   1  -4 20526.2 607.541   1
  -1  -1  -4 19582.1 638.463   3
   2  -1  -4 18977.9 427.543   4
   2  -1  -4 19735.6 635.110   1
   2  -1  -5 13611.6 577.598   1
  -1   2  -5 14390.8 574.957   3
  -1   2  -5 13565.9 513.096   1
  -2   1  -5 13230.6 594.824   3
  -1  -1  -5 13669.7 590.499   3
   1   1  -5 13510.9 543.352   1
  -2   1  -5 12907.1 528.144   1
   1  -2  -5 13333.2 548.428   3
   1  -2  -5 13284.8 597.353   1
   1  -2  -6 13129.5 352.605   4
   2  -1  -6 13073.2 622.273   1
   1  -2  -6 13641.8 651.072   1
  -1   2  -6 14579.1 587.693   1
  -2   1  -6 13498.6 587.643   1
  -1  -1  -6 13667.7 646.928   1
  -1   2  -6 14893.3 638.598   3
  -1  -1  -6 13155.5 622.010   3
  -2   1  -6 13849.2 655.478   3
   1   1  -6 14093.3 619.954   1
   2  -1  -7 20357.4 835.266   1
   1  -2  -7 19623.8 844.794   1
  -2   1  -7 19206.0 818.109   3
  -1   2  -7 20675.0 808.843   3
  -1  -1  -7 20300.7 846.802   1
  -2   1  -7 21252.8 822.276   1
  -1  -1  -7 19708.0 832.869   3
  -1   2  -7 21099.2 781.951   1
   1   1  -7 21326.4 838.175   1
   1   1  -8 26556.7 1015.54   1
  -1  -1  -8 25153.5 1000.54   3
  -1   2  -8 26196.4 965.758   1
   1  -2  -8 26725.8 1075.42   1
  -2   1  -8 25657.4 961.402   1
  -2   1  -8 26513.9 1024.71   3
   2  -1  -8 24909.0 1010.38   1
  -1   2  -8 27341.2 998.678   3
  -1  -1  -8 25054.6 1009.14   1
  -1   2  -9 14388.3 772.014   1
   1   1  -9 14626.7 798.721   1
   2  -1  -9 13216.2 791.120   1
   1  -2  -9 13270.1 805.495   1
  -1  -1  -9 14021.4 803.855   3
  -2   1  -9 13932.8 796.082   3
  -1  -1  -9 14095.1 824.666   1
  -2   1  -9 13705.8 774.498   1
  -1   2 -10 6919.03 572.625   1
  -1  -1 -10 6717.11 605.339   1
  -2   1 -10 7030.05 598.285   1
   1  -2 -10 6308.77 610.621   1
   2  -1 -10 7390.57 653.773   1
   1   1 -10 7081.02 614.910   1
  -2   1 -11 5565.03 588.748   1
   2  -1 -11 4200.24 530.615   1
  -1   2 -11 5221.86 544.684   1
   1  -2 -11 4803.91 559.385   1
   1   1 -11 5444.54 583.208   1
  -1  -1 -11 4519.24 525.515   1
   1   1 -12 2588.08 458.022   1
   2  -1 -12 1837.66 399.509   1
   1  -2 -12 2352.81 455.847   1
  -1  -1 -12 2022.24 421.774   1
   2  -1 -13 465.098 250.585   1
   1  -2 -13 590.290 259.231   1
  -2   1 -13 2123.25 194.797   7
   1   1 -13 2143.31 192.764   7
  -1   2 -13 2142.41 202.962   7
  -1  -1 -13 2219.82 205.392   7
   2  -1 -14 1119.89 186.959   7
   1   1 -14 1275.77 195.966   7
   1  -2 -14 1520.04 205.218   7
  -2   1 -14 886.786 195.393   7
  -1  -1 -14 981.651 186.352   7
  -1   2 -14 1420.90 197.176   7
   1   1 -15 1981.28 203.530   7
   2  -1 -15 1846.29 210.246   7
  -1   2 -15 2080.74 208.369   7
  -1  -1 -15 2254.23 222.898   7
  -2   1 -15 2140.98 229.993   7
  -2   1 -16 291.113 153.806   7
  -1   2 -16 302.925 149.504   7
  -1  -1 -16 152.977 147.387   7
   1  -2 -16 555.634 152.441   7
   2  -1 -16 203.430 143.341   7
   1   1 -16 410.344 144.520   7
   1  -2 -17 183.816 121.326   7
   1   1 -17 343.595 127.071   7
   2  -1 -17 110.791 117.196   7
  -2   1 -17 217.316 124.470   7
  -1   2 -17 74.9155 121.885   7
  -1  -1 -17 142.251 121.053   7
   1  -2 -18 110.440 106.719   7
   2  -1 -18 98.9500 104.337   7
  -1  -1 -18 39.8376 105.600   7
  -2   1 -18 22.4693 105.368   7
  -1   2 -18 126.440 109.926   7
   1   1 -18 44.3896 102.495   7
  -1   2 -19-3.85694 91.9660   7
   1   1 -19 125.602 94.2114   7
  -1  -1 -19 96.1637 95.0408   7
  -2   1 -19 148.809 99.5086   7
   2  -1 -19 36.5682 88.9219   7
   1  -2 -19 54.1162 90.0500   7
   0   2   0 249872. 1778.63   2
  -2   0   0 253052. 1857.17   3
  -2   0  -1 563542. 4106.23   3
  -2   2  -1 562070. 3958.19   3
   2   0  -2 54968.8 827.240   1
   0   2  -2 54879.0 674.847   3
   2  -2  -2 55910.6 891.470   1
  -2   0  -2 54028.0 919.380   3
  -2   2  -2 56461.3 862.745   3
   0  -2  -2 55140.8 843.582   3
   2  -2  -3 90448.9 1327.26   1
  -2   0  -3 86814.8 1350.04   3
   2   0  -3 89830.6 1255.85   1
   0  -2  -3 90595.9 1285.25   3
   0   2  -3 92093.3 1142.95   1
  -2   2  -3 90225.0 1071.45   1
   0   2  -3 94294.8 1130.59   3
  -2   2  -3 92735.4 1305.68   3
  -2   0  -4 45829.7 1051.93   3
   0  -2  -4 45726.4 969.720   3
   2   0  -4 43628.8 939.787   1
  -2   2  -4 47235.2 855.155   1
   0   2  -4 49252.0 905.123   3
   2  -2  -4 45003.1 1007.23   1
  -2   2  -4 49618.8 1049.32   3
   0   2  -4 47110.4 902.093   1
   2  -2  -5 47637.0 1119.20   1
   0   2  -5 48763.6 1014.87   3
   0   2  -5 49836.2 1039.80   1
   2  -2  -5 42130.4 726.496   4
   0  -2  -5 43194.3 1032.81   3
   2   0  -5 44229.7 1034.26   1
  -2   2  -5 44579.7 1059.58   3
  -2   2  -5 45272.6 955.227   1
  -2   0  -5 45039.3 1113.03   3
   0  -2  -6 58863.3 1392.69   1
  -2   2  -6 62372.4 1380.42   3
  -2   0  -6 60186.8 1328.81   1
   0   2  -6 66518.0 1336.51   1
  -2   0  -6 59221.8 1381.15   3
   0  -2  -6 54499.4 725.154   4
   2  -2  -6 59216.3 1380.31   1
   0  -2  -6 57393.8 1291.61   3
   2  -2  -6 56807.1 852.063   4
   2   0  -6 58388.4 1313.68   1
  -2   2  -6 61130.5 1226.77   1
  -2   2  -7 88885.5 1757.44   3
  -2   2  -7 90978.7 1661.07   1
  -2   0  -7 86632.2 1814.64   3
  -2   0  -7 87190.2 1768.19   1
   2   0  -7 86930.3 1765.01   1
   0  -2  -7 85658.4 1829.11   1
   0   2  -7 93344.7 1732.45   1
   2  -2  -7 89905.1 1859.00   1
   0  -2  -7 85326.5 1736.31   3
  -2   2  -8 72912.2 1692.47   3
   2  -2  -8 71046.5 1757.47   1
   0   2  -8 74563.7 1671.22   1
  -2   0  -8 71382.0 1676.05   1
   0  -2  -8 74708.4 1795.91   1
  -2   2  -8 74520.7 1616.54   1
   2   0  -8 74720.3 1771.19   1
  -2   0  -8 69441.7 1709.58   3
  -2   2  -9 30437.3 1108.73   1
  -2   0  -9 27428.5 1133.34   3
  -2   2  -9 27948.8 1113.65   3
   2  -2  -9 27892.6 1166.54   1
   0  -2  -9 29628.8 1226.31   1
   2   0  -9 28572.8 1160.81   1
   0   2  -9 28463.7 1088.89   1
  -2   0  -9 28848.0 1132.29   1
  -2   2 -10 23033.0 1041.76   1
   0  -2 -10 22074.4 1110.86   1
   2   0 -10 22401.6 1086.43   1
   0   2 -10 24683.9 1079.72   1
  -2   0 -10 21777.9 1048.68   1
   2  -2 -10 21231.5 1100.95   1
   0  -2 -11 15035.7 976.599   1
  -2   0 -11 15736.5 955.578   1
   0   2 -11 16030.4 930.803   1
   2   0 -11 15441.0 981.341   1
   2  -2 -11 14698.1 990.372   1
   0  -2 -12 2762.66 481.164   1
   2   0 -12 2778.14 470.074   1
   2  -2 -12 2833.27 472.133   1
   0  -2 -13 2366.73 491.107   1
  -2   2 -13 6287.85 282.858   7
  -2   0 -13 7796.81 297.176   7
   2   0 -13 6821.01 290.464   7
   0   2 -13 6232.98 277.255   7
  -2   0 -14 2847.91 218.296   7
  -2   2 -14 2387.43 215.783   7
   2   0 -14 2333.91 201.341   7
   2  -2 -14 3216.88 233.819   7
   0  -2 -14 3063.53 231.955   7
   0   2 -14 2904.44 214.509   7
  -2   2 -15 4326.19 271.470   7
  -2   0 -15 4063.84 259.956   7
   0   2 -15 4419.90 252.382   7
   2  -2 -15 4192.54 259.687   7
   2   0 -15 4097.45 238.874   7
   0  -2 -15 4556.21 265.497   7
  -2   0 -16-117.841 144.186   7
   0  -2 -16 139.083 148.300   7
  -2   2 -16 346.486 154.365   7
   0   2 -16-52.1377 140.875   7
   2  -2 -16-39.6574 137.794   7
   0  -2 -17 525.050 133.118   7
   0   2 -17 356.517 136.659   7
  -2   0 -17 354.986 134.435   7
   2  -2 -17 658.484 135.572   7
   2   0 -17 242.067 128.261   7
  -2   2 -18 80.1349 118.943   7
   0   2 -18 89.2540 106.954   7
  -2   0 -18-62.7701 110.267   7
   0  -2 -18 386.490 116.369   7
   2  -2 -18 182.021 110.837   7
   2   0 -18 55.9615 103.770   7
   2  -2 -19-3.26313 90.8710   7
   2   0 -19 119.796 93.0553   7
  -2   0 -19-64.5166 98.9347   7
  -2   2 -19 164.657 102.387   7
   0   2 -19 143.573 96.4007   7
   0  -2 -19 148.226 96.3514   7
  -1  -2   0 16093.6 297.455   3
  -1   3   0 14844.7 292.127   2
   2   1   0 14619.1 323.105   2
   3  -1   0 14438.3 334.568   4
  -2  -1   0 15377.0 344.188   3
  -2   3   0 13401.3 187.778   5
   1   2   0 14709.7 334.071   2
   3  -2   0 15137.6 266.236   1
  -2   3  -1 51983.0 654.181   3
   3  -1  -1 48315.4 693.122   4
  -3   2  -1 50057.5 791.909   3
   3  -1  -1 48893.0 695.374   1
   3  -1   1 50194.4 513.710   2
  -1  -2  -1 50238.6 734.834   3
   3  -1   1 49117.2 601.525   4
  -3   1  -1 49001.7 825.202   3
   3  -2  -1 50359.0 699.711   1
  -2  -1  -1 51361.0 801.113   3
  -2   3  -2 9891.61 331.677   3
   3  -1  -2 8813.97 303.975   4
   3  -2   2 10016.7 232.209   4
  -3   2  -2 9381.93 392.038   3
   3  -2  -2 9513.86 358.815   1
  -1  -2  -2 9780.90 371.116   3
   1  -3  -2 9235.93 331.447   3
  -1   3  -2 10860.4 321.105   3
  -2  -1  -2 9683.82 389.505   3
   3  -1  -2 9319.47 348.924   1
  -3   1  -2 9240.16 400.761   3
   2   1  -3 686.775 134.466   1
  -1  -2  -3 724.826 167.128   3
   3  -1  -3 588.745 116.267   4
  -3   1  -3 486.707 161.681   3
   3  -1  -3 512.267 130.113   1
   1   2  -3 758.457 131.512   1
  -2   3  -3 734.457 100.692   1
  -3   2  -3 673.737 178.140   3
  -2  -1  -3 805.170 180.804   3
  -1   3  -3 745.803 110.975   1
   3  -2  -3 609.331 123.887   4
  -2   3  -3 664.384 155.854   3
  -1   3  -3 671.434 140.946   3
   1  -3  -3 704.649 151.105   3
   3  -2  -3 672.071 152.153   1
  -3   2  -4 4637.32 358.676   3
  -1   3  -4 4990.20 318.953   3
  -1   3  -4 4790.55 271.176   1
  -1  -2  -4 4478.55 325.899   3
   3  -2  -4 4535.06 327.082   1
   2   1  -4 4620.67 304.775   1
   3  -2  -4 4319.79 246.567   4
   1  -3  -4 4605.44 315.365   3
  -3   1  -4 4652.64 363.929   3
   3  -1  -4 4534.46 315.160   1
  -2  -1  -4 4884.51 357.326   3
   1   2  -4 4388.63 298.681   1
  -2   3  -4 4639.17 257.961   1
  -3   2  -4 4543.86 279.033   1
  -2   3  -4 5360.78 365.082   3
  -1  -2  -5 8318.32 472.809   3
  -2   3  -5 7967.91 381.179   1
   2   1  -5 7686.18 436.735   1
   3  -2  -5 7229.80 315.186   4
  -1   3  -5 8060.39 389.962   1
   1   2  -5 8072.26 429.248   1
  -3   1  -5 8099.01 503.371   3
  -3   2  -5 7935.92 399.576   1
  -2   3  -5 8364.65 453.522   3
   3  -1  -5 7952.74 449.827   1
  -1   3  -5 8027.90 435.923   3
   1  -3  -5 8013.38 439.078   3
  -3   2  -5 7866.41 484.039   3
   2  -3  -5 8014.10 484.013   1
  -2  -1  -5 7737.16 475.039   3
   3  -2  -5 7684.81 458.338   1
   2  -3  -6 5528.23 284.490   4
  -2  -1  -6 5220.23 418.857   3
  -1   3  -6 6265.34 418.026   3
   2  -3  -6 5232.87 429.774   1
  -3   2  -6 5534.15 433.627   3
   1   2  -6 5636.61 395.009   1
  -3   2  -6 5468.09 372.081   1
  -1  -2  -6 5664.42 422.256   3
  -2   3  -6 5842.35 426.039   3
  -3   1  -6 5247.85 393.125   1
  -1   3  -6 5113.97 364.907   1
  -2   3  -6 6047.65 379.691   1
   2   1  -6 5279.79 391.074   1
  -3   1  -6 5762.16 456.012   3
   3  -2  -6 5544.17 426.187   1
   1  -3  -6 5254.24 428.664   1
   3  -1  -6 5356.56 411.527   1
   1  -3  -7 13625.1 730.436   1
  -2   3  -7 15884.7 718.108   3
  -2  -1  -7 14132.1 736.177   3
  -2   3  -7 16659.3 696.658   1
  -3   2  -7 15717.2 681.006   1
   2   1  -7 15516.8 718.877   1
  -3   1  -7 14995.1 695.648   1
   3  -2  -7 14490.6 729.599   1
  -2  -1  -7 14395.1 728.498   1
  -1   3  -7 16944.0 718.419   3
   1   2  -7 15244.7 697.551   1
  -3   2  -7 15243.8 753.967   3
  -1  -2  -7 14511.8 721.010   3
  -1   3  -7 15283.5 665.691   1
   2  -3  -7 14374.5 746.570   1
  -3   1  -7 15236.2 771.819   3
   3  -1  -7 15063.4 732.874   1
   1  -3  -8 9086.80 649.102   1
   3  -2  -8 8891.16 626.269   1
   2  -3  -8 9055.45 656.894   1
   3  -1  -8 9441.21 640.663   1
  -3   1  -8 9824.46 622.943   1
  -1  -2  -8 8826.43 605.866   3
  -1  -2  -8 8427.95 620.323   1
  -2  -1  -8 8509.28 612.621   1
  -3   2  -8 9421.48 567.937   1
   2   1  -8 8942.46 600.304   1
  -1   3  -8 9441.26 577.947   1
   1   2  -8 9075.94 590.155   1
  -3   1  -8 8338.78 616.431   3
  -2   3  -8 9519.86 569.788   1
  -2  -1  -8 9009.37 633.306   3
  -2   3  -8 9863.60 613.955   3
  -3   2  -8 9229.29 622.794   3
   1  -3  -9 129.800 187.095   1
  -3   1  -9 65.9472 172.601   1
  -3   2  -9 169.984 200.469   3
  -2   3  -9 141.695 155.309   1
  -1  -2  -9 218.527 205.939   1
  -2  -1  -9 150.564 188.895   1
  -1   3  -9 188.728 170.056   1
  -3   1  -9 162.753 203.792   3
   1   2  -9 168.308 175.003   1
   3  -1  -9 181.134 185.048   1
  -1  -2  -9 282.948 216.804   3
  -3   2  -9 176.895 172.821   1
   3  -2  -9 144.901 176.914   1
  -2  -1  -9 216.809 209.396   3
   2   1  -9 180.343 193.342   1
   2  -3  -9 163.197 204.468   1
  -2   3 -10 1514.25 322.266   1
  -1   3 -10 1276.37 277.884   1
   3  -1 -10 1289.50 320.129   1
   1   2 -10 852.337 246.720   1
  -3   2 -10 1371.88 292.251   1
   1  -3 -10 1275.29 318.653   1
  -2  -1 -10 1068.70 330.235   3
  -3   2 -10 1230.68 320.743   3
   2  -3 -10 1303.88 327.751   1
  -2  -1 -10 1174.99 291.009   1
   2   1 -10 1173.26 307.047   1
   3  -2 -10 1211.95 347.084   1
  -1  -2 -10 891.995 294.509   1
  -3   1 -10 923.560 268.137   1
  -3   1 -10 1201.64 320.030   3
   3  -2 -11 1891.14 399.664   1
   3  -1 -11 2496.75 419.777   1
   1  -3 -11 2188.39 392.870   1
   1   2 -11 2440.79 409.686   1
  -2  -1 -11 2329.23 408.319   1
  -1  -2 -11 2146.44 415.028   1
   2   1 -11 2143.56 386.855   1
   2  -3 -11 1826.38 398.435   1
   1  -3 -12 50.6664 234.903   1
   3  -1 -12 45.5967 205.666   1
  -1  -2 -12-111.313 266.985   1
   3  -2 -12 38.6342 241.943   1
   2  -3 -12 7.27164 273.328   1
   2   1 -12-4.77320 223.458   1
   1  -3 -13 1005.46 347.024   1
   3  -1 -13 710.713 283.918   1
  -2   3 -13 2561.48 227.339   7
  -3   1 -13 2594.16 231.335   7
  -3   2 -13 2366.38 217.629   7
  -1   3 -13 2412.01 220.763   7
   1   2 -13 2753.01 231.310   7
  -2  -1 -13 2441.03 220.390   7
   2  -3 -13 961.040 339.426   1
   3  -2 -13 431.774 261.857   1
   2   1 -13 2789.48 214.983   7
  -2  -1 -14-31.8235 141.979   7
  -2   3 -14-17.0996 149.933   7
  -1  -2 -14 8.30849 147.486  10
   3  -1 -14 39.0855 138.631   7
   2   1 -14 94.3348 142.955   7
   1   2 -14 5.15327 143.545   7
  -1   3 -14 180.896 146.110   7
  -3   1 -14 86.2627 147.597   7
  -1  -2 -14-250.274 165.487   7
  -2  -1 -14 186.237 145.363  10
   3  -2 -14-197.626 153.411   7
  -3   2 -14-29.4891 140.888   7
   2  -3 -15-42.6155 166.012   7
   3  -1 -15 1013.97 185.292   7
  -1  -2 -15 711.472 214.161   7
   1   2 -15 757.677 184.769   7
  -3   2 -15 979.163 195.330   7
   1  -3 -15-231.383 184.375   7
  -1   3 -15 273.881 163.972   7
   2   1 -15 1072.31 195.192   7
  -2   3 -15 848.218 180.059   7
  -2  -1 -15 1219.61 198.196   7
  -3   1 -15 986.038 191.453   7
  -1  -2 -15 1842.77 190.806  10
   3  -2 -15 933.021 195.040   7
   2  -3 -16-166.541 135.682   7
   3  -1 -16 180.247 134.253   7
  -3   1 -16 66.3025 140.995   7
  -1  -2 -16 184.077 140.755   7
   3  -2 -16-59.3446 135.846   7
  -1   3 -16 43.3331 136.513   7
  -3   2 -16-49.8718 146.122   7
  -2   3 -16-1.43399 141.215   7
   2   1 -16 144.110 135.749   7
  -2  -1 -16 280.928 148.466   7
   1  -3 -16-65.9084 138.924   7
   1   2 -16 4.64154 133.632   7
  -3   1 -17-19.5859 117.728   7
   3  -1 -17-0.86477 116.590   7
   2  -3 -17-457.754 129.458   7
   1   2 -17-5.82551 115.075   7
  -1  -2 -17-15.9344 113.593   7
  -2  -1 -17 73.1068 124.503   7
  -2   3 -17-375.863 133.935   7
   2   1 -17 105.585 121.710   7
  -3   2 -17-110.100 121.457   7
  -1   3 -17-183.274 128.325   7
   3  -2 -17 31.8319 112.249   7
  -1  -2 -18-5.76620 105.911   7
   1  -3 -18-213.495 113.420   7
  -1   3 -18-228.486 118.695   7
  -3   1 -18 53.2632 108.216   7
   3  -2 -18-280.982 114.074   7
   3  -1 -18 159.057 104.452   7
  -2  -1 -18 229.913 115.634   7
   2   1 -18 97.9249 108.710   7
   1   2 -18 35.2165 104.110   7
  -3   2 -18-30.1517 109.318   7
  -3   1 -19-1.00040 98.8548   7
  -3   2 -19-153.200 98.4860   7
   2   1 -19 220.101 93.9769   7
  -1   3 -19-242.692 98.1536   7
  -2   3 -19-129.636 99.3312   7
  -2  -1 -19 16.1600 93.5733   7
   3  -2 -19-196.634 91.9577   7
   1  -3 -19-68.0308 94.2548   7
   3  -1 -19 83.5436 85.4355   7
  -1  -2 -19 2.67679 91.6065   7
   2  -3 -19-160.408 92.9554   7
   1   2 -19 230.496 96.7570   7
   0   3   0 601.807 94.3942   2
   0  -3   0 791.985 66.1665   3
   3  -3   0 617.719 68.1628   1
  -3   0   0 639.657 102.867   3
  -3   0  -1 124994. 1458.08   3
  -3   3  -1 122173. 1310.40   3
   0   3  -1 120253. 1194.02   2
   0  -3  -1 123826. 1212.16   3
   3   0   1 121205. 1108.95   2
   3  -3  -1 123312. 1287.19   1
   3  -3  -2 104088. 1342.61   1
  -3   0  -2 101147. 1408.33   3
  -3   3  -2 103522. 1315.89   3
  -3   3  -2 96331.9 793.697   1
   3   0  -2 99674.0 1237.99   1
   0  -3  -2 99415.1 1245.90   3
  -3   0  -3 1724.89 228.868   3
   3   0  -3 1680.17 191.686   1
   0  -3  -3 1940.83 205.109   3
   3  -3  -3 1855.14 214.575   1
  -3   3  -3 1679.99 215.880   3
  -3   3  -3 1918.97 136.025   1
   0   3  -4 1391.12 176.801   1
  -3   3  -4 1591.50 231.987   3
   3  -3  -4 1422.97 210.676   1
  -3   0  -4 1537.19 257.192   3
  -3   3  -4 1533.01 157.192   1
   3   0  -4 1367.43 194.293   1
   0  -3  -4 1470.09 210.785   3
   3  -3   4 1318.81 71.0624   4
   0   3  -5 1252.14 193.505   1
  -3   3  -5 1305.33 244.194   3
   3  -3  -5 1287.91 220.416   1
   0  -3  -5 1372.38 218.169   3
  -3   0  -5 1506.08 268.232   3
   3   0  -5 1242.82 206.440   1
  -3   3  -5 1406.13 180.694   1
   3  -3  -5 1339.57 169.077   4
   0   3  -6 569.179 155.792   1
   3  -3  -6 582.178 192.716   1
   3   0  -6 534.909 168.542   1
  -3   0  -6 599.982 213.946   3
   3  -3  -6 497.923 125.201   4
  -3   3  -6 645.995 206.295   3
  -3   3  -6 530.754 151.116   1
   0  -3  -6 631.157 178.100   3
   3  -3  -7 9368.83 379.201   4
  -3   0  -7 9688.04 590.265   1
   3  -3  -7 9880.06 624.036   1
  -3   0  -7 9181.73 604.023   3
   0  -3  -7 8951.20 556.786   3
  -3   3  -7 10152.3 522.249   1
   0  -3  -7 9043.36 603.528   1
   3   0  -7 9551.50 583.464   1
  -3   3  -7 9866.28 599.320   3
   0   3  -7 10028.9 548.280   1
  -3   3  -8 20755.1 903.528   3
  -3   3  -8 22501.4 851.937   1
  -3   0  -8 21109.1 921.611   1
   3  -3  -8 20505.3 957.698   1
   0   3  -8 22212.4 879.708   1
   3   0  -8 20776.4 927.426   1
   0  -3  -8 19586.4 946.390   1
  -3   0  -8 20335.9 950.430   3
  -3   0  -9 2491.82 395.670   3
   0   3  -9 2692.58 360.503   1
  -3   3  -9 2718.19 354.699   1
   3   0  -9 2656.58 391.662   1
   3  -3  -9 2387.63 384.552   1
   0  -3  -9 2583.19 391.155   1
  -3   0  -9 2678.67 387.042   1
  -3   3  -9 2673.46 372.241   3
   3   0 -10 2882.72 446.637   1
   3  -3 -10 2646.17 423.812   1
  -3   0 -10 2833.30 425.589   1
  -3   3 -10 2979.31 437.985   3
   0   3 -10 3148.69 411.342   1
   0  -3 -10 2981.17 464.819   1
  -3   0 -10 3131.77 461.615   3
   0  -3 -11 2578.20 437.369   1
   3   0 -11 2583.77 427.746   1
   3  -3 -11 2485.38 445.027   1
  -3   0 -11 2442.20 441.446   1
   3   0 -12 105.662 223.588   1
   0  -3 -12 4.62506 272.295   1
   3  -3 -12 111.653 235.670   1
   0  -3 -13 367.081 341.667   1
  -3   0 -13 2424.13 201.071  10
   3   0 -13 2928.76 225.129   7
   0   3 -13 2834.24 226.616   7
   0  -3 -13 1953.77 201.718  10
  -3   0 -13 2405.67 225.100   7
   3  -3 -13 407.334 290.140   1
  -3   3 -13 1993.98 210.442   7
   0   3 -14 407.683 160.823   7
  -3   3 -14 604.811 162.288   7
   3   0 -14 265.255 148.749   7
  -3   0 -14 518.766 154.264  10
   0  -3 -14 232.805 154.874   7
   0  -3 -14 530.544 164.284  10
  -3   0 -14 148.035 153.720   7
   0  -3 -15 1211.98 213.385   7
   0  -3 -15 2030.30 194.598  10
   3   0 -15 1916.00 209.184   7
   0   3 -15 2170.17 214.745   7
  -3   0 -15 1947.86 216.193   7
   3  -3 -15 1989.87 215.067   7
   0  -3 -16 361.239 157.050   7
  -3   0 -16 112.816 153.325   7
   0   3 -16 571.211 155.056   7
  -3   3 -16 452.201 159.352   7
   3   0 -16 360.650 141.000   7
   3  -3 -16 253.701 144.731   7
   0  -3 -17 204.981 131.520   7
  -3   3 -17 794.105 159.339   7
   3   0 -17 579.085 145.211   7
  -3   0 -17 741.173 150.773   7
   0   3 -17 675.478 148.416   7
   3  -3 -17 277.836 134.084   7
  -3   3 -18 812.375 137.154   7
   3   0 -18 723.906 128.522   7
   0   3 -18 437.245 128.388   7
   3  -3 -18 246.004 120.466   7
   0  -3 -18 77.8953 109.562   7
  -3   0 -18 454.565 124.863   7
  -3   3 -19 185.106 109.407   7
  -3   0 -19 30.4202 101.293   7
   0   3 -19 610.943 109.670   7
   3  -3 -19 178.375 96.2167   7
   0  -3 -19-49.7638 94.7282   7
   3   0 -19 536.500 103.623   7
   4  -2   0 72961.5 953.224   4
   2   2   0 71393.3 896.697   2
  -2  -2  -1 980.370 141.471   3
   2   2   1 991.860 120.986   2
   4  -2  -1 818.035 127.907   4
  -4   2  -1 1061.07 157.800   3
  -2   4  -1 1022.11 97.8591   3
   4  -2   1 959.777 113.531   4
  -2   4  -1 1125.82 97.8170   2
   4  -2  -1 901.039 115.613   1
   4  -2  -2 250.030 105.087   1
   4  -2  -2 131.004 100.997   4
  -4   2  -2 155.281 139.650   3
   4  -2   2 202.241 78.7358   4
  -2  -2  -2 197.243 125.895   3
  -2   4  -2 161.092 98.1093   3
   4  -2  -3 255.786 114.023   4
  -2  -2  -3 298.339 159.982   3
   4  -2  -3 258.980 129.629   1
  -2   4  -3 211.561 128.034   3
  -4   2  -3 238.195 176.071   3
   2   2  -4 2995.89 260.145   1
  -4   2  -4 2866.70 332.192   3
  -2  -2  -4 3340.83 325.169   3
  -2   4  -4 3117.38 208.658   1
  -2   4  -4 3122.84 263.175   3
   4  -2  -4 2970.88 215.628   4
   4  -2  -4 3053.11 276.525   1
  -2  -2  -5 695.687 196.215   3
  -2   4  -5 587.898 138.472   1
  -2   4  -5 791.574 190.629   3
   2   2  -5 660.954 165.288   1
   4  -2  -5 543.873 167.327   1
   4  -2  -5 614.461 136.838   4
  -4   2  -5 624.170 215.103   3
   2  -4  -6 13518.7 693.292   1
  -4   2  -6 13924.3 592.567   1
   4  -2  -6 13926.1 663.809   1
  -4   2  -6 14491.5 742.548   3
  -2   4  -6 15149.4 568.322   1
  -2   4  -6 15540.5 638.237   3
   2   2  -6 13938.3 636.578   1
  -2  -2  -6 13853.5 678.246   3
  -4   2  -7 18681.6 735.022   1
  -2  -2  -7 17736.1 829.128   3
   2  -4  -7 17790.6 848.324   1
  -2   4  -7 20435.9 731.689   1
  -2   4  -7 20553.0 795.565   3
   2   2  -7 19599.7 804.546   1
  -4   2  -7 18885.4 873.079   3
   4  -2  -7 17837.9 818.417   1
   2   2  -8 157.477 157.445   1
   4  -2  -8 96.2561 167.054   1
  -2   4  -8 174.775 180.612   3
   2  -4  -8 162.440 160.985   1
  -2  -2  -8 107.349 166.498   1
  -2   4  -8 134.425 140.191   1
  -4   2  -8 194.268 159.445   1
  -4   2  -8 147.076 199.101   3
  -2  -2  -8 149.536 211.412   3
   4  -2  -9 3651.38 458.621   1
  -2   4  -9 4217.62 406.311   1
   2  -4  -9 3652.23 471.853   1
  -4   2  -9 3777.98 458.416   3
   2   2  -9 4001.98 438.254   1
  -2  -2  -9 3769.40 461.647   1
  -2  -2  -9 3861.46 452.144   3
  -4   2  -9 4505.34 433.677   1
  -2  -2 -10 388.734 202.487   1
   2  -4 -10 364.691 249.046   1
   2   2 -10 367.471 183.422   1
  -4   2 -10 390.800 238.221   3
  -2  -2 -10 614.201 278.085   3
   4  -2 -10 505.613 246.155   1
   4  -2 -11 223.369 195.047   1
   2  -4 -11 111.720 225.527   1
  -2  -2 -11 381.436 247.717   1
  -4   2 -11 457.184 241.701   3
   2  -4 -12 82.6926 216.620   1
  -2  -2 -12-30.6313 223.445   1
   4  -2 -12 163.237 256.164   1
   2   2 -13 189.406 140.726   7
  -2  -2 -13 124.898 150.901  10
  -2  -2 -13-215.078 176.034   7
   2  -4 -13-72.9880 271.773   1
  -2   4 -13 501.464 152.557   7
  -4   2 -13 467.923 149.874   7
   4  -2 -13 191.307 275.325   1
  -2   4 -14 42.2627 148.318   7
   4  -2 -14 147.495 149.227   7
   2   2 -14 287.885 151.760   7
  -4   2 -14-40.3599 157.369   7
  -2  -2 -14 266.399 167.340   7
  -2   4 -15 929.619 166.742   7
  -4   2 -15 721.648 165.771   7
  -2  -2 -15 793.163 164.661   7
   2   2 -15 784.328 152.666   7
   4  -2 -15 599.898 146.667   7
   2  -4 -15 544.920 157.728   7
  -2  -2 -15 683.250 157.614  10
  -2  -2 -16 404.317 136.297  10
  -4   2 -16 91.6632 138.608   7
   2   2 -16 244.335 136.004   7
  -2   4 -16-201.421 138.046   7
  -2  -2 -16 247.369 148.936   7
   4  -2 -16 23.2407 127.249   7
   2  -4 -16-127.139 140.941   7
  -4   2 -17 217.060 127.441   7
  -2  -2 -17 246.103 132.241   7
   2   2 -17 100.255 123.964   7
  -2   4 -17 78.0481 123.517   7
   2  -4 -17 23.5784 114.999   7
   4  -2 -17 11.2860 115.189   7
  -2   4 -18 65.6975 108.453   7
   2   2 -18 307.888 110.437   7
   4  -2 -18 42.3729 98.9474   7
   2  -4 -18-61.9208 102.618   7
  -4   2 -18 34.5693 106.574   7
  -2  -2 -18 58.0928 105.162   7
  -2  -2 -19-120.443 95.1229   7
  -2   4 -19 56.5745 93.5590   7
   2  -4 -19-23.5354 87.5976   7
   2   2 -19 279.460 90.9496   7
  -4   2 -19-122.224 100.399   7
   4  -2 -19 56.9578 86.1281   7
  -1   4   0 16999.1 382.065   2
   3   1   0 17326.7 404.566   2
  -1  -3   0 17530.1 339.898   3
  -3  -1   0 17773.8 448.650   3
   1   3   0 18024.3 423.780   2
   4  -3   0 17643.5 333.095   1
  -4   1   0 17844.6 473.152   3
  -4   1  -1 12503.5 454.368   3
  -1  -3  -1 12188.1 362.767   3
  -1  -3   1 12555.8 224.181   3
   4  -3  -1 12045.0 352.352   1
   4  -1  -1 13081.3 326.485   5
  -1   4  -1 12735.2 327.263   5
   4  -1   1 12652.0 274.821   2
  -4   3  -1 11969.2 419.028   3
  -1   4  -1 12427.6 323.413   2
   3   1   1 11561.5 325.337   2
  -3   4  -1 13184.9 224.282   2
  -3   4  -1 12997.6 353.819   3
   4  -1  -1 12451.4 366.197   4
  -3  -1  -1 12370.1 432.215   3
   4  -1  -2 839.714 134.710   4
   4  -1  -2 575.186 123.548   1
   4  -3  -2 410.063 121.949   1
  -1  -3  -2 575.840 151.364   3
  -4   3  -2 578.796 170.123   3
  -3   4  -2 683.080 140.246   3
   1  -4  -2 428.370 130.161   3
  -3  -1  -2 455.068 162.202   3
  -1   4  -2 472.323 85.9173   3
  -4   1  -2 523.201 162.286   3
  -1   4  -3 2666.18 196.065   3
  -3   4  -3 2636.21 241.338   3
  -3  -1  -3 2808.08 294.149   3
   4  -1  -3 2460.88 229.441   1
   4  -3   3 2780.47 147.740   4
  -4   3  -3 2480.47 274.976   3
   1  -4  -3 2730.55 236.290   3
   4  -3  -3 2743.68 252.005   1
  -4   1  -3 2648.14 294.772   3
  -1  -3  -3 2353.21 239.546   3
  -4   3  -4 8621.58 337.204   1
  -1   4  -4 8928.00 395.585   3
  -1  -3  -4 8625.93 453.242   3
  -3   4  -4 8997.92 451.425   3
   3   1  -4 8007.00 420.082   1
  -4   3  -4 8437.99 495.027   3
   4  -3  -4 8691.98 371.798   4
   4  -1  -4 8914.08 448.741   1
  -3  -1  -4 8486.07 481.198   3
  -3   4  -4 9664.73 324.654   1
   1  -4  -4 8100.04 419.765   3
   4  -3  -4 8807.30 465.225   1
  -4   1  -4 9188.52 527.390   3
   3   1  -5 46.3757 122.707   1
  -4   1  -5 248.502 216.853   3
  -4   3  -5 55.8344 118.960   1
  -1   4  -5 83.4347 142.102   3
   4  -3  -5 82.2828 121.596   4
   4  -3  -5 172.209 154.263   1
  -1  -3  -5 165.531 157.288   3
   4  -1  -5 97.8740 138.092   1
  -3   4  -5 156.391 112.156   1
  -4   3  -5 188.410 182.224   3
   3  -4  -5 106.845 145.569   1
  -3  -1  -5 86.5872 186.421   3
  -3   4  -5 205.238 177.209   3
   1  -4  -5 14.2785 135.647   3
   4  -1  -6 2542.48 302.699   1
  -3   4  -6 2862.14 254.846   1
  -4   3  -6 2906.00 366.240   3
   4  -3  -6 2699.49 319.031   1
   1   3  -6 2644.70 293.207   1
   4  -3  -6 2701.52 236.698   4
  -1   4  -6 3005.10 279.552   1
  -3  -1  -6 2650.34 338.160   3
  -1   4  -6 3062.29 303.824   3
   3  -4  -6 2385.20 312.244   1
  -4   1  -6 2571.83 350.588   3
   3   1  -6 2627.70 305.780   1
  -1  -3  -6 2323.37 293.880   3
  -3   4  -6 2515.38 309.045   3
  -4   3  -6 2864.09 264.761   1
  -3   4  -7 6358.82 402.054   1
   4  -1  -7 5756.22 476.292   1
  -3   4  -7 5728.77 457.694   3
   3  -4  -7 5327.11 320.359   4
   4  -3  -7 5637.33 477.508   1
  -4   3  -7 6468.85 418.714   1
  -4   3  -7 6082.18 500.795   3
   3  -4  -7 5218.68 468.525   1
  -3  -1  -7 5200.80 472.978   3
  -1  -3  -7 5685.04 479.925   3
   1  -4  -7 5359.72 483.348   1
  -4   1  -7 5808.82 458.431   1
  -1   4  -7 6265.03 433.587   1
   3   1  -7 5480.76 457.428   1
   1   3  -7 6207.08 454.027   1
  -4   1  -7 5684.80 508.981   3
  -3   4  -8 18.1984 134.951   1
   1  -4  -8 101.271 199.873   1
  -4   1  -8 22.2343 208.521   3
  -3  -1  -8 129.152 193.070   3
  -1  -3  -8 100.736 168.773   1
  -3   4  -8-65.3006 181.229   3
  -3  -1  -8 66.8220 173.203   1
  -1   4  -8 195.390 165.540   1
   3   1  -8-82.3440 161.583   1
   4  -1  -8 25.2464 165.110   1
   4  -3  -8 36.4824 155.176   1
  -4   3  -8-76.1383 151.909   1
  -1  -3  -8-20.7342 173.165   3
  -4   3  -8 53.9811 188.440   3
   3  -4  -8-65.1010 170.244   1
   1   3  -8-91.3412 155.002   1
  -4   1  -8 192.900 175.837   1
   3  -4  -9 185.921 174.955   1
  -1  -3  -9 208.658 199.201   1
  -1   4  -9 322.104 159.453   1
  -1  -3  -9 104.308 190.284   3
   3   1  -9 354.328 197.658   1
  -4   1  -9 172.508 169.717   1
   4  -3  -9 58.2397 156.071   1
  -3  -1  -9 362.917 228.288   1
  -3  -1  -9 551.688 248.212   3
  -4   1  -9 359.079 222.191   3
  -4   3  -9 162.556 183.933   3
   4  -1  -9 376.983 216.465   1
  -3   4  -9 428.390 220.799   3
   1  -4  -9 214.711 187.383   1
   1   3  -9 356.174 194.850   1
  -3  -1 -10 86.8479 197.535   3
   3  -4 -10 189.729 204.067   1
  -3  -1 -10-40.9594 168.972   1
  -4   3 -10 133.230 221.488   3
  -4   1 -10-46.4266 233.172   3
  -4   1 -10-23.2671 170.576   1
   4  -3 -10 319.161 247.840   1
   4  -1 -10 97.6939 186.917   1
  -1  -3 -10 9.46363 196.668   1
   3   1 -10 3.47780 184.074   1
   1  -4 -10-71.9725 217.821   1
  -4   1 -11-38.9135 224.264   3
   1  -4 -11 165.846 205.315   1
   4  -3 -11 25.7497 205.934   1
   4  -1 -11-86.8301 208.469   1
  -1  -3 -11-119.677 222.740   1
   3   1 -11-105.165 222.939   1
  -3  -1 -11-157.790 239.755   1
   3  -4 -11-22.5700 190.827   1
   4  -1 -12 134.104 228.982   1
   1  -4 -12 110.949 266.475   1
   4  -3 -12 126.465 230.198   1
  -1  -3 -12-126.398 275.017   1
   3  -4 -12-49.5812 228.395   1
  -3  -1 -13 247.140 137.187   7
  -3   4 -13 531.683 143.854   7
  -4   1 -13 390.469 144.913   7
  -1   4 -13 533.702 144.167   7
  -1  -3 -13 534.766 156.782  10
   1  -4 -13 239.818 270.434   1
   3   1 -13 349.473 135.064   7
  -4   1 -13 689.266 148.810  10
   1  -4 -13 589.835 169.936  10
  -4   3 -13 730.584 153.137   7
  -3  -1 -13 648.075 154.437  10
   1   3 -13 693.509 149.523   7
  -3  -1 -14 705.072 174.458   7
   3   1 -14 459.672 153.319   7
  -3  -1 -14 892.649 170.098  10
  -1  -3 -14 1128.42 180.522  10
  -4   1 -14 383.895 160.022   7
   4  -1 -14 372.775 158.654   7
  -1   4 -14 593.532 160.580   7
  -4   1 -14 876.693 169.509  10
   1  -4 -14 670.529 179.981  10
   1   3 -14 634.168 168.618   7
  -3   4 -14 432.805 163.095   7
  -4   3 -14 435.131 159.793   7
  -1  -3 -14 665.872 179.578   7
   4  -3 -15-27.6555 139.395   7
   3  -4 -15 49.5267 147.150   7
  -4   3 -15 371.902 158.183   7
  -1  -3 -15 98.3903 152.417   7
  -3   4 -15 266.671 154.626   7
  -1  -3 -15 576.571 167.303  10
   1  -4 -15 704.798 164.688  10
  -1   4 -15 303.149 148.881   7
   3   1 -15 27.9778 144.958   7
  -3  -1 -15 787.719 160.862  10
  -3  -1 -15-15.8496 148.194   7
   1   3 -15 229.165 145.506   7
  -4   1 -15 68.2812 151.047   7
   1  -4 -15 4.07127 149.500   7
   4  -1 -15-313.510 151.582   7
  -3  -1 -16 8.48333 135.666   7
   1  -4 -16-77.6963 137.558   7
   1   3 -16 121.812 130.739   7
  -1  -3 -16 299.247 135.327  10
  -3   4 -16 91.4928 138.344   7
  -3  -1 -16 602.810 143.415  10
  -1   4 -16 197.458 136.659   7
   4  -1 -16 91.6387 128.910   7
   3  -4 -16 61.5338 130.097   7
  -4   3 -16 392.707 151.975   7
   3   1 -16 277.635 132.608   7
  -1  -3 -16 327.659 146.228   7
   4  -3 -16 184.724 133.888   7
  -4   1 -16-20.7931 140.981   7
  -4   3 -17 59.3410 120.970   7
   1   3 -17 46.8057 116.063   7
  -1  -3 -17 284.664 137.128   7
  -4   1 -17-109.900 127.504   7
  -1   4 -17 101.862 124.715   7
   4  -3 -17 1.76973 118.649   7
   3   1 -17 19.5791 116.912   7
   1  -4 -17-95.3729 117.942   7
   4  -1 -17 161.228 118.896   7
  -3  -1 -17 68.1647 123.146   7
  -3   4 -17 17.4579 121.001   7
   3  -4 -17 104.018 118.482   7
  -4   3 -18-72.5256 108.949   7
   1   3 -18 83.2969 105.698   7
   3  -4 -18 1.45694 100.773   7
  -1   4 -18 25.0818 105.879   7
  -3  -1 -18-198.283 112.666   7
  -4   1 -18 3.71684 107.655   7
   4  -1 -18 247.422 107.190   7
   4  -3 -18 249.127 106.460   7
   1  -4 -18-83.9938 106.917   7
  -1  -3 -18 90.3434 107.749   7
   3   1 -18 32.8584 102.117   7
  -3   4 -18-13.5533 107.711   7
   1   3 -19-25.8107 87.7541   7
   1  -4 -19 161.763 92.1404   7
  -3  -1 -19-52.4750 100.125   7
   4  -3 -19 113.251 89.3323   7
  -4   3 -19 78.1173 98.4393   7
  -3   4 -19 0.85898 97.3652   7
  -4   1 -19-186.689 106.067   7
   3   1 -19 114.154 88.5893   7
  -1   4 -19 56.4749 92.9067   7
  -1  -3 -19-6.70466 95.6106   7
   4  -1 -19 129.190 87.7602   7
   0  -4   0 63550.3 644.573   3
   4  -4   0 62237.2 712.633   1
  -4   0   0 63437.3 961.327   3
   0   4   0 63057.9 853.073   2
   0  -4  -1 95018.0 1084.28   3
   0   4  -1 98414.5 1142.18   5
  -4   4  -1 98463.3 1246.86   3
  -4   0  -1 96881.3 1370.54   3
   4   0  -1 99001.9 1137.71   5
   4   0   1 95155.0 1039.91   2
   0   4  -1 96676.8 1126.91   2
   4  -4  -1 99699.4 1182.95   1
  -4   0  -2 6615.49 394.746   3
   0  -4  -2 6468.11 309.260   3
   4  -4  -2 6826.53 346.676   1
  -4   4  -2 6659.47 353.604   3
   4   0  -3 79434.6 1255.79   1
   4  -4  -3 83790.3 1374.98   1
  -4   4  -3 81536.1 1329.42   3
  -4   0  -3 83828.4 1483.26   3
   0  -4  -3 80738.1 1251.10   3
  -4   4  -3 82974.6 774.305   1
   4   0  -4 2425.25 260.836   1
  -4   4  -4 2645.25 290.782   3
   0  -4  -4 2386.34 250.468   3
  -4   4  -4 2434.09 170.424   1
   4  -4  -4 2542.83 282.136   1
  -4   0  -4 2709.17 328.801   3
  -4   4  -5 27221.2 889.605   3
  -4   0  -5 26958.6 963.751   3
   0  -4  -5 25906.9 823.422   3
   4   0  -5 26787.4 845.527   1
   4  -4  -5 27599.0 904.619   1
  -4   4  -5 28177.3 646.487   1
  -4   0  -6 11634.5 695.788   3
   0  -4  -6 11328.0 587.567   3
  -4   4  -6 12849.4 489.973   1
   4  -4  -6 11978.0 485.823   4
   4  -4  -6 12261.1 673.678   1
   4   0  -6 11820.2 609.833   1
  -4   4  -6 13128.5 686.385   3
   4  -4  -7 25468.8 1018.14   1
  -4   0  -7 28652.4 1119.79   3
   4   0  -7 26623.6 994.196   1
  -4   4  -7 27241.2 992.066   3
   0  -4  -7 26155.7 962.884   3
   4  -4  -7 26420.0 718.775   4
   4  -4  -8 7722.82 604.347   1
  -4   0  -8 7887.34 586.353   1
  -4   0  -8 8033.77 644.733   3
  -4   4  -8 8089.04 588.595   3
   4   0  -8 7674.73 583.776   1
  -4   4  -8 8974.45 506.406   1
   0  -4  -8 7707.63 623.396   1
  -4   0  -9 1676.30 345.193   3
   0  -4  -9 1268.07 303.012   1
   4  -4  -9 1661.20 334.181   1
  -4   0  -9 1383.45 290.591   1
   4   0  -9 1532.76 317.003   1
  -4   4  -9 1594.56 304.508   3
  -4   4 -10 1236.64 303.613   3
  -4   0 -10 1327.84 322.595   1
   4   0 -10 1366.18 322.412   1
   0  -4 -10 1094.87 322.914   1
   4  -4 -10 1380.78 329.708   1
  -4   0 -10 1248.19 333.667   3
   0  -4 -11-61.5219 227.740   1
  -4   0 -11 32.4715 235.467   3
   4  -4 -11 168.168 249.223   1
   4   0 -11-141.513 198.082   1
   4  -4 -12 141.527 239.464   1
   0  -4 -12 87.7018 211.611   1
  -4   4 -13 1178.96 179.072   7
  -4   0 -13 1252.84 185.451   7
   0  -4 -13 2513.31 236.947  10
   4   0 -13 1020.51 167.896   7
  -4   0 -13 2194.89 201.062  10
   0   4 -13 1363.70 185.163   7
   0  -4 -13 589.673 332.558   1
  -4   4 -14 1509.51 188.593   7
   4   0 -14 1957.75 183.350   7
   0  -4 -14 1751.69 184.650  10
   0   4 -14 1738.32 184.312   7
  -4   0 -14 1532.26 181.797   7
   0   4 -15 86.0794 147.677   7
  -4   0 -15 916.298 166.758  10
   4   0 -15 380.834 150.419   7
   4  -4 -15-13.5048 143.365   7
  -4   0 -15 319.026 158.246   7
   0  -4 -15 50.0743 153.392   7
  -4   4 -15-6.42372 149.257   7
   0  -4 -15 1000.70 176.937  10
   4   0 -16 181.211 131.182   7
   0   4 -16-31.4682 131.178   7
  -4   0 -16 231.553 132.081  10
   0  -4 -16-48.7516 131.767  10
   0  -4 -16-62.7426 134.588   7
   4  -4 -16-272.828 130.177   7
  -4   0 -16 128.743 136.441   7
  -4   4 -16 42.7196 135.713   7
   4  -4 -17 53.2572 113.730   7
   4   0 -17 263.405 122.485   7
   0  -4 -17 29.5534 116.086   7
   0   4 -17 183.732 121.768   7
  -4   4 -17-17.6932 126.014   7
  -4   0 -17 214.308 127.196   7
   0   4 -18 34.4342 105.585   7
   0  -4 -18-120.683 108.906   7
  -4   4 -18-174.655 119.546   7
  -4   0 -18 99.4488 109.417   7
   4  -4 -18-366.572 108.578   7
   0  -4 -19-134.574 96.9227   7
   0   4 -19-73.1625 91.3437   7
  -4   4 -19-144.755 105.822   7
   4  -4 -19-142.097 91.1077   7
  -4   0 -19 100.154 97.8169   7
   2   3   0 4748.71 253.014   2
  -2  -3   0 4787.08 222.620   3
   5  -2   0 4713.69 255.133   4
  -2   5   0 4390.76 205.438   2
  -5   2   0 4739.14 277.191   3
   5  -3   0 5616.75 166.014   5
   3   2   0 4395.77 243.403   2
   5  -3   0 4517.97 250.209   4
  -3   5   0 4900.39 156.272   5
  -3  -2   0 4460.08 244.346   3
  -2   5  -1 1565.34 98.9217   3
   5  -2  -1 1541.05 166.695   4
  -3  -2   1 1496.77 131.560   3
  -2   5  -1 1443.35 136.102   2
  -2  -3   1 1602.85 117.198   3
   3   2   1 1350.98 151.961   2
  -3   5  -1 1606.86 121.078   2
  -5   3  -1 1435.83 200.542   3
  -3  -2  -1 1604.32 185.712   3
   5  -3  -1 1260.66 141.121   1
   5  -2   1 1616.96 152.647   4
   5  -3   1 1340.89 153.687   4
   2   3   1 1461.20 161.276   2
   5  -2  -1 1476.42 126.516   5
   5  -3  -1 1394.88 171.555   4
  -3   5  -1 1654.41 138.604   3
  -5   2  -1 1428.78 204.390   3
  -2  -3  -1 1548.99 168.424   3
  -5   2  -2 2558.61 287.501   3
  -2  -3  -2 2541.16 239.106   3
   5  -2  -2 2566.60 219.838   1
   5  -2   2 2756.38 140.760   2
  -5   3  -2 2157.13 255.411   3
   5  -3  -2 2426.18 217.248   1
   5  -3  -2 2250.73 210.362   4
   5  -3   2 2445.06 180.279   4
  -3   5  -2 2763.82 198.642   3
   5  -2  -2 2636.86 213.210   4
  -2   5  -2 2580.03 156.107   3
  -3  -2  -2 2580.57 257.813   3
   5  -3   2 2439.16 92.8256   2
   5  -3  -3 12062.1 443.767   4
   5  -3  -3 11430.1 477.546   1
  -3  -2  -3 11884.5 533.680   3
  -2   5  -3 13166.9 420.269   3
  -5   3  -3 11443.8 556.609   3
   5  -2  -3 12013.3 481.194   1
   5  -3   3 11647.3 315.972   4
  -2  -3  -3 11646.7 513.675   3
   5  -2  -3 11739.3 433.233   4
  -5   2  -3 11271.0 563.150   3
  -3   5  -3 12365.6 443.167   3
  -2  -3  -4 1097.71 228.785   3
   5  -3  -4 1125.32 174.823   4
  -5   2  -4 1180.03 254.370   3
   5  -2  -4 1031.40 186.308   1
   5  -2  -4 1253.03 180.763   4
  -3  -2  -4 1284.79 241.210   3
  -5   3  -4 1218.30 255.034   3
   5  -3  -4 1103.11 191.896   1
  -2   5  -4 1212.34 186.529   3
  -3   5  -4 1109.58 200.211   3
   5  -3  -5 1052.50 212.847   1
  -3   5  -5 1374.99 233.486   3
  -2  -3  -5 1341.17 249.304   3
  -5   3  -5 1235.07 182.209   1
  -5   2  -5 1260.80 293.011   3
  -5   3  -5 1199.57 271.540   3
  -2   5  -5 1385.47 219.680   3
  -3  -2  -5 1342.15 266.695   3
   5  -2  -5 1143.87 227.601   1
   5  -3  -5 1309.12 189.950   4
  -5   3  -6 413.680 218.956   3
  -3   5  -6 748.123 211.838   3
  -5   2  -6 404.364 217.270   3
  -5   3  -6 550.838 162.312   1
  -2  -3  -6 430.389 189.372   3
   3  -5  -6 463.028 201.934   1
  -2   5  -6 941.063 218.311   3
   5  -2  -6 567.619 197.169   1
   5  -3  -6 533.198 146.992   4
   5  -3  -6 580.781 187.960   1
  -3  -2  -6 448.678 204.534   3
  -5   3  -7 383.859 207.743   1
   3   2  -7 87.8188 163.029   1
   5  -3  -7 514.671 210.439   1
  -3   5  -7 378.191 229.314   3
  -3   5  -7 250.138 176.324   1
  -5   3  -7 296.051 255.440   3
   2  -5  -7 151.911 190.648   1
   3  -5  -7 362.696 205.986   1
   5  -2  -7 164.957 174.746   1
  -5   2  -7-38.0604 266.978   3
  -3  -2  -7 253.853 210.718   3
  -5   2  -7 262.119 190.278   1
  -2   5  -7 181.540 185.818   3
  -2  -3  -7 312.811 244.249   3
  -5   3  -8 152.648 147.402   1
  -5   3  -8 247.540 216.394   3
   2  -5  -8 54.9332 175.935   1
  -2  -3  -8 165.938 192.306   3
  -3   5  -8 115.144 172.308   3
   5  -2  -8-30.7158 152.146   1
  -5   2  -8 216.015 158.994   1
  -5   2  -8 13.2717 199.492   3
   3  -5  -8 48.3069 162.470   1
   5  -3  -8 164.612 178.976   1
  -3  -2  -8 86.4985 179.315   3
  -5   2  -9 137.049 238.951   3
  -3  -2  -9 112.573 198.444   1
  -3   5  -9-68.7925 199.397   3
  -5   3  -9-62.3467 211.652   3
  -3  -2  -9-19.9880 204.182   3
  -2  -3  -9-56.1857 194.728   1
   2  -5  -9 115.979 190.831   1
   3  -5  -9 92.1034 186.021   1
   5  -2  -9 89.6342 176.751   1
   5  -3  -9 24.8194 194.485   1
  -2  -3  -9-84.4903 209.195   3
   5  -3 -10 239.765 216.048   1
  -3  -2 -10 206.560 222.599   3
  -2  -3 -10 136.356 210.856   1
   5  -2 -10 207.949 236.856   1
  -5   2 -10 483.080 292.010   3
   2  -5 -10 240.186 256.032   1
   3  -5 -10 365.781 236.961   1
  -5   3 -10 153.378 218.631   3
  -3  -2 -10 141.839 185.386   1
  -2  -3 -10 264.795 248.795   3
   3  -5 -11 93.9569 229.471   1
   2  -5 -11 28.7427 213.703   1
   5  -3 -11 190.624 245.610   1
  -3  -2 -11-52.8523 229.439   1
  -5   3 -11-181.507 250.471   3
  -5   2 -11 108.346 266.785   3
  -2  -3 -11-32.3337 244.383   1
   5  -2 -11 22.7991 227.560   1
   5  -3 -12 363.579 296.469   1
  -2  -3 -12 156.473 241.999   1
   2  -5 -12-37.7582 268.555   1
   3  -5 -12 506.833 270.429   1
   5  -2 -12 533.945 301.115   1
  -2   5 -13 108.038 139.364   7
   3   2 -13 252.314 139.379   7
  -5   2 -13-33.9104 138.652   7
  -2  -3 -13 557.962 160.327  10
  -3  -2 -13 195.249 150.243   7
  -5   3 -13-3.65930 140.725   7
  -3   5 -13 254.979 142.982   7
   2  -5 -13-43.1541 163.088  10
  -5   2 -13 260.977 141.655  10
  -3  -2 -13 586.867 162.811  10
   2   3 -13 235.399 143.890   7
  -5   2 -14 2403.47 225.370  10
  -3  -2 -14 1072.64 235.826   7
   3   2 -14 1132.33 179.378   7
   2  -5 -14 628.642 238.396  10
  -2  -3 -14 1943.50 231.247  10
  -2  -3 -14 374.597 204.791   7
   2   3 -14 875.926 211.319   7
   5  -2 -14 621.877 215.642   7
  -5   2 -14 992.686 203.081   7
  -5   3 -14 908.890 184.047   7
  -3   5 -14 963.982 196.982   7
  -2   5 -14 1032.51 210.917   7
  -3  -2 -14 1055.79 222.456  10
  -3   5 -15 82.4192 142.568   7
  -2  -3 -15 70.5713 144.917   7
  -3  -2 -15-34.0735 144.330   7
   3   2 -15 288.677 139.858   7
  -2   5 -15 163.687 146.819   7
  -5   3 -15-537.548 159.522   7
   5  -3 -15-181.793 148.552   7
   2   3 -15-214.160 144.028   7
   2  -5 -15 362.966 153.795  10
  -5   2 -15 300.951 157.549   7
  -2  -3 -15 388.055 155.276  10
   5  -2 -15 75.8623 137.746   7
  -3  -2 -15 247.580 151.580  10
   2  -5 -16 73.7475 144.695   7
  -2   5 -16 405.997 148.264   7
  -5   2 -16 438.997 162.387   7
   5  -2 -16 565.388 159.507   7
  -5   3 -16 67.1796 138.625   7
  -3  -2 -16 885.437 170.791  10
   3   2 -16 476.729 151.247   7
   2   3 -16 306.837 144.783   7
   5  -3 -16-324.810 145.772   7
  -3  -2 -16 339.460 164.847   7
  -2  -3 -16 109.083 140.903   7
   3  -5 -16 239.390 145.955   7
  -3   5 -16 288.537 148.799   7
  -3  -2 -17 755.369 165.475  10
   2  -5 -17-158.397 122.326   7
  -5   2 -17 358.782 141.286   7
   3   2 -17 338.331 136.615   7
  -3   5 -17-161.151 132.991   7
   3  -5 -17-15.2651 126.228   7
  -5   3 -17 301.259 136.297   7
   5  -3 -17-200.133 129.293   7
  -2  -3 -17 706.458 156.631   7
   5  -2 -17 1811.81 165.120   7
  -3  -2 -17 959.417 187.663   7
   2   3 -17 923.272 146.535   7
  -2   5 -17 1265.37 156.193   7
  -2  -3 -18 414.351 122.929   7
  -2   5 -18 37.4128 115.648   7
   2   3 -18 232.267 110.938   7
  -3  -2 -18 694.108 129.813   7
   2  -5 -18-88.3232 106.009   7
   3   2 -18 253.650 111.991   7
  -3   5 -18-300.016 118.111   7
  -5   3 -18 378.111 121.642   7
  -5   2 -18 485.375 127.703   7
   5  -3 -18-23.4751 103.184   7
   3  -5 -19-149.188 100.121   7
  -3   5 -19-172.089 106.706   7
   5  -3 -19-46.5839 87.2718   7
  -2  -3 -19 98.2535 101.267   7
   2   3 -19 607.454 102.682   7
  -2   5 -19-12.4040 95.3835   7
  -5   3 -19-60.3388 112.011   7
  -3  -2 -19 705.255 119.629   7
   3   2 -19 681.471 102.019   7
  -5   2 -19 316.836 111.103   7
  -5   1   0 152292. 1731.54   3
   5  -4   0 153520. 1343.04   1
  -1  -4   0 150722. 1340.95   3
  -1   5   0 155136. 1520.52   2
   4   1   0 153063. 1551.37   2
   1   4   0 154355. 1603.25   2
  -4  -1   0 156541. 1691.03   3
   1   4   1 26415.9 569.734   2
  -1   5  -1 28513.0 565.384   5
  -1  -4  -1 24772.6 534.881   3
   5  -1  -1 28735.6 561.528   5
  -5   4  -1 24447.9 654.987   3
   5  -1   1 25581.4 469.332   2
   5  -4  -1 24532.6 538.784   1
  -4  -1  -1 25288.9 677.199   3
  -4   5  -1 26405.7 582.343   3
  -1   5  -1 26344.6 548.349   2
  -4   5  -1 26507.7 352.104   2
   1   4  -1 26232.8 586.777   2
  -1  -4   1 22878.9 332.549   3
  -5   1  -1 25774.7 707.147   3
   4   1   1 25408.2 541.521   2
   5  -1   2 94439.8 1030.07   2
   5  -4  -2 95125.7 1308.60   1
  -4  -1  -2 97417.8 1530.81   3
  -4   5  -2 99755.5 1337.81   3
  -5   1  -2 97096.3 1572.50   3
   1  -5  -2 96916.0 1252.12   3
   4   1   2 93488.9 1135.12   2
  -5   4  -2 95139.4 1484.91   3
  -5   1  -3 102758. 1725.18   3
  -4  -1  -3 107454. 1723.30   3
   5  -4  -3 107303. 1559.05   1
  -1  -4  -3 106953. 1510.29   3
   5  -1  -3 103574. 1504.34   1
   1  -5  -3 102766. 1438.63   3
  -5   4  -3 104671. 1663.55   3
  -4   5  -3 103269. 1494.85   3
   1  -5  -4 20297.5 665.779   3
   5  -4   4 21438.3 412.666   4
  -5   4  -4 21267.2 464.697   1
   4  -5  -4 22252.7 794.168   1
  -1  -4  -4 20289.0 700.674   3
  -5   1  -4 20853.2 821.550   3
  -5   4  -4 21099.9 775.972   3
  -4  -1  -4 22379.1 823.418   3
  -4   5  -4 21509.7 714.788   3
   5  -4  -4 21320.1 737.302   1
   5  -1  -4 20922.8 701.037   1
   5  -4  -4 20252.8 614.223   4
  -4   5  -5 41640.2 1058.63   3
  -4   5  -5 42315.8 744.931   1
  -1  -4  -5 38797.2 1048.92   3
  -5   4  -5 40643.4 1150.70   3
   1  -5  -5 38447.5 1001.52   3
   5  -4  -5 39334.0 1100.11   1
  -5   4  -5 42396.8 786.870   1
   5  -1  -5 38982.5 1045.66   1
   4   1  -5 38638.5 1031.93   1
   4  -5  -5 41262.9 1157.43   1
  -4  -1  -5 40709.2 1191.67   3
  -5   1  -5 40177.6 1229.02   3
   5  -4  -5 40534.0 904.414   4
  -5   4  -6 13508.3 708.986   3
  -1  -4  -6 12574.4 637.532   3
   4  -5  -6 13552.9 705.442   1
  -4  -1  -6 13642.3 776.970   3
  -4   5  -6 14094.5 676.998   3
  -4   5  -6 14557.8 492.515   1
   5  -4  -6 13258.0 520.431   4
  -5   4  -6 13933.2 510.499   1
   4   1  -6 13117.0 659.068   1
   5  -1  -6 13506.6 661.236   1
   5  -4  -6 13448.8 688.081   1
  -5   1  -6 13039.7 744.369   3
  -5   4  -7 56850.0 1562.16   3
   5  -4  -7 53394.4 1504.34   1
   4  -5  -7 51811.2 1487.01   1
   5  -1  -7 52256.2 1440.03   1
   5  -4  -7 52959.5 1097.77   4
   4  -5  -7 54299.7 1121.57   4
  -1  -4  -7 52008.5 1403.47   3
  -4   5  -7 62113.5 1173.80   1
  -4   5  -7 55976.8 1411.35   3
  -5   4  -7 59404.5 1182.70   1
   4   1  -7 54270.0 1426.52   1
  -4  -1  -7 51155.4 1525.88   3
  -5   1  -7 58645.5 1740.22   3
  -5   1  -8 1751.11 353.106   3
   5  -1  -8 1816.86 319.585   1
   5  -4  -8 1812.29 320.651   1
  -4   5  -8 1887.53 313.631   3
   4  -5  -8 1919.91 343.598   1
  -1  -4  -8 1961.63 321.057   3
   1  -5  -8 1733.29 327.587   1
  -5   4  -8 1818.01 332.819   3
  -4  -1  -8 2198.54 369.337   3
  -5   1  -8 1855.66 305.295   1
   4   1  -8 1835.87 312.516   1
  -4   5  -9 254.126 196.150   3
  -4  -1  -9 171.215 184.556   1
  -5   1  -9 209.721 167.435   1
   5  -1  -9 314.664 199.883   1
   1  -5  -9 398.026 219.168   1
   4   1  -9 226.267 183.127   1
  -1  -4  -9 210.631 196.026   3
   4  -5  -9 207.954 205.996   1
  -5   1  -9 198.582 220.400   3
  -5   4  -9 370.444 229.690   3
  -4  -1  -9 154.395 212.345   3
  -1  -4  -9 128.169 199.614   1
   5  -4  -9 362.113 227.654   1
  -4  -1 -10 345.936 187.583   1
   5  -1 -10 467.150 235.572   1
   5  -4 -10 297.069 224.924   1
  -5   4 -10 277.349 206.765   3
  -4   5 -10 341.914 224.140   3
  -4  -1 -10 610.864 296.685   3
   4  -5 -10 181.986 200.226   1
  -1  -4 -10 337.781 226.342   1
  -5   1 -10 486.728 269.721   3
   1  -5 -10 330.545 231.635   1
  -5   1 -11 1483.89 383.635   3
  -5   4 -11 1751.15 369.748   3
  -1  -4 -11 1836.22 426.164   1
   4  -5 -11 1706.29 381.529   1
   5  -1 -11 1420.80 356.089   1
   1  -5 -11 1565.32 388.009   1
  -4  -1 -11 2013.52 428.926   3
   5  -4 -11 1464.14 368.668   1
  -1  -4 -12 241.626 241.656   1
   4  -5 -12 342.376 317.738   1
   1  -5 -12 51.2366 266.114   1
   5  -4 -12 431.535 260.465   1
   1  -5 -13 1256.78 186.686  10
  -4  -1 -13 1040.48 164.081   7
   5  -1 -13 1296.93 167.692   7
  -4  -1 -13 1515.43 178.622  10
  -4   5 -13 1380.21 172.954   7
   4   1 -13 1167.81 161.356   7
  -1   5 -13 1418.38 180.792   7
  -5   1 -13 1120.82 169.671   7
  -5   1 -13 1687.67 174.993  10
  -5   4 -13 1347.30 173.017   7
  -1  -4 -13 1508.63 192.612  10
   1   4 -13 1498.82 173.756   7
   1   4 -14-27.5062 145.750   7
  -5   4 -14 67.2889 140.404   7
   1  -5 -14 84.6509 155.736  10
  -1  -4 -14-180.119 160.038   7
   5  -1 -14-326.092 157.054   7
  -1  -4 -14 65.4487 159.848  10
  -4   5 -14 204.476 150.273   7
  -4  -1 -14 239.186 145.587  10
  -1   5 -14 296.130 154.310   7
  -4  -1 -14-127.582 150.147   7
  -5   1 -14 197.003 148.154  10
   4   1 -14-141.021 144.174   7
  -5   1 -14 169.467 144.184   7
   4   1 -15-170.998 149.481   7
   1   4 -15-78.1324 139.424   7
   1  -5 -15-567.234 164.238   7
  -4   5 -15 210.188 149.948   7
   5  -4 -15-166.039 141.755   7
  -5   1 -15 32.3940 140.655   7
  -4  -1 -15-30.3887 150.811  10
   1  -5 -15-76.3417 150.065  10
  -5   4 -15 83.0051 146.047   7
   5  -1 -15-184.945 141.023   7
  -1  -4 -15 74.3153 142.751  10
  -1  -4 -15-466.793 162.265   7
  -1   5 -15 123.952 144.992   7
  -4  -1 -15-238.697 153.034   7
  -5   1 -15 141.124 139.875  10
  -4  -1 -16-76.4126 133.693  10
   5  -1 -16-28.2973 127.273   7
  -1  -4 -16-28.0716 135.317   7
   1  -5 -16-136.839 131.147  10
   5  -4 -16-50.6298 122.728   7
  -5   1 -16-116.890 135.643  10
   4  -5 -16-109.779 131.051   7
  -5   4 -16 109.481 135.488   7
  -1  -4 -16-109.534 133.366  10
   1   4 -16 112.227 126.330   7
   1  -5 -16 15.4703 127.250   7
  -4   5 -16 56.5574 137.539   7
  -5   1 -16 6.59454 129.826   7
   4   1 -16 8.48198 121.789   7
  -4  -1 -16 92.2820 135.364   7
  -1   5 -16 50.7466 125.562   7
   5  -4 -17-21.7297 112.064   7
  -4   5 -17 137.156 126.867   7
   5  -1 -17 354.047 120.248   7
  -1   5 -17 71.5845 122.580   7
  -4  -1 -17-77.3787 127.626  10
  -1  -4 -17-105.974 124.017   7
  -4  -1 -17-25.9825 121.331   7
  -5   1 -17 19.4551 120.271   7
  -1  -4 -17-44.9446 115.174  10
   1   4 -17 126.706 115.744   7
   4   1 -17 254.901 116.500   7
  -5   4 -17 37.5675 119.577   7
   4  -5 -17 61.1965 117.580   7
   1  -5 -17 93.5611 117.548   7
  -5   4 -18-19.1344 108.721   7
   1   4 -18 3.53782 100.164   7
  -1  -4 -18-12.9870 104.789   7
   5  -1 -18 207.243 104.865   7
   4   1 -18 227.135 103.927   7
   1  -5 -18 32.5923 98.8251   7
  -4  -1 -18-10.5470 106.122   7
  -4   5 -18 9.87295 108.695   7
   5  -4 -18 286.610 106.449   7
  -5   1 -18-83.0578 108.946   7
  -1   5 -18 291.939 113.746   7
   4  -5 -18 57.1178 98.1882   7
  -5   1 -19-111.194 100.413   7
   1   4 -19 578.537 100.717   7
   4  -5 -19 149.753 90.3829   7
  -4  -1 -19 137.648 98.5983   7
  -4   5 -19-117.819 99.7598   7
  -1  -4 -19-8.33587 90.3518   7
   1  -5 -19-65.1086 93.7296   7
   4   1 -19 509.886 94.8625   7
  -5   4 -19 134.054 101.926   7
   5  -4 -19-2.72611 83.5523   7
  -1   5 -19 285.705 100.082   7
   5  -1 -19 438.538 91.9981   7
   5  -5   0 146608. 1340.87   1
  -5   0   0 146356. 1730.89   3
   0  -5   0 143833. 1224.94   3
   0   5   0 147227. 1572.67   2
   0   5  -1 55106.0 880.698   2
   5   0   1 52984.2 792.775   2
   5  -5  -1 52154.7 848.190   1
   0  -5  -1 53788.8 800.332   3
   5   0  -1 55344.3 886.601   5
  -5   0  -1 53712.4 1066.93   3
   0   5  -1 54082.4 889.449   5
   0   5   1 53128.5 855.970   2
  -5   5  -1 53064.5 946.516   3
  -5   0  -2 32871.0 896.670   3
   0  -5  -2 32083.8 694.741   3
   5  -5  -2 31909.9 769.051   1
  -5   5  -2 33472.4 813.171   3
   5   0   2 32091.3 604.375   2
   5  -5  -3 67504.6 1256.51   1
  -5   0  -3 66973.0 1398.63   3
  -5   5  -3 66696.4 1271.99   3
  -5   0  -4 139.412 180.663   3
   5  -5  -4 41.1249 137.139   1
  -5   5  -4 164.155 181.678   3
   0  -5  -4 23.3317 128.176   3
  -5   0  -5 15042.5 762.927   3
   5  -5  -5 15045.7 707.813   1
   5   0  -5 14231.1 638.558   1
  -5   5  -5 16601.0 426.883   1
   0  -5  -5 14618.6 622.781   3
  -5   5  -5 14981.7 686.264   3
   5  -5   5 14576.2 325.133   4
   0  -5  -6 2483.09 306.492   3
  -5   5  -6 2987.21 221.549   1
  -5   5  -6 2978.23 352.127   3
  -5   0  -6 2602.82 366.571   3
   5  -5  -6 2718.53 346.311   1
   5  -5  -6 2626.25 262.821   4
   5   0  -6 2698.83 321.026   1
   5  -5  -7 22491.8 729.706   4
   5  -5  -7 22876.0 992.377   1
  -5   0  -7 23692.5 1091.92   3
   0  -5  -7 22376.6 902.816   3
  -5   5  -7 24078.1 969.387   3
   5   0  -7 23530.1 943.672   1
  -5   5  -8 62.3848 192.693   3
  -5   0  -8-163.849 250.214   3
   5  -5  -8 175.518 176.797   1
   5   0  -8 268.430 183.433   1
   0  -5  -9 104.850 195.658   1
  -5   0  -9-76.4969 195.924   1
   5  -5  -9 20.7553 164.625   1
  -5   0  -9-84.6158 224.274   3
  -5   5  -9 136.195 205.791   3
   5   0  -9 79.9364 165.321   1
   0  -5 -10-2.07062 195.041   1
  -5   5 -10-117.824 232.351   3
   5   0 -10-76.2691 203.042   1
  -5   0 -10 3.15603 270.360   3
   5  -5 -10-16.0469 204.606   1
   0  -5 -11 6.57833 206.218   1
  -5   5 -11 151.893 228.299   3
   5  -5 -11-24.7035 218.027   1
  -5   0 -11 33.8060 238.414   3
  -5   0 -12 446.404 387.075   3
   5  -5 -12-177.147 296.753   1
   0  -5 -12 189.631 260.236   1
  -5   5 -13 1076.95 181.226   7
   0   5 -13 1438.05 195.299   7
   0  -5 -13 2732.24 288.876  10
  -5   0 -13 2611.24 226.541  10
  -5   0 -13 1329.87 198.268   7
  -5   5 -14 407.379 154.643   7
   5   0 -14-8.15321 148.032   7
  -5   0 -14 484.463 151.436  10
   0   5 -14 321.388 141.895   7
  -5   0 -14 125.474 145.344   7
   0  -5 -14 210.365 155.328  10
   0   5 -15 501.785 152.809   7
   5   0 -15 247.565 145.692   7
   0  -5 -15 1035.20 177.286  10
  -5   0 -15 1113.72 168.145  10
  -5   5 -15 294.871 156.795   7
  -5   0 -15 364.534 153.341   7
   0  -5 -15 239.336 169.668   7
  -5   0 -16 150.290 139.325   7
   5   0 -16 476.147 135.965   7
   5  -5 -16 219.575 136.451   7
   0  -5 -16 359.683 141.414  10
   0   5 -16 303.184 134.943   7
  -5   5 -16 255.633 144.126   7
   0  -5 -16 282.019 148.625   7
  -5   0 -17 294.729 134.912   7
   0  -5 -17 429.887 139.122   7
  -5   5 -17 256.457 133.668   7
  -5   0 -17 1332.14 149.843  10
   0  -5 -17 508.843 132.620  10
   0   5 -17 289.782 137.365   7
   5  -5 -17 1052.92 152.116   7
   5   0 -17 827.435 139.339   7
  -5   0 -18 120.103 116.493   7
   5  -5 -18 232.474 110.793   7
   0   5 -18 339.843 113.716   7
  -5   5 -18 19.8104 114.611   7
   5   0 -18 474.068 108.307   7
   0  -5 -18 637.727 124.541   7
   5  -5 -19 344.137 95.3896   7
   0  -5 -19 319.600 98.9026   7
  -5   5 -19 63.3613 103.633   7
   0   5 -19 275.109 93.8234   7
   5   0 -19 494.640 92.5272   7
  -5   0 -19 388.131 109.055   7
  -6   3   0 69831.7 1169.56   3
   6  -3   0 68344.9 1058.45   4
  -3   6   0 67863.3 876.864   2
   3   3   0 68452.0 1041.81   2
  -3   6   0 69776.7 812.142   5
  -3  -3   0 68909.2 1005.47   3
  -3   6  -1 89855.2 1006.87   2
  -3  -3   1 90136.0 1066.95   3
   3   3   1 85469.5 1167.24   2
   6  -3   1 86603.5 1175.00   4
   6  -3  -1 88940.5 1260.74   4
  -3  -3  -1 88722.7 1263.35   3
  -6   3  -1 88430.5 1444.04   3
  -3   6  -1 87653.1 968.840   3
  -3  -3  -2 500612. 4158.72   3
   6  -3   2 497982. 3684.97   4
  -6   3  -2 482648. 4443.14   3
   6  -3  -2 487392. 3933.70   1
   3   3   2 474636. 3770.07   2
  -3   6  -2 495217. 3521.13   3
   6  -3  -2 495373. 3982.38   4
  -6   3  -3 160493. 2325.55   3
   6  -3   3 159731. 1358.80   2
   6  -3  -3 163954. 1920.10   4
  -3  -3  -3 162424. 2130.43   3
   6  -3  -3 156273. 1994.08   1
   6  -3  -4 38657.3 877.859   4
  -3  -3  -4 37575.2 1035.28   3
   6  -3  -4 37010.3 972.236   1
  -6   3  -4 37813.2 1139.98   3
   6  -3  -5 130897. 1785.25   4
  -3  -3  -5 140169. 2310.91   3
   6  -3  -5 129607. 2111.70   1
  -3   6  -5 143606. 1899.82   3
  -6   3  -5 134311. 2383.87   3
  -3   6  -6 50940.5 1172.97   3
  -6   3  -6 50771.8 1095.43   1
  -6   3  -6 47140.1 1443.65   3
   6  -3  -6 44021.4 1275.94   1
  -3  -3  -6 44811.6 1285.40   3
   3  -6  -7 110655. 2308.30   1
   6  -3  -7 117922. 2287.85   1
  -6   3  -7 135017. 1993.08   1
  -3   6  -7 136575. 2112.39   3
  -3  -3  -7 118517. 2312.23   3
  -6   3  -7 122403. 2495.55   3
  -6   3  -8 36607.0 1415.68   3
   3  -6  -8 34528.0 1326.11   1
   6  -3  -8 38038.0 1342.14   1
  -3  -3  -8 36820.8 1317.49   3
  -6   3  -9 32872.5 1390.93   3
  -3  -3  -9 33871.2 1356.50   3
   3  -6  -9 30545.9 1313.36   1
   6  -3  -9 34956.4 1371.57   1
  -3  -3 -10 13028.6 919.147   1
   6  -3 -10 14445.0 947.652   1
  -6   3 -10 15058.0 964.557   3
   3  -6 -10 14597.3 974.080   1
  -3  -3 -10 14413.3 958.375   3
   6  -3 -11 14401.1 1020.77   1
  -6   3 -11 13615.4 966.393   3
   3  -6 -11 14286.3 1017.03   1
  -3  -3 -11 11599.1 904.456   1
  -3  -3 -12 8563.61 817.250   1
  -6   3 -12 9195.24 849.925   3
   6  -3 -12 9538.17 876.805   1
   3  -6 -12 8520.91 852.183   1
  -6   3 -13 3903.30 199.344  10
   3  -6 -13 3221.11 225.974  10
   3   3 -13 3540.56 199.762   7
  -3   6 -13 4233.11 223.083   7
  -3  -3 -13 2981.72 207.649   7
  -6   3 -13 3689.82 208.024   7
  -3  -3 -13 3694.39 215.126  10
  -3  -3 -14 3898.87 249.604   7
  -3  -3 -14 3828.76 232.006  10
  -6   3 -14 3994.15 239.546  10
   3   3 -14 3627.11 235.947   7
  -3   6 -14 4515.77 268.588   7
  -6   3 -14 4693.24 262.341   7
  -3   6 -15 65.7695 137.472   7
   3   3 -15 48.7671 130.355   7
   6  -3 -15-142.589 137.675   7
  -3  -3 -15-14.2774 141.286  10
  -6   3 -15 241.991 140.909   7
   3  -6 -15-12.4921 139.060  10
  -3  -3 -15-327.345 159.150   7
  -3   6 -16 332.707 146.504   7
   3   3 -16 694.505 140.955   7
   6  -3 -16 395.496 134.511   7
  -6   3 -16 81.5791 145.040   7
  -3  -3 -16-232.254 154.889  10
  -3  -3 -16-326.995 145.275   7
   3  -6 -16-320.607 137.217   7
  -6   3 -17 62.3389 135.950   7
  -3  -3 -17 223.609 124.024   7
   3  -6 -17-144.945 116.350   7
  -3   6 -17 662.209 147.110   7
   6  -3 -17 423.191 138.400   7
   3   3 -17 969.258 146.190   7
  -3  -3 -18 262.455 113.925   7
   3  -6 -18 14.0736 100.587   7
  -3   6 -18 385.836 124.934   7
   6  -3 -18 455.023 113.971   7
  -6   3 -18 431.389 123.709   7
   3   3 -18 873.488 118.468   7
  -3  -3 -18-302.127 117.123  10
   6  -3 -19 724.118 100.399   7
  -3  -3 -19 222.026 103.083   7
  -6   3 -19 269.283 112.730   7
  -3   6 -19 703.272 120.727   7
   3  -6 -19 126.205 94.7461   7
  -6   2   0 1127.41 189.660   3
  -4   6   0 1003.07 77.5731   5
   6  -4   0 1253.24 173.861   4
   6  -4   0 847.510 76.8350   5
   2   4   0 1002.52 162.578   2
   6  -2   0 1106.93 164.756   4
  -2   6   0 1034.77 150.030   2
   4   2   0 1055.38 172.891   2
  -4  -2   0 1132.17 162.126   3
  -2  -4   0 1148.15 127.092   3
  -2  -4  -1 46992.3 838.373   3
   2   4   1 46634.9 837.932   2
  -6   4  -1 48421.6 1015.33   3
  -4  -2  -1 49320.9 978.743   3
  -2  -4   1 47280.8 660.368   3
   4   2   1 47821.3 833.264   2
  -4   6  -1 48425.5 782.445   3
   6  -4   1 48228.3 845.390   4
  -2   6  -1 50108.5 768.285   5
   6  -4  -1 48131.0 908.434   4
   6  -2  -1 48152.6 744.036   5
   6  -2  -1 46794.9 874.688   4
  -2   6  -1 45886.6 495.726   3
  -2   6  -1 49381.9 775.868   2
  -4  -2   1 48104.2 800.260   3
   6  -4  -1 47603.6 795.557   1
   2   4  -1 48959.5 882.783   2
  -4   6  -1 46523.4 613.069   2
  -6   2  -1 46611.8 1022.15   3
  -6   2  -2 197023. 2463.64   3
   6  -4   2 200082. 1914.39   4
  -4   6  -2 201607. 1995.55   3
  -4  -2  -2 206177. 2350.00   3
   4   2   2 193241. 1928.93   2
  -6   4  -2 195709. 2409.38   3
   6  -4  -2 200839. 2126.87   1
   6  -2   2 197215. 1622.17   2
   6  -2  -2 198131. 2085.06   4
  -2  -4  -2 194717. 2107.71   3
   6  -4  -2 196809. 2122.91   4
   6  -2  -3 1521.12 204.362   1
  -2  -4  -3 1431.35 229.198   3
   6  -4  -3 1462.51 209.366   4
  -6   2  -3 1772.72 288.616   3
   6  -2   3 1531.62 149.738   2
   6  -4   3 1549.64 159.574   4
   6  -4  -3 1298.34 208.381   1
  -6   4  -3 1417.40 267.039   3
   6  -4   3 1343.66 82.1553   2
   6  -2  -3 1504.28 198.471   4
  -4  -2  -3 1677.38 259.498   3
  -4   6  -3 1548.38 197.943   3
  -2   6  -3 1621.96 150.599   3
  -6   4  -4 2308.26 316.451   3
   6  -4  -4 2262.11 242.185   4
   6  -2  -4 2034.76 243.715   1
  -6   2  -4 2264.83 328.324   3
  -4   6  -4 2199.60 246.274   3
  -2   6  -4 2259.13 202.802   3
   6  -4   4 2541.58 161.751   4
   6  -4  -4 2273.43 262.338   1
  -4  -2  -4 2263.71 305.111   3
  -2  -4  -4 1945.57 265.576   3
  -2   6  -5 817.575 178.315   3
  -6   2  -5 689.395 247.534   3
   6  -4  -5 783.176 176.666   4
   6  -4  -5 676.882 189.870   1
  -4  -2  -5 728.981 231.348   3
  -6   4  -5 746.921 262.566   3
  -2  -4  -5 802.047 213.976   3
   6  -2  -5 602.417 173.379   1
  -6   4  -5 691.120 132.970   1
   4  -6  -5 675.608 202.150   1
  -4   6  -5 753.285 203.235   3
  -6   2  -6 43.6143 197.295   3
  -6   4  -6 131.605 202.904   3
   6  -4  -6 234.883 150.125   1
   6  -2  -6 74.3111 138.179   1
  -2   6  -6 118.002 142.647   3
  -2  -4  -6 172.132 171.135   3
  -6   4  -6 91.3003 110.101   1
   6  -4  -6 124.903 136.878   4
   4  -6  -6 131.053 163.309   1
  -4   6  -6 130.489 179.457   3
  -4  -2  -6 361.532 223.288   3
   6  -4  -7 5497.46 373.346   4
   4  -6  -7 4987.95 483.311   1
   6  -4  -7 5684.27 501.017   1
  -6   2  -7 5860.51 568.409   3
   6  -2  -7 5638.22 486.711   1
  -4  -2  -7 5532.80 516.578   3
  -2  -4  -7 5182.43 472.976   3
  -4   6  -7 6076.38 463.982   3
  -6   4  -7 5979.86 552.968   3
  -6   2  -8 3825.46 385.554   1
  -6   2  -8 3320.12 469.995   3
  -4  -2  -8 3414.96 453.219   3
   2  -6  -8 3428.12 438.277   1
  -4   6  -8 4058.33 408.081   3
   6  -4  -8 3756.76 446.199   1
   4  -6  -8 3828.03 451.367   1
  -6   4  -8 3342.88 454.285   3
  -2  -4  -8 3904.94 439.449   3
   6  -2  -8 3522.27 421.981   1
   6  -4  -9 3056.37 444.180   1
  -2  -4  -9 2755.29 407.006   3
  -4  -2  -9 2906.88 432.991   3
  -6   4  -9 2541.92 427.197   3
  -4   6  -9 2906.26 384.361   3
   2  -6  -9 2522.57 411.695   1
  -6   2  -9 3077.49 459.664   3
   6  -2  -9 2943.35 424.106   1
   4  -6  -9 2715.83 423.541   1
   6  -2 -10 3426.19 488.845   1
   6  -4 -10 3552.52 498.706   1
  -6   2 -10 3254.97 498.849   3
  -2  -4 -10 2704.22 451.315   1
  -4  -2 -10 3360.26 495.594   3
  -4  -2 -10 3115.61 478.452   1
   4  -6 -10 3141.91 475.390   1
   2  -6 -10 3064.38 475.025   1
  -6   4 -10 2887.11 451.652   3
  -4  -2 -11 745.676 302.083   3
  -6   2 -11 1017.64 352.271   3
   4  -6 -11 662.336 281.552   1
   6  -2 -11 833.679 310.495   1
  -2  -4 -11 778.783 274.335   1
   6  -4 -11 1111.47 335.770   1
  -6   4 -11 392.202 260.111   3
   2  -6 -11 842.539 315.686   1
  -4  -2 -11 500.422 246.111   1
   4  -6 -12 134.463 248.921   1
  -6   4 -12 189.695 259.483   3
  -2  -4 -12 17.3231 264.180   1
   2  -6 -12 249.501 260.447   1
  -6   2 -12 19.7638 268.415   3
   6  -2 -12 226.939 276.562   1
   6  -4 -12-268.208 270.848   1
  -4   6 -13 834.842 149.660   7
   2  -6 -13 1268.32 186.302  10
  -4  -2 -13 849.447 149.401   7
  -6   2 -13 1330.77 156.476  10
  -4  -2 -13 1329.38 162.744  10
  -6   2 -13 887.583 150.157   7
  -2   6 -13 1112.70 163.940   7
   2   4 -13 1165.21 155.754   7
  -2  -4 -13 1005.56 159.113  10
  -6   4 -13 1033.49 155.768   7
   4   2 -13 818.206 146.015   7
   4  -6 -13 581.452 171.268  10
  -4  -2 -14 835.140 176.747  10
   4   2 -14 31.6391 156.891   7
  -4   6 -14 408.012 162.195   7
  -6   2 -14 308.161 151.084   7
  -2  -4 -14 337.214 155.498   7
  -6   2 -14 622.385 157.634  10
   2  -6 -14 1113.68 191.890  10
  -4  -2 -14 208.568 146.648   7
  -2  -4 -14 756.070 185.277  10
   6  -2 -14 118.115 146.766   7
  -6   4 -14 617.902 156.084   7
   2   4 -14 961.044 161.698   7
  -2   6 -14 483.346 158.283   7
   6  -2 -15 23.3997 133.597   7
  -6   2 -15 290.729 132.309  10
   4   2 -15 10.2152 132.681   7
  -2   6 -15 238.742 137.629   7
   2   4 -15 436.966 137.004   7
  -2  -4 -15-91.4009 149.753   7
  -6   2 -15 175.525 136.138   7
   2  -6 -15 38.9949 147.398  10
   6  -4 -15 211.204 129.934   7
  -4  -2 -15 193.557 137.478   7
  -2  -4 -15 165.351 135.908  10
  -6   4 -15 581.899 152.128   7
  -4   6 -15 255.932 139.242   7
  -4  -2 -15 111.771 138.737  10
  -6   4 -16 46.4492 130.448   7
  -4  -2 -16 89.9343 134.249  10
  -6   2 -16-33.3419 132.048  10
  -6   2 -16-366.633 147.908   7
   4  -6 -16-444.222 134.409   7
   2   4 -16 69.1554 119.967   7
  -4  -2 -16-88.8208 136.604   7
   6  -2 -16-153.419 120.808   7
   2  -6 -16-104.392 134.185  10
  -2   6 -16-165.536 132.057   7
  -2  -4 -16-100.193 136.427   7
   4   2 -16 20.4020 118.803   7
   2  -6 -16-356.740 137.497   7
   6  -4 -16-11.3865 119.454   7
  -2  -4 -16-80.5783 139.868  10
  -4   6 -16-384.935 143.006   7
   4   2 -17 561.840 123.184   7
  -4   6 -17-9.28113 125.390   7
   6  -2 -17 181.847 114.004   7
  -4  -2 -17 121.970 118.325   7
  -2   6 -17-11.4147 122.719   7
   6  -4 -17 175.617 113.214   7
   2   4 -17 172.223 117.920   7
   2  -6 -17-88.9677 110.261   7
  -2  -4 -17-15.9709 116.424  10
  -6   2 -17 58.7918 118.622   7
  -2  -4 -17 210.163 125.492   7
  -4  -2 -17 329.360 117.813  10
  -6   4 -17 220.937 122.626   7
   4  -6 -17-425.690 119.806   7
  -2  -4 -18-48.7621 96.0108  10
  -6   4 -18 92.7232 108.498   7
   2   4 -18 297.209 102.040   7
   4  -6 -18-41.3399 95.4297   7
   4   2 -18 233.571 99.4106   7
  -4   6 -18-33.0508 108.763   7
  -6   2 -18-35.4568 106.081   7
  -4  -2 -18 110.367 104.841   7
   6  -2 -18 82.4815 92.5516   7
  -4  -2 -18 52.4377 94.2093  10
  -2  -4 -18 38.7914 101.054   7
   2  -6 -18-99.7503 101.437   7
  -2   6 -18 4.72366 102.078   7
   6  -4 -18-8.53022 93.5191   7
  -4  -2 -19-38.9931 89.1333   7
  -6   2 -19-40.8356 95.8369   7
  -6   4 -19 82.4708 95.3208   7
   6  -4 -19 15.5195 79.6672   7
   4   2 -19 214.877 84.1218   7
  -4   6 -19-57.6341 94.8181   7
  -2   6 -19 51.9774 90.2930   7
   4  -6 -19-15.9404 81.6177   7
  -2  -4 -19-0.21142 87.3719   7
   2  -6 -19-98.2987 88.0539   7
   6  -2 -19 106.900 81.0474   7
  -6   1   0 27470.2 733.175   3
  -1   6   0 26986.1 604.403   2
  -5  -1   0 26699.7 691.361   3
   6  -5   0 26538.4 483.268   1
   1   5   0 26827.2 635.270   2
  -1  -5   0 26453.1 474.652   3
   1   5  -1 202641. 1991.42   2
  -5  -1   1 196870. 1971.21   3
  -5   6  -1 195141. 1388.59   2
  -1   6  -1 198590. 1900.34   2
  -1   6  -1 192622. 1883.83   5
   1   5   1 196884. 1935.53   2
   5   1   1 190963. 1861.12   2
   6  -1  -1 194519. 1860.85   5
   1   5  -1 190392. 1985.92   5
  -6   1  -1 198463. 2297.65   3
  -1  -5  -1 207795. 1905.69   3
  -5  -1  -1 198251. 2231.97   3
  -5   6  -1 193074. 1984.44   3
  -6   5  -1 192884. 2171.62   3
   5   1  -1 196811. 2001.69   5
   6  -5  -1 193775. 1846.84   1
   6  -1   1 193471. 1703.72   2
  -6   1  -2 48548.7 1150.06   3
   5   1  -2 48586.4 932.800   5
   6  -1   2 48049.2 745.499   2
  -5  -1  -2 50515.2 1136.96   3
   6  -5  -2 48039.3 930.687   1
   5   1   2 47573.9 821.960   2
  -1  -5  -2 47968.1 911.513   3
   1   5  -2 49517.0 957.877   5
  -6   5  -2 49015.3 1090.13   3
  -6   1  -3 18862.2 769.101   3
   6  -1   3 18612.6 463.866   2
  -1  -5  -3 17425.1 607.273   3
   5  -6  -3 19129.4 706.948   1
  -5   6  -3 18625.9 633.131   3
   6  -5  -3 18049.1 634.182   1
  -5  -1  -3 17960.6 729.431   3
   1  -6  -3 18197.9 587.370   3
   5   1   3 17788.0 509.717   2
  -6   5  -3 17808.2 706.054   3
   6  -1  -4 2539.54 272.404   1
  -6   1  -4 2542.53 338.559   3
   6  -5   4 2346.25 178.256   4
  -5  -1  -4 2071.15 309.437   3
  -5   6  -4 2254.78 277.806   3
   5  -6  -4 2724.88 310.296   1
  -6   5  -4 2397.53 320.838   3
  -6   5  -4 1737.30 97.3086   1
  -1  -5  -4 2309.26 269.159   3
   1  -6  -4 2227.55 254.484   3
   6  -5  -4 2276.16 274.287   1
   6  -5  -4 2229.37 252.211   4
   6  -1  -5 3984.81 357.388   1
   6  -5  -5 3918.01 372.329   1
   6  -5  -5 4259.90 327.551   4
  -6   1  -5 3939.76 441.046   3
  -1  -5  -5 4144.96 362.432   3
  -5   6  -5 4103.39 365.921   3
  -5  -1  -5 4145.78 431.415   3
  -6   5  -5 3720.80 401.414   3
   1  -6  -5 3866.52 336.584   3
   5  -6  -5 4489.69 422.199   1
  -6   5  -5 4118.41 225.078   1
  -5   6  -6 802.763 231.246   3
   5  -6  -6 699.643 209.237   1
  -5  -1  -6 463.885 237.391   3
   6  -1  -6 581.217 190.347   1
  -6   1  -6 619.676 246.097   3
  -1  -5  -6 812.622 218.567   3
   6  -5  -6 566.570 205.482   1
  -6   5  -6 515.377 224.528   3
   6  -5  -6 721.457 189.825   4
  -6   1  -7 17362.8 960.897   3
  -1  -5  -7 17721.3 822.102   3
   6  -5  -7 18167.0 684.259   4
   6  -1  -7 18169.0 848.007   1
  -6   5  -7 18964.1 920.324   3
   5  -6  -7 18257.4 689.187   4
   5  -6  -7 17962.3 904.474   1
   6  -5  -7 17884.2 885.439   1
  -5  -1  -7 17721.7 963.910   3
  -5   6  -7 18600.3 819.898   3
  -6   5  -8 9382.80 668.607   3
  -5   6  -8 10828.9 674.754   3
  -6   1  -8 9702.17 770.754   3
  -5  -1  -8 8658.10 708.297   3
   6  -1  -8 9186.08 662.340   1
   6  -5  -8 9717.10 702.775   1
  -1  -5  -8 9818.78 652.935   3
   5  -6  -8 9625.09 707.260   1
  -6   1  -8 9538.60 642.382   1
   6  -5  -9 4948.09 548.696   1
   1  -6  -9 5192.30 571.039   1
  -6   1  -9 5317.54 613.827   3
  -5  -1  -9 5007.35 547.189   1
   5  -6  -9 5155.53 557.377   1
  -6   5  -9 5066.65 548.788   3
  -5   6  -9 5471.28 517.659   3
   6  -1  -9 5548.59 553.528   1
  -5  -1  -9 5340.99 602.197   3
  -6   1 -10 3852.11 544.160   3
   6  -5 -10 3698.39 539.772   1
  -5  -1 -10 3197.26 461.519   1
  -6   5 -10 3705.40 480.502   3
   1  -6 -10 3173.22 489.587   1
  -5   6 -10 4041.24 490.176   3
  -1  -5 -10 3163.81 502.973   1
  -5  -1 -10 3948.80 539.322   3
   5  -6 -10 3806.29 514.670   1
   6  -1 -10 3925.03 522.209   1
  -6   5 -11 2780.55 487.251   3
   6  -5 -11 4027.96 584.835   1
  -5  -1 -11 3243.27 539.427   3
   5  -6 -11 3643.21 531.069   1
  -6   1 -11 3144.65 514.774   3
  -1  -5 -11 2884.86 509.397   1
   1  -6 -11 2847.81 520.682   1
  -5  -1 -12 799.592 373.271   3
   6  -5 -12 1207.42 375.895   1
  -6   1 -12 644.121 353.751   3
  -1  -5 -12 999.858 416.233   1
   5  -6 -12 829.995 356.639   1
   1  -6 -12 364.818 245.368   1
  -5  -1 -13 3537.26 226.162   7
  -6   1 -13 4087.86 217.942   7
  -5  -1 -13 3660.25 218.478  10
   5   1 -13 4068.80 220.039   7
   1  -6 -13 5055.14 284.119  10
  -6   5 -13 4500.32 241.337   7
   6  -1 -13 3144.57 203.807   7
  -6   1 -13 4494.47 235.323  10
  -5   6 -13 3111.49 220.027   7
   1   5 -13 4407.02 234.987   7
  -1  -5 -13 3502.03 235.473  10
  -1   6 -13 4421.71 249.742   7
   5   1 -14-40.8284 143.344   7
   6  -1 -14 430.553 154.328   7
   1   5 -14 466.816 159.391   7
  -6   1 -14 81.0606 140.821   7
  -5  -1 -14 817.371 170.927  10
  -1  -5 -14 600.329 175.736  10
  -6   1 -14 688.227 166.274  10
  -1   6 -14-254.858 154.879   7
  -5  -1 -14 321.191 159.298   7
  -5   6 -14-118.238 152.497   7
   1  -6 -14 571.208 179.344  10
  -6   5 -14-74.3473 146.989   7
   1   5 -15 308.707 141.433   7
   6  -1 -15 152.058 138.733   7
  -1  -5 -15-214.103 153.088   7
  -6   1 -15 96.9702 149.646   7
  -1   6 -15 73.4886 143.429   7
   1  -6 -15 378.393 162.113  10
  -5  -1 -15-89.5387 143.404   7
  -1  -5 -15 155.893 149.176  10
  -6   1 -15 517.225 155.935  10
  -5  -1 -15 189.532 147.213  10
  -6   5 -15-103.494 148.947   7
  -5   6 -15-53.4550 143.788   7
   5   1 -15 269.526 143.348   7
   6  -1 -16 516.997 137.923   7
  -5  -1 -16 160.742 139.431   7
   1  -6 -16-15.9408 135.635   7
  -5   6 -16-226.349 143.447   7
   1   5 -16 130.661 125.524   7
  -1  -5 -16-100.910 138.983   7
  -1   6 -16 107.339 131.984   7
   5   1 -16 632.629 138.936   7
  -6   1 -16 260.083 140.193   7
   6  -5 -16-177.570 133.107   7
   1  -6 -16 413.231 146.204  10
  -6   1 -16 368.649 145.100  10
  -6   5 -16-2.09852 132.888   7
   5  -6 -16-149.739 127.643   7
  -5  -1 -16 254.149 138.127  10
  -1  -5 -16 141.747 133.529  10
   1  -6 -17-37.4376 114.651   7
  -1   6 -17 128.586 123.079   7
  -1  -5 -17 242.509 116.308  10
   5  -6 -17-219.133 115.464   7
   1  -6 -17 405.876 125.587  10
  -6   5 -17-343.763 133.281   7
  -1  -5 -17-227.210 124.067   7
   6  -1 -17 381.206 121.152   7
   1   5 -17 194.224 122.953   7
   6  -5 -17-169.781 121.146   7
  -5  -1 -17 203.315 128.127   7
  -5   6 -17-168.501 129.268   7
   5   1 -17 453.739 124.343   7
  -5  -1 -17-13.2185 121.986  10
  -6   1 -17 144.828 125.281   7
   1   5 -18 284.499 106.704   7
  -6   5 -18-63.7837 111.824   7
   6  -1 -18 281.825 99.0142   7
  -1  -5 -18 105.685 96.1337  10
  -1  -5 -18-168.954 112.747   7
   6  -5 -18-110.690 105.054   7
  -5  -1 -18 79.6428 107.192   7
   5  -6 -18-19.0400 99.1242   7
   1  -6 -18-8.72766 102.626   7
  -1   6 -18-124.224 104.397   7
  -6   1 -18 155.796 114.523   7
  -5   6 -19-157.283 99.6545   7
   6  -5 -19-2.37137 80.9851   7
  -1   6 -19-130.874 88.8694   7
   6  -1 -19 241.989 80.0559   7
   5  -6 -19 21.3538 81.2347   7
   1  -6 -19-30.8887 89.5634   7
  -1  -5 -19-51.4515 87.8234   7
  -6   5 -19-49.8725 96.9183   7
   1   5 -19 225.343 88.4230   7
  -6   1 -19 270.490 100.778   7
  -5  -1 -19 90.9477 92.9277   7
  -6   0   0 282655. 2836.07   3
   0   6   0 277449. 2581.27   2
   6  -6   0 275667. 2226.60   1
  -6   0   1 5901.40 336.894   3
  -6   0  -1 5726.45 395.219   3
   6   0   1 5813.94 287.407   2
   0  -6  -1 5848.82 277.699   3
   6  -6  -1 5795.62 304.724   1
   0   6  -1 5927.84 326.975   5
   0   6  -1 5544.24 316.850   2
   0   6   1 5866.48 315.358   2
   6   0  -1 5979.94 322.517   5
  -6   6  -1 5881.30 349.274   3
   6  -6  -2 16105.0 572.806   1
   0  -6  -2 16113.7 504.839   3
   6   0   2 17471.6 478.909   2
  -6   0  -2 16758.0 681.698   3
  -6   6  -2 17234.0 634.935   3
   6   0   3 952.510 162.042   2
   6  -6  -3 941.333 201.875   1
  -6   0  -3 836.007 236.970   3
   0  -6  -3 755.744 176.299   3
  -6   6  -3 845.928 217.610   3
  -6   0  -4 36475.4 1174.03   3
   0  -6  -4 35638.0 931.218   3
  -6   6  -4 36786.1 1042.77   3
   6  -6  -4 36445.0 1056.47   1
  -6   0  -5 2623.38 371.648   3
  -6   6  -5 2813.43 344.717   3
   0  -6  -5 2506.20 284.443   3
   6  -6  -5 2852.31 345.705   1
   6  -6   5 3108.00 195.520   4
   0  -6  -6 23468.3 867.612   3
  -6   0  -6 22671.0 1050.51   3
   6  -6  -6 25099.0 807.218   4
   6  -6  -6 26455.6 1029.11   1
  -6   6  -6 26182.3 975.455   3
  -6   6  -7 1097.04 283.993   3
   6  -6  -7 1032.82 251.786   1
   0  -6  -7 1242.70 253.906   3
  -6   0  -7 939.815 281.784   3
   6  -6  -7 987.837 197.062   4
  -6   0  -8 4082.13 515.758   3
   6  -6  -8 3428.66 443.146   1
  -6   6  -8 3425.82 429.212   3
   6  -6  -9 216.413 189.516   1
  -6   0  -9 181.141 251.052   3
   0  -6  -9 160.273 189.497   1
  -6   6  -9 452.467 231.331   3
  -6   0  -9 356.217 213.544   1
   0  -6 -10 1344.60 368.611   1
   6  -6 -10 1821.28 382.619   1
  -6   6 -10 2318.92 418.722   3
  -6   0 -10 1936.19 427.536   3
   0  -6 -11 304.312 239.983   1
  -6   0 -11-19.7511 283.822   3
   6  -6 -11 223.370 250.202   1
  -6   6 -11 134.757 227.095   3
  -6   0 -12 342.411 406.502   3
   0  -6 -12-136.357 328.127   1
   6  -6 -12-49.1566 227.297   1
  -6   6 -13 471.921 158.077   7
   6   0 -13 174.870 158.224   7
   0  -6 -13 146.151 185.499  10
  -6   0 -13 217.560 151.304   7
   0   6 -13 382.356 159.677   7
  -6   0 -14 2225.48 196.469  10
  -6   6 -14 1920.04 200.041   7
   0   6 -14 2191.85 199.788   7
   6   0 -14 2131.85 189.183   7
   0  -6 -14 1916.14 198.658  10
  -6   0 -14 1943.66 192.550   7
   0   6 -15 498.795 151.686   7
  -6   0 -15 69.6125 137.912   7
   6   0 -15 388.101 139.303   7
   0  -6 -15 124.060 144.902   7
   0  -6 -15 285.678 148.958  10
  -6   0 -15 172.886 140.710  10
  -6   6 -15 279.661 146.131   7
  -6   0 -16 50.1297 126.157   7
  -6   6 -16 282.289 138.197   7
   6  -6 -16 205.627 124.214   7
   6   0 -16 762.169 138.794   7
  -6   0 -16-150.243 133.228  10
   0   6 -16 329.121 138.237   7
   0  -6 -16 28.7043 126.411   7
   0  -6 -16-366.873 139.772  10
  -6   0 -17-17.9297 120.850   7
  -6   0 -17-301.981 136.047  10
  -6   6 -17 429.175 142.721   7
   0  -6 -17-356.807 132.366  10
   0  -6 -17-38.4635 115.132   7
   6  -6 -17 87.9267 119.190   7
   6   0 -17 402.252 127.595   7
   0   6 -17 604.727 137.088   7
  -6   6 -18 646.576 130.720   7
   6   0 -18 804.312 113.798   7
   0  -6 -18 112.761 107.825   7
   0   6 -18 483.960 119.652   7
   6  -6 -18 50.0865 97.4053   7
   0  -6 -18-366.991 112.667  10
  -6   0 -18-59.2430 109.389   7
   6  -6 -19 115.721 83.8557   7
   0  -6 -19 3.58096 86.6128   7
  -6   6 -19 127.910 98.8053   7
  -6   0 -19 0.37370 92.6815   7
  -7   3   0 66943.2 1229.90   3
  -3   7   0 64792.6 944.073   2
  -3   7   0 72856.3 950.034   5
   7  -3   0 65983.5 1102.13   4
  -4  -3   0 65546.3 1080.80   3
  -4   7   0 69393.1 778.094   5
   4   3   0 64005.3 1091.77   2
  -3  -4   0 66202.2 1014.95   3
   7  -4   0 65163.5 1114.13   4
   3   4   0 64670.6 1095.63   2
  -7   4   0 66226.3 1241.54   3
  -4   7   0 67526.6 903.524   2
   7  -4   0 71815.8 798.585   5
  -7   3  -1 979.831 215.110   3
  -7   4  -1 725.057 198.081   3
  -3  -4   1 918.419 136.783   3
  -3   7  -1 977.998 113.714   3
   4   3   1 695.021 155.306   2
  -3  -4  -1 997.683 178.174   3
  -4  -3   1 907.326 150.506   3
   7  -3   1 1144.62 174.456   4
  -4  -3  -1 848.555 180.413   3
   7  -4  -1 874.856 181.472   4
  -4   7  -1 931.710 133.749   2
  -4   7  -1 1063.51 145.508   3
  -3   7  -1 870.286 142.162   2
   7  -3  -1 1072.59 129.946   5
   7  -3  -1 938.724 176.527   4
   3   4   1 999.560 180.133   2
   7  -4   1 784.495 161.508   4
   7  -4  -2 13291.2 522.936   4
   7  -3  -2 13383.3 513.181   4
   7  -4   2 13228.0 452.254   4
  -3  -4  -2 13858.6 551.476   3
  -4   7  -2 13724.3 429.664   3
   4   3   2 12678.8 464.301   2
   3   4   2 12998.1 474.787   2
  -3   7  -2 12391.9 312.250   3
  -7   4  -2 13739.8 632.563   3
   7  -4  -2 12916.8 486.281   1
  -3  -4   2 14147.0 374.986   3
  -7   3  -2 13497.2 629.616   3
  -4  -3  -2 13555.9 573.423   3
   7  -3  -3 33573.4 832.358   4
  -3  -4  -3 33865.4 916.477   3
  -4   7  -3 33709.4 725.611   3
   7  -3  -3 33216.5 857.483   1
  -7   3  -3 32897.7 1046.04   3
   7  -3   3 33375.1 522.990   2
  -3   7  -3 36562.2 658.828   3
  -4  -3  -3 35911.8 1004.02   3
   7  -4  -3 34423.8 857.789   4
  -7   4  -3 33897.9 1049.11   3
   7  -4   3 34412.2 686.541   4
   7  -4  -3 33768.5 866.801   1
   7  -3  -4 15047.6 644.207   1
  -7   4  -4 15638.7 757.919   3
  -3   7  -4 16698.7 512.630   3
   7  -3  -4 15862.9 587.748   4
   7  -4  -4 16353.4 604.081   4
  -4   7  -4 16554.5 564.007   3
   7  -3   4 16219.6 401.938   2
  -4  -3  -4 16248.7 710.435   3
  -3  -4  -4 16113.8 692.352   3
   7  -4  -4 16143.9 665.314   1
  -7   3  -4 14894.2 756.667   3
  -4  -3  -5 29503.7 1051.47   3
   7  -3  -5 29587.5 955.030   1
  -7   4  -5 29187.9 1115.52   3
  -3   7  -5 31621.1 784.715   3
   7  -4  -5 28754.9 973.747   1
   7  -4  -5 29904.3 842.663   4
  -7   3  -5 29821.4 1141.04   3
  -4   7  -5 32475.8 870.042   3
  -3  -4  -5 28500.3 984.939   3
   4  -7  -6 14691.2 785.571   1
  -4   7  -6 16797.7 678.257   3
  -7   3  -6 14337.6 848.116   3
  -3  -4  -6 14470.3 746.129   3
  -3   7  -6 16380.1 614.907   3
   7  -4  -6 15125.9 756.757   1
  -7   4  -6 14257.0 821.027   3
   7  -4  -6 14900.9 604.753   4
  -4  -3  -6 15398.0 818.943   3
   7  -3  -6 14355.2 728.944   1
  -4  -3  -7 19550.1 958.835   3
  -3  -4  -7 19559.2 926.486   3
   7  -3  -7 19794.5 914.644   1
  -4   7  -7 22855.7 833.780   3
  -7   3  -7 20308.2 1061.41   3
  -3   7  -7 24445.1 813.548   3
   7  -4  -7 21792.2 981.663   1
   4  -7  -7 20108.5 968.303   1
  -7   4  -7 20532.7 1036.00   3
  -4   7  -8 8446.72 541.414   3
  -4  -3  -8 7404.23 634.400   3
   3  -7  -8 6594.23 604.931   1
   7  -4  -8 7380.44 621.408   1
  -3  -4  -8 6745.58 588.087   3
   7  -3  -8 7582.88 612.249   1
  -7   3  -8 7891.72 729.671   3
  -7   4  -8 7664.97 699.532   3
   4  -7  -8 6839.46 610.168   1
   7  -4  -9 5987.80 602.797   1
  -3  -4  -9 6135.61 598.692   3
   3  -7  -9 4888.72 553.567   1
  -4  -3  -9 5553.36 577.287   3
   4  -7  -9 5540.59 596.279   1
  -7   3  -9 5491.52 608.149   3
  -7   4  -9 5039.38 567.080   3
   7  -3  -9 5733.00 574.541   1
  -3  -4 -10 1159.36 357.406   3
  -7   3 -10 844.991 312.928   3
   7  -3 -10 1086.94 313.317   1
  -7   4 -10 627.599 284.163   3
  -4  -3 -10 481.266 263.493   1
  -4  -3 -10 920.533 325.259   3
   7  -4 -10 1127.90 335.109   1
   3  -7 -10 829.221 310.918   1
   4  -7 -10 787.680 287.434   1
  -3  -4 -10 682.056 263.268   1
  -4  -3 -11 1544.40 410.825   3
  -7   4 -11 1988.63 425.011   3
   3  -7 -11 1835.58 427.886   1
  -3  -4 -11 1873.06 397.694   1
  -7   3 -11 1950.61 429.459   3
   4  -7 -11 2141.28 439.081   1
  -4  -3 -11 1537.16 379.983   1
   7  -4 -11 2345.26 443.563   1
   7  -3 -11 2173.17 443.212   1
  -3  -4 -12 1380.52 407.692   1
   7  -4 -12 2467.20 483.731   1
  -7   3 -12 1956.09 455.901   3
   7  -3 -12 2496.94 480.541   1
   4  -7 -12 2005.08 475.390   1
   3  -7 -12 1858.81 480.224   1
  -7   4 -12 2416.71 505.129   3
   4  -7 -13-52.8909 176.084  10
  -3  -4 -13 118.044 147.107  10
  -4   7 -13 15.4908 137.229   7
  -7   3 -13 75.7308 125.312   7
  -3   7 -13 78.8965 129.901   7
  -4  -3 -13 36.0245 130.568  10
  -7   3 -13 224.679 134.843  10
   3   4 -13-221.040 144.415   7
  -7   4 -13 183.430 131.745  10
  -4  -3 -13-123.803 149.200   7
  -7   4 -13-127.385 136.580   7
   3  -7 -13-162.771 175.855  10
  -4  -3 -14 185.789 142.784   7
   4   3 -14 304.119 136.520   7
   3  -7 -14-243.936 174.818  10
  -7   3 -14 298.889 137.467  10
  -7   4 -14-66.8977 139.013   7
  -3  -4 -14 115.316 147.902   7
   4  -7 -14 219.720 158.062  10
  -3  -4 -14 578.695 152.721  10
  -4   7 -14 303.923 145.809   7
  -7   3 -14 226.868 139.179   7
   3   4 -14 255.711 142.661   7
  -4  -3 -14 177.992 143.093  10
  -7   4 -14 358.296 140.497  10
  -3   7 -14 32.1093 139.270   7
  -4   7 -15 124.302 132.462   7
  -7   3 -15 161.576 130.597   7
  -7   3 -15 108.494 128.748  10
   7  -3 -15-4.84655 119.535   7
  -4  -3 -15 199.728 129.019   7
   3   4 -15 50.0833 118.284   7
  -3  -4 -15-206.709 138.345   7
   7  -4 -15 19.0357 122.234   7
   3  -7 -15-26.8219 142.640  10
   4  -7 -15 84.8134 133.903  10
  -7   4 -15 11.6440 127.447   7
  -4  -3 -15-56.8690 130.023  10
  -3   7 -15 12.3279 130.633   7
   4   3 -15 193.064 127.853   7
  -3  -4 -15 159.522 132.890  10
   4   3 -16 303.916 125.528   7
   4  -7 -16-138.353 125.841   7
  -4   7 -16-7.44201 126.331   7
  -3   7 -16-1.03474 127.834   7
   7  -3 -16 306.148 123.827   7
   7  -4 -16 42.3918 114.020   7
  -7   3 -16 5.46432 120.327   7
  -4  -3 -16 104.408 127.671   7
  -4  -3 -16-1.63858 126.288  10
  -7   4 -16 66.2982 123.464   7
  -3  -4 -16 138.590 125.546  10
   3  -7 -16-203.103 133.648  10
  -3  -4 -16 78.1513 126.049   7
   3  -7 -16-449.391 133.740   7
   3   4 -16 654.063 133.450   7
  -7   4 -17-129.216 119.482   7
   7  -3 -17 353.262 117.954   7
  -3  -4 -17 390.466 120.192  10
  -4  -3 -17 231.245 121.100  10
   4  -7 -17-212.907 116.647   7
   7  -4 -17 60.5118 106.851   7
  -4   7 -17-102.197 124.208   7
  -3   7 -17 138.568 119.445   7
   3   4 -17 504.100 122.349   7
   4   3 -17 607.716 124.450   7
  -3  -4 -17 153.473 120.760   7
  -4  -3 -17 184.279 124.154   7
  -7   3 -17-226.178 124.507   7
   7  -3 -18 320.922 97.2388   7
  -7   4 -18 66.2225 106.198   7
  -3  -4 -18 75.8822 105.625   7
   7  -4 -18 128.963 92.2102   7
  -3   7 -18 1.61850 101.681   7
  -4  -3 -18 179.819 104.931   7
  -3  -4 -18 149.260 93.9306  10
   3  -7 -18-253.985 102.058   7
  -7   3 -18-7.28048 103.564   7
   4  -7 -18-149.791 94.6256   7
   3   4 -18 250.811 96.1760   7
  -4  -3 -18-10.2096 94.0854  10
  -4   7 -18-13.1847 102.883   7
  -7   3 -19 31.2535 93.9115   7
  -3  -4 -19 148.207 91.1224   7
  -4   7 -19-16.1387 88.5508   7
  -4   7 -19-113.531 71.4342   8
   4  -7 -19-35.9021 82.4556   7
  -3   7 -19 144.904 89.1639   7
   3  -7 -19 12.9094 80.0186   7
  -7   4 -19 124.824 98.3169   7
   7  -4 -19 121.864 77.9930   7
  -4  -3 -19 79.0410 88.8531   7
   2   5   0 47116.8 905.049   2
  -2  -5   0 44372.6 725.636   3
  -7   2   0 48123.5 1042.15   3
  -2   7   0 46983.1 831.905   2
  -2   7   0 45375.4 776.810   5
  -5  -2   0 45777.8 947.545   3
   5   2   0 46385.1 897.891   2
  -2   7  -1 100191. 1255.98   5
  -7   5  -1 94233.3 1567.44   3
   7  -5   1 94844.9 1346.16   4
  -7   2  -1 96127.0 1619.22   3
   7  -2  -1 90653.1 1192.29   5
   7  -5  -1 94832.0 1426.24   4
  -5   7  -1 93039.5 1266.54   3
  -2  -5   1 92260.8 1006.84   3
  -5  -2   1 95280.2 1336.07   3
   2   5  -1 99030.2 1401.47   2
   5   2   1 93395.4 1298.22   2
   7  -5  -1 95663.0 1244.63   1
  -5  -2  -1 94035.7 1512.18   3
  -2  -5  -1 93161.1 1263.29   3
   2   5   1 96313.4 1335.62   2
  -5   7  -1 93190.0 979.705   2
  -2   7  -1 97709.4 1256.06   2
  -2  -5  -2 7317.16 388.001   3
  -5   7  -2 8050.04 394.721   3
  -2  -5   2 7331.07 236.250   3
   2   5  -2 7558.98 403.959   5
   7  -5  -2 7464.04 403.550   4
   5   2   2 7417.09 358.980   2
   2   5   2 7310.39 378.320   2
   7  -2   2 7168.25 275.477   2
  -7   5  -2 7718.59 478.329   3
   7  -5  -2 7361.71 379.186   1
  -5  -2  -2 7214.96 462.149   3
  -7   2  -2 7325.72 492.488   3
   7  -5   2 7739.14 360.345   4
  -2  -5  -3 1078.80 239.613   3
   7  -2   3 1152.51 150.839   2
  -7   5  -3 981.148 256.671   3
  -5   7  -3 1291.09 213.400   3
   7  -5  -3 1189.93 201.959   1
  -7   2  -3 1182.75 279.285   3
   7  -5   3 1106.26 174.263   4
   5   2   3 1135.89 194.766   2
   7  -5  -3 1179.25 216.388   4
  -5  -2  -3 982.974 239.500   3
  -7   5  -4 1947.83 310.130   3
  -5   7  -4 2013.22 259.490   3
  -7   5  -4 1501.55 101.085   1
   7  -5   4 2068.18 179.732   4
   7  -5  -4 2352.12 265.743   4
   7  -5  -4 2126.30 267.306   1
   7  -2  -4 2188.05 269.099   1
  -2  -5  -4 1818.55 268.167   3
  -5  -2  -4 2055.74 320.574   3
  -7   2  -4 1824.39 310.546   3
   7  -2   4 2236.44 191.412   2
   7  -2  -5 3074.25 324.724   1
  -7   5  -5 2762.51 384.281   3
  -7   2  -5 2856.66 394.246   3
   5  -7  -5 2945.14 361.291   1
  -2  -5  -5 2981.35 326.775   3
  -5  -2  -5 2818.90 363.699   3
   7  -5  -5 3011.51 334.631   1
   7  -5  -5 3052.62 304.479   4
  -5   7  -5 3011.77 310.664   3
   7  -5  -6 3896.12 411.665   1
  -7   5  -6 3610.42 451.791   3
   5  -7  -6 3309.20 401.294   1
  -5   7  -6 4087.79 395.664   3
  -7   2  -6 3486.29 463.396   3
  -2  -5  -6 3781.27 402.971   3
   7  -5  -6 3848.44 345.091   4
   7  -2  -6 3510.22 379.554   1
  -5  -2  -6 3400.29 436.618   3
  -7   2  -7 2229.47 388.233   3
   7  -5  -7 2795.89 308.081   4
  -5   7  -7 3031.50 351.310   3
   7  -5  -7 2674.73 366.045   1
  -2  -5  -7 2550.51 350.809   3
   7  -2  -7 2593.35 359.399   1
  -7   5  -7 2699.13 408.955   3
   5  -7  -7 2553.25 365.714   1
  -5  -2  -7 2710.98 410.041   3
  -7   5  -8 5953.92 602.800   3
  -7   2  -8 5904.20 658.610   3
  -5   7  -8 6377.50 507.512   3
  -5  -2  -8 5677.98 596.279   3
   2  -7  -8 5400.19 554.529   1
   5  -7  -8 5205.06 539.898   1
   7  -5  -8 5863.47 574.822   1
   7  -2  -8 5725.18 537.225   1
  -2  -5  -8 5621.03 530.869   3
   7  -2  -9 2805.62 424.199   1
  -2  -5  -9 2927.87 424.787   3
   7  -5  -9 3093.79 473.160   1
  -5  -2  -9 2526.87 451.608   3
  -7   5  -9 2787.63 439.883   3
  -5   7  -9 3016.77 395.819   3
  -7   2  -9 2198.90 422.185   3
   2  -7  -9 2599.04 433.076   1
   5  -7  -9 2838.76 442.041   1
  -2  -5 -10 1972.93 427.325   1
  -7   5 -10 2558.87 457.667   3
   7  -2 -10 2836.97 455.518   1
   2  -7 -10 2764.76 460.148   1
  -5  -2 -10 2469.97 450.567   3
  -7   2 -10 2602.48 500.458   3
   5  -7 -10 2556.35 437.399   1
  -5  -2 -10 2415.30 436.472   1
   7  -5 -10 2799.41 458.537   1
   5  -7 -11 1678.73 401.367   1
   2  -7 -11 1496.48 400.673   1
  -7   2 -11 1747.06 443.342   3
  -5  -2 -11 1699.38 424.780   3
  -7   5 -11 1579.30 419.033   3
  -2  -5 -11 1311.22 368.555   1
   7  -5 -11 1893.16 408.883   1
   2  -7 -12 206.687 266.366   1
   5  -7 -12 220.228 264.356   1
  -2  -5 -12 315.183 300.424   1
  -5  -2 -12 234.830 277.452   3
  -7   5 -12 344.978 296.960   3
   7  -5 -12 334.877 283.752   1
  -7   2 -12-213.720 317.066   3
  -5  -2 -13 365.288 143.122   7
  -5   7 -13 487.389 148.520   7
  -7   5 -13 477.470 145.666   7
   2  -7 -13 643.289 189.063  10
  -7   2 -13 467.517 139.975   7
   5  -7 -13 199.020 165.792  10
  -2  -5 -13 544.795 171.518  10
  -5  -2 -13 627.653 155.620  10
  -7   2 -13 457.350 138.988  10
  -2   7 -13 505.205 151.555   7
   2   5 -13 377.658 145.980   7
  -5  -2 -14-352.866 170.878  10
   5  -7 -14 128.049 171.511  10
  -5  -2 -14 41.9888 151.243   7
  -7   2 -14 677.156 160.269  10
  -7   5 -14 9.97769 140.190   7
  -2   7 -14 387.853 158.720   7
   2  -7 -14-17.7155 179.603  10
  -2  -5 -14 1.61054 160.761  10
  -7   2 -14 273.005 138.673   7
  -5   7 -14 412.434 152.988   7
   2   5 -14 194.261 138.831   7
  -2   7 -15 576.280 150.089   7
  -5   7 -15 673.878 162.149   7
  -5  -2 -15 433.431 145.171   7
   2   5 -15 558.822 143.158   7
   7  -2 -15 304.996 131.350   7
  -7   2 -15 369.304 138.853   7
  -7   2 -15 705.074 151.949  10
  -2  -5 -15 5.39479 143.903   7
   2  -7 -15 724.936 161.962  10
  -7   5 -15 592.633 153.723   7
  -2  -5 -15 349.622 148.781  10
  -5  -2 -15 771.029 152.248  10
   5   2 -15 1092.66 159.394   7
  -2  -5 -16-97.4929 131.160   7
  -7   2 -16 355.081 136.238  10
  -2   7 -16 272.682 137.873   7
  -5   7 -16 102.993 135.708   7
   2  -7 -16 162.649 137.195  10
   5   2 -16 406.443 129.059   7
  -5  -2 -16-116.395 139.861  10
   2   5 -16 102.072 120.123   7
   5  -7 -16-158.130 119.378   7
   7  -2 -16 211.676 121.938   7
  -5  -2 -16-308.270 136.594   7
  -7   2 -16 100.360 127.036   7
  -7   5 -16-94.4498 134.692   7
  -2  -5 -16 3.79511 135.584  10
   2  -7 -16-55.3931 126.964   7
   7  -5 -16-239.044 124.278   7
  -2   7 -17 132.318 122.323   7
  -7   5 -17-113.248 128.176   7
   5   2 -17 326.553 114.803   7
  -5  -2 -17 82.8794 116.543  10
   7  -2 -17 436.949 120.479   7
  -7   2 -17 220.688 122.756   7
   2  -7 -17 71.1215 113.216   7
  -5   7 -17-1.05969 119.567   7
   2  -7 -17 131.615 115.558  10
  -2  -5 -17-62.4134 117.267   7
   5  -7 -17-18.9673 108.420   7
   2   5 -17 180.573 112.280   7
  -5  -2 -17 162.776 121.939   7
  -2  -5 -17 227.288 114.885  10
   7  -5 -17-317.512 115.803   7
  -7   5 -18-125.117 115.249   7
   2   5 -18 220.038 98.7279   7
  -5  -2 -18 167.560 106.313   7
   7  -2 -18 363.631 97.8909   7
  -2  -5 -18-65.6579 106.186   7
  -7   2 -18 132.899 111.762   7
   2  -7 -18-78.3536 102.804   7
  -2   7 -18-73.3863 102.788   7
  -5  -2 -18-257.722 106.076  10
  -5   7 -18 11.2850 108.509   7
   7  -5 -18 250.675 98.9421   7
  -2  -5 -18-93.4789 103.387  10
   5  -7 -18 1.28062 95.3008   7
   2  -7 -19 29.6244 82.3132   7
  -5   7 -19-79.4503 71.4249   8
  -7   5 -19 93.1592 95.9519   7
   7  -5 -19 50.8691 76.8574   7
  -2  -5 -19-80.8275 88.4772   7
  -7   2 -19 53.4652 91.8516   7
  -5   7 -19 42.5641 92.5768   7
  -5  -2 -19-54.5710 87.9322   7
   5  -7 -19-21.8420 78.1281   7
  -2   7 -19 40.0466 84.0117   7
  -1   7   0 8310.13 376.099   2
  -6  -1   0 7707.66 421.131   3
  -1   7   0 7330.13 341.765   5
   6  -7   0 7975.71 308.340   1
  -7   1   0 8171.18 455.422   3
   1   6   0 8637.84 398.326   2
   7  -6   0 7949.32 280.085   1
  -1  -6   0 7794.71 271.130   3
   6  -7  -1 868.421 168.462   1
  -7   6  -1 830.663 206.336   3
  -1  -6  -1 927.533 152.964   3
  -1   7  -1 968.459 182.396   2
  -6   7  -1 813.048 180.182   3
   7  -1  -1 799.897 159.034   5
  -6   7  -1 929.108 92.2420   2
   7  -6  -1 770.653 144.281   1
  -6  -1   1 835.578 166.760   3
  -1   7  -1 794.274 160.288   5
  -7   1  -1 917.143 217.594   3
   6  -7   1 653.495 70.1457   1
   1   6  -1 939.387 189.314   2
   6   1   1 820.284 166.123   2
  -1   7   1 804.885 167.531   2
   1   6  -1 760.783 159.969   5
   1   6   1 806.294 178.205   2
   6   1  -1 830.891 167.225   5
  -7   1   1 1104.96 202.668   3
  -6  -1  -1 749.769 194.929   3
  -6   7  -2 45286.1 1002.37   3
   1   6   2 41664.8 906.842   2
   7  -6  -2 42384.7 917.813   1
  -6  -1  -2 44466.7 1139.15   3
  -7   1  -2 42209.3 1147.80   3
   6   1  -2 43692.7 948.068   5
   7  -1   2 42800.2 751.674   2
   6   1   2 44079.9 844.753   2
   1   6  -2 42952.7 959.110   5
   6  -7  -2 46348.9 1027.24   1
  -1  -6  -2 41396.2 862.760   3
  -7   6  -2 42875.6 1083.45   3
   6  -7  -3 45151.7 1115.95   1
  -6   7  -3 44080.7 1045.62   3
  -1  -6   3 38375.4 459.177   3
   7  -1   3 41335.8 756.830   2
   6   1   3 42050.6 834.500   2
   7  -6  -3 41776.0 1006.62   1
  -6  -1  -3 40848.1 1155.46   3
  -7   1  -3 41570.8 1222.17   3
  -7   6  -3 42443.9 1135.71   3
  -1  -6  -3 40772.2 941.697   3
  -6   7  -4 32638.9 960.309   3
   7  -6  -4 32806.8 976.185   1
   6   1   4 33965.4 785.477   2
  -7   1  -4 31394.2 1130.13   3
  -6  -1  -4 31658.1 1102.85   3
  -1  -6  -4 31409.6 896.346   3
   6  -7  -4 33299.8 1056.68   1
   7  -6   4 32843.8 684.839   4
  -7   6  -4 32900.8 1050.03   3
   7  -1   4 32713.5 704.921   2
  -6   7  -5 5548.38 434.466   3
  -1  -6  -5 4497.75 377.539   3
  -7   1  -5 5067.72 507.172   3
   7  -6  -5 5400.43 443.252   1
   6  -7  -5 4957.82 445.407   1
  -7   6  -5 5017.35 458.200   3
  -6  -1  -5 5508.17 510.426   3
   7  -6  -5 5035.77 378.842   4
  -7   1  -6 17260.6 962.948   3
  -7   6  -6 17925.3 883.213   3
   7  -6  -6 18459.9 726.995   4
  -6   7  -6 18971.1 816.966   3
   7  -6  -6 18808.9 873.568   1
  -6  -1  -6 17111.2 936.825   3
   6  -7  -6 18251.7 880.298   1
  -1  -6  -6 16677.3 766.520   3
  -7   6  -7 2036.64 343.705   3
  -7   1  -7 1973.59 382.980   3
   7  -6  -7 2044.52 334.650   1
   7  -6  -7 2025.98 269.627   4
  -6   7  -7 2108.03 327.769   3
  -1  -6  -7 1975.04 309.871   3
   6  -7  -7 2304.11 373.827   1
   6  -7  -7 2251.98 297.621   4
  -6  -1  -7 2255.43 429.743   3
  -7   6  -8 3048.81 431.537   3
  -1  -6  -8 2976.56 409.364   3
   7  -6  -8 2848.58 419.169   1
  -7   1  -8 3508.16 540.932   3
  -6  -1  -8 3442.87 488.185   3
  -6   7  -8 3299.11 414.195   3
   6  -7  -8 3489.60 462.696   1
   1  -7  -9 745.083 261.944   1
  -6   7  -9 1388.41 287.826   3
   7  -6  -9 1051.16 303.824   1
   6  -7  -9 1525.92 347.025   1
  -7   6  -9 1295.36 315.339   3
  -7   1  -9 1207.90 375.986   3
  -6  -1  -9 1237.49 348.490   3
   6  -7 -10 1314.49 347.813   1
  -7   1 -10 1266.00 408.790   3
   7  -6 -10 1067.12 328.689   1
   1  -7 -10 1235.31 367.687   1
  -7   6 -10 1241.05 345.158   3
  -6  -1 -10 1138.28 380.821   3
  -1  -6 -10 953.932 322.405   1
  -6  -1 -11 364.867 281.422   3
   6  -7 -11 563.045 297.382   1
  -1  -6 -11 323.866 279.359   1
  -7   1 -11 123.785 313.373   3
  -7   6 -11 34.0601 233.867   3
   1  -7 -11 424.029 297.175   1
   7  -6 -11 718.918 304.223   1
   1  -7 -12 45.3713 256.136   1
   6  -7 -12-60.8354 326.992   1
  -6  -1 -12-18.0420 371.541   3
  -7   1 -12-192.791 374.257   3
  -1  -6 -12 56.2401 290.870   1
   7  -6 -12 167.012 230.092   1
   1  -7 -13 1829.90 215.963  10
  -7   1 -13 1510.41 174.751   7
  -7   6 -13 1167.34 161.691   7
  -6   7 -13 1548.74 178.615   7
  -1  -6 -13 1907.07 213.889  10
  -7   1 -13 2155.68 184.030  10
   1   6 -13 1481.16 188.273   7
  -1   7 -13 2171.97 187.648   7
  -6  -1 -13 1721.44 188.971  10
  -6  -1 -13 1420.57 175.525   7
  -7   6 -14 24.6429 131.353   7
  -6   7 -14 225.079 139.469   7
   1  -7 -14-154.235 164.550  10
  -7   1 -14-75.4967 133.537   7
  -6  -1 -14-222.804 151.914   7
  -6  -1 -14-7.45699 138.715  10
   1   6 -14-0.31777 134.577   7
  -1  -6 -14-211.425 162.251  10
  -7   1 -14 21.6727 139.270  10
  -1   7 -14 176.153 139.473   7
   7  -1 -14-400.731 146.864   7
  -7   6 -15 321.852 147.837   7
  -1  -6 -15 290.343 145.330  10
  -7   1 -15-21.3991 132.223   7
  -7   1 -15 129.753 134.507  10
  -6  -1 -15 98.0999 135.715  10
   7  -1 -15 349.628 134.337   7
  -1  -6 -15 157.122 141.560   7
  -6   7 -15 92.8052 137.388   7
   1   6 -15 498.596 139.132   7
   1  -7 -15 214.635 142.542  10
  -6  -1 -15 383.338 136.230   7
  -1   7 -15 126.628 128.756   7
  -6   7 -16 85.6715 129.687   7
  -6  -1 -16 84.2477 121.341   7
   7  -1 -16 156.418 116.388   7
   1  -7 -16 13.2010 120.526   7
  -1  -6 -16 20.2650 120.664  10
  -1  -6 -16 55.0483 122.662   7
  -1   7 -16 57.2843 120.258   7
   1   6 -16 244.549 123.315   7
  -7   1 -16-81.5291 131.481  10
   7  -6 -16-13.9931 113.355   7
  -7   1 -16-53.2042 120.556   7
   6  -7 -16-34.4319 110.942   7
   1  -7 -16-38.5630 124.299  10
  -7   6 -16 122.444 131.783   7
  -6  -1 -16 52.5923 122.656  10
   1  -7 -17-56.9650 111.992   7
   7  -6 -17 98.7862 108.072   7
   1  -7 -17 36.7335 108.293  10
  -7   1 -17 74.1656 115.542   7
  -6   7 -17 39.1219 118.858   7
  -6  -1 -17 144.756 117.688  10
   1   6 -17 145.615 114.369   7
  -1  -6 -17 191.483 118.385   7
  -1  -6 -17 82.6623 114.107  10
  -1   7 -17 82.5631 115.607   7
  -6  -1 -17 221.020 117.728   7
   7  -1 -17 352.253 112.383   7
   6  -7 -17 51.3068 108.742   7
  -7   6 -17 264.766 123.424   7
  -7   1 -18 4.76443 103.524   7
  -1  -6 -18-3.89430 102.128   7
   1  -7 -18-35.6007 89.7683  10
   1   6 -18 181.089 99.0223   7
  -6  -1 -18 115.918 104.906   7
  -7   6 -18 91.6970 111.022   7
   1  -7 -18-107.598 101.416   7
   7  -6 -18 44.2576 93.5636   7
  -1   7 -18 202.263 104.039   7
  -1  -6 -18-145.296 96.4063  10
  -6   7 -18-137.089 112.462   7
   6  -7 -18 51.7451 92.5233   7
   1  -7 -19 62.2600 83.5668   7
  -7   6 -19 39.4312 94.0321   7
  -7   1 -19 107.924 92.4117   7
  -1  -6 -19 53.7149 85.9835   7
   6  -7 -19 48.4783 79.7490   7
  -6   7 -19 87.7888 94.4963   7
  -6  -1 -19-42.0803 86.8942   7
  -1   7 -19 74.0455 80.9882   7
   7  -6 -19 73.0915 77.4056   7
   0   7   0 1555.29 205.166   2
   7  -7   0 1645.51 148.250   1
  -7   0   0 1516.65 231.396   3
  -7   7  -1 37708.8 942.348   3
   0   7   1 37790.9 854.331   2
  -7   0   1 39127.7 923.747   3
   0   7  -1 40043.5 873.470   2
  -7   0  -1 37233.4 1030.85   3
   7  -7  -1 38624.5 789.461   1
   0  -7  -1 38860.5 742.064   3
   7   0  -1 39117.5 860.709   5
   7   0   1 37303.5 777.971   2
  -7   7  -2 34609.9 947.332   3
   7   0  -2 34882.8 845.275   5
   0  -7  -2 33754.0 776.789   3
   7  -7  -2 36045.8 890.526   1
  -7   0  -2 33171.2 1025.30   3
   7   0   2 33070.6 722.478   2
  -7   7  -3 6487.02 456.946   3
   7   0   3 6343.15 330.295   2
   7  -7  -3 6829.73 441.275   1
   0  -7  -3 6606.81 385.147   3
  -7   0  -3 6590.10 507.225   3
   7  -7  -4 824.140 214.629   1
  -7   0  -4 541.879 220.638   3
  -7   7  -4 701.063 217.245   3
   7   0   4 820.253 157.604   2
   0  -7  -4 571.370 170.646   3
  -7   7  -5 379.748 201.132   3
   0  -7  -5 356.644 168.739   3
  -7   0  -5 237.764 215.500   3
   7  -7  -5 194.470 167.427   1
  -7   7  -6 3511.42 406.883   3
   0  -7  -6 3319.62 359.256   3
  -7   0  -6 3709.25 474.003   3
   7  -7  -6 3867.85 357.220   4
   7  -7  -6 3897.76 432.382   1
  -7   7  -7 7937.24 607.930   3
  -7   0  -7 7089.28 679.765   3
   7  -7  -7 8152.08 516.734   4
   7  -7  -7 7552.32 632.208   1
   7  -7  -8 2984.80 433.268   1
  -7   7  -8 3448.94 430.146   3
  -7   0  -8 2696.54 458.424   3
  -7   7  -9 492.311 274.987   3
  -7   0  -9 456.484 267.137   3
   7  -7  -9 453.430 232.595   1
   7  -7 -10 1517.85 366.623   1
  -7   7 -10 1488.43 352.409   3
   0  -7 -10 1292.13 369.465   1
  -7   0 -10 1822.69 432.525   3
  -7   0 -11-85.9973 296.600   3
   0  -7 -11 476.922 263.554   1
   7  -7 -11 559.598 306.621   1
   7  -7 -12 182.475 255.245   1
   0  -7 -12-82.2344 249.965   1
  -7   7 -12 122.023 113.488   7
  -7   0 -12 95.8016 123.384  10
   0  -7 -12-195.070 163.071  10
  -7   0 -12-46.6691 316.490   3
  -7   0 -13 317.753 128.507   7
   0   7 -13 824.108 159.378   7
   0  -7 -13 324.099 164.517  10
  -7   7 -13 366.160 136.324   7
  -7   0 -13 512.563 142.542  10
  -7   0 -14 966.189 156.868  10
  -7   0 -14 677.808 148.045   7
  -7   7 -14 412.933 148.655   7
   0   7 -14 937.884 159.846   7
   0  -7 -14 930.105 178.870  10
  -7   0 -15 40.6472 122.091   7
   0   7 -15-119.843 127.620   7
   0  -7 -15-54.7055 131.795   7
  -7   0 -15 4.69749 123.331  10
  -7   7 -15-43.0705 131.127   7
   0  -7 -15-30.3543 135.785  10
  -7   7 -16 118.816 126.621   7
   0  -7 -16 20.1243 119.151  10
  -7   0 -16 124.162 117.998   7
   7  -7 -16-87.9137 112.325   7
   0   7 -16 25.5414 115.457   7
  -7   0 -16-9.03370 120.304  10
   0  -7 -16 50.0575 117.074   7
  -7   0 -17 92.6555 110.512   7
  -7   7 -17-74.2292 118.990   7
   7  -7 -17 69.0630 102.176   7
   0  -7 -17-3.51703 108.541   7
   0  -7 -17 51.0125 110.862  10
   0   7 -17-28.0329 107.304   7
  -7   0 -17 27.1030 112.240  10
   7  -7 -18-10.2208 90.8582   7
   0  -7 -18 27.2917 97.3964   7
   0   7 -18 169.688 96.9462   7
  -7   0 -18 228.859 105.769   7
   0  -7 -18 33.0626 88.2934  10
  -7   7 -18-78.5484 107.513   7
   0  -7 -19-12.1142 82.4968   7
  -7   7 -19 17.7890 93.5372   7
   7  -7 -19-65.6588 77.3520   7
   0   7 -19 64.0807 77.9351   7
  -7   0 -19 56.9837 88.1288   7
  -4  -4   0 3493.35 263.800   3
   8  -4   0 3649.02 290.124   4
  -8   4   0 3793.36 332.538   3
  -4   8   0 3629.64 236.434   2
   8  -4   0 3759.74 206.489   5
  -4   8   0 4561.94 220.332   5
   4   4   0 3570.31 290.099   2
   4   4   1 2931.45 262.532   2
  -4   8  -1 2946.47 209.392   2
  -8   4  -1 3043.61 326.403   3
  -4   8  -1 2870.88 195.294   3
  -4  -4   1 3029.36 227.997   3
   8  -4   1 2779.04 252.987   4
  -4  -4  -1 2836.70 267.166   3
   8  -4  -1 2950.43 271.829   4
   8  -4   2 13869.1 488.685   4
  -4  -4  -2 14373.3 589.755   3
   8  -4  -2 13603.9 551.495   4
  -8   4  -2 13691.8 673.830   3
  -4   8  -2 14014.7 395.234   3
  -4  -4   2 13647.9 432.004   3
   4   4   2 13357.1 506.002   2
   4   4  -2 13147.6 547.224   5
   8  -4  -3 83509.9 1447.79   1
  -8   4  -3 82040.1 1761.87   3
  -4  -4  -3 88948.1 1615.14   3
   8  -4  -3 86135.9 1465.51   4
   4   4   3 85811.8 1361.85   2
  -4   8  -3 87238.1 1150.60   3
  -8   4  -4 37206.3 1256.02   3
   8  -4  -4 39824.1 997.182   4
   8  -4  -4 39233.8 1051.79   1
  -4  -4  -4 39417.4 1134.05   3
   8  -4   4 37633.3 556.893   2
   8  -4  -5 21598.5 849.193   1
   8  -4  -5 22116.6 760.907   4
  -4   8  -5 22946.5 689.797   3
  -8   4  -5 22446.8 1033.01   3
  -4  -4  -5 23409.6 957.752   3
  -4  -4  -6 70519.9 1724.84   3
   8  -4  -6 70470.5 1662.52   1
  -8   4  -6 73249.6 1992.76   3
   4  -8  -7 5428.83 539.696   1
  -8   4  -7 5793.97 613.806   3
  -4  -4  -7 5706.18 550.102   3
   8  -4  -7 5962.74 536.986   1
   8  -4  -8 6586.23 611.877   1
  -4  -4  -8 5849.01 593.827   3
  -8   4  -8 6611.82 671.693   3
   4  -8  -8 6294.93 613.186   1
   4  -8  -9 7661.14 699.164   1
   8  -4  -9 8525.47 722.156   1
  -8   4  -9 8506.91 785.356   3
  -4  -4  -9 8192.06 721.035   3
   4  -8 -10 5109.08 629.983   1
  -8   4 -10 4977.66 640.596   3
   8  -4 -10 5231.07 611.221   1
  -4  -4 -10 5168.06 604.174   3
  -8   4 -11 274.033 314.556   3
   4  -8 -11 651.722 326.843   1
  -4  -4 -11 498.297 277.466   1
   8  -4 -11 487.878 288.782   1
  -4  -4 -11 548.750 323.078   3
   4  -8 -12 808.153 354.565   1
   8  -4 -12 1132.09 334.362   1
  -8   4 -12 817.507 337.903   3
  -4  -4 -12 1006.25 366.437   1
  -8   4 -12 2440.94 165.143   7
  -4  -4 -13 6186.36 250.259   7
  -8   4 -13 6517.98 247.260   7
  -4   8 -13 7394.94 276.226   7
  -8   4 -13 6863.60 247.224  10
  -4  -4 -13 6873.17 263.726  10
  -8   4 -14 438.244 134.915  10
  -8   4 -14 206.700 123.421   7
  -4  -4 -14 174.626 136.916   7
  -4  -4 -14 232.468 133.172  10
   4  -8 -14-97.3757 166.811  10
   8  -4 -15 47.8837 120.030   7
  -4  -4 -15 67.4167 129.320  10
  -4   8 -15 276.742 134.174   7
   4  -8 -15 118.015 139.310  10
  -4  -4 -15 7.56267 134.534   7
  -8   4 -15 242.655 128.125   7
  -8   4 -16 26.0392 115.929   7
   4  -8 -16-124.051 122.175  10
  -4  -4 -16 5.56481 118.692   7
  -4  -4 -16-64.9719 124.928  10
   8  -4 -16 0.05709 107.990   7
  -4   8 -16 64.7062 123.888   7
  -4  -4 -17 96.3161 112.495   7
   8  -4 -17 177.761 105.026   7
  -8   4 -17-18.7818 113.383   7
  -4  -4 -17-154.312 113.429  10
  -4   8 -17-1.95397 113.128   7
   4  -8 -17 48.2875 101.876   7
  -8   4 -18 21.0344 103.283   7
  -4  -4 -18 65.4069 100.768   7
  -4  -4 -18 66.7517 92.2138  10
  -4   8 -18 70.7674 102.251   7
   4  -8 -18 126.298 94.1396   7
   8  -4 -18 228.324 92.6726   7
  -4   8 -19-30.4433 83.9534   7
   8  -4 -19 30.4750 70.8553   7
  -8   4 -19 76.2048 93.5444   7
  -4  -4 -19 45.1096 83.7321   7
   4  -8 -19 21.5390 77.4933   7
   8  -5   0 100471. 968.221   5
  -3   8   0 99940.8 1305.82   2
   8  -5   0 100124. 1507.05   4
  -8   5   0 103181. 1667.46   3
  -8   3   0 102243. 1676.17   3
   8  -3   0 103374. 1275.73   5
  -5  -3   0 99253.5 1487.58   3
  -3   8   0 103131. 1259.53   5
   3   5   0 98896.4 1477.50   2
   5   3   0 98166.6 1454.56   2
  -3  -5   0 97806.5 1282.15   3
  -5   8   0 101648. 1194.58   2
   8  -3   0 98597.1 1474.21   4
  -5  -3   1 40836.8 859.476   3
   8  -3  -1 42248.2 749.525   5
   8  -3  -1 41482.2 928.363   4
  -3   8  -1 37887.5 535.096   3
  -5   8  -1 41072.8 670.367   2
   5   3   1 40574.1 877.928   2
   8  -5  -1 41402.0 949.479   4
  -5   8  -1 40238.5 792.646   3
  -8   5  -1 40549.7 1069.25   3
  -3   8  -1 41385.5 787.590   2
  -5  -3  -1 41592.9 987.906   3
  -8   3  -1 39041.8 1079.88   3
  -3  -5   1 41257.2 717.802   3
   5   3  -1 39536.9 908.385   5
   3   5   1 39735.7 873.173   2
   8  -5   1 41982.0 901.868   4
  -3  -5  -1 40585.7 861.724   3
  -3   8  -1 40890.6 758.925   5
   3   5  -1 38326.3 893.382   5
   8  -5  -2 89060.1 1491.51   4
   8  -5  -2 88594.4 1365.22   1
  -3  -5   2 92485.3 1097.65   3
  -8   3  -2 87453.9 1742.35   3
   5   3   2 86959.1 1329.51   2
   3   5  -2 87460.1 1445.81   5
  -5   8  -2 93025.1 1301.90   3
   3   5   2 87060.1 1364.45   2
   5   3  -2 87232.2 1452.41   5
  -5  -3  -2 92787.8 1613.02   3
   8  -5   2 89147.6 1330.24   4
  -3  -5  -2 90444.9 1459.63   3
   8  -3  -2 89374.5 1454.67   4
  -8   5  -2 86648.5 1713.63   3
  -5  -3   2 91466.1 1279.15   3
   8  -5  -3 169301. 2141.44   1
  -3  -5  -3 170412. 2217.63   3
   8  -5  -3 170858. 2192.18   4
   3   5   3 166428. 2028.28   2
   8  -5   3 172285. 1867.68   4
  -5  -3  -3 175987. 2449.93   3
  -8   3  -3 164292. 2578.32   3
   8  -3   3 163621. 1492.19   2
  -5   8  -3 173377. 1935.14   3
   8  -3  -3 169392. 2136.02   4
  -8   5  -3 165600. 2546.82   3
   5   3   3 167633. 1968.52   2
   8  -3  -4 106568. 1804.98   1
  -8   5  -4 107100. 2136.97   3
   8  -3   4 109314. 1224.41   2
  -3   8  -4 107294. 1232.29   3
  -5   8  -4 110491. 1612.50   3
  -3  -5  -4 118052. 1999.32   3
   8  -5  -4 108973. 1835.80   1
  -5  -3  -4 111923. 2050.18   3
  -8   3  -4 116171. 2247.98   3
   8  -5  -4 111690. 1773.48   4
   5   3   4 113427. 1638.49   2
   8  -5  -5 108096. 1788.21   4
   8  -3  -5 101749. 1883.11   1
  -3  -5  -5 107394. 1963.08   3
  -8   5  -5 104717. 2227.19   3
  -5  -3  -5 105341. 2099.97   3
   8  -3   5 109553. 1321.75   2
  -8   3  -5 101828. 2260.34   3
   8  -5  -5 106584. 1985.13   1
  -5   8  -5 113571. 1751.08   3
   5  -8  -6 169968. 2897.95   1
  -8   3  -6 171828. 3188.03   3
   8  -3  -6 168136. 2664.80   1
  -5  -3  -6 179576. 3030.48   3
   8  -5  -6 176408. 2427.12   4
   8  -5  -6 179186. 2818.89   1
  -8   5  -6 174963. 3089.73   3
  -3  -5  -6 167885. 2689.72   3
   8  -5  -7 49736.1 1244.87   4
   8  -3  -7 49297.9 1478.60   1
  -3  -5  -7 49102.6 1468.08   3
  -8   3  -7 48393.1 1705.45   3
  -5   8  -7 54528.4 1317.76   3
  -5  -3  -7 49935.3 1608.57   3
   8  -5  -7 52796.8 1566.47   1
   5  -8  -7 48992.0 1569.19   1
  -8   5  -7 51995.2 1683.71   3
   3  -8  -8 40619.7 1511.02   1
   8  -3  -8 43819.3 1501.82   1
   5  -8  -8 44195.5 1571.26   1
   8  -5  -8 47353.1 1582.65   1
  -5  -3  -8 45868.0 1617.41   3
  -3  -5  -8 44361.0 1497.37   3
  -8   5  -8 46780.2 1711.62   3
  -8   3  -8 45972.7 1775.89   3
   8  -5  -9 34787.9 1438.82   1
   8  -3  -9 34164.3 1421.30   1
   5  -8  -9 33860.7 1479.73   1
  -3  -5  -9 33661.1 1392.10   3
  -8   3  -9 34238.8 1565.14   3
  -8   5  -9 35175.9 1492.96   3
  -5  -3  -9 33548.7 1487.03   3
   3  -8  -9 30292.1 1380.13   1
   8  -3 -10 16714.0 1063.05   1
   8  -5 -10 17389.9 1077.21   1
  -5  -3 -10 16329.8 1086.47   3
   3  -8 -10 13075.0 977.176   1
  -8   5 -10 14673.0 1023.18   3
   5  -8 -10 15039.5 1037.30   1
  -8   3 -10 15112.3 1080.23   3
  -3  -5 -10 17497.4 1050.63   3
  -5  -3 -10 12932.7 979.694   1
   3  -8 -11 6149.67 731.148   1
  -5  -3 -11 5637.78 688.827   1
  -3  -5 -11 5313.38 694.300   1
   8  -5 -11 7350.50 767.542   1
  -8   3 -11 7170.31 792.976   3
  -5  -3 -11 6879.93 764.653   3
   5  -8 -11 7264.86 763.780   1
  -8   5 -11 6289.29 705.767   3
   5  -8 -12 5366.86 707.749   1
  -3  -5 -12 4218.69 679.310   1
   8  -5 -12 6111.38 742.158   1
   3  -8 -12 5103.80 713.964   1
  -8   3 -12 5246.77 729.998   3
  -8   5 -12 4934.74 676.088   3
  -5  -3 -13 3536.51 209.454   7
  -3  -5 -13 4355.04 238.643  10
  -8   5 -13 4589.76 223.319   7
  -8   5 -13 4873.80 220.089  10
   3  -8 -13 4080.47 265.159  10
  -5  -3 -13 4361.74 228.058  10
  -8   3 -13 4516.77 222.031  10
  -8   3 -13 3641.23 211.373   7
  -3   8 -13 4807.03 231.054   7
  -5   8 -13 4723.81 236.283   7
  -8   5 -14 3834.30 206.126  10
  -3  -5 -14 2427.64 232.839  10
  -3  -5 -14 2631.96 209.361   7
  -8   3 -14 3309.21 205.953   7
  -5  -3 -14 3208.39 224.126   7
   8  -3 -14 2059.78 183.895   7
  -5   8 -14 2459.45 211.845   7
  -8   3 -14 2814.56 203.991  10
   3  -8 -14 2953.42 239.004  10
  -8   5 -14 3887.97 216.597   7
  -3   8 -14 3209.29 230.187   7
  -5  -3 -14 4540.63 226.694  10
   8  -3 -15 234.560 121.683   7
  -5  -3 -15 518.354 151.199  10
   8  -5 -15 492.499 148.868   7
   3  -8 -15 825.635 168.320  10
  -3   8 -15 333.763 144.152   7
  -5   8 -15 303.036 146.326   7
  -8   3 -15 443.197 143.822  10
   5  -8 -15-3.35526 138.083  10
  -5  -3 -15 547.933 145.772   7
  -8   3 -15 338.521 136.308   7
  -3  -5 -15 243.527 141.578   7
  -8   5 -15 384.257 144.169   7
  -3  -5 -15 284.723 158.046  10
   3  -8 -16 458.998 138.336  10
  -5  -3 -16 179.876 127.101  10
  -8   5 -16 145.075 127.408   7
   8  -3 -16 144.384 113.626   7
  -5  -3 -16 403.239 136.563   7
   3  -8 -16 38.3618 120.945   7
  -3  -5 -16 244.135 128.039  10
  -3  -5 -16 368.342 133.934   7
  -8   3 -16 448.211 133.915   7
  -5   8 -16 180.562 136.223   7
  -3   8 -16 126.704 131.019   7
   8  -5 -16 297.969 123.832   7
  -3   8 -17 33.6099 121.941   7
   8  -5 -17 374.299 118.024   7
  -3  -5 -17 52.3119 113.747  10
   3  -8 -17-72.3001 110.181   7
  -5  -3 -17 378.119 126.089   7
  -5   8 -17 37.4852 122.659   7
   8  -3 -17 292.692 114.703   7
  -8   5 -17-39.4231 117.340   7
  -3  -5 -17 235.745 123.443   7
  -5  -3 -17 148.613 115.643  10
   5  -8 -17-180.403 109.572   7
  -8   3 -17 475.611 129.303   7
   3  -8 -17 388.732 114.690  10
  -3  -5 -18 324.149 113.057   7
  -8   5 -18 178.304 115.360   7
   8  -3 -18 439.411 98.6123   7
  -5   8 -18 60.5565 109.364   7
  -3  -5 -18 184.280 100.120  10
  -5  -3 -18 408.212 104.335  10
  -8   3 -18 544.863 120.051   7
   3  -8 -18 57.4270 97.2810   7
   5  -8 -18-72.0081 92.4422   7
  -5  -3 -18 481.190 117.371   7
   8  -5 -18 483.433 103.412   7
  -3   8 -18 65.3807 107.258   7
  -5  -3 -19 523.746 101.961   7
  -3  -5 -19 454.035 97.5799   7
  -8   5 -19 188.703 100.907   7
   3  -8 -19 84.0452 85.4104   7
   8  -5 -19 561.882 84.6979   7
  -5   8 -19 134.725 95.8170   7
  -5   8 -19 141.662 73.6483   8
  -8   3 -19 603.413 111.368   7
  -3   8 -19 205.023 88.7020   7
   5  -8 -19 57.7097 81.9612   7
  -2   8   0 400.380 129.524   5
  -2  -6   0 540.983 114.305   3
  -6  -2   0 590.131 167.272   3
  -8   6   0 577.720 187.369   3
  -8   2   0 520.030 188.482   3
   2   6   0 655.432 172.506   2
  -2   8   0 537.856 150.871   2
   8  -2   0 565.638 135.263   5
  -2  -6   1 9613.39 278.451   3
  -6   8  -1 11494.1 308.333   2
  -2   8  -1 11933.0 449.467   5
   6   2   1 11902.3 477.459   2
   8  -6  -1 11279.6 418.447   1
  -8   2  -1 11346.3 596.878   3
  -8   6  -1 10988.6 557.695   3
  -2  -6  -1 11521.4 431.077   3
   6   2  -1 11484.1 488.090   5
   8  -2  -1 10956.2 421.455   5
  -8   2   1 12261.1 558.674   3
   2   6  -1 10391.2 474.840   5
   2   6   1 10712.1 473.536   2
  -6  -2   1 11925.6 493.558   3
  -2   8  -1 11899.8 451.946   2
   8  -6   1 10725.1 470.247   4
  -6  -2  -1 10526.5 531.815   3
  -2   8   1 11441.6 452.712   2
  -6   8  -1 11108.9 458.753   3
   2   6  -1 11658.0 497.071   2
   8  -6  -2 268.932 158.867   4
  -2  -6  -2 267.151 159.161   3
  -8   6  -2 83.0843 174.694   3
   8  -6  -2 319.825 138.632   1
  -6  -2  -2 89.6840 183.077   3
   6   2   2 150.231 138.823   2
  -6  -2   2 341.845 134.288   3
   2   6   2 343.467 157.041   2
   6   2  -2 186.643 144.197   5
  -6   8  -2 174.524 156.121   3
  -2  -6   2 140.240 52.0500   3
   8  -6   2 472.732 159.021   4
   2   6  -2 200.369 145.100   5
  -8   2  -2 216.346 201.039   3
  -6   8  -3 29667.1 831.496   3
   8  -6   3 28627.4 718.292   4
   8  -6  -3 28679.0 858.869   1
  -8   6  -3 27831.5 977.565   3
  -8   2  -3 27856.1 1041.55   3
  -2  -6   3 27145.9 460.139   3
   8  -6  -3 28268.1 843.136   4
  -6  -2  -3 29212.3 999.715   3
   8  -2   3 27865.8 583.623   2
  -2  -6  -3 27995.2 811.713   3
   6   2   3 29028.2 739.299   2
   8  -6   4 264.659 130.101   4
  -6   8  -4 442.035 177.073   3
   6  -8  -4 239.592 178.066   1
  -8   6  -4 158.883 223.134   3
   8  -2   4 337.499 135.736   2
  -6  -2  -4 321.651 206.783   3
  -8   2  -4 248.946 206.415   3
   6   2   4 336.665 163.901   2
   8  -6  -4 232.802 155.452   1
   8  -6  -4 298.041 168.642   4
  -2  -6  -4 362.777 178.389   3
  -6  -2  -5 562.874 253.881   3
  -8   6  -5 746.670 262.873   3
  -6   8  -5 518.349 202.754   3
   6  -8  -5 542.962 203.800   1
   8  -6  -5 381.987 177.278   1
   8  -2   5 600.306 147.081   2
   8  -6  -5 477.071 183.781   4
  -2  -6  -5 566.269 207.468   3
  -8   2  -5 343.104 215.945   3
  -6  -2  -6 5063.17 535.533   3
  -2  -6  -6 5124.45 445.049   3
  -8   6  -6 4887.12 529.883   3
   8  -6  -6 5086.16 479.603   1
  -8   2  -6 4790.88 547.770   3
   8  -6  -6 5251.35 419.700   4
  -6   8  -6 5806.68 459.484   3
   6  -8  -6 5223.35 505.920   1
  -8   2  -7 65.7751 234.964   3
   8  -6  -7 232.475 161.018   4
  -6  -2  -7 95.2869 248.062   3
  -2  -6  -7 166.949 188.579   3
   8  -6  -7 359.448 211.929   1
   6  -8  -7 329.529 196.589   1
  -6   8  -7 147.917 171.679   3
  -8   6  -7 194.050 237.684   3
  -8   6  -8 55.0658 247.975   3
  -6   8  -8 227.294 217.162   3
  -6  -2  -8 257.876 281.963   3
  -2  -6  -8 62.1322 186.605   3
   6  -8  -8 138.899 206.590   1
  -8   2  -8 56.4891 260.297   3
   8  -6  -8 176.422 188.744   1
   8  -6  -8 194.048 192.416   4
  -6  -2  -9 440.357 268.516   3
   6  -8  -9 431.735 235.599   1
  -8   6  -9 266.552 250.458   3
  -8   2  -9-34.4483 303.967   3
  -2  -6  -9 404.696 234.617   3
   8  -6  -9 292.956 208.511   1
   2  -8  -9 355.136 236.902   1
  -6  -2 -10-29.7287 254.861   3
   6  -8 -10 349.629 236.733   1
   8  -6 -10 121.401 249.396   1
  -8   2 -10 9.68998 321.598   3
  -2  -6 -10-19.4230 257.647   1
   2  -8 -10 309.754 260.590   1
  -8   6 -10 167.106 279.959   3
  -6  -2 -10-9.66965 230.376   1
   2  -8 -11 229.502 263.151   1
  -8   6 -11-270.070 286.741   3
  -6  -2 -11 66.8557 269.822   3
  -8   2 -11 0.68035 320.011   3
  -2  -6 -11 36.4010 274.195   1
   6  -8 -11 38.3741 266.729   1
   8  -6 -11 221.652 251.857   1
  -2   8 -12 747.137 153.391   7
  -6   8 -12 846.207 151.392   7
  -8   2 -12 467.684 132.901   7
  -8   2 -12 889.438 150.134  10
  -6  -2 -12 1002.55 158.066  10
  -8   6 -12 457.815 136.701   7
   2  -8 -12 716.028 189.622  10
  -8   2 -12 597.559 362.819   3
  -2  -6 -12 969.744 187.952  10
  -2  -6 -12 122.216 294.564   1
   2  -8 -12 339.201 285.228   1
  -6   8 -13 613.767 149.775   7
  -2  -6 -13 849.112 165.206  10
  -8   2 -13 570.025 140.829   7
   6  -8 -13 919.424 201.102  10
  -6  -2 -13 374.220 141.231   7
  -8   6 -13 311.187 136.360   7
  -8   2 -13 982.238 154.051  10
  -2   8 -13 780.404 160.452   7
   2  -8 -13 574.241 185.866  10
  -6  -2 -13 684.415 155.786  10
  -8   6 -14 112.826 134.239   7
  -2  -6 -14 143.903 155.987   7
   2   6 -14 537.862 153.012   7
  -8   2 -14 384.083 133.138   7
  -8   2 -14 307.638 141.771  10
  -6  -2 -14 413.334 149.990  10
  -6   8 -14-15.8191 143.254   7
   6  -8 -14 846.894 186.335  10
  -6  -2 -14 406.947 149.307   7
  -2  -6 -14 637.264 158.253  10
  -2   8 -14-451.328 153.542   7
   2  -8 -14-35.0008 153.795  10
  -8   6 -15 194.503 139.340   7
  -8   2 -15 715.839 143.033   7
  -2  -6 -15 1765.98 174.909  10
  -6   8 -15 474.871 148.361   7
  -6  -2 -15 276.129 152.038  10
   2   6 -15 972.556 152.911   7
  -8   2 -15 897.031 156.637  10
   8  -2 -15 1106.67 161.103   7
  -2  -6 -15 516.859 156.189   7
  -6  -2 -15 551.015 154.842   7
   2  -8 -15 277.537 156.757  10
  -2   8 -15 783.013 155.138   7
  -2   8 -16-58.1989 123.955   7
   2  -8 -16-131.727 125.088   7
  -8   2 -16-6.83100 120.945  10
  -6  -2 -16 120.979 126.822  10
   8  -6 -16-335.080 120.932   7
  -8   2 -16 163.475 123.826   7
  -6   8 -16-248.662 134.919   7
  -8   6 -16-214.605 128.611   7
   2   6 -16 296.033 121.961   7
  -6  -2 -16 229.168 123.963   7
  -2  -6 -16 136.085 131.160   7
   2  -8 -16-49.4229 122.132  10
  -2  -6 -16 86.2970 121.732  10
   8  -2 -16 321.552 123.445   7
   2   6 -17 161.761 115.011   7
   2  -8 -17-0.33275 104.424  10
  -2  -6 -17 8.68233 112.981   7
  -6  -2 -17 358.324 119.758   7
  -6  -2 -17 56.4574 108.688  10
  -6   8 -17-134.365 122.489   7
   2  -8 -17-55.4258 104.466   7
  -8   6 -17-204.843 122.361   7
  -2  -6 -17 44.2540 111.084  10
  -8   2 -17 74.2428 111.378   7
  -2   8 -17-135.937 116.041   7
   6  -8 -17-35.2896 104.024   7
   8  -6 -17 27.5905 101.476   7
  -2  -6 -18 18.1404 101.872   7
  -6   8 -18-122.946 112.728   7
  -8   6 -18 47.9481 108.948   7
   6  -8 -18-88.6656 94.9713   7
   8  -6 -18-105.630 93.9547   7
   2  -8 -18-49.9077 95.0545   7
   2  -8 -18-51.3047 88.8146  10
  -2  -6 -18 100.057 92.5944  10
  -8   2 -18 33.9535 101.651   7
  -6  -2 -18 299.441 106.779   7
  -2   8 -18 159.131 102.394   7
  -2   8 -19 183.603 86.4954   7
  -2  -6 -19 191.923 91.1274   7
  -8   6 -19 180.322 97.2387   7
  -6  -2 -19 449.959 96.0968   7
  -6   8 -19-86.8761 90.5499   7
  -2  -6 -19 43.4307 74.0414  10
   8  -6 -19-89.5993 75.4846   7
  -8   2 -19 173.146 94.8208   7
   6  -8 -19 96.9788 80.1907   7
  -6   8 -19-177.798 74.5094   8
   2  -8 -19-19.1991 82.1632   7
   8  -1   0 18513.2 585.895   5
  -1   8   0 18904.6 599.009   2
   1   7   0 19064.2 619.703   2
  -7  -1   0 18252.8 687.713   3
   8  -7   0 18403.3 441.291   1
   7  -8   0 19343.3 485.810   1
  -1   8   0 16925.4 553.820   5
  -1  -7   0 18326.6 431.185   3
  -8   1   0 19354.1 727.474   3
   1   7  -1 13957.2 537.010   2
  -1   8   1 13419.4 506.852   2
  -1  -7  -1 13806.1 456.159   3
  -7  -1  -1 12927.0 613.286   3
  -8   1   1 13771.8 584.944   3
  -7   8  -1 13132.8 547.883   3
  -7  -1   1 13216.1 558.102   3
  -8   7  -1 13054.2 599.444   3
   7  -8  -1 13468.5 488.952   1
  -7   8  -1 12468.4 270.053   2
   8  -7  -1 11427.4 433.694   1
   1   7   1 12059.6 494.371   2
   1   7  -1 12739.2 515.988   5
   7   1   1 13093.4 494.668   2
  -1   8  -1 14012.2 522.054   2
   7   1  -1 13159.8 537.185   5
  -8   1  -1 13572.3 653.112   3
   8  -1  -1 13603.3 506.225   5
  -1   8  -1 13040.4 503.203   5
   7  -8  -2 4869.84 358.194   1
  -7  -1   2 5194.48 345.838   3
  -7   8  -2 4969.37 381.558   3
   7   1  -2 4836.56 346.767   5
  -1  -7  -2 4715.22 322.582   3
   7   1   2 4685.51 313.421   2
   8  -1   2 4547.19 270.671   2
   8  -7  -2 4763.50 329.508   1
  -7  -1  -2 5087.91 432.634   3
  -8   7  -2 5005.31 412.999   3
   1   7  -2 4652.93 348.984   5
   1   7   2 4687.37 332.731   2
  -8   1  -2 4785.44 429.631   3
   7  -8  -3 21917.6 807.850   1
  -8   7  -3 20087.8 819.429   3
  -8   1  -3 21058.9 909.549   3
  -7   8  -3 21952.6 787.146   3
  -7  -1  -3 19622.2 843.007   3
   8  -1   3 20539.1 563.848   2
   7   1   3 20703.1 623.799   2
   8  -7  -3 21131.2 736.947   1
  -1  -7  -3 20891.4 691.443   3
   8  -7   4 3229.38 246.972   4
   8  -7  -4 3297.13 342.636   1
  -7   8  -4 3400.67 353.089   3
  -8   7  -4 3015.56 373.811   3
  -7  -1  -4 2945.74 399.143   3
   8  -1   4 3395.53 253.078   2
  -8   1  -4 2876.90 390.954   3
  -1  -7  -4 2808.94 302.857   3
   7   1   4 3073.17 273.828   2
   7  -8  -4 3494.23 367.673   1
  -7   8  -5 959.064 235.753   3
   8  -7  -5 600.011 193.210   4
  -1  -7  -5 744.650 212.229   3
   8  -7  -5 852.273 228.057   1
  -7  -1  -5 686.134 263.357   3
   7  -8  -5 974.622 244.113   1
   7   1   5 961.413 204.405   2
  -8   7  -5 759.130 250.036   3
   8  -1   5 775.204 171.143   2
  -8   1  -5 539.413 241.397   3
  -7  -1  -6 848.815 286.535   3
   8  -7  -6 939.058 250.371   1
  -7   8  -6 1024.54 248.119   3
  -1  -7  -6 1084.65 231.122   3
   7  -8  -6 1043.45 274.103   1
   8  -1   6 864.144 194.397   2
   8  -7  -6 864.665 216.068   4
  -8   1  -6 945.656 300.919   3
  -8   7  -6 832.164 247.839   3
   8  -7  -7 5130.72 526.821   1
  -8   7  -7 5154.74 531.281   3
   7  -8  -7 5697.54 442.057   4
  -1  -7  -7 4836.62 467.031   3
  -8   1  -7 4643.67 577.518   3
  -7   8  -7 6202.96 541.866   3
   7  -8  -7 5355.35 541.919   1
   8  -7  -7 5188.04 434.945   4
  -7  -1  -7 5129.82 595.912   3
   7  -8  -8 544.715 255.410   1
  -8   7  -8 763.574 307.665   3
  -8   1  -8 268.583 267.628   3
   8  -7  -8 678.897 202.448   4
  -7  -1  -8 724.527 308.063   3
   8  -7  -8 552.449 244.452   1
  -1  -7  -8 676.342 248.241   3
  -7   8  -8 674.916 246.799   3
   7  -8  -8 710.235 204.144   4
   7  -8  -9 423.985 254.750   1
  -8   1  -9 655.438 332.483   3
  -8   7  -9 429.313 262.013   3
  -7  -1  -9 725.316 308.659   3
   8  -7  -9 484.847 256.729   1
  -8   1 -10 335.137 324.622   3
  -7  -1 -10-127.645 306.972   3
  -8   7 -10 245.811 249.823   3
  -1  -7 -10 274.358 232.844   1
   1  -8 -10 129.233 215.028   1
   7  -8 -10 242.382 222.943   1
   8  -7 -10 310.428 216.019   1
  -8   1 -11 153.894 317.123   3
   7  -8 -11 203.565 260.318   1
  -7  -1 -11 208.122 356.809   3
  -1  -7 -11-160.628 301.741   1
   8  -7 -11-72.7898 233.780   1
   1  -8 -11-56.1733 236.073   1
  -8   1 -12-221.541 130.603   7
  -1  -7 -12 188.767 289.783   1
   1  -8 -12 188.380 170.169  10
  -1  -7 -12 140.159 158.119  10
  -1   8 -12-11.2141 135.306   7
  -8   7 -12 56.5509 119.904   7
  -7  -1 -12 254.755 130.023  10
  -7   8 -12-3.21439 119.597   7
  -8   1 -12 134.312 123.863  10
  -7  -1 -12 26.3277 122.408   7
   1  -8 -13 1193.78 187.464  10
  -1   8 -13 1622.98 172.587   7
  -7  -1 -13 1312.12 159.444   7
  -8   1 -13 1398.26 158.800  10
  -8   1 -13 956.853 148.429   7
  -8   7 -13 1382.21 157.160   7
   1   7 -13 1581.97 168.007   7
  -7  -1 -13 1489.05 159.111  10
  -7   8 -13 1141.22 158.202   7
  -1  -7 -13 1390.89 185.968  10
  -1   8 -14 201.902 140.879   7
  -8   1 -14 280.150 140.729  10
   1   7 -14 344.201 137.944   7
  -8   1 -14 230.030 130.293   7
  -7  -1 -14 132.103 129.807   7
  -1  -7 -14-30.9281 162.312  10
  -7  -1 -14 221.825 134.284  10
  -7   8 -14 395.557 145.228   7
   1  -8 -14 235.170 166.495  10
  -8   7 -14 309.092 137.512   7
  -8   1 -15 132.035 121.953   7
  -1   8 -15 232.174 132.751   7
  -1  -7 -15-307.930 147.017   7
  -8   7 -15-6.66660 124.755   7
  -7  -1 -15-91.9942 134.427  10
  -8   1 -15-2.62926 133.953  10
   1  -8 -15-158.233 146.804  10
  -7  -1 -15-34.3989 127.325   7
  -1  -7 -15-316.701 150.738  10
   1   7 -15 22.3562 122.674   7
  -7   8 -15 227.341 133.779   7
  -7   8 -16 11.9017 120.334   7
  -7  -1 -16-72.5539 126.072  10
  -8   7 -16 8.57809 118.902   7
  -8   1 -16 224.565 121.062   7
  -1  -7 -16 140.957 129.719   7
   1  -8 -16-21.0501 122.227  10
  -1  -7 -16-93.4730 125.669  10
  -8   1 -16 91.8048 121.090  10
   1   7 -16 95.1498 115.082   7
   8  -7 -16-163.358 120.258   7
  -7  -1 -16 78.9108 114.613   7
   1  -8 -16-119.990 127.719   7
  -1   8 -16 37.3143 125.136   7
   1  -8 -17-96.6719 106.867   7
   8  -7 -17-40.1706 99.6779   7
  -1   8 -17 75.0543 109.193   7
  -8   7 -17 9.31338 109.210   7
   7  -8 -17 105.941 100.602   7
   1  -8 -17-171.887 110.646  10
  -7   8 -17-33.2776 115.061   7
   1   7 -17 227.671 109.194   7
  -1  -7 -17-98.4636 110.345  10
  -1  -7 -17-49.4624 110.901   7
  -7  -1 -17-9.21921 105.990   7
  -7  -1 -17-126.989 114.570  10
  -8   1 -17-3.40407 105.365   7
  -8   7 -18 139.119 111.555   7
  -8   1 -18-9.00155 97.7866   7
  -1   8 -18 241.187 99.2197   7
  -7   8 -18 22.5317 104.761   7
   7  -8 -18 26.9461 89.1863   7
   8  -7 -18 16.7315 88.4228   7
   1  -8 -18 51.0011 96.1308   7
  -1  -7 -18-50.0455 89.8569  10
  -7  -1 -18-20.2793 97.7074   7
   1  -8 -18-136.464 90.6506  10
  -1  -7 -18 52.5749 98.4312   7
   8  -7 -19 105.784 76.4871   7
   1  -8 -19 8.35663 83.3091   7
   7  -8 -19 32.2088 76.3929   7
  -8   1 -19-36.1183 86.0714   7
  -7  -1 -19 114.129 86.8766   7
  -1   8 -19-23.0732 76.6397   7
  -1  -7 -19 4.31490 83.4267   7
  -8   7 -19 18.2004 91.8615   7
  -7   8 -19 2.86954 91.1294   7
   0   8   0 51322.9 1036.72   2
  -8   0   0 51387.3 1215.90   3
   0   8   0 48161.0 1006.33   5
   8   0   0 50424.8 1030.16   5
   0   8  -1 21662.4 676.098   2
  -8   0  -1 20837.9 816.010   3
  -8   8  -1 20474.3 747.069   3
  -8   0   1 21001.9 736.426   3
   0   8   1 20773.4 660.481   2
   8   0  -1 21519.3 676.446   5
   8  -8  -1 21441.6 593.232   1
   0   8  -1 20695.4 662.599   5
   0   8  -2 4866.24 354.740   5
   8   0  -2 5160.15 349.131   5
   0  -8  -2 5292.62 332.545   3
   8   0   2 5211.29 312.906   2
   0   8   2 5273.87 356.162   2
  -8   0  -2 4929.99 438.435   3
  -8   8  -2 5153.11 403.192   3
   8  -8  -2 5413.42 351.930   1
   8  -8  -3 82.0173 133.324   1
  -8   0  -3 288.002 202.140   3
  -8   8  -3 153.972 185.903   3
   8   0   3 226.804 129.319   2
   0  -8  -3 194.863 152.444   3
  -8   8  -4 9030.65 583.536   3
   8  -8  -4 10013.9 596.736   1
   8   0   4 9410.50 429.856   2
   0  -8  -4 9278.12 504.197   3
  -8   0  -4 8313.17 627.118   3
   8   0   5 6260.99 376.579   2
   0  -8  -5 5874.99 426.517   3
  -8   8  -5 5958.19 497.539   3
  -8   0  -5 4942.62 540.041   3
   8  -8  -5 6642.00 526.746   1
  -8   8  -6 1181.90 290.073   3
   8  -8  -6 1151.97 276.240   1
  -8   0  -6 1199.69 336.379   3
   8  -8  -6 1052.73 225.054   4
   8   0   6 1385.64 225.168   2
   8  -8  -7 2256.86 379.595   1
  -8   8  -7 2410.66 380.770   3
  -8   0  -7 2483.65 448.958   3
   8  -8  -7 1936.73 304.108   4
  -8   8  -8 971.377 299.778   3
   8  -8  -8 1265.08 322.718   1
  -8   0  -8 1188.54 379.515   3
   8  -8  -8 774.025 214.014   4
   8  -8  -9 1141.13 337.971   1
  -8   0  -9 1403.27 424.171   3
  -8   8  -9 1014.90 312.769   3
   0  -8 -10 605.183 285.344   1
   8  -8 -10 1000.84 356.359   1
  -8   0 -10 603.634 379.749   3
   8  -8 -11 408.885 274.875   1
  -8   0 -11 630.137 382.632   3
   0  -8 -11 234.860 297.334   1
   0  -8 -12 1255.89 220.393  10
  -8   0 -12 934.199 148.621   7
  -8   0 -12 1358.93 163.946  10
  -8   8 -12 1275.28 168.140   7
  -8   0 -13 554.335 140.550  10
  -8   8 -13 547.255 149.629   7
  -8   0 -13 459.674 140.487   7
   0  -8 -13 686.174 176.661  10
   0   8 -13 905.151 165.065   7
   0   8 -14 796.749 161.524   7
  -8   8 -14 300.974 150.976   7
  -8   0 -14 534.421 153.226   7
  -8   0 -14 530.020 159.614  10
   0  -8 -14 856.130 201.598  10
  -8   8 -15 479.073 157.379   7
  -8   0 -15 546.142 143.554   7
  -8   0 -15 1048.33 164.754  10
   0  -8 -15 244.639 169.266  10
   0   8 -15 867.168 158.919   7
   0   8 -16 324.377 141.118   7
  -8   0 -16 502.637 134.143   7
  -8   8 -16-11.1208 129.225   7
   0  -8 -16 621.656 159.532   7
  -8   0 -16 160.537 133.134  10
   0  -8 -16 66.9717 137.931  10
   0   8 -17 107.041 111.754   7
  -8   0 -17 347.960 116.043   7
   0  -8 -17 307.514 121.914   7
  -8   8 -17 115.203 117.836   7
   0  -8 -17 34.6840 111.826  10
   8  -8 -17 300.413 116.434   7
   0  -8 -18 561.715 117.639   7
   8  -8 -18 503.781 106.925   7
  -8   8 -18 114.127 114.428   7
  -8   0 -18 369.071 112.845   7
   0   8 -18 173.666 97.9201   7
   0  -8 -18 253.765 104.008  10
  -8   8 -19 97.6783 99.3148   7
  -5  -4   0 22304.2 689.540   3
  -5   9   0 22510.9 561.120   2
  -9   5   0 22360.9 801.183   3
  -9   4   0 22096.9 811.394   3
   9  -4   0 22164.7 692.341   4
   4   5   0 21902.0 695.482   2
   9  -5   0 21118.1 445.140   5
  -4   9   0 24159.8 557.953   5
  -4  -5   0 22891.9 644.813   3
  -4   9   0 22767.2 595.726   2
   9  -4   0 24109.9 556.570   5
   9  -5   0 21944.9 700.273   4
  -5   9   0 20377.0 433.361   5
   5   4   0 21868.9 686.820   2
  -4  -5   1 16675.0 512.452   3
  -9   5  -1 17037.9 759.949   3
  -5   9  -1 16266.2 488.438   3
  -4   9  -1 17061.8 415.986   3
  -9   4  -1 16531.2 740.346   3
  -4  -5  -1 16745.5 604.652   3
  -5  -4  -1 17378.3 648.780   3
   4   5   1 15466.4 578.124   2
   9  -4  -1 16359.5 617.596   4
   5   4   1 16762.3 592.040   2
  -5  -4   1 17788.9 579.345   3
  -4   9  -1 17755.6 515.007   2
  -5   9  -1 17087.9 471.524   2
   4   5  -1 15126.6 601.307   5
   9  -5   1 16817.0 599.310   4
   5   4  -1 16138.5 608.475   5
   9  -4   1 17362.7 601.622   4
   9  -5  -1 16587.4 627.061   4
   5   4   2 20050.6 658.500   2
   9  -5  -2 20325.1 716.899   4
  -4  -5   2 21736.6 569.174   3
  -9   5  -2 20624.3 874.565   3
  -5  -4  -2 20886.0 771.083   3
   9  -5   2 20693.7 644.637   4
   5   4  -2 20193.8 711.126   5
  -5   9  -2 20704.7 552.595   3
  -4   9  -2 17342.7 380.901   3
  -4  -5  -2 20292.3 723.174   3
   4   5   2 19795.9 651.622   2
  -5  -4   2 22551.1 630.122   3
   9  -4  -2 19828.5 698.998   4
   4   5  -2 19552.8 697.023   5
  -9   4  -2 19718.6 862.727   3
  -5  -4   3 4299.27 279.694   3
   9  -5  -3 3738.83 331.836   4
  -9   5  -3 3674.59 415.390   3
  -5   9  -3 3706.24 249.550   3
   9  -5  -3 3780.14 319.458   1
  -4  -5   3 4048.42 244.793   3
  -9   4  -3 3268.09 394.799   3
  -4  -5  -3 3096.93 332.958   3
   9  -5   3 3783.61 277.446   4
   4   5   3 3445.72 299.990   2
  -5  -4  -3 3496.68 368.477   3
   5   4   3 3482.17 298.513   2
   9  -4  -3 3480.83 317.328   4
   5   4   4 3565.70 320.080   2
   9  -4  -4 3910.71 344.123   4
   9  -5  -4 3948.45 349.393   4
  -9   5  -4 3524.49 440.080   3
   9  -5  -4 3965.33 358.443   1
  -4  -5  -4 3774.39 375.345   3
  -5  -4  -4 3601.77 400.298   3
   4   5   4 3948.17 342.065   2
  -5   9  -4 3902.55 283.468   3
  -9   4  -4 3335.15 431.448   3
   9  -4  -4 3647.76 345.575   1
   9  -5  -5 6944.21 461.998   4
   9  -4  -5 6989.69 501.859   1
  -9   4  -5 5613.52 561.944   3
  -9   5  -5 6318.76 582.404   3
  -5  -4  -5 6402.26 533.951   3
  -4  -5  -5 7231.23 548.578   3
   9  -5  -5 6478.06 487.339   1
  -9   5  -6 17301.6 1004.94   3
  -9   4  -6 16627.9 992.640   3
   9  -4  -6 17374.2 836.692   1
  -4  -5  -6 16481.2 824.963   3
  -5  -4  -6 18445.8 950.114   3
   9  -5  -6 17610.9 742.730   4
   9  -5  -6 17027.3 835.595   1
  -4  -5  -7 3351.66 423.005   3
   9  -5  -7 3209.93 411.324   1
   5  -9  -7 3069.07 434.285   1
  -9   5  -7 3136.03 485.357   3
  -9   4  -7 3451.83 517.849   3
  -5  -4  -7 2998.72 414.713   3
   9  -4  -7 3355.89 417.277   1
  -5  -4  -8 4003.30 507.473   3
   9  -4  -8 4269.48 508.106   1
  -9   4  -8 4296.42 587.455   3
  -4  -5  -8 3684.02 483.199   3
   5  -9  -8 4014.25 509.494   1
  -9   5  -8 3964.10 553.833   3
   9  -5  -8 4547.64 522.449   1
   4  -9  -8 3905.13 516.799   1
   9  -4  -9 1207.43 312.859   1
   4  -9  -9 855.244 288.549   1
   9  -5  -9 1237.14 317.621   1
  -9   5  -9 1042.39 344.325   3
  -4  -5  -9 1465.44 367.245   3
   5  -9  -9 944.094 311.843   1
  -5  -4  -9 1195.88 359.573   3
  -9   4  -9 1215.39 375.080   3
  -5  -4 -10 1230.10 370.533   3
   5  -9 -10 1541.90 381.880   1
   9  -4 -10 1351.15 356.966   1
  -9   4 -10 926.633 378.418   3
  -9   5 -10 1207.24 395.473   3
  -4  -5 -10 1047.55 355.767   3
   9  -5 -10 1143.50 328.027   1
   4  -9 -10 1223.54 336.746   1
  -5  -4 -11 962.335 363.016   3
   9  -5 -11 413.995 262.326   1
  -9   4 -11 595.225 365.523   3
  -4  -5 -11 382.648 267.664   1
  -5  -4 -11 414.873 280.144   1
   5  -9 -11 492.111 307.664   1
  -9   5 -11 535.245 366.415   3
   4  -9 -11 635.292 334.246   1
  -5   9 -12 131.775 129.370   7
  -9   5 -12-214.442 350.749   3
  -9   5 -12-291.820 114.847   7
  -9   4 -12 16.5483 106.381   7
  -9   5 -12-35.2177 118.303  10
  -5  -4 -12-158.968 126.676   7
  -5  -4 -12-95.4269 136.243  10
  -4  -5 -12-121.028 138.971  10
   5  -9 -12-301.432 171.691  10
  -9   4 -12 89.0782 120.648  10
  -4   9 -12 107.284 128.995   7
   4  -9 -12 61.9842 158.004  10
  -4  -5 -12 149.829 235.515   1
  -9   4 -13-377.547 122.499   7
   5  -9 -13-237.707 161.931  10
   4  -9 -13-136.554 159.676  10
  -4  -5 -13-138.329 134.311   7
  -5   9 -13-45.4865 128.000   7
  -4   9 -13 172.283 129.966   7
  -9   4 -13-253.680 132.668  10
  -5  -4 -13 71.7483 126.685  10
  -9   5 -13-74.0764 120.686   7
  -4  -5 -13-114.978 138.370  10
  -9   5 -13-76.9979 125.753  10
  -5  -4 -13-257.733 142.322   7
  -4   9 -14 552.933 150.924   7
  -5  -4 -14 530.950 143.775   7
  -9   4 -14 687.481 146.011  10
  -5  -4 -14 345.156 144.504  10
  -9   5 -14 400.876 132.757   7
  -4  -5 -14 379.406 147.290  10
   4  -9 -14 306.330 158.128  10
   5  -9 -14 215.302 160.163  10
  -9   4 -14 310.706 122.043   7
  -4  -5 -14 469.980 143.961   7
  -5   9 -14 415.184 143.411   7
  -9   5 -15 405.099 132.957   7
  -9   4 -15 299.009 126.169   7
   4  -9 -15 70.3002 136.482  10
  -5  -4 -15 242.448 133.153  10
  -4  -5 -15 371.502 135.965   7
   5  -9 -15 240.244 146.699  10
  -5   9 -15 349.157 146.289   7
   9  -5 -15 440.215 127.451   7
  -4   9 -15 324.376 139.796   7
  -5  -4 -15 534.904 136.856   7
  -4  -5 -15 377.121 137.428  10
   9  -4 -15 382.008 128.355   7
  -9   5 -16 164.584 116.537   7
   4  -9 -16 84.1330 118.000  10
  -4  -5 -16 17.0168 113.321  10
   5  -9 -16-95.7120 118.250  10
  -9   4 -16 26.1528 110.261   7
  -5  -4 -16-12.4299 113.108   7
  -4  -5 -16 70.3373 114.653   7
   9  -4 -16-65.2724 110.011   7
  -4   9 -16 171.612 123.240   7
  -5  -4 -16 67.3548 111.255  10
   9  -5 -16 127.745 107.288   7
  -5   9 -16-172.956 124.442   7
   4  -9 -17 79.8782 98.7938   7
  -4   9 -17 38.1123 108.966   7
  -5  -4 -17-40.2298 105.725   7
  -9   5 -17 118.129 109.206   7
  -9   4 -17-73.7506 108.546   7
   9  -5 -17-47.5790 95.2400   7
   5  -9 -17-28.5157 94.5905   7
   9  -4 -17 128.169 101.072   7
  -5  -4 -17-30.7565 101.040  10
  -4  -5 -17-81.6330 108.375   7
  -5   9 -17-20.6399 112.014   7
  -4  -5 -17-47.1829 107.100  10
   4  -9 -17-80.6510 105.575  10
  -4   9 -18-60.1684 80.0223   8
  -5   9 -18-92.9384 83.6308   8
  -9   5 -18-99.8016 103.250   7
  -5  -4 -18 122.681 97.8771   7
   9  -5 -18-100.498 84.0242   7
   5  -9 -18 41.6956 87.0209   7
   4  -9 -18-89.7104 91.4063   7
  -4  -5 -18-159.093 93.9541  10
  -9   4 -18 105.433 103.429   7
  -5  -4 -18 119.295 91.6225  10
  -4  -5 -18 136.667 98.9940   7
  -5   9 -18-79.7070 100.298   7
  -4   9 -18-21.8076 96.6405   7
  -5   9 -19 77.3971 85.4847   7
  -9   4 -19 129.115 90.2979   7
  -4   9 -19 5.20057 80.0437   7
   4  -9 -19 97.5637 79.9694   7
  -9   5 -19 3.19484 87.3349   7
   5  -9 -19-17.8440 75.1123   7
  -4  -5 -19 85.9188 83.0200   7
  -5  -4 -19 76.6667 80.9177   7
   9  -3   0 1899.30 196.120   5
  -3   9   0 2660.53 235.530   2
  -9   3   0 2726.36 317.282   3
   3   6   0 2299.07 256.423   2
  -6   9   0 2983.15 209.941   2
  -9   6   0 2416.41 302.620   3
  -6  -3   0 2609.44 270.601   3
   9  -6   0 2517.91 268.588   4
  -3  -6   0 2839.80 220.213   3
  -3   9   0 2501.81 216.792   5
  -6   9  -1 1562.90 206.593   3
   9  -6   1 1642.84 226.883   4
   9  -6  -1 1627.90 234.544   4
  -6  -3   1 1639.72 215.288   3
  -9   6  -1 1720.23 282.482   3
  -3   9  -1 1622.92 200.426   2
  -3  -6   1 1607.64 153.077   3
  -3   9  -1 1663.17 194.769   5
   6   3   1 1485.64 219.202   2
  -6  -3  -1 1497.46 235.487   3
   3   6  -1 1621.60 231.848   2
   6   3  -1 1593.11 218.757   5
  -6   9   1 1750.03 111.995   5
   9  -3  -1 1632.49 184.304   5
  -9   3   1 1806.59 257.339   3
  -9   3  -1 1658.18 281.804   3
  -3  -6  -1 1837.60 215.415   3
  -3   9   1 1614.01 212.904   2
   3   6   1 1739.32 226.562   2
  -6   9  -1 1617.15 160.770   2
   3   6  -1 1635.25 228.339   5
   6   3   2 1051.58 198.418   2
  -3  -6  -2 1205.08 212.227   3
   9  -6  -2 1158.53 183.456   1
  -6  -3   2 1207.52 185.695   3
  -6   9  -2 1545.10 219.435   3
  -3  -6   2 1113.53 125.161   3
  -9   3  -2 1180.81 276.255   3
   9  -6  -2 1068.04 207.640   4
   9  -6   2 943.378 181.095   4
   3   6  -2 946.172 199.022   5
   6   3  -2 1015.87 200.957   5
  -6  -3  -2 1057.47 241.781   3
  -9   6  -2 945.959 248.925   3
   3   6   2 870.788 195.581   2
   9  -6  -3 2245.54 257.588   1
   9  -6   3 2376.38 234.762   4
  -6   9  -3 2212.90 249.824   3
   9  -6  -3 2062.27 268.501   4
  -9   3  -3 2006.74 329.794   3
   3   6   3 2076.23 250.770   2
  -6  -3  -3 2102.07 313.504   3
  -3  -6  -3 2173.89 286.806   3
  -9   6  -3 1852.19 316.043   3
   6   3   3 1847.96 232.514   2
  -6   9  -4 20.1003 140.268   3
  -9   3  -4-89.8987 199.045   3
   9  -3   4 153.641 101.170   2
   6   3   4 250.961 151.777   2
   9  -6  -4 213.976 160.758   4
  -6  -3  -4 96.9769 189.622   3
   9  -6   4 98.1528 124.501   4
  -9   6  -4 123.308 206.285   3
   9  -6  -4 112.892 147.709   1
  -3  -6  -4 44.2673 159.801   3
  -6  -3  -5 200.809 219.929   3
   6   3   5 37.1419 161.782   2
  -9   6  -5 79.6758 211.906   3
   9  -6  -5 86.5939 155.755   4
  -6   9  -5 83.5566 158.006   3
   9  -6  -5-50.7972 146.183   1
   6  -9  -5 44.3494 159.021   1
  -3  -6  -5-87.9064 170.745   3
  -9   3  -5 162.686 213.116   3
  -6  -3  -6 3149.84 447.553   3
  -9   3  -6 2682.83 464.658   3
   6  -9  -6 3261.57 427.972   1
  -9   6  -6 3789.85 497.535   3
   9  -6  -6 3680.56 422.205   1
  -3  -6  -6 3527.47 419.382   3
   9  -6  -6 3601.84 362.682   4
   9  -6  -7 44.4576 145.356   4
  -3  -6  -7 279.029 205.997   3
   9  -6  -7 61.6506 171.347   1
  -9   6  -7 0.47872 230.720   3
  -9   3  -7 242.059 261.619   3
  -6  -3  -7 154.605 256.809   3
   6  -9  -7 88.8907 179.936   1
  -9   3  -8 256.935 298.379   3
  -6  -3  -8 359.486 252.477   3
  -9   6  -8 89.5282 276.153   3
  -3  -6  -8 84.2703 202.976   3
   9  -6  -8 469.184 231.462   1
   6  -9  -8 174.483 204.943   1
   6  -9  -9-28.1955 207.318   1
   9  -6  -9 137.597 205.693   1
  -3  -6  -9-22.7321 213.769   3
  -9   3  -9-17.3231 290.666   3
   3  -9  -9 63.2765 198.064   1
  -6  -3  -9 125.949 274.117   3
  -9   6  -9 350.529 297.453   3
   6  -9 -10-1.75499 219.431   1
  -9   3 -10-41.6845 312.790   3
  -9   6 -10-144.620 284.024   3
  -3  -6 -10 334.573 242.954   3
   9  -6 -10-185.872 253.693   1
   3  -9 -10-78.5162 265.329   1
  -6  -3 -10-18.1365 252.400   3
  -6  -3 -11 227.757 310.000   3
  -9   3 -11-35.6989 414.172   3
   3  -9 -11 128.109 260.132   1
  -3  -6 -11-141.408 343.556   1
   6  -9 -11 264.484 256.040   1
   9  -6 -11 251.749 228.938   1
  -9   6 -11 426.241 322.298   3
  -3   9 -12 307.436 131.774   7
  -9   3 -12-5.67940 113.551   7
  -6  -3 -12-212.434 142.837  10
  -6  -3 -12-481.535 151.081   7
  -9   3 -12 44.1228 112.324  10
  -6   9 -12-87.2841 123.484   7
  -9   6 -12 48.2752 122.671  10
  -3  -6 -12-112.578 146.918  10
   3  -9 -12-93.9201 177.493  10
   6  -9 -12-232.196 175.637  10
  -3  -6 -12-91.4020 296.666   1
  -9   6 -12-14.5883 112.837   7
   3  -9 -13 268.073 171.131  10
  -6   9 -13 512.087 149.684   7
  -9   6 -13 435.306 126.956   7
  -9   3 -13 522.025 140.045  10
  -6  -3 -13 155.652 136.850   7
   6  -9 -13 4.20573 168.797  10
  -3   9 -13 724.407 151.102   7
  -9   3 -13 416.134 131.186   7
  -3  -6 -13 285.914 137.435  10
  -6  -3 -13 375.044 131.938  10
  -3   9 -14 340.229 138.685   7
  -9   6 -14 11.3281 116.356   7
  -3  -6 -14-102.088 138.467   7
   6  -9 -14-132.484 152.119  10
  -3  -6 -14 143.436 135.487  10
  -9   3 -14 185.857 117.757   7
  -6   9 -14 83.3422 129.762   7
  -6  -3 -14 36.5618 123.439   7
  -9   3 -14 405.419 138.261  10
  -6  -3 -14 93.5765 129.682  10
   3  -9 -14-85.8052 147.919  10
  -9   6 -15 66.5546 125.516   7
  -3  -6 -15-121.125 133.457   7
  -3   9 -15 196.691 138.437   7
  -9   3 -15 140.458 126.080   7
  -6  -3 -15 203.246 130.146   7
   3  -9 -15 256.699 150.608  10
  -9   3 -15 339.040 132.915  10
  -6   9 -15 273.118 141.832   7
  -3  -6 -15 213.240 134.825  10
  -6  -3 -15 64.1039 125.689  10
   6  -9 -15 73.5195 137.342  10
  -6   9 -16 43.3433 120.080   7
  -6  -3 -16-18.1389 115.806  10
  -9   3 -16-72.9831 114.238   7
  -6  -3 -16-47.7652 113.430   7
  -9   6 -16 74.0326 116.609   7
  -3  -6 -16 61.2966 119.041   7
   3  -9 -16 146.582 116.549   7
  -3   9 -16-3.76916 121.307   7
   9  -6 -16 15.6110 107.733   7
   3  -9 -16-37.6632 125.269  10
  -3  -6 -16 96.1702 112.085  10
   3  -9 -17-104.539 106.138  10
  -3   9 -17 26.7707 112.185   7
   6  -9 -17-88.7288 97.3040   7
  -6  -3 -17 84.2490 107.015   7
   9  -6 -17 20.1221 97.2713   7
  -3  -6 -17-148.120 108.641  10
  -9   6 -17 67.9666 109.214   7
  -6  -3 -17-182.020 107.928  10
  -9   3 -17 43.1502 106.634   7
  -3  -6 -17 87.4895 107.983   7
   3  -9 -17-20.4493 97.8638   7
  -6   9 -17 87.1460 117.042   7
  -6   9 -18-50.1223 104.765   7
  -3   9 -18-95.4919 98.3044   7
  -9   3 -18 179.304 103.944   7
   3  -9 -18-82.1015 94.6037   7
  -6  -3 -18-30.6880 95.6544   7
  -3  -6 -18 1.00469 95.7814   7
   6  -9 -18-34.2553 87.0814   7
  -3  -6 -18-95.0690 92.6168  10
  -6  -3 -18-272.987 101.008  10
   3  -9 -18-218.928 91.4824  10
  -9   6 -18-100.746 105.837   7
  -6   9 -18-40.2407 85.4154   8
   9  -6 -18 90.4673 88.2103   7
  -9   6 -19-91.9142 92.1919   7
  -9   3 -19 133.815 89.6819   7
  -3   9 -19-4.63416 80.3096   7
   9  -6 -19 112.816 71.8253   7
  -6   9 -19 26.0001 87.3049   7
  -9   7   0 7987.95 501.381   3
  -9   2   0 7590.95 508.324   3
   7  -9   0 7368.59 342.884   1
  -7  -2   0 7112.68 445.889   3
  -2  -7   0 8304.60 339.939   3
   9  -2   0 8061.05 393.571   5
  -2   9   0 7923.57 404.076   2
   2   7   0 7160.47 411.473   5
   2   7   0 7479.76 425.724   2
  -2   9   0 8231.64 414.083   5
   9  -7  -1 6328.85 327.363   1
  -7  -2  -1 5522.27 418.245   3
  -7   9  -1 5931.39 377.301   3
  -9   2  -1 5557.46 462.866   3
   7  -9   1 5394.37 213.472   1
  -7  -2   1 5895.51 395.565   3
   7  -9  -1 6606.19 380.627   1
  -7   9  -1 6177.87 238.330   2
  -9   2   1 6069.51 432.244   3
   2   7   1 5974.14 373.693   2
  -2   9   1 6123.85 368.850   2
  -2   9  -1 6634.23 375.599   2
   2   7  -1 5656.55 372.319   5
   7   2  -1 5866.93 383.384   5
   2   7  -1 6262.93 392.477   2
  -2   9  -1 6576.83 361.578   5
   7   2   1 5962.01 366.601   2
   9  -2  -1 5961.90 339.461   5
  -9   7  -1 5772.41 452.770   3
   9  -7   1 6265.25 387.622   4
  -2  -7  -1 6306.96 343.345   3
   7   2   2 4658.57 332.084   2
   9  -7   2 5105.53 343.547   4
  -9   2  -2 5104.41 465.086   3
   2   7   2 4900.84 348.029   2
  -7  -2   2 4924.03 343.730   3
  -9   7  -2 4827.47 435.008   3
   7  -9  -2 5445.77 401.798   1
  -7   9  -2 5087.12 382.119   3
   7   2  -2 4722.84 361.778   5
   9  -7  -2 5003.75 387.598   4
  -2  -7  -2 4919.52 341.343   3
   9  -7  -2 4924.80 331.193   1
  -7  -2  -2 4865.24 424.287   3
   2   7  -2 4691.21 360.345   5
  -7  -2  -3 4733.24 448.724   3
  -2  -7  -3 4373.95 345.288   3
   7  -9  -3 5020.28 422.016   1
   2   7   3 4912.42 359.146   2
  -9   2  -3 4721.03 466.292   3
   9  -2   3 5019.72 274.077   2
  -9   7  -3 4833.83 456.682   3
   9  -7  -3 4950.38 389.196   4
  -7   9  -3 5232.00 393.264   3
   9  -7   3 5112.24 337.969   4
   7   2   3 4669.27 333.327   2
   9  -7  -3 4471.56 356.711   1
  -7  -2  -4 130.354 208.621   3
  -2  -7  -4 302.579 175.862   3
  -9   2  -4 373.389 220.625   3
  -7   9  -4 208.088 174.733   3
   7  -9  -4 264.144 193.215   1
   9  -7   4 153.255 130.464   4
   9  -7  -4 149.525 154.794   1
   9  -2   4 188.735 122.428   2
  -9   7  -4 196.051 214.527   3
   7   2   4 270.076 166.738   2
   9  -7  -4 301.399 186.407   4
   7   2   5 1874.95 264.766   2
   9  -7  -5 2015.40 298.948   4
  -7  -2  -5 1557.26 342.461   3
   9  -7  -5 1975.17 309.332   1
  -9   7  -5 1775.12 349.735   3
   7  -9  -5 2026.48 347.751   1
  -7   9  -5 2357.34 319.930   3
  -2  -7  -5 2149.62 300.198   3
  -9   2  -5 1850.34 373.608   3
   9  -2   5 2335.25 233.870   2
   7  -9  -6 4714.21 496.816   1
  -9   2  -6 4688.90 578.365   3
   7   2   6 5427.63 425.461   2
  -7  -2  -6 4585.82 538.993   3
  -7   9  -6 5258.19 448.277   3
  -9   7  -6 4435.75 522.976   3
  -2  -7  -6 4533.91 421.837   3
   9  -7  -6 4687.25 424.656   4
   9  -7  -6 4738.28 488.178   1
   9  -7  -7 4942.56 443.554   4
  -9   7  -7 5052.66 559.054   3
  -9   2  -7 4965.84 615.463   3
  -2  -7  -7 5089.78 482.065   3
   7  -9  -7 5452.30 571.234   1
  -7  -2  -7 5649.49 638.819   3
   9  -7  -7 5310.83 546.927   1
  -9   2  -8 607.968 294.035   3
  -2  -7  -8 798.364 282.582   3
  -7  -2  -8 452.037 256.529   3
   9  -7  -8 992.142 297.697   1
  -9   7  -8 788.788 281.979   3
   7  -9  -8 834.662 239.025   4
   7  -9  -8 668.912 275.524   1
   9  -7  -8 972.154 232.703   4
   2  -9  -9 811.616 296.590   1
   7  -9  -9 1140.27 330.582   1
  -9   7  -9 809.223 319.203   3
   9  -7  -9 1085.08 325.490   1
  -2  -7  -9 1147.19 296.740   3
  -7  -2  -9 726.544 329.216   3
  -9   2  -9 631.595 356.703   3
  -9   2 -10-193.397 310.165   3
  -9   7 -10 24.2286 268.477   3
   7  -9 -10 197.486 270.685   1
   2  -9 -10-61.4553 223.474   1
  -7  -2 -10 306.568 304.057   3
   9  -7 -10-34.0395 221.839   1
   7  -9 -11 169.336 254.522   1
  -9   7 -11-227.994 306.364   3
   9  -7 -11 5.14687 237.575   1
   2  -9 -11 177.420 247.782   1
  -9   2 -11 198.356 336.365   3
  -2  -7 -11-4.73247 322.043   1
  -7  -2 -11 308.814 302.333   3
  -2   9 -12 159.032 139.106   7
  -9   2 -12 75.2383 116.689   7
  -9   2 -12 323.584 121.975  10
  -7  -2 -12 54.9412 119.827   7
  -9   7 -12 216.612 118.582   7
   2  -9 -12 599.568 182.209  10
  -7   9 -12 173.652 121.237   7
   7   2  12 762.224 114.539   9
  -7  -2 -12 372.754 131.865  10
  -2  -7 -12 212.152 149.994  10
  -2   9 -13 882.314 161.744   7
   2  -9 -13 1125.48 222.558  10
  -7   9 -13 531.668 152.693   7
  -9   7 -13 599.735 141.780   7
  -9   2 -13 111.732 128.821   7
  -7  -2 -13 460.504 145.246   7
  -7  -2 -13 509.051 153.831  10
  -2  -7 -13 304.937 178.836  10
  -9   2 -13 369.077 146.075  10
  -7  -2 -14 119.496 126.225   7
  -7  -2 -14 284.239 127.456  10
  -9   2 -14 98.7291 127.942  10
  -2  -7 -14 74.1834 139.796  10
   2  -9 -14 292.362 163.958  10
  -9   2 -14 132.110 120.334   7
   7  -9 -14-192.823 150.660  10
  -9   7 -14-37.4413 126.459   7
  -2   9 -14 55.2189 133.995   7
  -7   9 -14-49.5084 135.578   7
  -2   9 -15 37.0877 136.938   7
  -7  -2 -15 618.750 146.277   7
  -2  -7 -15 469.667 155.763   7
  -9   7 -15 77.1063 130.891   7
  -2  -7 -15 386.502 159.787  10
   2  -9 -15 758.622 168.205  10
  -7   9 -15 115.804 139.068   7
  -9   2 -15 170.120 135.950  10
  -9   2 -15 158.832 129.327   7
  -2   9 -16-98.7077 123.403   7
  -7  -2 -16 354.737 127.954   7
  -2  -7 -16 448.760 141.071   7
   9  -7 -16 234.314 120.284   7
   2  -9 -16 248.523 128.880  10
  -2  -7 -16-20.1250 122.257  10
  -7   9 -16 87.1237 128.445   7
  -9   2 -16 150.634 119.150   7
  -7  -2 -16 293.338 128.975  10
  -9   7 -16-6.01280 120.156   7
   2  -9 -16 33.2139 123.118   7
   9  -7 -17 231.284 107.575   7
   2  -9 -17 70.4243 107.590   7
  -7  -2 -17 65.6217 110.932  10
  -7   9 -17 61.5737 119.063   7
   7  -9 -17 19.4912 98.6631   7
   2  -9 -17 74.2513 103.765  10
  -2  -7 -17 57.4570 110.673  10
  -9   2 -17 226.984 112.589   7
  -9   7 -17 51.2515 112.464   7
  -7  -2 -17 103.165 105.900   7
  -2  -7 -17 188.561 115.363   7
  -2   9 -17-24.2442 106.198   7
  -7  -2 -18 271.676 102.909   7
  -2  -7 -18 291.790 105.687   7
   7  -9 -18 41.6428 89.5648   7
  -9   7 -18-112.364 110.236   7
   9  -7 -18 182.226 92.1113   7
  -2  -7 -18 35.8332 89.9466  10
  -7   9 -18-76.3253 107.538   7
  -2   9 -18 221.767 99.6829   7
   2  -9 -18 23.5871 93.7043   7
  -9   2 -18 178.825 102.325   7
   2  -9 -18 108.885 88.5285  10
   1   8   0 4933.12 344.488   5
  -1  -8   0 4514.31 219.479   3
  -9   8   0 5866.61 430.974   3
  -9   1   0 5391.68 433.861   3
   9  -8   0 5862.46 262.428   1
  -1   9   0 5494.31 356.470   2
   8  -9   0 5500.16 266.903   1
   8   1   0 5509.57 374.333   5
   1   8   0 5505.25 365.878   2
   9  -1   0 5492.69 357.459   5
  -1   9   0 5407.39 345.639   5
  -8  -1   0 5400.71 407.097   3
  -1  -8  -1 6706.81 333.312   3
   9  -1  -1 6581.93 383.143   5
  -9   1   1 6830.41 455.406   3
  -8   9  -1 6325.25 421.551   3
  -9   8  -1 5942.11 446.735   3
  -9   1  -1 6643.19 497.177   3
  -8  -1   1 6914.99 441.516   3
   8  -9  -1 6926.91 371.604   1
   1   8   1 6412.97 391.924   2
  -1   9   1 6409.75 385.612   2
  -1   9  -1 6913.80 398.537   2
   9  -8  -1 6593.37 334.692   1
   1   8  -1 6636.27 405.457   2
  -8  -1  -1 6339.20 461.357   3
  -1   9  -1 5774.02 368.622   5
   1   8  -1 6067.67 392.197   5
   8   1  -1 6752.24 405.836   5
   8   1   2 1259.72 198.125   2
  -8  -1   2 1127.16 201.183   3
  -1  -8  -2 1191.23 190.995   3
   9  -8  -2 1314.53 200.383   1
  -8  -1  -2 1129.62 263.498   3
  -8   9  -2 1243.69 231.180   3
   1   8   2 1342.61 214.536   2
  -9   1  -2 1252.54 263.501   3
   8  -9  -2 1283.44 215.736   1
   8   1  -2 1269.90 215.277   5
  -1   9   2 1270.62 209.529   2
  -9   8  -2 1206.98 252.373   3
   1   8  -2 1186.28 212.921   5
   9  -1   3 395.999 137.757   2
   9  -8  -3 363.214 155.185   1
   1   8   3 444.373 171.750   2
   8  -9  -3 426.851 162.625   1
  -8   9  -3 508.261 217.396   3
  -8  -1  -3 501.850 199.480   3
  -9   1  -3 425.375 211.496   3
   8   1   3 449.826 150.826   2
  -1  -8  -3 230.710 140.461   3
  -9   8  -3 307.694 196.702   3
   9  -8  -4 7688.33 511.749   4
   8  -9  -4 8281.16 575.949   1
   9  -1   4 7989.66 388.452   2
  -9   8  -4 8605.45 602.102   3
  -8   9  -4 8343.35 545.760   3
   8   1   4 8620.41 446.040   2
   9  -8  -4 7939.19 538.061   1
  -1  -8  -4 8175.98 499.648   3
  -9   1  -4 6825.19 590.661   3
  -8  -1  -4 7628.94 616.362   3
   9  -8   4 8575.77 420.720   4
   9  -8  -5 263.122 186.643   4
   8   1   5 41.4683 163.307   2
   9  -8  -5 187.609 183.912   1
  -1  -8  -5 323.789 173.465   3
   9  -1   5 225.210 150.238   2
  -9   8  -5-73.0783 208.701   3
   8  -9  -5 80.0077 184.254   1
  -8  -1  -5 22.3495 207.998   3
  -9   1  -5 170.593 221.080   3
  -8   9  -5 310.862 227.590   3
  -8  -1  -6 1513.40 353.066   3
  -8   9  -6 1640.38 300.553   3
   9  -8  -6 1632.37 285.548   4
  -1  -8  -6 1516.51 267.349   3
   9  -8  -6 1463.35 298.475   1
   8   1   6 1745.60 271.673   2
   8  -9  -6 1581.15 322.927   1
  -9   1  -6 1243.26 355.260   3
  -9   8  -6 1776.21 354.097   3
   8  -9  -7 988.853 250.454   4
  -1  -8  -7 850.348 254.791   3
   9  -8  -7 826.182 246.677   4
  -9   1  -7 734.973 319.792   3
   8  -9  -7 976.194 308.054   1
  -9   8  -7 1017.38 324.612   3
  -8   9  -7 812.600 269.319   3
  -8  -1  -7 851.507 326.854   3
   8   1   7 1161.56 244.704   2
   9  -8  -7 1011.91 286.365   1
  -9   8  -8 129.860 234.956   3
   9  -8  -8 52.3728 182.696   4
  -8  -1  -8 194.028 314.478   3
  -9   1  -8 245.035 298.734   3
   8  -9  -8-154.297 221.348   1
   8  -9  -8 86.8148 184.213   4
   8   1   8 91.4957 254.462   2
   9  -8  -8-96.9461 211.088   1
  -8  -1  -9 102.032 283.556   3
  -9   8  -9 290.903 247.652   3
   8  -9  -9 303.004 230.764   1
  -9   1  -9 230.120 313.985   3
   9  -8  -9 217.086 237.200   1
   9  -8 -10 474.245 303.145   1
  -9   1 -10 390.234 351.254   3
  -8  -1 -10 728.664 352.029   3
   1  -9 -10 369.684 265.399   1
   8  -9 -10 739.284 364.572   1
  -1  -8 -11-89.6577 356.320   1
   9  -8 -11 191.136 252.685   1
   1  -9 -11 20.0381 304.030   1
  -9   1 -11 41.2974 332.119   3
   8  -9 -11 150.342 299.477   1
  -8  -1 -11 225.367 329.892   3
  -1   9 -12 295.725 142.886   7
  -9   1 -12 377.143 125.984   7
  -8   9 -12 250.776 124.126   7
  -8  -1 -12 393.079 131.146  10
   9  -1  12 464.742 95.9117   9
  -9   1 -12 305.747 128.679  10
  -1  -8 -12 476.055 163.551  10
   8   1  12 547.485 106.332   9
   1  -9 -12 182.882 166.568  10
  -8  -1 -12 193.022 129.222   7
  -9   8 -12 51.9146 124.938   7
  -8  -1 -13 1166.14 164.541  10
   1  -9 -13 237.961 181.296  10
  -9   1 -13 1371.53 167.617   7
  -9   1 -13 2043.97 175.614  10
  -8  -1 -13 581.598 149.218   7
  -8   9 -13 883.867 158.138   7
  -1  -8 -13 2927.40 232.128  10
   8  -9 -13 2163.59 251.583  10
  -1   9 -13 1276.76 181.390   7
  -9   8 -13 841.330 160.011   7
  -1   9 -14 738.003 169.229   7
  -9   8 -14 301.607 138.170   7
  -9   1 -14 288.577 146.214   7
  -8  -1 -14 651.062 147.088   7
  -8  -1 -14 739.905 161.416  10
  -9   1 -14 568.289 145.567  10
  -8   9 -14 460.605 151.059   7
  -1  -8 -14 232.308 151.202  10
  -1   9 -15 35.7898 142.701   7
  -1  -8 -15 284.976 150.838   7
  -9   1 -15 258.811 130.926   7
  -8  -1 -15 361.148 143.977   7
  -1  -8 -15 1253.65 168.094  10
  -9   1 -15 658.846 151.584  10
  -8  -1 -15 561.877 158.936  10
  -9   8 -15-72.7499 139.255   7
   1  -9 -15 685.996 163.051  10
  -9   1 -16 127.682 131.175  10
  -9   8 -16-222.501 138.431   7
  -9   1 -16 748.466 137.712   7
  -8  -1 -16 690.767 133.359   7
   1  -9 -16 288.599 131.510  10
  -8  -1 -16 254.645 123.884  10
  -8   9 -16-16.7420 134.290   7
  -1  -8 -16 93.3214 122.737  10
  -1  -8 -16 210.066 129.322   7
  -1   9 -16 52.4579 128.128   7
   1  -9 -16-52.4853 128.669   7
  -9   8 -17-34.8187 116.517   7
  -9   1 -17 129.214 108.466   7
  -8  -1 -17 180.877 111.115   7
  -8   9 -17-56.7902 117.322   7
   1  -9 -17-30.9345 111.214   7
   9  -8 -17 9.92263 99.0199   7
   8  -9 -17-23.0514 98.9124   7
  -1  -8 -17-9.41186 107.095  10
  -8  -1 -17-85.0635 109.951  10
  -1   9 -17-30.3884 108.763   7
   1  -9 -17 133.296 108.630  10
  -1  -8 -17-48.5378 110.424   7
   1  -9 -18 14.9749 97.6428   7
  -9   8 -18-112.358 114.247   7
  -1  -8 -18-87.2254 98.8710   7
   9  -8 -18-155.286 92.2752   7
  -1  -8 -18-19.5507 94.1097  10
   1  -9 -18 150.662 93.3827  10
  -8   9 -18-220.919 119.218   7
  -1   9 -18-66.3925 91.6137   7
   9  -9   0 25812.7 558.806   1
  -9   9   0 26696.2 897.474   3
  -9   0   0 25490.8 917.823   3
   0   9   0 25951.3 779.996   2
   0   9   0 24310.4 748.886   5
   9   0   0 25045.4 781.313   5
  -9   9  -1 30122.9 968.327   3
  -9   0   1 30852.9 971.468   3
  -9   0  -1 30942.9 1048.96   3
   0   9   1 30527.2 866.979   2
   0   9  -1 32162.5 876.840   2
   9   0  -1 30856.9 871.180   5
   9  -9  -1 30692.8 737.457   1
   0   9  -1 29795.6 863.264   5
  -9   0   2 21811.8 793.072   3
  -9   9  -2 20659.6 829.685   3
  -9   0  -2 19684.6 884.292   3
   9   0  -2 22628.7 752.748   5
   9  -9  -2 22108.4 715.862   1
   0   9   2 20765.7 735.973   2
   0   9  -2 20769.8 749.240   5
   9   0   2 20641.4 644.317   2
   9   0   3 9529.17 446.407   2
  -9   0  -3 8666.03 628.148   3
   0   9   3 10211.7 533.989   2
   9  -9  -3 9829.43 549.098   1
  -9   9  -3 9510.36 582.817   3
  -9   9  -4 39513.1 1230.10   3
   9   0   4 38312.8 905.382   2
   9  -9  -4 39543.2 1188.22   1
   9  -9  -5 38554.5 1269.13   1
  -9   9  -5 39187.7 1284.53   3
   9   0   5 38841.0 959.690   2
  -9   9  -6 12746.3 773.080   3
  -9   0  -6 11476.7 868.218   3
   9   0   6 14401.4 613.839   2
   9  -9  -6 14218.1 831.224   1
   9  -9  -6 12429.0 682.492   4
  -9   9  -7 10329.4 740.785   3
   9  -9  -7 10205.5 652.010   4
   9  -9  -7 10390.0 778.127   1
  -9   0  -7 9387.80 832.587   3
  -9   0  -8 2124.73 490.555   3
   9  -9  -8 2951.76 373.507   4
   9  -9  -8 2965.46 466.532   1
  -9   9  -8 2748.51 431.416   3
   9  -9  -9 3442.31 523.496   1
  -9   0  -9 2776.00 545.891   3
   0  -9 -10 4540.33 673.488   1
  -9   0 -10 6108.80 799.852   3
   9  -9 -10 5728.14 699.574   1
   9  -9 -11 885.279 346.810   1
  -9   0 -11 529.763 402.828   3
   0  -9 -11 563.310 340.705   1
  -9   9 -12 258.103 120.695   7
   9   0  12 247.646 93.4271   9
  -9   0 -12 132.756 118.278  10
  -9   0 -12-26.2215 138.429   7
  -9   9 -13 469.386 133.884   7
  -9   0 -13 426.176 121.930   7
   0  -9 -13 255.186 156.158  10
  -9   0 -13 575.190 130.121  10
   9   0  13 473.140 99.1187   9
  -9   0 -14 689.131 147.019  10
  -9   9 -14 601.441 156.506   7
  -9   0 -14 897.673 146.152   7
  -9   9 -15 449.954 144.864   7
  -9   0 -15 361.391 125.557   7
  -9   0 -15 321.726 133.874  10
  -9   9 -16 202.250 122.543   7
   0  -9 -16 47.3182 121.231   7
  -9   0 -16-181.647 127.037  10
  -9   0 -16 412.940 119.469   7
   0  -9 -16-281.326 132.649  10
   0   9 -16 252.067 127.982   7
   0  -9 -17 188.948 111.830   7
   9  -9 -17 41.9365 97.7477   7
   0  -9 -17-114.710 112.254  10
  -9   0 -17 222.025 103.769   7
  -9   9 -17-49.6646 115.378   7
  -9   0 -18 194.995 96.4991   7
   9  -9 -18 65.8677 87.3526   7
   0  -9 -18 207.578 99.3830   7
  -9   9 -18 161.518 113.250   7
  10  -5   0 18952.7 682.420   4
  -5  10   0 17864.0 463.180   5
 -10   5   0 19235.3 802.366   3
  -5  -5   0 19434.8 656.624   3
  10  -5   0 17355.6 464.761   5
   5   5   0 17121.6 646.070   5
   5   5   0 19002.4 680.271   2
  -5  10   0 20233.2 575.982   2
  -5  10  -1 91725.8 1199.46   3
 -10   5  -1 86129.5 1817.09   3
  -5  -5  -1 90663.6 1563.57   3
   5   5   1 82674.8 1463.39   2
  -5  10  -1 93856.2 1287.16   2
  10  -5   1 89565.8 1491.69   4
  10  -5  -1 86658.5 1536.53   4
  -5  -5   1 90042.2 1395.42   3
   5   5  -1 80425.3 1493.01   5
  10  -5   2 51855.7 1081.43   4
  -5  -5   2 53617.4 1016.02   3
 -10   5  -2 48633.6 1423.59   3
  -5  -5  -2 51865.5 1228.25   3
   5   5  -2 45614.2 1146.38   5
  10  -5  -2 49091.9 1167.56   4
   5   5   2 48220.3 1082.24   2
  -5  -5   3 2499.58 221.574   3
 -10   5  -3 1968.20 339.817   3
   5   5   3 2210.44 264.747   2
  -5  -5  -3 2090.05 298.691   3
  10  -5  -3 2043.90 270.767   4
  10  -5  -4 64230.9 1417.48   4
   5   5   4 66341.2 1359.64   2
  -5  -5  -4 67433.3 1578.06   3
  10  -5  -4 65450.0 1449.71   1
  -5  -5  -5 79578.8 1851.31   3
  10  -5  -5 76329.4 1701.44   1
   5   5   5 79689.4 1581.50   2
  10  -5  -5 77543.7 1612.02   4
  10  -5  -6 42290.2 1349.87   1
  -5  -5  -6 40268.5 1397.26   3
 -10   5  -6 39897.0 1569.02   3
  -5  -5  -7 3674.70 480.964   3
  10  -5  -7 3617.54 446.426   1
 -10   5  -7 3587.77 537.006   3
   5 -10  -7 3548.49 472.966   1
  10  -5  -8 14094.8 913.320   1
   5 -10  -8 12091.6 871.915   1
  -5  -5  -8 12735.4 893.120   3
 -10   5  -8 13442.5 1008.01   3
 -10   5  -9 2358.18 511.046   3
   5 -10  -9 2285.71 442.839   1
  10  -5  -9 2096.38 409.374   1
  -5  -5  -9 2858.59 463.872   3
  10  -5 -10 4879.19 623.903   1
   5 -10 -10 3940.96 584.039   1
 -10   5 -10 3893.48 625.251   3
  -5  -5 -10 4849.08 616.746   3
  -5  -5 -11 880.969 374.172   3
   5 -10 -11 968.947 342.254   1
 -10   5 -11 681.498 352.526   3
  -5  -5 -11 684.482 341.493   1
 -10   5 -12-18.9613 111.389   7
  -5  10 -12 165.223 130.213   7
  -5  -5 -12-116.466 131.453   7
   5 -10 -12 158.199 164.556  10
  -5  -5 -12 211.215 126.949  10
   5   5  12 128.728 104.338   9
 -10   5 -12 321.279 126.020  10
  -5  -5 -13 2050.84 171.550   7
  -5  10 -13 2422.33 193.874   7
  -5  -5 -13 1724.66 175.760  10
 -10   5 -13 1774.18 154.715   7
 -10   5 -13 2250.25 170.593  10
  -5  -5 -14 1213.49 154.806   7
  -5  -5 -14 853.632 158.297  10
 -10   5 -14 1127.55 143.504   7
   5 -10 -14 573.437 167.059  10
  -5  10 -14 1501.48 170.657   7
  -5  10 -15 397.879 144.342   7
 -10   5 -15 498.673 130.610   7
  -5  -5 -15 220.772 126.786  10
  -5  -5 -15 581.145 137.789   7
  10  -5 -15 471.619 128.773   7
   5 -10 -15 306.686 152.862  10
  10  -5 -16 50.9596 102.791   7
  -5  10 -16-131.199 126.054   7
  -5  -5 -16-14.1668 109.310  10
   5 -10 -16-20.2963 116.344  10
  -5  -5 -16-15.6179 114.826   7
 -10   5 -16 90.8792 111.364   7
  -5  10 -17 98.7955 90.9819   8
  -5  10 -17-66.6393 111.498   7
   5 -10 -17 97.0728 96.3673   7
   5 -10 -17-60.7962 97.2716  10
  -5  -5 -17 112.136 106.144   7
  10  -5 -17-98.1078 96.5100   7
 -10   5 -17 46.7642 101.523   7
  -5  -5 -17-27.0896 98.7906  10
  -5  -5 -18 306.118 100.483   7
   5 -10 -18 116.048 91.3897   7
  -5  10 -18-42.4076 99.6486   7
  -5  10 -18 98.9744 80.5872   8
  -5  -5 -18-30.5264 91.1194  10
 -10   5 -18 188.752 105.141   7
  10  -4   0 10152.4 391.111   5
 -10   4   0 8973.15 569.565   3
  -4  -6   0 8768.42 411.882   3
  -6  10   0 9252.38 378.073   2
  -4  10   0 8771.78 376.949   5
 -10   6   0 8347.11 547.121   3
   6   4   0 8571.25 463.470   5
   4   6   0 8594.33 464.713   2
   4   6   0 7329.27 439.145   5
   6   4   0 8510.43 474.413   2
  -6  -4   0 8983.75 477.221   3
  -4  10   0 9453.05 425.351   2
  10  -6   0 8350.00 464.810   4
  10  -6   1 35275.0 600.201   5
  -4  10   1 31304.0 805.643   2
  -4  -6   1 30819.5 716.465   3
  -4  -6  -1 31435.7 850.738   3
 -10   4   1 30989.8 1013.17   3
  -6  10  -1 29633.1 744.738   3
 -10   6  -1 29623.8 1067.93   3
 -10   4  -1 29312.7 1056.95   3
  -6  -4   1 30904.6 847.411   3
  -6  -4  -1 30768.3 931.659   3
   4   6   1 28490.9 836.618   2
  -4  10  -1 32349.5 775.675   2
  -6  10   1 27704.0 509.501   5
  -6  10  -1 33459.0 676.805   2
  10  -6   1 31027.5 862.377   4
   4   6  -1 28289.0 858.877   5
  10  -6  -1 29508.6 892.374   4
   6   4   1 30632.7 862.176   2
   6   4  -1 28941.2 878.139   5
 -10   4  -2 21456.8 946.754   3
  10  -6  -2 20925.5 769.133   4
  10  -6   2 22237.7 715.356   4
  -6  -4   2 23501.0 712.463   3
  -4  -6   2 24178.4 597.031   3
   6   4  -2 20710.5 771.396   5
  -6  -4  -2 23134.5 863.444   3
   4   6   2 21115.9 728.903   2
   6   4   2 20484.7 703.893   2
 -10   6  -2 21675.9 949.706   3
  -6  10  -2 23976.3 662.682   3
   4   6  -2 20697.4 757.767   5
  -4  -6  -2 22074.2 753.866   3
  10  -6  -3 14843.4 633.598   1
  10  -6  -3 14678.1 661.792   4
  -6  -4   3 16290.2 576.908   3
 -10   6  -3 14347.6 800.575   3
 -10   4  -3 14114.2 808.775   3
  -6  -4  -3 15721.2 766.189   3
  -4  -6  -3 14647.6 672.466   3
   6   4   3 14662.9 599.506   2
  10  -6   3 15553.2 572.164   4
  -6  10  -3 15196.3 531.791   3
   4   6   3 14459.9 615.077   2
  10  -6  -4 43991.1 1182.94   4
  -6  -4  -4 44568.5 1332.55   3
   6   4   4 45385.2 1102.26   2
  -4  -6  -4 48255.6 1329.24   3
 -10   4  -4 39937.1 1431.00   3
   4   6   4 43566.3 1111.61   2
  10  -6  -4 46699.6 1208.12   1
 -10   6  -4 41556.9 1426.39   3
  10  -6  -5 43493.6 1280.51   1
   6   4   5 44073.0 1153.41   2
 -10   6  -5 40130.5 1458.14   3
  -4  -6  -5 42736.3 1280.36   3
 -10   4  -5 38535.0 1482.33   3
   4   6   5 42765.6 1173.01   2
  -6  -4  -5 42886.6 1383.26   3
  10  -6  -5 44048.4 1205.77   4
 -10   4  -6 6282.10 654.433   3
   6 -10  -6 6877.40 609.469   1
  -4  -6  -6 6603.00 563.414   3
  10  -6  -6 6986.19 568.486   1
  10  -6  -6 7073.74 505.047   4
   6   4   6 8191.42 541.734   2
  -6  -4  -6 6851.49 622.406   3
 -10   6  -6 6272.50 644.035   3
  10  -6  -7 5371.30 552.112   1
   6 -10  -7 5095.73 558.855   1
 -10   6  -7 5055.72 614.953   3
  -4  -6  -7 4904.91 515.010   3
  -6  -4  -7 5374.87 571.774   3
 -10   4  -7 4688.30 604.841   3
  10  -6  -8 4883.25 570.621   1
   6 -10  -8 4384.36 553.229   1
 -10   6  -8 4201.19 606.354   3
   4 -10  -8 3863.46 530.300   1
  -4  -6  -8 4717.73 518.975   3
 -10   4  -8 4569.81 630.905   3
  -6  -4  -8 4608.71 569.860   3
  10  -6  -9 4849.75 577.186   1
  -4  -6  -9 4765.90 565.386   3
 -10   4  -9 4414.97 689.075   3
  -6  -4  -9 4206.69 593.679   3
   6 -10  -9 4764.55 605.033   1
 -10   6  -9 4692.18 670.751   3
   4 -10  -9 4032.26 575.718   1
 -10   6 -10 1492.39 442.756   3
  -4  -6 -10 1634.48 410.267   3
  -6  -4 -10 1502.97 431.463   3
   4 -10 -10 1536.32 406.517   1
   6 -10 -10 1306.79 387.447   1
  10  -6 -10 1438.23 368.695   1
 -10   4 -10 1304.56 439.637   3
  10  -6 -11 758.824 328.672   1
  -4  -6 -11 485.071 374.183   1
   6 -10 -11 540.085 292.946   1
 -10   4 -11 518.205 379.711   3
 -10   6 -11 786.485 365.911   3
  -6  -4 -11 287.159 297.515   3
   4 -10 -11 543.737 332.341   1
 -10   4 -12 2675.62 171.214   7
  -6  10 -12 3013.66 195.114   7
 -10   6 -12 2400.62 167.185   7
  -6  -4 -12 2572.51 175.436   7
 -10   6 -12 3347.95 181.773  10
 -10   4 -12 2129.35 171.661  10
   6   4  12 2598.63 148.097   9
  -4  -6 -12 2819.04 194.691  10
  -6  -4 -12 2777.15 180.240  10
  -4  10 -12 3271.65 198.068   7
   4 -10 -12 1771.81 224.138  10
  -4  -6 -13 1584.14 173.559   7
 -10   6 -13 1628.38 153.379   7
   4 -10 -13 1103.33 201.227  10
  -4  10 -13 1960.30 183.886   7
 -10   4 -13 1818.83 170.120  10
  -6  -4 -13 1320.03 160.870  10
  -4  -6 -13 1382.73 175.641  10
  -6  10 -13 1785.99 178.432   7
   6 -10 -13 1112.52 194.593  10
  -6  -4 -13 1767.13 166.032   7
 -10   4 -13 1463.78 148.327   7
  -4  10 -14-73.8666 132.978   7
  -6  10 -14-60.4343 134.231   7
 -10   4 -14 84.0037 113.414   7
   4 -10 -14-153.870 157.189  10
  -4  -6 -14 163.083 131.081  10
   6 -10 -14-116.504 145.872  10
  -6  -4 -14 59.9296 126.754  10
 -10   6 -14 40.8660 116.089   7
  -6  -4 -14 210.062 127.062   7
 -10   4 -14 117.222 128.398  10
  -4  -6 -14 22.6304 127.778   7
  -6  -4 -15 200.451 124.019  10
  -4  -6 -15 71.4647 128.363  10
   6 -10 -15-75.7155 138.061  10
  -6  10 -15 34.8438 133.451   7
 -10   6 -15 152.693 120.809   7
 -10   4 -15 110.276 117.953   7
  -6  -4 -15 132.862 123.491   7
   4 -10 -15 62.1970 141.613  10
  -4  -6 -15 208.494 133.251   7
  -4  10 -15-19.9670 132.772   7
  -4  10 -16 42.3530 122.193   7
 -10   6 -16 179.433 117.209   7
 -10   4 -16 20.7799 109.722   7
  -6  -4 -16 202.556 118.426   7
  10  -6 -16 218.127 114.066   7
  -4  -6 -16 347.785 126.353   7
  -4  -6 -16-9.46695 115.163  10
   4 -10 -16-71.3112 124.752  10
  -6  10 -16 34.8633 121.909   7
  -6  -4 -16 71.1045 113.003  10
   6 -10 -16-170.977 119.783  10
 -10   4 -17 108.244 105.816   7
  -4  -6 -17-23.5920 98.7158  10
  -6  10 -17-49.5371 110.915   7
  -4  10 -17-51.7869 93.1536   8
  -4  -6 -17 92.2265 105.222   7
  10  -6 -17-32.7835 94.0218   7
   4 -10 -17-36.7401 97.0771   7
   6 -10 -17-67.6909 94.9228   7
  -6  -4 -17-107.825 104.149  10
  -4  10 -17-16.9404 106.696   7
   4 -10 -17-81.1273 99.6648  10
 -10   6 -17 8.90134 105.877   7
  -6  -4 -17 26.0575 101.648   7
  -4  10 -18-2.41602 94.3173   7
  -6  10 -18 76.6264 99.8928   7
  -4  -6 -18 75.6551 93.9347   7
  10  -6 -18 149.267 84.2035   7
   4 -10 -18 11.2621 88.2763   7
   6 -10 -18 37.9543 86.5268   7
  -6  -4 -18 80.5815 92.3373  10
  -6  -4 -18 275.931 97.0772   7
   4 -10 -18 95.0704 82.6847  10
 -10   4 -18 106.921 98.3433   7
  -4  -6 -18-5.69204 89.0507  10
 -10   6 -18 129.751 102.700   7
  -6  10 -18 26.2304 80.9180   8
   3   7   0 9343.11 489.608   2
  -3  10   0 8997.35 440.746   2
 -10   7   0 8401.58 544.857   3
 -10   3   0 9941.82 604.382   3
  -7  -3   0 8152.24 493.614   3
  -7  10   0 9367.80 364.680   2
  -3  -7   0 8237.14 370.679   3
  -3  10   0 8864.87 415.693   5
  10  -7   0 8551.75 484.202   4
  10  -3   0 9434.68 427.227   5
   3   7   0 7831.80 457.758   5
   7   3   0 8743.61 473.663   5
   3   7  -1 7147.45 437.880   5
   3   7   1 7233.17 435.576   2
  -7  10  -1 6965.89 415.528   3
 -10   7  -1 7296.99 539.055   3
 -10   3  -1 7571.82 559.896   3
  -7  -3   1 7246.16 445.723   3
  -3  10  -1 7448.97 389.665   5
  -7  -3  -1 7077.96 490.649   3
   7   3  -1 7155.27 444.361   5
 -10   3   1 7028.11 498.164   3
  -3  10   1 7879.60 420.138   2
  -3  -7  -1 7546.26 404.983   3
  10  -3  -1 7768.11 386.748   5
  10  -7   1 7691.35 454.982   4
  -3  10  -1 7580.44 405.036   2
  -7  10  -1 8329.59 315.776   2
  10  -7  -1 6672.99 447.178   4
   7   3   1 6924.28 423.035   2
  10  -7   2 1717.71 238.190   4
  -3  -7  -2 2162.54 279.051   3
 -10   7  -2 1418.47 295.990   3
  -7  -3   2 1541.97 224.480   3
  -7  10  -2 2049.50 249.354   3
 -10   3  -2 1432.26 302.747   3
  10  -7  -2 1488.48 243.133   4
  -7  -3  -2 1500.79 280.634   3
   3   7   2 1535.06 237.376   2
   3   7  -2 1629.65 238.214   5
  10  -7  -2 1584.71 210.997   1
   7   3  -2 1414.45 235.723   5
   7   3   2 1194.98 219.433   2
  10  -7  -3-16.0089 133.386   4
  -7  -3  -3 202.939 185.267   3
   7   3   3 276.318 156.008   2
  10  -7   3 54.5620 119.718   4
  -3  -7  -3 97.8048 159.759   3
  10  -7  -3 34.1849 114.330   1
  -7  -3   3 57.9890 108.849   3
   3   7   3 49.1727 125.578   2
 -10   7  -3 38.1305 192.508   3
 -10   3  -3 154.594 182.714   3
  -7  10  -3 117.996 147.023   3
   3   7   4 8322.45 505.163   2
  10  -7  -4 7117.81 493.800   4
  10  -7  -4 7221.46 494.426   1
  10  -7   4 7926.62 406.002   4
 -10   7  -4 7244.21 618.507   3
 -10   3  -4 6275.28 596.487   3
  -7  10  -4 7855.35 470.529   3
  -7  -3  -4 7346.57 596.504   3
   7 -10  -4 7705.52 576.910   1
  -3  -7  -4 7336.65 506.705   3
   7   3   4 7102.57 441.856   2
  10  -7  -5 18880.2 857.494   1
  10  -7  -5 17999.2 786.902   4
   7 -10  -5 18762.9 942.025   1
  -7  -3  -5 18240.8 953.932   3
   7   3   5 18427.2 735.801   2
 -10   7  -5 17733.8 960.257   3
  -3  -7  -5 18066.4 808.850   3
 -10   3  -5 16981.3 997.892   3
  10  -7  -6 87.5145 175.919   4
  -3  -7  -6 142.811 184.920   3
  10  -7  -6 5.52303 157.655   1
   7 -10  -6 129.683 170.920   1
 -10   3  -6-6.36801 244.120   3
 -10   7  -6 157.552 249.423   3
  -7  -3  -6 157.430 248.504   3
   7   3   6 131.898 172.062   2
  10  -7  -7 4350.63 422.954   4
 -10   3  -7 4061.19 589.434   3
   7   3   7 5239.84 465.379   2
  -7  -3  -7 4256.89 563.446   3
  -3  -7  -7 4234.57 483.676   3
   7 -10  -7 4195.74 521.795   1
  10  -7  -7 4682.16 517.928   1
 -10   7  -7 3989.91 542.682   3
 -10   3  -8 666.631 332.815   3
 -10   7  -8 473.281 321.686   3
  -7  -3  -8 829.720 349.132   3
  -3  -7  -8 616.248 240.916   3
   7 -10  -8 195.268 180.896   4
  10  -7  -8 671.902 272.325   1
   7 -10  -8 805.692 304.687   1
  -7  -3  -9 1515.15 411.611   3
  -3  -7  -9 1531.42 353.572   3
 -10   3  -9 1525.26 434.320   3
 -10   7  -9 1002.72 371.484   3
   7 -10  -9 1318.94 349.715   1
  10  -7  -9 1380.26 347.561   1
   3 -10  -9 1206.89 359.624   1
  10  -7 -10 19.4457 228.530   1
  -7  -3 -10 62.5073 291.720   3
 -10   3 -10-137.915 311.221   3
   7 -10 -10 165.047 255.734   1
   3 -10 -10 246.120 247.889   1
 -10   7 -10-226.567 328.297   3
 -10   3 -11-132.508 331.272   3
 -10   7 -11-301.244 378.763   3
  -7  -3 -11 270.044 321.510   3
   7 -10 -11-57.9650 273.257   1
   3 -10 -11 179.838 300.211   1
  -3  -7 -11-60.1453 291.283   1
  10  -7 -11-147.980 275.686   1
  -7  10 -12 288.165 123.340   7
 -10   3 -12 190.766 110.403   7
  -7  -3 -12 133.104 118.429   7
   3 -10 -12 329.555 162.063  10
  -7  -3 -12 475.848 121.931  10
  -3  10 -12 490.671 141.700   7
   7   3  12 493.472 102.292   9
 -10   3 -12 349.564 122.259  10
 -10   7 -12 312.875 116.407   7
  -3  -7 -12 466.816 144.367  10
   7   3  13 337.009 108.600   9
  -3  10 -13 308.280 143.587   7
 -10   7 -13 122.725 125.332   7
 -10   3 -13 327.029 123.325   7
  -7  -3 -13 246.150 129.277   7
  -7  -3 -13 273.750 130.216  10
   3 -10 -13 62.2369 164.853  10
 -10   3 -13 520.702 138.427  10
  -3  -7 -13 388.294 148.315  10
  -7  10 -13 87.1380 129.629   7
   7 -10 -13 28.2467 172.696  10
 -10   7 -14-11.7886 116.623   7
  -7  10 -14 174.048 132.978   7
  -3  -7 -14-106.581 130.397   7
 -10   3 -14 90.3693 115.336   7
  -7  -3 -14-43.1203 121.918   7
   3 -10 -14-194.481 157.300  10
  -3  10 -14 38.9910 132.525   7
  -3  -7 -14 87.4816 126.094  10
   7 -10 -14 14.7018 144.655  10
  -7  -3 -14-73.9103 123.017  10
 -10   3 -14 132.460 124.129  10
 -10   7 -15 80.7829 121.869   7
  -7  -3 -15-103.573 121.876  10
 -10   3 -15 7.11186 114.493   7
  -3  -7 -15 116.842 120.510  10
  -7  -3 -15 34.4202 122.873   7
  -3  -7 -15-83.1654 130.193   7
  -7  10 -15 18.1444 130.266   7
   3 -10 -15-47.8639 137.002  10
  -3  10 -15 27.8052 128.845   7
   7 -10 -15 85.9787 137.437  10
  -3  -7 -16 164.224 120.927   7
 -10   7 -16 27.0004 112.945   7
 -10   3 -16-12.0994 110.151   7
  -7  -3 -16 238.590 117.491   7
  10  -7 -16-127.919 107.089   7
  -3  10 -16-47.1136 107.811   8
   3 -10 -16-326.356 125.521  10
  -7  -3 -16-110.843 117.560  10
  -7  10 -16-85.5793 128.223   7
   7 -10 -16 61.0913 116.344  10
  -3  -7 -16 10.5128 114.657  10
  -3  10 -16 14.2445 117.972   7
  -3  -7 -17 26.0403 99.9864  10
 -10   3 -17 160.700 106.252   7
  -7  -3 -17 91.9332 102.110   7
  -3  -7 -17-31.2821 104.867   7
  10  -7 -17-64.7045 97.4105   7
   3 -10 -17-37.0449 103.401   7
   7 -10 -17-17.1377 94.0431   7
 -10   7 -17 97.1816 110.504   7
   3 -10 -17-15.6804 99.9211  10
  -7  -3 -17 15.3750 101.255  10
  -3  10 -17-180.004 109.309   7
  -7  10 -17-173.671 121.087   7
   7 -10 -18-35.8686 88.7229   7
  10  -7 -18 105.848 83.1885   7
   3 -10 -18-66.2502 92.8590   7
 -10   3 -18 169.015 99.5636   7
   3 -10 -18 67.2024 83.2280  10
  -7  10 -18 51.9652 81.1666   8
  -3  -7 -18-32.9233 88.3476  10
  -7  -3 -18 166.614 95.3114   7
  -3  10 -18-122.441 94.5407   7
  -7  10 -18 79.1417 102.949   7
 -10   7 -18-17.9766 102.166   7
  -3  -7 -18 47.7291 94.8588   7
  -8  -2   0 423.934 178.075   3
   2   8   0 400.597 171.176   5
 -10   8   0 486.830 204.618   3
 -10   2   0 665.289 234.076   3
   8   2   0 571.238 176.259   5
   2   8   0 466.555 189.047   2
  10  -8   0 483.019 178.442   4
  -2  10   0 594.876 164.634   5
  10  -2   0 582.441 168.971   5
   8 -10   0 460.905 120.401   1
  -8  10   0 603.837 127.148   2
  -2  10   0 583.977 174.961   2
   8 -10  -1 3417.24 286.541   1
 -10   2   1 3493.53 366.533   3
  -8  10  -1 3453.58 325.628   3
  10  -8  -1 3505.20 258.880   1
  -8  -2   1 3596.34 343.242   3
 -10   2  -1 3537.48 402.367   3
  -2  -8  -1 3415.05 265.916   3
  10  -8   1 3144.50 310.114   4
   2   8   1 3318.23 314.294   2
  -2  10  -1 3606.16 302.975   5
  -2  10   1 3609.14 310.369   2
  10  -8  -1 3366.73 334.662   4
   2   8  -1 3191.82 304.072   5
  -8  -2  -1 3269.80 359.352   3
 -10   8  -1 3252.88 380.618   3
   2   8  -1 3554.92 324.757   2
  10  -2  -1 3710.21 298.663   5
  -2  10  -1 3652.04 306.370   2
   8   2  -1 3645.75 329.144   5
  -2  -8  -2 1235.38 206.884   3
  -8  -2  -2 926.458 240.285   3
  -2  10   2 1174.36 210.912   2
   2   8  -2 1021.33 209.566   5
 -10   2   2 1313.31 247.741   3
   8 -10  -2 1072.73 209.016   1
  -8  10  -2 1059.36 222.699   3
  10  -8  -2 928.507 172.582   1
  -8  -2   2 1101.35 205.158   3
   8   2  -2 983.687 205.293   5
  10  -8   2 1073.28 205.952   4
  10  -8  -2 1038.59 217.848   4
 -10   2  -2 1192.91 288.746   3
 -10   8  -2 1175.14 265.079   3
   2   8   2 825.359 187.678   2
   8   2   2 1036.05 202.718   2
   8   2   3 556.283 174.911   2
  10  -8   3 514.943 169.553   4
  10  -8  -3 543.056 194.285   4
   8 -10  -3 604.448 204.398   1
  10  -8  -3 530.977 168.030   1
  -2  -8  -3 392.981 165.010   3
 -10   8  -3 507.475 243.316   3
 -10   2  -3 472.824 236.857   3
  -8  -2   3 727.509 184.123   3
  -8  -2  -3 427.522 217.261   3
   2   8   3 549.326 180.693   2
  -8  10  -3 601.213 199.879   3
  10  -2   4 10612.7 431.511   2
  10  -8   4 10801.5 490.910   4
 -10   2  -4 8832.71 701.170   3
  -2  -8  -4 9946.84 567.003   3
  -8  -2  -4 9397.15 688.676   3
 -10   8  -4 10317.3 704.242   3
  -8  10  -4 10905.1 605.837   3
   8   2   4 10310.4 518.537   2
  10  -8  -4 9581.94 591.822   4
   8 -10  -4 10709.3 661.746   1
   2   8   4 9815.85 571.496   2
  10  -8  -4 10624.4 610.549   1
  -8  10  -5 10236.1 611.591   3
  10  -8  -5 9631.18 604.081   4
  -2  -8  -5 9129.91 558.078   3
  -8  -2  -5 9082.96 709.982   3
  10  -8  -5 9896.07 650.478   1
 -10   8  -5 9152.55 689.779   3
   8   2   5 10215.1 534.826   2
   8 -10  -5 9259.29 664.552   1
 -10   2  -5 8651.56 727.980   3
  10  -8  -6 1966.69 312.893   4
   8   2   6 2222.20 304.179   2
   8 -10  -6 1931.87 374.966   1
  -8  -2  -6 1495.22 373.404   3
  10  -8  -6 2034.11 363.220   1
 -10   2  -6 1347.17 367.898   3
 -10   8  -6 1684.10 355.135   3
  -2  -8  -6 1688.76 320.791   3
  -8  -2  -7 1758.11 413.799   3
 -10   8  -7 1463.94 358.989   3
 -10   2  -7 1202.23 380.878   3
  -2  -8  -7 1075.48 292.632   3
  10  -8  -7 1644.77 356.171   1
   8   2   7 2242.88 330.734   2
  10  -8  -7 1381.92 293.170   4
   8 -10  -7 1488.52 351.407   1
 -10   2  -8 1211.97 392.649   3
  -8  -2  -8 997.570 368.064   3
  10  -8  -8 1179.40 332.727   1
 -10   8  -8 1162.37 355.779   3
   8 -10  -8 1225.28 275.841   4
  10  -8  -8 1148.32 263.017   4
   8   2   8 1696.09 313.222   2
   8 -10  -8 1166.36 314.218   1
  -2  -8  -8 968.547 283.955   3
 -10   8  -9 456.285 282.495   3
  -8  -2  -9 449.418 342.879   3
  10  -8  -9 1072.35 322.576   1
   8 -10  -9 869.528 311.216   1
 -10   2  -9 814.773 402.484   3
 -10   2 -10 539.299 356.910   3
 -10   8 -10-172.364 310.214   3
  -8  -2 -10 798.633 376.177   3
   2 -10 -10 409.327 265.664   1
  10  -8 -10 959.471 388.457   1
   8 -10 -10 658.540 313.012   1
 -10   2 -11 79.0111 345.442   3
  -8  -2 -11-340.948 401.213   3
  10  -8 -11 174.149 240.344   1
   8 -10 -11 151.949 270.595   1
   2 -10 -11-298.900 279.010   1
  -2  -8 -11-40.9063 260.049   1
 -10   2 -12-70.1544 117.412  10
  -2  10 -12 104.256 136.622   7
  -8  10 -12-123.859 121.924   7
  -8  -2 -12-124.519 133.483   7
  -2  -8 -12 18.8951 144.536  10
   2 -10 -12-33.2797 155.131  10
  -8  -2 -12-112.285 121.770  10
 -10   8 -12 119.322 114.254   7
 -10   2 -12 28.8262 117.956   7
   8   2  12 55.0238 93.4497   9
  -8  10 -13 1190.87 171.245   7
   2 -10 -13 230.641 192.798  10
 -10   2 -13 1018.89 151.249   7
  -8  -2 -13 420.550 145.066   7
  -2  10 -13 1962.40 194.433   7
 -10   2 -13 1309.14 158.595  10
   8   2  13 1009.64 128.124   9
  -8  -2 -13 797.264 150.771  10
  -2  -8 -13 49.1067 168.717  10
   8 -10 -13-701.677 206.325  10
 -10   8 -13 1361.70 163.304   7
 -10   2 -14 130.244 112.243   7
  -2  10 -14 227.894 136.121   7
  -8  -2 -14 117.428 120.182   7
  -2  -8 -14 18.7475 134.812  10
  -8  -2 -14-48.8395 118.839  10
   8 -10 -14-293.658 161.304  10
 -10   2 -14 65.5442 119.456  10
 -10   8 -14 144.149 122.499   7
  -8  10 -14 197.381 133.819   7
   2 -10 -14-93.9205 149.241  10
 -10   2 -15 160.106 113.889   7
  -2  10 -15 119.774 129.286   7
  -2  -8 -15-181.884 138.133   7
  -8  -2 -15-12.2199 119.167   7
 -10   2 -15 37.2130 121.344  10
 -10   8 -15 31.3522 117.895   7
   2 -10 -15-217.800 137.037  10
  -8  10 -15 9.61363 127.737   7
  -8  -2 -15-85.1643 127.438  10
  -2  -8 -15-86.8543 129.967  10
 -10   8 -16 7.84993 114.785   7
  10  -8 -16-30.2049 108.613   7
  -8  10 -16 36.6573 119.667   7
  -8  -2 -16 200.124 113.402   7
  -2  -8 -16-237.492 130.441   7
   2 -10 -16-226.098 123.418   7
  -2  10 -16 207.329 127.599   7
  -8  -2 -16-178.596 120.578  10
   2 -10 -16-75.5597 125.993  10
  -2  -8 -16-199.768 125.409  10
 -10   2 -16 440.170 120.535   7
 -10   2 -17 105.978 104.341   7
   2 -10 -17 27.7398 103.868   7
 -10   8 -17 82.3787 111.484   7
  10  -8 -17 107.929 98.0892   7
  -2  -8 -17-60.0496 108.802  10
  -8  10 -17-28.3737 110.561   7
  -8  -2 -17 177.430 103.216   7
  -2  10 -17 16.8079 106.219   7
   8 -10 -17 28.3602 96.8920   7
  -8  -2 -17-281.793 113.392  10
  -2  -8 -17-13.4751 104.866   7
   2 -10 -17-152.761 108.773  10
  -2  10 -18 208.393 93.5627   7
 -10   2 -18-9.48653 91.0288   7
  10  -8 -18-102.701 83.5371   7
  -8  -2 -18 276.227 95.5626   7
  -2  -8 -18 50.8614 92.9722   7
  -8  10 -18 43.4529 82.3116   8
   2 -10 -18 84.7324 92.2851   7
  -2  -8 -18-253.805 95.4768  10
   8 -10 -18 9.65510 85.2483   7
 -10   8 -18-23.5033 100.784   7
  -8  10 -18-14.7793 103.207   7
   2 -10 -18-83.2029 89.8235  10
   9   1   0 28820.4 863.692   5
  -9  10   0 29667.7 947.624   3
 -10   9   0 28882.1 990.843   3
 -10   1   0 26459.5 985.638   3
  -9  -1   0 28789.7 995.502   3
   1   9   0 27821.1 852.363   2
  -1  10   0 28556.8 824.695   5
  -1  10   0 29459.5 849.074   2
  10  -1   0 23954.5 775.556   5
   1   9   0 26040.9 821.084   5
   9   1  -1 1024.40 208.535   5
  -1  10  -1 1247.17 219.759   2
   1   9  -1 1185.22 222.952   2
  -9  -1   1 1318.10 261.705   3
 -10   1   1 1125.94 248.311   3
  -1  10   1 1234.75 220.578   2
   9 -10  -1 1238.89 187.440   1
   1   9  -1 866.240 194.752   5
  10  -9  -1 1225.41 172.277   1
 -10   9  -1 1224.48 276.797   3
 -10   1  -1 861.496 253.416   3
  -1  10  -1 1175.57 222.600   5
  -9  -1  -1 972.082 247.825   3
   1   9   1 1292.13 227.101   2
  10  -1  -1 1324.51 222.836   5
  -9  10  -1 1049.47 221.597   3
  -1  10   2 13233.2 590.229   2
   9   1   2 12009.4 534.314   2
  -9  -1  -2 12024.1 709.885   3
 -10   1   2 12863.2 654.549   3
  -9  -1   2 12523.3 617.547   3
 -10   9  -2 12118.9 686.968   3
  -9  10  -2 13267.6 662.353   3
 -10   1  -2 11303.3 698.816   3
  -1  -9  -2 12937.8 526.617   3
   1   9   2 12680.9 586.051   2
   9 -10  -2 12631.1 575.006   1
   9   1  -2 12594.5 597.858   5
   1   9  -2 11871.7 589.860   5
  10  -9  -2 12710.6 555.305   1
 -10   1  -3 4764.33 505.382   3
   1   9   3 5396.62 406.817   2
  -9  -1   3 5967.72 429.105   3
 -10   9  -3 5930.42 512.328   3
  -9  10  -3 5960.48 465.083   3
  -9  -1  -3 5385.11 513.970   3
   9 -10  -3 6187.43 465.328   1
  -1  10   3 5889.53 442.885   2
   9   1   3 5695.84 380.507   2
  10  -1   3 5977.14 347.453   2
  10  -9  -3 6245.14 435.792   1
  -1  -9  -3 6207.32 414.470   3
 -10   9  -4 4410.00 477.698   3
  10  -1   4 4700.48 326.093   2
  10  -9  -4 4922.92 438.025   1
  -9  10  -4 4407.47 440.292   3
  -9  -1  -4 4394.91 513.538   3
  -1  -9  -4 4222.81 382.856   3
   9 -10  -4 4557.83 450.667   1
   1   9   4 4160.73 401.424   2
  10  -9  -4 4074.56 411.302   4
  10  -9   4 4968.10 350.615   4
 -10   1  -4 3267.65 452.613   3
   9   1   4 4334.90 352.617   2
   9   1   5 11050.2 552.691   2
  -9  -1  -5 9496.62 751.848   3
 -10   9  -5 10372.0 720.558   3
 -10   1  -5 9402.52 772.043   3
  10  -9  -5 10387.2 635.209   4
  10  -9  -5 10769.8 686.907   1
  -1  -9  -5 9500.17 585.005   3
  -9  10  -5 10304.7 649.172   3
   9 -10  -5 10793.3 706.645   1
  -9  10  -6 4049.63 443.768   3
 -10   1  -6 3561.77 535.382   3
  -1  -9  -6 3552.13 417.404   3
  10  -9  -6 3862.78 420.834   4
 -10   9  -6 4080.78 501.005   3
  10  -9  -6 3874.30 456.961   1
   9 -10  -6 3730.00 464.062   1
  -9  -1  -6 2780.60 464.053   3
   9   1   6 4332.55 377.354   2
 -10   1  -7 2482.08 492.307   3
  10  -9  -7 3064.30 388.662   4
  -9  -1  -7 3148.76 517.990   3
   9 -10  -7 2918.05 370.745   4
   9   1   7 4025.84 395.146   2
   9 -10  -7 3057.03 469.783   1
  10  -9  -7 3298.76 483.473   1
 -10   9  -7 3129.56 466.514   3
  -9  -1  -8 1482.33 406.379   3
  10  -9  -8 1498.20 292.796   4
 -10   9  -8 1383.89 350.139   3
   9 -10  -8 1540.43 362.142   1
   9 -10  -8 1322.73 283.858   4
  10  -9  -8 1567.26 388.632   1
 -10   1  -8 864.869 357.021   3
 -10   1  -9 624.087 345.973   3
  10  -9  -9 1032.16 322.739   1
  -9  -1  -9 891.422 368.402   3
   9 -10  -9 1236.66 361.881   1
  -9  -1 -10 1066.97 445.172   3
   9 -10 -10 1303.36 393.024   1
   1 -10 -10 922.094 341.148   1
  10  -9 -10 1887.73 450.068   1
 -10   1 -10 814.238 394.141   3
  -9  10 -11 1365.37 144.927   7
  -9  -1 -11 661.108 417.358   3
   1 -10 -11 1680.18 203.815  10
  -1  -9 -11 838.165 408.432   1
  -1  -9 -11 1833.43 184.812  10
 -10   1 -11 1141.58 131.791  10
 -10   1 -11 470.826 381.913   3
 -10   9 -11 1645.36 147.280   7
   9 -10 -11 734.095 339.219   1
   1 -10 -11 557.133 340.585   1
  10  -9 -11 1251.10 419.591   1
  -9  -1 -11 1491.32 142.739  10
 -10   9 -12 66.0843 114.379   7
  -1  -9 -12 56.9293 142.227  10
  -9  10 -12 43.0926 122.664   7
 -10   1 -12 347.362 126.625   7
  -9  -1 -12 164.378 123.164   7
  10  -1  12 164.558 84.6825   9
   1 -10 -12 424.167 168.353  10
  -9  -1 -12 237.651 118.412  10
 -10   1 -12 228.160 122.595  10
   9   1  12 273.485 96.3915   9
  -1  10 -13-169.230 147.709   7
 -10   1 -13-92.8419 118.964   7
  -9  -1 -13-100.364 123.848   7
   9   1  13 10.9778 92.6836   9
  -9  -1 -13 44.5359 117.878  10
  -1  -9 -13 197.473 148.432  10
   1 -10 -13 20.6496 157.326  10
   9 -10 -13-406.646 175.125  10
  -9  10 -13 4.65081 128.700   7
 -10   9 -13 54.2487 121.410   7
 -10   1 -13 89.7668 117.028  10
  -9  10 -14 535.725 143.933   7
  -1  10 -14 1221.77 162.883   7
 -10   9 -14 854.323 147.901   7
 -10   1 -14 764.373 141.460   7
  -9  -1 -14 827.973 137.903   7
 -10   1 -14 552.216 138.780  10
  -1  -9 -14 551.522 165.309  10
  -9  -1 -14 717.750 146.636  10
  -9  10 -15-8.70327 121.119   7
 -10   1 -15-38.2504 113.679   7
  -9  -1 -15 126.224 112.660  10
  -9  -1 -15 277.389 116.621   7
  -1  -9 -15 134.039 128.256   7
 -10   1 -15-66.3699 118.829  10
   1 -10 -15 70.5357 130.161  10
 -10   9 -15 8.69765 116.921   7
  -1  10 -15-77.3748 124.957   7
  -1  -9 -15-62.6897 123.902  10
  -9  10 -16-11.6825 113.474   7
   1 -10 -16-38.6172 116.616   7
 -10   1 -16 176.655 106.845   7
  -1  -9 -16 120.573 116.545   7
  -9  -1 -16 20.4730 109.629  10
  -1  -9 -16 48.1932 109.903  10
  -9  -1 -16 87.8715 104.880   7
   1 -10 -16-45.6947 115.456  10
 -10   9 -16 43.4361 113.153   7
  -1  10 -16 77.1905 113.921   7
   9 -10 -17 39.9076 93.4715   7
  -9  10 -17-126.523 114.980   7
 -10   1 -17 348.563 105.874   7
  -9  -1 -17 304.546 103.357   7
   1 -10 -17 127.180 108.305   7
  -1  -9 -17-64.5088 102.084  10
   1 -10 -17 50.8699 99.9245  10
  10  -9 -17 133.469 99.7502   7
 -10   9 -17-25.7864 108.910   7
  -1  -9 -17-4.12496 102.735   7
 -10   9 -18 35.1648 101.920   7
  -1  -9 -18-26.1002 85.7173  10
  -9  -1 -18 200.096 94.5148   7
  -1  -9 -18-35.3149 91.2935   7
   1 -10 -18 62.8508 90.8743   7
  10  -9 -18 67.5156 83.0155   7
   9 -10 -18 24.6307 82.8795   7
   1 -10 -18 108.069 85.5286  10
  -9  10 -18-1.59949 84.2074   8
  -9  10 -18-112.397 109.031   7
 -10  10   0 2133.95 301.334   3
 -10   0   0 1801.53 299.285   3
  10   0   0 1979.63 268.568   5
   0  10   0 1900.86 261.427   2
   0  10   0 1993.74 264.866   5
   0  10   1 3714.23 337.775   2
 -10  10  -1 3526.25 382.524   3
 -10   0   1 3587.58 381.077   3
   0  10  -1 3538.29 327.729   2
   0  10  -1 3420.04 328.740   5
  10 -10  -1 3445.25 265.475   1
 -10   0  -1 3528.90 403.242   3
  10   0  -1 3823.54 336.822   5
 -10   0   2 7465.62 510.936   3
 -10  10  -2 7368.04 537.483   3
  10   0  -2 7548.52 485.019   5
 -10   0  -2 6765.26 563.392   3
  10 -10  -2 8658.62 456.529   1
   0  10   2 7772.47 488.640   2
  10   0   3 883.211 175.848   2
 -10   0   3 958.653 217.662   3
  10 -10  -3 1030.18 217.665   1
 -10   0  -3 951.227 284.369   3
   0  10   3 808.327 216.311   2
 -10  10  -3 1146.25 277.466   3
 -10  10  -4 5099.10 493.131   3
   0  10   4 4790.67 428.980   2
  10 -10  -4 4748.31 445.432   1
 -10   0  -4 4252.72 502.460   3
  10   0   4 5119.68 357.057   2
 -10  10  -5 21190.9 978.988   3
 -10   0  -5 18814.8 1075.69   3
  10   0   5 21327.3 724.799   2
  10 -10  -5 21665.7 1001.79   1
  10 -10  -6 14122.5 861.732   1
  10 -10  -6 13358.5 742.230   4
 -10   0  -6 12745.6 942.203   3
 -10  10  -6 13353.2 842.880   3
 -10  10  -7 3157.57 465.311   3
  10 -10  -7 3008.82 458.420   1
  10 -10  -7 2660.53 365.251   4
 -10   0  -7 2137.66 468.969   3
  10 -10  -8 976.750 326.440   1
  10 -10  -8 747.496 249.214   4
 -10   0  -8 769.032 370.130   3
 -10   0  -9 2261.63 566.547   3
  10 -10  -9 2841.61 513.878   1
 -10   0 -10 504.342 383.378   3
  10 -10 -10 1070.23 377.368   1
 -10  10 -11 282.195 119.293   7
 -10   0 -11 205.141 113.936  10
  10   0  11 411.696 103.295   9
 -10  10 -12 172.524 126.524   7
 -10   0 -12-59.1091 125.481  10
   0 -10 -12 79.1776 164.419  10
  10   0  12-63.1104 96.2061   9
  10   0  13 742.780 106.431   9
 -10   0 -13 1121.57 141.029   7
   0 -10 -13 662.816 168.443  10
 -10  10 -13 750.795 135.509   7
 -10   0 -13 687.761 127.507  10
 -10  10 -14 230.222 141.872   7
 -10   0 -14 572.487 137.538   7
 -10   0 -14 298.812 130.195  10
   0 -10 -14 154.930 162.416  10
 -10  10 -15 78.4627 122.014   7
 -10   0 -15 282.786 117.204   7
 -10   0 -15-97.0453 122.349  10
   0 -10 -15-149.988 134.172  10
   0 -10 -16 14.0534 114.489   7
 -10   0 -16-288.997 114.029  10
   0 -10 -16-47.8339 118.994  10
 -10  10 -16-85.2080 114.125   7
 -10  10 -17 111.434 114.968   7
 -10   0 -17 556.654 111.113   7
   0 -10 -17 305.326 113.233   7
   0 -10 -17-125.914 114.376  10
  10 -10 -17 159.263 98.6373   7
   0 -10 -18 190.674 92.9451   7
 -10  10 -18 39.6881 84.6637   8
   0 -10 -18-115.631 92.7196  10
 -10   0 -18 108.167 87.7677   7
  10 -10 -18 30.8731 82.0911   7
 -10  10 -18 106.412 106.728   7
  -6  11   0 3427.92 264.030   2
 -11   6   0 3258.41 387.078   3
 -11   5   0 3061.57 375.358   3
  -6  -5   0 3401.53 316.720   3
   5   6   0 2540.87 283.389   5
  -5  -6   0 3497.43 298.169   3
   5   6   0 3142.82 317.225   2
  -5  11   0 3475.29 282.120   2
   6   5   0 3179.49 323.226   2
  -5  11   0 3209.74 228.418   5
  11  -5   0 3128.61 319.589   4
  11  -6   0 3199.51 323.269   4
  11  -5   0 3232.74 228.260   5
   6   5   0 2741.70 290.796   5
  -6  -5   1 2285.26 255.538   3
 -11   5   1 2190.75 299.239   3
  -6  -5  -1 2124.36 285.866   3
 -11   6   1 1996.49 308.915   3
 -11   6  -1 2228.69 351.816   3
 -11   5  -1 2418.44 348.967   3
  -5  11   1 2624.31 260.681   2
  -5  -6   1 2305.25 240.946   3
  11  -5  -1 2339.34 279.497   4
  11  -6   1 1662.40 163.844   5
  11  -6   1 2313.63 269.839   4
   5   6   1 2094.74 271.173   2
   6   5   1 2375.93 278.052   2
  11  -6  -1 1968.28 264.774   4
  -5  11  -1 2507.19 245.306   2
  -5  -6  -1 2300.13 280.714   3
  -6  11   1 2661.95 252.648   2
   5   6  -1 2073.53 263.773   5
  -6  11  -1 2639.96 230.880   2
   6   5  -1 2126.50 269.199   5
  -5  11   1 2366.31 219.685   5
  11  -5   1 2749.83 220.544   5
  11  -5  -2 3827.38 352.551   4
  -6  -5   2 4409.68 331.706   3
 -11   6  -2 3992.99 462.816   3
 -11   5  -2 3890.21 455.198   3
   5   6   2 3450.55 328.605   2
   6   5   2 3578.64 336.069   2
  11  -6   2 3879.03 329.818   4
  -6  -5  -2 4043.50 388.661   3
   6   5  -2 3843.70 357.171   5
  -5  -6  -2 3824.90 365.249   3
  11  -6  -2 3876.99 356.560   4
   5   6  -2 3659.63 351.215   5
  11  -5  -3 10077.1 574.894   4
  -6  -5   3 11600.8 518.517   3
 -11   6  -3 8989.72 681.809   3
 -11   5  -3 9505.45 701.376   3
   6   5   3 9872.22 527.925   2
  -5  -6  -3 9915.25 587.608   3
   5   6   3 9447.31 526.846   2
  11  -6  -3 10166.7 579.611   4
  -6  -5  -3 10535.8 634.666   3
  11  -6  -4 2066.13 303.275   4
 -11   6  -4 1982.79 392.586   3
  -6  -5  -4 2369.60 357.542   3
   6   5   4 2431.20 317.901   2
   5   6   4 1909.65 292.052   2
  -5  -6  -4 2331.10 342.801   3
 -11   5  -4 1809.40 378.303   3
  11  -6  -5 2259.40 323.674   4
 -11   5  -5 1570.60 383.006   3
  -6  -5  -5 2076.55 352.092   3
  11  -6  -5 2215.67 331.807   1
   5   6   5 2183.68 321.683   2
   6   5   5 2111.57 309.604   2
 -11   6  -5 1857.75 402.947   3
  -5  -6  -5 2048.29 357.038   3
 -11   6  -6 377.474 287.988   3
  -6  -5  -6 321.186 253.047   3
  -5  -6  -6 394.383 219.654   3
   6 -11  -6 355.339 219.955   1
   5   6   6 331.225 205.627   2
  11  -6  -6 313.426 197.764   1
   6   5   6 214.191 196.824   2
 -11   5  -6 110.808 232.649   3
 -11   6  -7 2106.48 479.272   3
  -6  -5  -7 2111.09 378.850   3
  11  -6  -7 2289.35 383.866   1
 -11   5  -7 1623.97 412.604   3
   6 -11  -7 1937.11 379.393   1
  -5  -6  -7 2349.82 393.926   3
   5   6   7 2554.77 404.379   2
   6   5   7 2212.68 363.113   2
   6   5   8 252.239 270.495   2
  -6  -5  -8 349.028 230.755   3
  -5  -6  -8 492.204 269.844   3
   5 -11  -8 183.197 202.065   1
   6 -11  -8 468.169 252.230   1
 -11   6  -8 210.370 289.764   3
 -11   5  -8 334.243 309.978   3
  11  -6  -8 161.982 223.411   1
  11  -6  -9 1532.63 377.173   1
 -11   5  -9 839.287 409.904   3
 -11   6  -9 1264.80 436.131   3
   6 -11  -9 1105.76 350.289   1
  -6  -5  -9 1404.78 375.139   3
  -5  -6  -9 1698.92 414.341   3
   5 -11  -9 1281.61 364.624   1
 -11   5 -10-303.032 399.709   3
 -11   6 -10 381.857 337.470   3
  -5  -6 -10 120.311 248.730   3
   5 -11 -10 21.1072 228.848   1
   6 -11 -10 97.2299 221.156   1
  11  -6 -10-104.339 270.155   1
  -6  -5 -10 167.450 310.738   3
  -6  11 -11 689.032 135.117   7
   6 -11 -11 257.792 270.263   1
 -11   5 -11 739.867 424.712   3
 -11   6 -11 243.066 312.140   3
  -5  -6 -11 336.868 310.067   1
  -6  -5 -11 253.894 327.914   1
  -6  -5 -11 686.157 312.731   3
  -5  -6 -11 275.821 316.862   3
  -6  -5 -11 743.736 142.592  10
   5 -11 -11 255.061 298.476   1
  -5  -6 -11 658.297 136.336  10
  -6  11 -12 1218.74 163.439   7
 -11   6 -12 718.563 129.984   7
  -6  -5 -12 1206.28 156.045  10
  -6  -5 -12 1169.57 149.514   7
  -5  -6 -12 1097.20 155.144   7
  -5  11 -12 1434.54 168.834   7
   6   5  12 1311.43 138.978   9
  -5  -6 -12 1343.45 158.890  10
 -11   5 -12 1373.70 150.551  10
   5   6  12 1574.73 145.964   9
 -11   5 -12 1126.79 140.475   7
 -11   5 -13 320.710 132.602   7
  -6  -5 -13 79.3539 132.823  10
 -11   5 -13 242.779 135.919  10
 -11   6 -13-201.612 134.294   7
  -5  -6 -13 522.272 153.629   7
  -5  11 -13 162.959 155.476   7
  -5  -6 -13 365.621 147.121  10
   6 -11 -13 268.080 189.318  10
  -6  11 -13 85.2171 143.975   7
  -6  -5 -13 11.7619 136.249   7
   6   5  13 323.926 126.966   9
   5   6  13 78.0122 121.581   9
   5 -11 -13-510.236 190.110  10
  -6  11 -14 288.333 137.526   7
 -11   6 -14 165.670 116.211   7
 -11   5 -14 186.543 111.922   7
  -5  11 -14 115.594 135.107   7
  -6  -5 -14 169.284 125.748   7
  -5  -6 -14 180.471 126.613   7
   5 -11 -14-1.14600 149.429  10
   6 -11 -14-24.0974 156.151  10
  -5  -6 -14 299.153 130.580  10
  -6  -5 -14 326.997 129.499  10
 -11   5 -15 136.361 113.247   7
  -6  11 -15 30.1769 130.403   7
 -11   6 -15 109.594 117.710   7
  -6  -5 -15 146.015 122.749   7
   6 -11 -15 105.333 143.445  10
  -5  -6 -15 557.467 136.573   7
  -5  11 -15 44.2341 130.919   7
  -5  -6 -15 237.217 129.385  10
  -6  -5 -15 177.504 122.192  10
   5 -11 -15-12.8768 142.607  10
  11  -6 -15-3.84947 113.435   7
  -5  -6 -16 454.724 130.127   7
  -5  11 -16 2.58349 109.497   8
  -6  -5 -16 883.627 141.262   7
  -5  11 -16 61.5912 125.943   7
 -11   6 -16 333.608 123.583   7
  -6  -5 -16-6.72487 114.257  10
  11  -6 -16 48.0450 107.246   7
  -5  -6 -16 1036.32 137.273  10
   6 -11 -16 284.703 131.012  10
  -6  11 -16-58.3368 129.090   7
 -11   5 -16-23.9461 113.569   7
   5 -11 -16-117.225 126.367  10
  -5  11 -17 24.6098 110.411   7
  -6  11 -17-32.0453 94.3971   8
  -6  11 -17 16.5692 114.383   7
 -11   6 -17 167.954 111.224   7
 -11   5 -17 148.133 109.011   7
  -6  -5 -17 668.889 117.797   7
  -5  -6 -17 361.166 113.041   7
   5 -11 -17-23.0692 98.0281   7
   6 -11 -17-74.3879 99.1481   7
  -5  -6 -17 355.521 108.878  10
   6 -11 -17 89.9785 99.0042  10
   5 -11 -17-19.6369 97.9815  10
  -5  11 -17-34.5963 92.5904   8
  -6  -5 -17 70.3747 104.875  10
  -6  11 -18 13.8482 97.3735   7
  -6  11 -18-98.7295 77.1317   8
  -5  -6 -18 19.3684 86.7744  10
 -11   6 -18 382.149 107.173   7
  -6  -5 -18 367.538 96.4579   7
  -5  -6 -18 212.323 94.0569   7
   5 -11 -18-144.742 91.2662   7
   6 -11 -18-28.5657 85.9526   7
   5 -11 -18 92.1310 78.3326  10
  -6  -5 -18 42.4197 89.1729  10
  -5  11 -18 26.6309 95.2726   7
 -11   5 -18 127.334 97.4081   7
  -4  11   0 78.5649 130.899   5
   4   7   0 257.113 166.979   2
  11  -7   0 47.6481 132.252   4
  -4  -7   0 181.153 138.379   3
  -4  11   0 100.823 137.976   2
 -11   4   0 146.822 182.149   3
  11  -4   0 120.771 119.516   5
   4   7   0 96.6557 146.668   5
  -7  11   0 6.12194 124.434   2
   7   4   0 70.0890 123.128   5
  -7  -4   0 155.825 166.832   3
 -11   7   0 154.600 197.896   3
   7   4  -1 446.542 160.524   5
  -4  11  -1 598.885 168.954   2
  11  -7  -1 572.277 185.876   4
   4   7   1 500.274 169.390   2
  11  -7   1 697.530 186.228   4
   7   4   1 567.328 189.885   2
  -7  -4  -1 628.204 201.616   3
 -11   4   1 562.889 217.258   3
 -11   4  -1 702.409 246.884   3
  -7  11  -1 451.190 157.783   3
  -4  -7  -1 642.118 176.329   3
  -7  -4   1 681.277 175.052   3
  -4  11   1 585.216 151.007   5
  -7  11  -1 722.345 142.079   2
   4   7  -1 590.325 179.736   5
  -4  11   1 589.753 178.304   2
 -11   7  -1 540.311 242.060   3
  -7  -4  -2 1528.44 283.550   3
  11  -7  -2 1533.75 253.776   4
  11  -7   2 1660.91 234.817   4
  -7  -4   2 1796.26 241.064   3
  -7  11  -2 1726.61 228.561   3
  -4  -7  -2 1452.43 247.124   3
   4   7   2 1276.58 231.149   2
   7   4   2 1628.56 242.624   2
 -11   7  -2 1448.21 304.843   3
 -11   4  -2 1139.04 283.271   3
   4   7  -2 1368.37 236.558   5
   7   4  -2 1435.61 239.640   5
   7   4   3 89.2297 157.786   2
  11  -7  -3 177.568 166.564   4
  11  -7   3 101.311 142.306   4
  -7  -4   3 73.8088 140.533   3
   4   7   3 176.910 164.658   2
  -4  -7  -3 424.315 208.823   3
 -11   7  -3 280.946 244.291   3
  11  -7  -3 92.2468 134.244   1
 -11   4  -3 211.575 205.736   3
  -7  -4  -3-27.4883 190.690   3
  11  -7  -4 5430.26 457.215   4
  -7  -4   4 6066.89 405.671   3
  11  -7  -4 5348.18 433.250   1
 -11   7  -4 4886.99 547.994   3
 -11   4  -4 4955.95 562.940   3
  -4  -7  -4 5395.53 470.060   3
   4   7   4 5698.92 446.773   2
  -7  -4  -4 5311.68 517.453   3
   7   4   4 5199.32 411.962   2
  11  -7  -5 7189.25 533.120   4
  11  -7  -5 8216.38 582.327   1
   7 -11  -5 7780.30 638.266   1
  -7  -4  -5 6983.50 629.378   3
   4   7   5 7867.59 547.996   2
 -11   4  -5 6646.01 670.292   3
  -4  -7  -5 7429.41 551.848   3
   7   4   5 7669.38 509.967   2
 -11   7  -5 6388.90 639.765   3
 -11   4  -6 1112.24 358.222   3
  11  -7  -6 1476.52 300.497   1
  -7  -4  -6 1195.27 338.279   3
  11  -7  -6 1271.97 268.082   4
  -4  -7  -6 1283.37 277.204   3
   7 -11  -6 1149.60 309.978   1
   4   7   6 1266.55 304.614   2
   7   4   6 1483.92 278.724   2
 -11   7  -6 1037.41 334.252   3
  11  -7  -7 2785.70 416.888   1
 -11   7  -7 2245.53 466.591   3
  -4  -7  -7 2554.59 382.755   3
   7   4   7 2905.32 391.890   2
 -11   4  -7 2331.31 493.110   3
  -7  -4  -7 2478.74 456.781   3
   7 -11  -7 2270.04 402.695   1
  -4  -7  -8 39.7121 198.944   3
  -7  -4  -8-181.817 257.720   3
  11  -7  -8 46.8223 183.436   1
 -11   7  -8-168.998 318.122   3
   7   4   8 7.82819 225.341   2
 -11   4  -8-117.429 286.389   3
   7 -11  -8 44.9695 190.914   1
 -11   4  -9 285.239 366.177   3
 -11   7  -9 18.0530 316.423   3
   7   4   9-236.076 277.520   2
  -7  -4  -9-259.611 336.155   3
  -4  -7  -9 8.44067 239.533   3
  11  -7  -9 12.8256 229.051   1
   4 -11  -9-62.3936 211.118   1
   7 -11  -9-169.832 263.532   1
  11  -7 -10 120.936 250.178   1
   7 -11 -10 22.1692 234.444   1
 -11   4 -10 266.868 317.763   3
   4 -11 -10-143.418 287.724   1
  -4  -7 -10 52.3186 239.589   3
 -11   7 -10 139.011 286.628   3
  -7  -4 -10-444.550 356.647   3
   7 -11 -11 374.218 240.568   1
  -7  11 -11 370.362 125.449   7
 -11   4 -11 421.573 336.922   3
  -4  -7 -11 541.869 142.411  10
 -11   7 -11 95.7773 370.576   3
  -7  -4 -11-213.049 366.069   3
  -4  -7 -11 86.2983 278.006   1
   4 -11 -11-97.1487 340.385   1
  -7  -4 -11 559.336 130.210  10
  11  -7 -11-194.313 314.479   1
 -11   4 -11 253.845 111.858  10
  -4  -7 -12-74.9891 131.519  10
  -4  11 -12 77.2248 131.431   7
  -7  11 -12 13.8955 121.138   7
 -11   7 -12 20.0625 105.749   7
   4   7  12 226.816 115.336   9
   4 -11 -12-19.0352 167.772  10
  -7  -4 -12 126.017 117.009  10
 -11   4 -12 34.4853 107.802   7
 -11   4 -12 4.24274 111.858  10
   7   4  12 242.290 109.399   9
 -11   7 -13 327.461 120.231   7
 -11   4 -13 415.630 126.404   7
  -7  -4 -13 292.206 132.157   7
  -4  -7 -13-6.94899 136.301   7
   7   4  13 177.318 106.693   9
 -11   4 -13 426.784 131.818  10
  -4  11 -13 727.568 154.603   7
  -7  -4 -13 368.938 128.794  10
  -4  -7 -13 168.847 129.689  10
   4 -11 -13 113.877 165.128  10
  -7  11 -13 341.601 142.936   7
   7 -11 -13-83.4776 163.321  10
  -7  11 -14 123.545 130.834   7
 -11   7 -14 35.3188 114.860   7
 -11   4 -14 163.822 117.151   7
  -4  11 -14 94.8417 136.285   7
  -7  -4 -14 272.160 127.266   7
  -4  -7 -14 190.864 130.477   7
  -4  -7 -14 45.8339 124.967  10
  -7  -4 -14 191.809 122.117  10
   4 -11 -14 86.9209 151.763  10
   7 -11 -14-76.5717 149.084  10
  -7  11 -15 151.669 130.052   7
  -4  11 -15 307.782 140.727   7
 -11   7 -15 298.558 121.262   7
 -11   4 -15 209.057 113.919   7
  -7  -4 -15 411.644 128.892   7
  -4  -7 -15 101.890 122.875   7
   7 -11 -15-89.4584 140.280  10
  -7  -4 -15 50.3942 111.256  10
  -4  -7 -15 47.8190 114.950  10
   4 -11 -15-25.8486 137.351  10
 -11   7 -16 64.1403 109.962   7
  -4  11 -16 70.9274 121.956   7
 -11   4 -16 42.7695 106.374   7
  -7  -4 -16 34.5026 106.526  10
  -7  -4 -16 398.152 119.610   7
  -4  -7 -16 225.434 118.878   7
  11  -7 -16 61.7958 105.444   7
   4 -11 -16 77.7669 116.194  10
   7 -11 -16-128.016 119.042  10
  -4  11 -16 50.8937 104.889   8
  -7  11 -16 44.3253 123.349   7
  -4  -7 -16 13.1518 107.327  10
 -11   4 -17 99.6485 102.136   7
  -7  -4 -17 202.979 102.200   7
  -4  -7 -17 148.436 104.466   7
  11  -7 -17 7.92470 90.4937   7
   4 -11 -17 36.4547 97.0492   7
  -7  11 -17-119.627 98.6870   8
   7 -11 -17 35.4673 92.6467   7
  -7  11 -17 30.0558 112.192   7
  -4  11 -17-126.150 105.548   7
 -11   7 -17 142.993 108.097   7
   4 -11 -17-104.348 101.858  10
  -7  -4 -17 18.0341 98.0856  10
  -4  -7 -17 0.04673 100.008  10
  -7  -4 -18 78.6244 87.1178   7
  -4  -7 -18 82.7210 90.9553   7
   4 -11 -18-12.7057 87.3598   7
   7 -11 -18 20.3163 82.7227   7
  -4  -7 -18-129.948 88.1856  10
  -7  11 -18 65.3497 101.169   7
 -11   4 -18-6.45667 90.6795   7
   4 -11 -18-149.518 84.9150  10
  -4  11 -18 4.89415 88.6500   7
  -7  11 -18-108.055 80.8855   8
 -11   7 -18 48.1751 97.2643   7
 -11   8   0 381.870 207.080   3
  11  -3   0 4.76740 124.649   5
  -8  -3   0 141.215 176.808   3
   3   8   0 125.760 143.673   5
   8 -11   0-37.1820 118.590   1
   8   3   0 152.486 149.772   5
  -3  11   0 334.899 168.890   2
   3   8   0 154.502 157.952   2
 -11   3   0 181.962 199.376   3
  -8  11   0 154.647 126.309   2
  11  -8   0-7.61253 149.136   4
  -3  11   0 11.0151 128.434   5
  11  -8  -1 10027.3 570.166   4
 -11   3   1 9607.79 611.163   3
  -8  11  -1 9371.13 512.580   3
 -11   8  -1 9941.71 667.268   3
 -11   3  -1 9409.17 656.856   3
   8 -11  -1 9489.93 497.223   1
  -8  -3   1 10041.0 557.688   3
  -8  -3  -1 9682.25 591.671   3
  11  -3  -1 10528.4 476.382   5
  -3  -8  -1 9901.93 465.103   3
  -3  11   1 9908.07 512.815   2
   3   8   1 8674.80 493.041   2
   8   3  -1 9536.63 531.640   5
  11  -8   1 9484.41 538.008   4
  -3  11   1 10209.5 480.164   5
   8   3   1 9880.61 524.370   2
  -3  11  -1 9825.56 483.941   5
  -3  11  -1 10919.7 509.214   2
   3   8  -1 9876.49 535.783   5
   3   8  -2 826.831 202.709   5
  11  -8   2 1213.33 226.924   4
  11  -8  -2 877.434 221.787   4
   8   3   2 978.459 226.442   2
  -3  -8  -2 909.365 210.037   3
  11  -8  -2 908.100 183.052   1
  -3  11   2 1156.16 221.043   2
 -11   3   2 998.174 249.397   3
   8 -11  -2 904.212 222.529   1
 -11   8  -2 824.138 264.357   3
  -8  11  -2 861.114 203.763   3
  -8  -3   2 1259.19 222.905   3
   3   8   2 831.008 199.707   2
 -11   3  -2 918.910 272.136   3
   8   3  -2 954.847 208.870   5
  -8  -3  -2 1020.07 268.303   3
  11  -8   3 6037.79 399.966   4
  -8  -3   3 6212.70 425.900   3
   8 -11  -3 6224.43 507.680   1
 -11   8  -3 4898.68 517.355   3
 -11   3  -3 4589.08 520.639   3
  -8  11  -3 5951.84 425.396   3
  -8  -3  -3 5831.35 521.294   3
   3   8   3 5037.79 411.944   2
  -3  -8  -3 5386.19 404.561   3
   8   3   3 5340.49 397.997   2
  11  -8  -3 5535.09 414.193   1
  11  -8  -3 5462.44 454.391   4
 -11   8  -4 17054.5 947.247   3
  11  -8  -4 18633.3 807.673   1
  11  -8   4 20026.4 687.649   4
   8 -11  -4 19872.4 934.102   1
  -8  -3   4 21119.5 782.471   3
 -11   3  -4 16094.0 963.212   3
   3   8   4 17691.3 759.723   2
  -8  -3  -4 17766.1 933.912   3
  11  -8  -4 17362.0 804.427   4
  -3  -8  -4 18676.7 795.978   3
   8   3   4 18475.4 729.536   2
  11  -8  -5 10872.9 661.574   4
 -11   3  -5 9529.42 790.056   3
   3   8   5 11187.8 658.314   2
   8   3   5 10322.7 587.714   2
 -11   8  -5 10385.0 780.917   3
  -8  -3  -5 10606.6 760.729   3
   8 -11  -5 11065.3 748.275   1
  -3  -8  -5 9902.33 633.963   3
  11  -8  -5 11130.2 686.377   1
  11  -8  -6 7567.72 560.510   4
   8   3   6 7710.08 536.516   2
 -11   8  -6 6971.06 682.252   3
   8 -11  -6 7099.66 640.895   1
 -11   3  -6 6033.90 674.213   3
  -3  -8  -6 6108.01 541.552   3
  11  -8  -6 7563.65 617.790   1
  -8  -3  -6 6407.99 663.231   3
  -8  -3  -7 1965.80 444.894   3
  -3  -8  -7 1817.96 355.207   3
   8 -11  -7 1950.49 418.414   1
  11  -8  -7 2247.99 404.816   1
  11  -8  -7 2187.31 350.844   4
 -11   8  -7 1936.30 449.187   3
   8   3   7 2280.03 347.922   2
 -11   3  -7 1382.55 411.253   3
   8 -11  -8 1501.72 383.729   1
 -11   3  -8 1072.96 389.680   3
  -3  -8  -8 1731.67 346.035   3
  -8  -3  -8 1750.41 457.870   3
  11  -8  -8 1441.97 375.921   1
 -11   8  -8 660.766 302.241   3
   8   3   8 1977.92 351.862   2
   8 -11  -8 1650.93 316.163   4
 -11   3  -9 55.6715 321.725   3
   8 -11  -9 371.150 294.652   1
  -8  -3  -9 55.6512 307.251   3
   3 -11  -9 169.420 263.353   1
  -3  -8  -9-164.833 269.020   3
  11  -8  -9 565.115 314.642   1
 -11   8  -9 170.683 318.116   3
 -11   3 -10 695.405 473.660   3
 -11   8 -10 378.482 312.360   3
  11  -8 -10 598.222 315.255   1
  -8  -3 -10 681.775 413.999   3
   3 -11 -10 131.386 298.088   1
   8 -11 -10 1084.64 372.118   1
  -8  11 -11 267.465 126.892   7
 -11   8 -11 421.171 136.409   7
   3 -11 -11 704.409 197.029  10
  -8  -3 -11 767.292 135.730  10
  -3  -8 -11-18.1433 293.470   1
  -3  -8 -11 610.274 182.387  10
 -11   3 -11 356.536 120.162  10
  -8  11 -12 52.1949 128.026   7
  -3  11 -12 304.312 148.466   7
 -11   3 -12-52.8227 118.771   7
  -8  -3 -12 264.790 131.828  10
 -11   3 -12 97.5275 111.271  10
 -11   8 -12 220.443 118.505   7
  -3  -8 -12 126.817 145.990  10
   3 -11 -12 511.948 194.315  10
   3   8  12 75.3998 118.254   9
   8   3  12 291.565 111.862   9
 -11   3 -13 1038.97 153.801   7
  -8  -3 -13 1438.09 177.709   7
 -11   3 -13 680.085 148.186  10
 -11   8 -13 1553.87 165.023   7
  -3  -8 -13 838.153 176.384  10
  -8  -3 -13 1410.55 179.261  10
  -3  11 -13 1653.25 196.877   7
   8   3  13 1457.50 153.216   9
  -8  11 -13 925.546 171.966   7
  -3  -8 -14 194.150 144.415   7
  -8  -3 -14 855.460 151.889   7
  -3  11 -14 310.535 148.841   7
 -11   8 -14 88.2796 123.431   7
 -11   3 -14 332.515 132.288   7
   3 -11 -14 1105.79 199.078  10
 -11   3 -14 201.261 134.193  10
  -8  -3 -14 1407.51 160.666  10
   8   3  14 496.382 124.404   9
  -8  11 -14 271.023 148.344   7
  -3  -8 -14 264.518 158.731  10
  -3  11 -15 349.336 130.498   8
  -8  -3 -15 998.176 148.197   7
 -11   8 -15 25.2831 123.422   7
   3 -11 -15 777.387 167.599  10
  -8  -3 -15 611.022 133.270  10
  -3  -8 -15 483.078 144.624   7
  -3  -8 -15 312.251 144.975  10
   8 -11 -15-164.926 140.697  10
  -8  11 -15 255.141 143.126   7
  -3  11 -15 135.554 138.494   7
 -11   3 -15 439.723 132.162   7
  -3  11 -16-74.4560 121.990   7
 -11   8 -16 135.265 115.880   7
  -3  -8 -16 647.784 139.394   7
  11  -8 -16 505.948 133.142   7
  -3  -8 -16 91.5659 131.008  10
  -8  -3 -16 785.673 134.600   7
  -8  -3 -16 772.797 133.903  10
   8 -11 -16 42.8205 113.452  10
   3 -11 -16 432.049 137.184  10
 -11   3 -16 782.328 130.722   7
  -8  11 -16 24.2171 124.755   7
 -11   3 -17 1158.57 128.982   7
  11  -8 -17 658.976 117.570   7
 -11   8 -17 5.88838 109.115   7
  -8  11 -17 30.3642 94.5618   8
  -8  -3 -17 635.827 115.146   7
  -3  -8 -17 668.181 123.170   7
   3 -11 -17 143.414 111.068   7
   8 -11 -17-42.9477 98.2292   7
  -3  -8 -17 77.0042 110.351  10
  -8  11 -17 42.5133 118.251   7
   3 -11 -17 232.168 110.707  10
  -3  11 -17-38.8790 106.636   7
  -8  -3 -17 229.482 108.250  10
 -11   8 -18 55.1342 103.122   7
  -8  11 -18 74.2260 84.8040   8
 -11   3 -18 672.031 108.288   7
  -8  -3 -18 524.170 103.442   7
  -8  11 -18 74.3731 106.057   7
  -3  -8 -18 371.048 102.472   7
  11  -8 -18 534.939 93.5697   7
   8 -11 -18-8.31457 88.2512   7
   3 -11 -18 56.9322 93.9207   7
   3 -11 -18 176.313 89.4269  10
  -3  -8 -18 167.752 94.0427  10
  -9  11   0 55739.0 1305.74   3
  11  -2   0 54804.8 1179.28   5
 -11   9   0 52672.9 1427.23   3
 -11   2   0 50447.8 1457.03   3
  -9  -2   0 52462.2 1381.93   3
   2   9   0 52364.3 1240.52   2
   2   9   0 49526.6 1194.65   5
  11  -9   0 53624.6 1304.95   4
  -2  11   0 55668.2 1198.79   2
  -2  11   0 53402.2 1167.89   5
   9   2   0 52710.2 1248.78   5
  11  -9   1 41339.5 1113.01   4
 -11   2   1 40708.2 1276.93   3
  -9  11  -1 41649.0 1142.59   3
 -11   9  -1 42167.3 1326.18   3
  -9  -2   1 42568.8 1205.81   3
 -11   2  -1 39270.2 1332.89   3
  11  -9  -1 41651.9 1180.41   4
  -9  -2  -1 40790.4 1252.36   3
   2   9  -1 42227.6 1111.55   2
  -2  11  -1 44209.7 1062.45   2
   2   9   1 37115.6 1036.24   2
  -2  11   1 43880.9 1074.63   2
   2   9  -1 39748.7 1086.08   5
  11  -2  -1 42406.6 1036.68   5
   9 -11  -1 44281.9 1013.98   1
  -2  11  -1 40924.3 1038.96   5
   9   2  -1 35684.1 1043.22   5
  -2  11   1 42558.0 1032.17   5
  11  -9  -2 36352.7 1130.72   4
 -11   2   2 37448.9 1164.10   3
  -9  -2   2 40612.6 1151.53   3
 -11   9  -2 36441.1 1271.70   3
 -11   2  -2 34234.6 1273.99   3
  -9  -2  -2 38147.5 1259.06   3
   9   2  -2 37994.2 1096.17   5
   9 -11  -2 41576.3 1093.94   1
  -2  11   2 40085.7 1069.27   2
   9   2   2 38112.7 1002.76   2
   2   9   2 35341.1 1028.13   2
  -2  -9  -2 38850.3 938.816   3
  11  -9  -2 41053.6 977.751   1
  11  -9   2 38504.3 1051.48   4
  -9  11  -2 38577.5 1124.58   3
   2   9  -2 35451.4 1065.34   5
  11  -9  -3 31712.6 962.862   1
  11  -9  -3 29895.4 1052.22   4
  -9  -2  -3 28856.2 1146.75   3
  -9  -2   3 31058.9 989.783   3
 -11   9  -3 28209.8 1156.17   3
  -9  11  -3 31452.7 1037.39   3
 -11   2  -3 27132.5 1193.25   3
   9 -11  -3 32410.2 1072.12   1
  -2  -9  -3 29339.9 910.734   3
   9   2   3 30836.2 904.076   2
   2   9   3 29423.9 959.568   2
  11  -9   3 32639.0 941.373   4
  -2  11   3 33576.3 1008.68   2
  11  -9   4 25783.9 803.875   4
  -9  -2   4 25667.2 908.682   3
  11  -9  -4 24754.2 938.691   1
  -9  -2  -4 22304.2 1081.74   3
 -11   2  -4 19251.4 1064.52   3
  -9  11  -4 23010.9 910.516   3
   9   2   4 23121.3 799.577   2
   9 -11  -4 24398.1 1025.28   1
  -2  -9  -4 22594.0 849.311   3
  11  -9  -4 23229.8 949.803   4
 -11   9  -4 22652.8 1069.32   3
   2   9   4 20827.1 869.092   2
 -11   2  -5 10316.4 830.174   3
   9 -11  -5 11544.7 769.365   1
  -2  -9  -5 10874.1 653.322   3
   9   2   5 12147.0 623.031   2
  11  -9  -5 11463.6 694.927   4
  11  -9  -5 12866.9 746.184   1
 -11   9  -5 11148.9 796.237   3
   2   9   5 11633.3 695.034   2
  -9  -2  -5 11407.6 825.948   3
   9   2   6 17406.2 776.051   2
  -9  -2  -6 16326.2 1022.91   3
   9 -11  -6 16094.7 971.700   1
  -2  -9  -6 15278.4 814.524   3
 -11   2  -6 14105.7 1021.96   3
 -11   9  -6 15001.5 949.935   3
  11  -9  -6 16306.5 934.962   1
  11  -9  -6 16628.8 841.868   4
  11  -9  -7 15710.0 838.856   4
 -11   9  -7 15759.8 1019.55   3
   9 -11  -7 16067.6 995.076   1
   9   2   7 18022.1 819.165   2
  -9  -2  -7 14405.5 1025.12   3
 -11   2  -7 13533.0 1064.65   3
  -2  -9  -7 14963.5 844.271   3
  11  -9  -7 17822.0 1029.30   1
  11  -9  -8 5246.17 617.432   1
   9 -11  -8 4966.23 499.188   4
  -9  -2  -8 5020.02 691.128   3
 -11   2  -8 4261.58 653.046   3
  11  -9  -8 5231.84 508.833   4
   9 -11  -8 4794.65 617.555   1
 -11   9  -8 4579.67 616.295   3
 -11   9  -9 7030.20 759.288   3
   9 -11  -9 7842.03 765.648   1
  -9  -2  -9 6764.74 786.342   3
  11  -9  -9 7969.94 784.912   1
 -11   2  -9 6682.55 869.527   3
  11  -9 -10 6339.31 750.281   1
   2 -11 -10 4599.13 707.568   1
 -11   2 -10 5130.66 782.244   3
   9 -11 -10 6833.64 764.607   1
  -9  -2 -10 5810.51 790.180   3
  -9  11 -11 1031.74 146.731   7
 -11   9 -11 1686.73 154.414   7
   9   2  11 1717.55 151.776   9
  -9  -2 -11 1912.33 163.094  10
  -2  -9 -11 1893.31 203.124  10
 -11   2 -11 1097.29 139.284  10
   2 -11 -11 1171.39 201.140  10
  11  -2  11 1453.43 116.496   9
  -2  11 -12 842.429 164.334   7
 -11   2 -12 587.307 134.886   7
   2   9  12 524.458 131.598   9
  -2  -9 -12 985.556 184.095  10
 -11   9 -12 543.008 128.540   7
  -9  -2 -12 816.622 137.854  10
   9   2  12 922.320 124.044   9
   2 -11 -12 412.620 177.338  10
 -11   2 -12 496.801 128.762  10
  -9  11 -12 487.027 135.750   7
  -9  11 -13 1724.30 186.186   7
 -11   9 -13 2732.44 186.233   7
 -11   2 -13 2349.26 180.009   7
   9 -11 -13 1903.82 228.866  10
 -11   2 -13 2762.38 181.212  10
  -9  -2 -13 1967.43 172.467  10
  -2  11 -13 2958.02 208.112   7
  -2  -9 -13 2028.47 203.760  10
   9   2  13 2471.66 157.382   9
  -9  -2 -14 1147.37 160.287   7
  -9  11 -14 269.263 148.859   7
 -11   9 -14 965.756 153.313   7
 -11   2 -14 947.302 150.937   7
 -11   2 -14 640.590 150.072  10
   2 -11 -14 614.602 175.344  10
   9 -11 -14 1162.56 205.925  10
   9   2  14 1236.40 146.398   9
  -2  11 -14 886.680 170.541   7
  -9  -2 -14 803.909 150.309  10
 -11   2 -15 93.7060 115.409   7
  -9  11 -15-130.185 138.472   7
  -9  -2 -15 348.136 129.592   7
  -2  -9 -15 120.054 135.633   7
   9 -11 -15 850.620 159.852  10
  -9  -2 -15 267.619 128.257  10
  -2  11 -15 8.04844 128.464   7
   2 -11 -15-38.1066 135.135  10
 -11   9 -15 135.484 123.372   7
 -11   2 -15 3.70943 122.195  10
  -2  -9 -15 963.835 149.281  10
  -9  -2 -16 618.230 121.656   7
   2 -11 -16-154.946 125.281  10
  -2  -9 -16 351.926 126.106   7
   2 -11 -16-4.32806 113.959   7
  -9  11 -16-194.177 125.334   7
  -2  -9 -16 697.001 130.356  10
  11  -9 -16-119.792 113.761   7
 -11   2 -16 269.308 113.526   7
  -2  11 -16 199.828 124.685   7
 -11   9 -16 15.9066 114.877   7
  -9  -2 -16 143.457 113.365  10
  -9  11 -17-175.465 124.743   7
 -11   2 -17 348.747 107.410   7
   2 -11 -17-23.2766 102.683   7
  11  -9 -17-74.4040 98.3913   7
   2 -11 -17-21.6986 102.368  10
  -2  -9 -17 185.346 104.995  10
   9 -11 -17-156.369 100.243   7
 -11   9 -17-115.949 118.912   7
  -2  11 -17 302.493 109.363   7
  -2  -9 -17 269.857 111.747   7
  -9  11 -17-219.905 103.141   8
 -11   9 -18 172.358 106.516   7
   9 -11 -18 21.6958 83.0747   7
  -9  -2 -18 564.077 99.1686   7
 -11   2 -18 347.889 94.6422   7
  -2  -9 -18 252.264 95.7440   7
  11  -9 -18-162.652 84.8112   7
   2 -11 -18-24.7573 89.0848   7
  -2  -9 -18 91.5622 85.3994  10
  -9  11 -18-184.897 110.624   7
  -9  11 -18-251.922 89.5642   8
   2 -11 -18-112.263 87.7290  10
 -10  11   0 21080.5 852.996   3
 -11  10   0 19582.0 885.944   3
 -11   1   0 18882.1 913.449   3
 -10  -1   0 19858.2 885.919   3
  11  -1   0 19212.5 743.909   5
  -1  11   0 18361.9 735.475   5
  10   1   0 16706.4 722.149   5
  -1  11   0 20444.3 763.406   2
   1  10   0 19170.3 777.923   2
   1  10   0 17963.8 763.010   5
  11 -10  -1 18099.0 572.819   1
 -10  11  -1 17328.5 791.453   3
 -11   1   1 16595.1 832.481   3
 -11  10  -1 16887.0 844.523   3
 -10  -1   1 16947.4 801.865   3
 -11   1  -1 15019.2 840.027   3
 -10  -1  -1 16258.5 832.747   3
   1  10  -1 17282.1 730.795   2
  -1  11   1 16484.5 707.203   2
   1  10   1 15694.0 704.198   2
  -1  11   1 16859.3 692.389   5
  11  -1  -1 17038.8 700.244   5
  10   1  -1 17033.6 727.070   5
  -1  11  -1 18131.0 714.613   2
  -1  11  -1 16307.9 706.241   5
   1  10  -1 16602.1 734.456   5
 -11   1   2 5243.45 482.876   3
 -10  -1   2 5176.30 470.746   3
 -11  10  -2 4407.55 491.195   3
 -10  11  -2 5129.21 483.833   3
 -11   1  -2 4567.68 504.589   3
   1  10  -2 4896.51 440.937   5
  10 -11  -2 5282.31 398.393   1
   1  10   2 4991.65 444.347   2
 -10  -1  -2 4037.20 479.838   3
  10   1  -2 5511.61 442.780   5
  11 -10  -2 4993.54 364.066   1
  -1  11   2 6003.97 457.899   2
 -10  -1  -3 19008.5 969.318   3
 -11   1   3 19407.2 861.706   3
 -10  -1   3 19177.7 818.026   3
 -11  10  -3 18445.2 911.601   3
 -10  11  -3 18969.0 872.619   3
 -11   1  -3 16825.4 963.435   3
   1  10   3 19684.4 805.619   2
  -1  11   3 19346.4 815.248   2
  10   1   3 17730.1 689.152   2
  11 -10  -3 19632.0 783.179   1
  11 -10   3 19772.8 751.524   4
  10 -11  -3 21082.2 830.238   1
  -1 -10  -4 7093.02 490.710   3
 -11  10  -4 6207.23 592.029   3
 -11   1  -4 5090.85 581.315   3
  -1  11   4 7211.56 530.531   2
 -10  11  -4 5628.59 513.159   3
   1  10   4 6562.41 513.570   2
  11 -10  -4 6506.05 511.862   1
  10   1   4 6985.19 459.694   2
 -10  -1   4 5957.92 482.495   3
  11 -10   4 7303.78 456.136   4
 -10  -1  -4 5579.30 588.387   3
  10 -11  -4 6440.86 539.002   1
  11 -10  -4 6056.44 520.453   4
 -10  11  -5 492.649 268.033   3
 -11   1  -5 132.201 285.149   3
  10   1   5 829.330 238.770   2
  10 -11  -5 472.184 248.793   1
   1  10   5 425.625 265.229   2
 -11  10  -5 324.219 262.136   3
 -10  -1  -5 667.938 338.506   3
  11 -10  -5 519.550 254.057   4
  11 -10  -5 454.656 238.633   1
 -10  -1  -6 2254.62 459.460   3
  11 -10  -6 2844.75 406.204   4
  10   1   6 3378.78 374.642   2
  10 -11  -6 3046.67 470.331   1
  10 -11  -6 2780.19 398.240   4
 -11  10  -6 2466.94 444.267   3
  11 -10  -6 3436.44 472.070   1
 -11   1  -6 1746.87 446.406   3
  11 -10  -7 3644.62 447.478   4
 -11  10  -7 2806.57 476.628   3
 -11   1  -7 2500.36 541.251   3
  10 -11  -7 3399.80 500.760   1
  10 -11  -7 3355.98 423.615   4
 -10  -1  -7 3079.43 558.149   3
  11 -10  -7 3649.46 522.902   1
  11 -10  -8 2843.30 413.509   4
 -11   1  -8 2230.64 536.664   3
 -10  -1  -8 2391.09 537.838   3
  11 -10  -8 3102.11 514.262   1
  10 -11  -8 2894.14 414.587   4
  10 -11  -8 3016.64 514.645   1
 -11   1  -9 1176.25 502.163   3
 -10  -1  -9 1034.26 479.299   3
  11 -10  -9 1384.90 414.498   1
  10 -11  -9 1643.92 436.413   1
 -11   1 -10 965.603 466.455   3
 -10  -1 -10 714.420 359.289   3
   1 -11 -10 411.157 324.306   1
  11 -10 -10 1000.13 350.750   1
  10 -11 -10 783.940 353.765   1
 -11  10 -11 2366.86 168.664   7
  -1 -10 -11 2776.47 216.759  10
  11  -1  11 2355.71 142.020   9
 -11   1 -11 2438.44 163.050  10
 -10  -1 -11 2830.80 174.255  10
 -10  11 -11 1793.58 158.811   7
   1 -11 -11 2148.95 215.627  10
  10   1  11 2749.55 159.261   9
 -11  10 -12 1270.09 152.027   7
   1 -11 -12 1545.24 217.076  10
  10   1  12 1418.35 141.271   9
  11  -1  12 1270.50 126.947   9
 -10  -1 -12 1063.02 144.052  10
   1  10  12 899.606 140.393   9
  -1 -10 -12 1326.32 195.405  10
 -10  11 -12 756.142 142.761   7
 -11   1 -12 1162.72 149.693  10
 -10  11 -13-19.0292 132.041   7
 -11   1 -13 138.486 119.528   7
  -1 -10 -13 562.221 161.673  10
  10 -11 -13 414.264 174.995  10
 -10  -1 -13 502.426 131.644  10
 -11  10 -13 62.1776 118.637   7
   1 -11 -13-8.87740 159.359  10
  10   1  13 451.808 111.055   9
 -11   1 -13 500.279 126.824  10
 -10  -1 -14 981.162 152.055   7
 -11  10 -14 141.118 129.712   7
 -11   1 -14 472.424 142.635   7
 -10  -1 -14 1510.08 169.329  10
 -11   1 -14 255.984 127.403  10
   1 -11 -14 919.034 185.384  10
  -1 -10 -14 366.021 162.996  10
 -10  11 -14-86.4468 147.445   7
 -11  10 -15-64.0868 119.593   7
 -10  -1 -15 661.778 129.894   7
  -1 -10 -15 251.910 130.355   7
 -10  -1 -15 440.300 119.284  10
  -1 -10 -15 132.227 127.219  10
 -11   1 -15-22.1510 115.044  10
   1 -11 -15 981.290 155.604  10
 -11   1 -15 287.797 118.046   7
 -11  10 -16-181.916 114.869   7
 -11   1 -16 478.140 114.770   7
 -10  -1 -16 603.376 118.466   7
  -1 -10 -16 43.0491 113.205   7
   1 -11 -16 35.6869 112.321   7
   1 -11 -16 49.1840 110.976  10
  -1 -10 -16 190.409 112.344  10
 -10  11 -16-51.1040 115.780   7
 -10  -1 -16 98.8727 107.303  10
   1 -11 -17 106.027 102.185  10
 -11  10 -17-124.464 116.084   7
 -11   1 -17 620.340 110.569   7
 -10  -1 -17 628.497 107.364   7
  -1 -10 -17-177.977 106.730   7
   1 -11 -17-105.311 108.598   7
  11 -10 -17-58.3366 97.6260   7
  10 -11 -17-64.1474 95.8527   7
  -1 -10 -17 64.8403 100.877  10
 -10  11 -17-260.437 128.851   7
 -11  10 -18-102.205 105.099   7
  -1 -10 -18 1.13117 87.3562   7
   1 -11 -18 2.93318 85.9261   7
  11 -10 -18-26.9207 76.6528   7
  10 -11 -18-162.097 85.2047   7
 -10  11 -18-132.334 107.525   7
 -11  10 -18-51.9856 89.0592   8
 -10  11 -18-100.869 86.1102   8
   1 -11 -18 2.86445 81.3845  10
  -1 -10 -18 170.637 84.8002  10
 -11  11   0 207886. 3032.68   3
 -11   0   0 191767. 3082.15   3
   0  11   0 204767. 2689.90   2
  11   0   0 200470. 2678.29   5
   0  11   0 196152. 2641.96   5
 -11  11  -1 110098. 2174.17   3
 -11   0   1 104489. 2116.50   3
 -11   0  -1 100417. 2186.12   3
   0  11  -1 110612. 1936.25   5
   0  11   1 104424. 1848.74   2
  11   0  -1 113106. 1933.32   5
   0  11  -1 108839. 1879.21   2
   0  11   1 100541. 1818.75   5
 -11   0  -2 164091. 2929.59   3
  11   0  -2 166917. 2466.82   5
   0  11   2 169546. 2484.46   2
  11 -11  -2 164533. 2239.80   1
 -11   0   3 121516. 2241.69   3
   0  11   3 123340. 2149.68   2
 -11  11  -3 124699. 2381.90   3
 -11   0   4 80130.5 1790.20   3
 -11  11  -4 77700.2 1926.63   3
  11 -11  -4 82653.6 1808.27   1
  11   0   4 74485.0 1412.99   2
   0  11   4 77887.6 1741.13   2
   0  11   5 88384.6 1942.06   2
  11 -11  -5 83043.6 1943.85   4
 -11  11  -5 88167.3 2113.26   3
  11 -11  -5 94146.5 2116.00   1
 -11   0  -5 79793.3 2285.56   3
 -11  11  -6 76116.7 2057.09   3
  11 -11  -6 74851.8 1866.14   4
 -11   0  -6 69878.4 2287.43   3
  11 -11  -7 35880.8 1326.14   4
 -11   0  -7 34063.1 1656.85   3
  11 -11  -8 38965.4 1400.97   4
 -11   0  -8 38460.9 1865.66   3
  11 -11  -9 25514.5 1446.36   1
 -11   0  -9 23756.4 1558.87   3
 -11   0 -10 4896.94 779.882   3
  11 -11 -10 7244.61 807.238   1
 -11  11 -11 8996.75 274.093   7
  11   0  11 9346.34 250.835   9
 -11   0 -11 9621.31 274.569  10
 -11  11 -12 10215.5 297.063   7
 -11   0 -12 9672.83 289.035  10
  11   0  12 9900.59 252.956   9
 -11  11 -13 2286.77 180.096   7
   0 -11 -13 2044.55 199.830  10
 -11   0 -13 2454.90 173.782  10
  11   0  13 2506.20 146.780   9
 -11  11 -14 4242.53 225.889   7
 -11   0 -14 4346.37 212.761  10
   0 -11 -15 343.049 133.135  10
 -11  11 -15 717.863 138.387   7
   0 -11 -15 381.359 132.028   7
 -11   0 -15 505.867 127.141  10
   0 -11 -16 129.842 117.656   7
 -11  11 -16 90.6593 113.635   7
   0 -11 -16 42.4261 110.301  10
   0 -11 -17 143.668 104.190   7
  11 -11 -17 33.0636 89.7671   7
   0 -11 -17 71.8060 95.9766  10
 -11  11 -17 120.022 115.565   7
   0 -11 -18 117.009 85.0122   7
  11 -11 -18 42.5758 76.0058   7
   0 -11 -18-21.7051 77.7061  10
 -11  11 -18 88.3613 83.6182   8
   6   6   0 45.3525 123.084   5
  12  -6   0 208.328 146.936   4
  -6  -6   0 287.162 168.741   3
  -6  12   0 612.620 171.210   2
 -12   6   0 136.276 178.733   3
 -12   6   1 2055.48 323.458   3
 -12   6  -1 1847.81 350.219   3
   6   6  -1 2210.19 283.779   5
  -6  -6   1 2711.72 274.743   3
  -6  12   1 2595.72 269.958   2
  -6  -6  -1 2810.61 329.728   3
  -6  12  -1 2577.07 255.380   2
   6   6   1 2032.01 275.249   2
  12  -6  -1 2034.87 286.448   4
 -12   6  -2 16367.6 935.538   3
  -6  -6  -2 19152.2 820.386   3
  12  -6  -2 16755.9 745.625   4
   6   6  -2 16826.7 748.532   5
   6   6   2 16092.2 693.251   2
  12  -6  -3 538.947 197.080   4
 -12   6  -3 474.448 249.641   3
  -6  -6  -3 766.155 245.960   3
   6   6   3 686.726 210.721   2
 -12   6  -4 12378.5 877.255   3
  -6  -6  -4 12699.2 739.386   3
   6   6   4 12313.5 645.835   2
   6   6   5 4454.76 429.925   2
 -12   6  -5 3941.63 545.999   3
  -6  -6  -5 4229.23 514.364   3
  -6  -6  -6-133.873 224.054   3
   6   6   6 216.012 213.663   2
 -12   6  -6-263.155 283.432   3
 -12   6  -7 589.859 345.442   3
  -6  -6  -7 679.657 286.633   3
   6 -12  -7 781.554 302.391   1
   6   6   7 1016.24 296.155   2
  -6  -6  -8 472.758 274.024   3
   6 -12  -8 487.708 278.196   1
   6   6   8 572.515 265.893   2
 -12   6  -8 385.673 321.333   3
 -12   6  -9-28.3246 341.663   3
  -6  -6  -9-37.2752 275.691   3
   6 -12  -9-58.5379 237.284   1
   6   6   9 194.236 264.293   2
  -6  -6 -10 113.477 280.178   3
 -12   6 -10-125.753 408.839   3
   6   6  10 155.437 289.678   2
   6 -12 -10-224.827 288.557   1
  -6  12 -11 38.8178 123.593   7
 -12   6 -11 31.4069 109.451   7
   6   6  11 102.783 111.600   9
  -6  -6 -11 140.836 123.496  10
  -6  12 -12 128.410 142.026   7
 -12   6 -12 123.640 119.995   7
   6   6  12-274.910 130.599   9
 -12   6 -13 300.851 124.370   7
  -6  -6 -13-73.8416 146.676   7
  -6  -6 -13-255.228 150.183  10
   6   6  13 73.0778 125.641   9
  -6  12 -13 489.385 154.190   7
   6 -12 -13-220.235 182.001  10
  -6  -6 -14 250.314 130.757   7
   6 -12 -14-11.6000 154.543  10
  -6  12 -14 14.3479 138.323   7
  -6  -6 -14-54.2537 122.159  10
 -12   6 -14 86.5085 116.291   7
  -6  -6 -15 367.369 125.038   7
  -6  -6 -15 138.983 114.761  10
   6 -12 -15 12.7271 132.755  10
 -12   6 -15 363.986 118.525   7
  -6  12 -15 263.741 140.038   7
  -6  -6 -16-147.648 116.585  10
   6 -12 -16-245.748 130.983  10
  -6  12 -16 1.71484 106.213   8
  -6  12 -16-86.8633 125.109   7
 -12   6 -16 123.847 114.507   7
  -6  12 -17-164.312 117.005   7
 -12   6 -17 138.780 106.712   7
  -6  -6 -17 343.199 103.126   7
   6 -12 -17-37.6884 95.7447   7
  -6  -6 -17 111.808 99.6467  10
  -6  12 -17-30.9137 92.4947   8
  -6  12 -18-58.7606 71.8580   8
 -12   6 -18 135.352 91.6692   7
  -6  -6 -18 259.025 89.4015   7
   6 -12 -18 27.8506 82.5297   7
  -6  -6 -18 110.189 83.8561  10
   6 -12 -18-130.331 75.4606  10
  -7  12   0 3490.04 304.738   3
 -12   7   0 3062.53 404.976   3
 -12   5   0 2784.73 391.716   3
  -7  -5   0 3850.50 369.542   3
   7   5   0 3215.38 332.061   5
   5   7   0 3094.99 335.007   2
  -5  12   0 3253.14 260.415   5
  -5  12   0 3926.77 321.123   2
  -7  12   0 3405.77 276.917   2
  12  -7   0 3550.74 354.388   4
  12  -5   0 3402.92 252.201   5
   5   7   0 2980.23 318.319   5
  12  -7  -1 6802.17 479.663   4
  -5  12   1 7849.06 447.452   2
 -12   7   1 6847.02 546.603   3
 -12   5   1 6924.72 550.504   3
 -12   7  -1 6611.96 583.704   3
 -12   5  -1 6843.78 594.309   3
  -7  -5   1 7794.31 487.218   3
  -7  -5  -1 7452.83 510.556   3
  -7  12   1 8300.78 428.337   2
  -5  -7  -1 7791.57 466.262   3
  -5  12   1 7223.82 381.316   5
   7   5   1 6425.76 446.985   2
  -5  12  -1 7973.03 436.260   2
  12  -7   1 7274.07 472.470   4
   5   7   1 6483.64 462.155   2
  12  -5   1 4394.66 311.658   5
   5   7  -1 6545.22 472.463   5
   7   5  -1 6750.37 478.595   5
   5   7  -2 38.9803 147.434   5
  -7  -5  -2-97.4396 202.259   3
  -5  -7  -2 238.665 173.226   3
  12  -7  -2 97.4496 154.599   4
  12  -7   2 106.064 148.388   4
   7   5  -2 55.3285 155.410   5
 -12   5  -2-10.1728 192.258   3
   7   5   2 150.325 159.108   2
   5   7   2 61.0559 163.180   2
  -5  12   2 135.257 166.241   2
 -12   7  -2-77.5210 230.234   3
  -7  -5   2 126.763 131.692   3
 -12   5  -3 2956.03 446.827   3
 -12   7  -3 3177.11 453.762   3
   5   7   3 3528.32 359.527   2
  -7  -5  -3 3598.72 428.123   3
  -5  -7  -3 3679.83 394.231   3
   7   5   3 3014.41 342.022   2
  12  -7  -3 3556.12 380.616   4
   7   5   4 1620.67 282.027   2
  -7  -5  -4 1385.19 328.552   3
 -12   5  -4 1625.08 373.628   3
  12  -7  -4 1698.60 296.017   4
  -5  -7  -4 2101.93 355.658   3
 -12   7  -4 1353.59 357.624   3
   5   7   4 1637.01 285.827   2
 -12   7  -5 2616.27 468.803   3
   7   5   5 3358.55 380.158   2
  -5  -7  -5 3292.00 422.047   3
  12  -7  -5 2971.10 375.552   4
  -7  -5  -5 3211.13 443.351   3
   5   7   5 3302.96 379.994   2
 -12   5  -5 3177.03 497.162   3
 -12   7  -6 186.503 257.908   3
 -12   5  -6-177.574 266.163   3
  -7  -5  -6-34.6266 231.210   3
  -5  -7  -6-42.6659 191.268   3
  12  -7  -6-12.5487 166.616   1
   5   7   6-23.9227 180.083   2
   7   5   6 67.2774 199.649   2
   7 -12  -6 39.2584 202.831   1
  -7  -5  -7-183.053 264.506   3
  -5  -7  -7 78.0070 247.171   3
 -12   7  -7-36.9852 302.626   3
   7 -12  -7 211.263 235.768   1
  12  -7  -7 129.837 188.309   1
   5   7   7 53.3297 212.177   2
 -12   5  -7-249.915 302.841   3
   7   5   7 65.3813 211.340   2
  -7  -5  -8 740.185 296.730   3
  -5  -7  -8 546.545 281.582   3
   7 -12  -8 746.799 306.813   1
   7   5   8 1020.06 287.798   2
  12  -7  -8 607.077 284.907   1
   5 -12  -8 668.408 288.105   1
 -12   5  -8 1289.49 440.664   3
   5   7   8 726.676 283.959   2
 -12   7  -8 384.061 306.052   3
 -12   5  -9 369.323 414.430   3
  -7  -5  -9 163.502 264.349   3
  -5  -7  -9 445.918 284.725   3
   5 -12  -9 459.437 292.604   1
 -12   7  -9 145.738 295.909   3
   7   5   9 315.904 283.603   2
   5   7   9 333.149 292.698   2
   7 -12  -9 548.212 290.400   1
  12  -7  -9 359.585 270.500   1
   7 -12 -10-107.412 254.079   1
 -12   5 -10-479.781 471.690   3
 -12   7 -10-170.363 358.930   3
  -5  -7 -10 175.614 305.449   3
   5 -12 -10-301.592 271.273   1
   5   7  10 356.388 370.155   2
   7   5  10 383.913 289.391   2
  -7  -5 -10-350.401 297.790   3
  -5  12 -11 991.376 151.704   7
 -12   7 -11 929.484 132.814   7
  -7  12 -11 1028.94 146.915   7
 -12   5 -11 891.942 130.042   7
 -12   5 -11 761.784 126.044  10
  -7  -5 -11 1054.80 144.627  10
  -5  -7 -11 1014.62 152.515  10
   5   7  11 1431.32 145.746   9
   7   5  11 1299.73 137.782   9
  -5  12 -12 250.818 143.437   7
  -7  12 -12 94.4510 137.487   7
 -12   7 -12 6.99630 121.403   7
 -12   5 -12 41.1978 116.915   7
   7   5  12 251.516 115.393   9
  -7  -5 -12 405.488 134.224  10
 -12   5 -12-43.8057 118.984  10
  -5  -7 -12 189.617 134.683  10
   5 -12 -12 484.835 181.061  10
   5   7  12 65.9053 121.172   9
 -12   7 -13 321.755 119.575   7
 -12   5 -13 260.834 122.017   7
  -5  -7 -13 212.063 131.581   7
  -5  -7 -13 256.554 141.197  10
  -7  12 -13 362.004 142.526   7
  -7  -5 -13 364.572 134.641  10
   7 -12 -13-152.001 178.842  10
   5 -12 -13 249.277 164.550  10
   5   7  13 197.817 119.447   9
  -5  12 -13 278.371 143.973   7
   7   5  13 280.803 117.644   9
  -7  -5 -14 238.017 120.353  10
  -7  12 -14 84.5147 136.447   7
  -5  12 -14 74.5801 135.889   7
 -12   5 -14 242.919 119.425   7
  -5  -7 -14 118.541 128.925   7
  -7  -5 -14 308.202 122.794   7
 -12   7 -14 145.387 119.523   7
  -5  -7 -14 203.345 128.294  10
   5 -12 -14-22.2470 153.723  10
   7 -12 -14 54.2688 152.672  10
  -5  12 -15 151.754 113.821   8
 -12   5 -15 87.1230 108.767   7
  -7  12 -15 56.6223 128.249   7
  -7  -5 -15 330.111 121.864   7
  -5  -7 -15 286.833 125.704   7
   7 -12 -15-24.8848 134.058  10
  -5  -7 -15-119.342 114.688  10
  -7  -5 -15 15.0245 105.121  10
   5 -12 -15 67.7767 131.096  10
  -5  12 -15 90.7887 126.814   7
 -12   7 -15 36.6602 108.994   7
  -5  12 -16-31.5995 104.498   8
  -5  12 -16-97.1980 126.811   7
 -12   7 -16-23.5714 108.382   7
 -12   5 -16 302.540 114.096   7
  -7  -5 -16 435.240 118.219   7
  -5  -7 -16 344.218 119.631   7
  -7  -5 -16 122.261 102.103  10
  -5  -7 -16 50.9144 108.146  10
  -7  12 -16-29.5678 102.413   8
   7 -12 -16-153.536 120.873  10
   5 -12 -16-15.8190 121.279  10
  -7  12 -16 15.4526 120.254   7
  -5  -7 -17 200.830 102.763  10
  -7  12 -17-91.3390 115.804   7
   5 -12 -17-45.0589 97.8084   7
 -12   7 -17-50.5403 101.932   7
 -12   5 -17 561.783 112.597   7
  -5  -7 -17 337.474 104.335   7
  -7  -5 -17 367.270 103.077   7
   7 -12 -17-106.588 97.5520   7
  -7  12 -17-49.1673 92.2288   8
  -7  -5 -17 135.710 96.0793  10
   5 -12 -17-147.154 103.213  10
   7 -12 -17-12.4303 92.5261  10
  -5  12 -17-109.425 89.5993   8
  -5  12 -17 7.77600 107.413   7
 -12   5 -18 255.676 93.2379   7
  -7  -5 -18 186.545 87.2896   7
  -5  -7 -18 127.173 85.5423   7
   5 -12 -18-106.977 86.9939   7
   7 -12 -18-76.4473 82.8391   7
  -5  -7 -18 142.372 85.4954  10
   5 -12 -18 155.216 78.4665  10
  -7  12 -18-68.8118 74.0200   8
 -12   7 -18 56.3042 91.9791   7
  12  -8   0 20798.8 814.998   4
  -8  12   0 21450.9 769.646   3
 -12   8   0 19938.0 957.494   3
 -12   4   0 20471.6 987.022   3
  -8  -4   0 21323.9 855.639   3
   4   8   0 20271.0 784.762   2
  -4  12   0 23120.1 722.857   5
  -4  12   0 22371.3 742.592   2
   4   8   0 18468.8 780.185   5
  12  -4   0 21861.4 681.775   5
   8   4   0 20750.1 803.112   5
  12  -8  -1 2671.79 339.327   4
  12  -8   1 2567.77 308.499   4
 -12   8   1 2428.12 356.607   3
 -12   4   1 2335.89 350.939   3
  -8  12  -1 2668.58 301.510   3
 -12   8  -1 2388.50 386.654   3
 -12   4  -1 2513.33 388.186   3
  -8  -4   1 2820.96 318.339   3
   8   4   1 2183.17 290.915   2
  -4  12   1 2591.71 297.592   2
  -8  -4  -1 2499.95 346.324   3
  -8  12   1 2564.37 259.099   2
   4   8   1 2092.66 289.065   2
  12  -4   1 2792.26 269.477   5
  -4  12  -1 2940.28 297.442   2
  -4  12   1 3268.36 304.655   5
   4   8  -1 2117.45 296.320   5
   8   4  -1 2365.32 302.466   5
  12  -8  -2 14230.7 715.215   4
  12  -8   2 14800.2 656.488   4
 -12   4   2 13649.5 746.092   3
  -8  -4   2 15377.8 691.236   3
 -12   8  -2 13751.8 849.325   3
 -12   4  -2 12442.3 825.512   3
  -4  12   2 15110.3 662.367   2
  -8  -4  -2 13894.7 768.640   3
   8   4   2 14539.4 662.910   2
  -4  -8  -2 14908.7 676.029   3
   4   8  -2 12463.7 662.955   5
   4   8   2 12705.6 622.455   2
   8   4  -2 13662.1 680.857   5
  12  -8   3 2630.28 297.538   4
  12  -8  -3 2099.68 317.255   4
  -8  -4   3 2369.37 308.589   3
   8 -12  -3 2120.96 339.070   1
   8   4   3 1740.66 279.892   2
 -12   8  -3 1590.02 361.927   3
  -4  -8  -3 2112.33 311.571   3
  -8  -4  -3 2493.99 384.899   3
 -12   4  -3 1611.74 361.046   3
   4   8   3 1485.86 269.066   2
  12  -8  -4 98.8254 192.188   4
  12  -8   4 64.1290 161.341   4
  -4  -8  -4 395.077 225.866   3
  -8  -4  -4 254.158 268.545   3
  12  -8  -4 1.14876 153.848   1
   8 -12  -4 144.581 210.550   1
  -8  -4   4 253.327 170.389   3
 -12   8  -4-45.3645 253.888   3
   4   8   4 246.799 216.437   2
 -12   4  -4 197.960 252.873   3
   8   4   4 120.093 190.307   2
  12  -8  -5 729.983 241.499   4
  -4  -8  -5 729.497 259.761   3
  12  -8  -5 744.604 217.712   1
   4   8   5 999.086 260.614   2
   8 -12  -5 938.382 300.082   1
   8   4   5 806.070 260.089   2
  -8  -4  -5 708.845 300.234   3
 -12   8  -5 805.587 320.257   3
 -12   4  -5 710.748 328.902   3
 -12   4  -6 592.146 303.777   3
  -8  -4  -6 354.622 243.504   3
  12  -8  -6 530.321 228.538   4
  -4  -8  -6 382.719 220.423   3
   8 -12  -6 230.492 209.475   1
   8   4   6 519.076 223.911   2
 -12   8  -6 431.404 282.284   3
   4   8   6 532.931 240.031   2
  12  -8  -6 489.748 221.293   1
  -8  -4  -7 902.100 342.090   3
  12  -8  -7 501.247 226.724   4
  -4  -8  -7 480.303 258.866   3
 -12   4  -7 781.625 365.766   3
  12  -8  -7 736.536 273.508   1
   8 -12  -7 480.015 272.768   1
   8   4   7 623.144 264.397   2
   4   8   7 678.140 293.260   2
 -12   8  -7 422.196 341.409   3
  -8  -4  -8 402.239 298.056   3
  -4  -8  -8 403.576 273.920   3
 -12   8  -8 554.778 337.168   3
  12  -8  -8 787.413 300.352   1
   4   8   8 576.054 339.776   2
   8   4   8 556.445 240.084   2
   8 -12  -8 587.223 276.936   1
 -12   4  -8 563.045 333.380   3
 -12   4  -9 421.235 366.567   3
 -12   8  -9 241.323 328.861   3
  -8  -4  -9-113.374 354.124   3
  -4  -8  -9-1.00192 235.940   3
   4   8   9 489.449 384.861   2
   8 -12  -9 25.8839 245.487   1
   4 -12  -9 243.311 283.829   1
   8   4   9 378.817 276.169   2
  12  -8  -9 298.071 235.643   1
 -12   4 -10-203.431 437.317   3
 -12   8 -10 119.404 333.074   3
   8 -12 -10 276.797 286.041   1
  -8  -4 -10-56.4323 303.709   3
   4   8  10-53.9806 430.859   2
   4 -12 -10 357.620 314.995   1
  12  -8 -10 362.572 299.000   1
  -8  12 -11 185.432 123.702   7
 -12   8 -11-9.16350 113.708   7
 -12   4 -11 262.122 125.264   7
 -12   4 -11 291.807 115.598  10
  -8  -4 -11 177.009 129.467  10
   4   8  11 348.511 128.659   9
  -4  -8 -11 642.985 156.840  10
   8   4  11 454.375 130.381   9
  -4  12 -11 337.172 143.827   7
  -8  12 -12 95.1762 130.449   7
 -12   8 -12 90.5008 117.398   7
 -12   4 -12 606.693 140.475   7
   4 -12 -12 61.9052 169.198  10
  -4  -8 -12 939.299 168.660  10
 -12   4 -12 413.938 128.708  10
  -8  -4 -12 444.939 139.011  10
   4   8  12 486.406 135.467   9
  -4  12 -12 280.554 147.943   7
   8   4  12 439.053 125.318   9
  -4  12 -13 482.679 154.721   7
  -8  12 -13 370.463 146.293   7
 -12   4 -13 485.943 132.771   7
  -4  -8 -13 490.189 142.696   7
  -8  -4 -13 635.816 138.600  10
   8   4  13 733.033 127.440   9
   4 -12 -13 17.0909 167.746  10
  -4  -8 -13 511.209 145.598  10
   8 -12 -13 264.016 172.692  10
 -12   4 -13 498.043 138.482  10
 -12   8 -13 231.178 125.831   7
   4   8  13 494.474 128.971   9
  -4  12 -14 157.911 139.342   7
  -4  12 -14 151.163 130.661   8
  -8  12 -14-15.3935 133.270   7
 -12   8 -14 222.288 121.543   7
  -4  -8 -14 238.143 135.795   7
   4 -12 -14 7.80190 156.284  10
  -8  -4 -14 289.898 121.201  10
  -4  -8 -14 450.536 137.930  10
   8 -12 -14 209.021 158.740  10
   8   4  14 238.203 114.553   9
 -12   4 -14 397.105 129.431   7
  -4  12 -15 96.3997 114.905   8
 -12   8 -15 130.280 114.175   7
 -12   4 -15 375.751 120.529   7
  -8  -4 -15 369.211 120.553   7
  -4  -8 -15 338.896 127.912   7
  -8  -4 -15 16.3058 103.917  10
  -4  -8 -15 293.427 118.086  10
   4 -12 -15-0.26945 132.807  10
   8 -12 -15 11.1544 131.817  10
  -4  12 -15-39.5434 130.026   7
  -8  12 -15 36.1269 126.925   7
  -4  12 -16-24.7365 117.308   7
  -8  12 -16-164.106 123.696   7
 -12   8 -16-44.1496 109.764   7
  -8  -4 -16 410.015 112.712   7
  -4  -8 -16 303.165 117.048   7
  12  -8 -16 78.8180 102.996   7
  -4  12 -16 48.6181 101.351   8
   8 -12 -16 118.791 114.187  10
 -12   4 -16 144.189 107.484   7
  -8  -4 -16 59.0509 103.577  10
  -4  -8 -16 168.813 107.095  10
  -8  12 -16 25.9374 105.783   8
   4 -12 -16-55.3928 113.492  10
 -12   4 -17 311.531 105.916   7
  -8  12 -17-24.0033 111.801   7
 -12   8 -17 133.183 107.131   7
  -8  -4 -17 552.818 106.314   7
  -4  -8 -17 509.896 110.996   7
  12  -8 -17 228.571 93.7025   7
   4 -12 -17-54.2900 100.547   7
  -8  -4 -17 101.869 100.377  10
  -4  -8 -17 92.5408 98.7917  10
  -8  12 -17 3.33126 90.6708   8
   8 -12 -17-12.8929 93.8893   7
   4 -12 -17 22.8053 99.1036  10
  -4  12 -17-88.4045 103.442   7
 -12   8 -18 189.034 99.3227   7
  -4  -8 -18 151.053 87.4745   7
   4 -12 -18-70.7999 87.1213   7
   8 -12 -18-28.7761 81.3874   7
 -12   4 -18 65.3052 89.2279   7
  -8  12 -18 179.997 80.6161   8
  -4  -8 -18 153.547 85.1591  10
   4 -12 -18 99.0742 79.1597  10
   3   9   0 945.880 235.727   2
  -9  -3   0 792.680 260.150   3
 -12   9   0 589.141 273.163   3
   3   9   0 897.636 235.793   5
  -9  12   0 1039.30 247.911   3
  -3  12   0 668.834 206.733   2
  12  -9   0 832.643 234.344   4
  -3  12   0 842.400 213.576   5
 -12   3   0 854.697 294.451   3
   9   3   0 594.656 207.858   5
  12  -3   0 710.597 203.734   5
  12  -9  -1 9989.04 606.773   4
 -12   9   1 9537.44 648.020   3
 -12   3   1 8990.67 648.568   3
  -9  12  -1 9347.45 561.680   3
 -12   9  -1 9297.80 686.183   3
 -12   3  -1 8537.52 682.267   3
  -9  -3   1 9875.51 606.155   3
  -9  -3  -1 9253.43 624.873   3
  -3  12   1 9790.79 537.667   2
   9 -12  -1 9590.06 490.649   1
   3   9  -1 8769.31 541.050   5
   3   9   1 8555.83 531.744   2
  -3  12  -1 9876.15 523.100   2
   9   3  -1 8755.78 556.947   5
  12  -3   1 9938.68 511.588   5
  12  -3  -1 10108.5 502.098   5
  -3  12   1 8793.80 488.520   5
  12  -9   1 9607.62 571.703   4
  12  -9  -2 1982.06 321.242   4
  12  -9   2 2002.57 288.666   4
   9   3   2 1617.52 265.945   2
 -12   3   2 2206.95 343.215   3
  -9  -3   2 2279.07 327.136   3
 -12   9  -2 1967.20 378.423   3
  -9  12  -2 1936.32 298.938   3
  -9  -3  -2 1997.00 356.238   3
   9 -12  -2 2413.53 311.935   1
   3   9   2 1987.05 292.680   2
  -3  12   2 2308.47 305.732   2
 -12   3  -2 1919.58 385.845   3
   3   9  -2 2034.03 300.041   5
   9   3  -2 1623.92 281.156   5
  -9  -3  -3 215.945 248.333   3
  12  -9   3 273.989 167.552   4
  -3  -9  -3 158.206 176.652   3
   9 -12  -3 433.952 222.194   1
  12  -9  -3 284.551 201.563   4
  -9  -3   3 271.911 187.044   3
   9   3   3 250.673 192.995   2
  -3  12   3 324.574 221.576   2
 -12   9  -3 148.135 232.901   3
 -12   3  -3 461.397 274.692   3
  12  -9  -3 243.435 158.516   1
   3   9   3 233.369 178.022   2
  12  -9  -4 3275.94 398.256   4
  12  -9   4 3457.96 320.128   4
  12  -9  -4 3119.41 362.559   1
  -9  -3   4 3221.63 346.896   3
 -12   9  -4 2482.68 448.261   3
   9 -12  -4 3245.23 421.889   1
  -9  -3  -4 2846.63 438.020   3
   9   3   4 2933.56 351.723   2
 -12   3  -4 2484.26 450.548   3
  -3  -9  -4 2978.10 364.108   3
   3   9   4 3212.81 385.220   2
  -3  -9  -5 1134.19 265.815   3
  -9  -3  -5 763.201 314.697   3
  12  -9  -5 1170.62 275.071   4
 -12   3  -5 755.346 314.937   3
  12  -9  -5 1324.11 287.897   1
  -9  -3   5 1500.96 279.882   3
   3   9   5 942.092 264.669   2
   9 -12  -5 1242.26 320.672   1
 -12   9  -5 800.350 311.984   3
   9   3   5 939.096 248.446   2
  12  -9  -6 193.706 195.941   4
  -3  -9  -6-88.1792 204.219   3
  12  -9  -6 242.231 207.034   1
   3   9   6 174.242 220.476   2
 -12   3  -6 89.3921 296.826   3
   9 -12  -6 147.138 207.604   1
 -12   9  -6-64.0530 254.392   3
  -9  -3  -6 194.219 268.143   3
   9   3   6 253.116 202.340   2
  12  -9  -7 316.141 221.040   4
 -12   3  -7 351.566 315.960   3
 -12   9  -7 376.917 303.790   3
  -3  -9  -7 491.664 242.924   3
   3   9   7 502.258 283.730   2
  -9  -3  -7 379.370 303.354   3
   9 -12  -7 499.138 261.132   1
   9   3   7 651.523 262.853   2
  12  -9  -7 574.921 259.162   1
  12  -9  -8 240.887 256.433   1
 -12   3  -8 100.460 323.745   3
   9 -12  -8 106.101 200.008   4
  -9  -3  -8 44.3911 281.784   3
  12  -9  -8 116.731 193.261   4
 -12   9  -8 167.522 278.129   3
   9 -12  -8 208.606 268.792   1
   3   9   8 360.481 357.358   2
  -3  -9  -8 97.9637 241.348   3
 -12   3  -9 292.343 382.351   3
 -12   9  -9 209.646 303.657   3
  12  -9  -9 282.192 246.995   1
  -9  -3  -9 88.6178 281.378   3
   9 -12  -9 191.785 240.582   1
   3 -12  -9 140.286 248.906   1
 -12   3 -10 691.948 399.543   3
  -9  -3 -10 1105.10 449.219   3
   9 -12 -10 615.859 319.110   1
  12  -9 -10 959.856 345.671   1
   3 -12 -10 805.498 388.145   1
  -9  12 -11 91.1276 114.136   7
 -12   9 -11 29.7282 111.154   7
 -12   3 -11 125.558 106.637  10
  -9  -3 -11 24.8380 115.439  10
  -3  12 -11 135.491 135.330   7
  -3  -9 -11-166.791 147.079  10
   3 -12 -11-39.4687 163.408  10
   9   3  11 78.0741 101.939   9
   3   9  11-44.2668 108.295   9
  -9  12 -12 327.516 135.824   7
  -3  12 -12 923.044 161.922   7
 -12   9 -12 541.385 129.545   7
 -12   3 -12 685.455 136.061   7
  -9  -3 -12 665.931 140.045  10
 -12   3 -12 653.617 125.578  10
   3 -12 -12 186.059 160.363  10
   9   3  12 644.428 123.010   9
   3   9  12 402.336 128.233   9
  -3  -9 -12 548.131 156.099  10
 -12   9 -13 69.6208 117.706   7
 -12   3 -13 81.2999 120.606   7
  -3  12 -13 105.248 128.764   8
  -9  12 -13-43.2291 139.495   7
  -3  12 -13 253.969 150.155   7
  -9  -3 -13 149.733 120.048  10
 -12   3 -13 220.815 120.384  10
  -3  -9 -13-22.6684 137.755  10
   9   3  13 135.502 111.691   9
   3   9  13-229.712 132.179   9
   3 -12 -13 212.980 169.133  10
  -3  12 -14 401.891 143.798   7
  -9  12 -14 139.463 139.752   7
 -12   9 -14 133.387 120.978   7
 -12   3 -14 402.574 125.759   7
  -3  -9 -14 174.777 130.717   7
  -9  -3 -14 34.7309 114.818  10
   3 -12 -14-107.275 150.748  10
  -3  -9 -14 54.0748 124.739  10
  -3  12 -14 306.689 126.988   8
   9   3  14 8.77166 109.095   9
   9 -12 -14 20.7035 147.672  10
 -12   9 -15-12.5493 112.371   7
 -12   3 -15 270.339 113.356   7
  -3  -9 -15 29.1817 117.477   7
   9 -12 -15-174.008 139.026  10
  -9  -3 -15-39.6237 106.930  10
  -3  -9 -15-23.8352 110.031  10
  -9  12 -15 9.41676 125.451   7
  -3  12 -15-60.0323 122.810   7
   3 -12 -15-114.785 132.566  10
 -12   3 -16 319.849 112.134   7
  12  -9 -16-11.7367 102.263   7
  -3  12 -16 197.335 118.550   7
 -12   9 -16 90.1686 109.440   7
  -9  -3 -16 297.002 110.177   7
  -3  -9 -16 287.209 117.985   7
  -9  -3 -16 68.2402 100.980  10
   9 -12 -16-144.420 117.053  10
  -3  -9 -16 30.6137 108.208  10
   3 -12 -16 62.7347 114.738  10
  -9  12 -16-106.976 120.984   7
  -9  12 -17-11.3194 112.338   7
 -12   9 -17 111.487 107.904   7
 -12   3 -17 334.751 101.954   7
  -3  -9 -17 150.829 99.5736   7
  12  -9 -17 69.5751 89.9275   7
   3 -12 -17 24.6940 98.8141   7
   9 -12 -17-14.5472 91.0309   7
  -3  -9 -17-63.8831 96.6433  10
   3 -12 -17-62.7732 101.158  10
  -9  12 -17 102.397 93.5666   8
  -9  -3 -17-29.2759 95.3096  10
 -12   9 -18 38.1683 95.4223   7
  -3  -9 -18 24.5021 81.8669   7
  12  -9 -18 53.1667 72.6403   7
   3 -12 -18 18.4502 83.4052   7
   9 -12 -18-15.4646 78.5066   7
   3 -12 -18 16.1444 77.6565  10
 -12   3 -18 234.423 88.8897   7
  -3  -9 -18 134.145 81.8790  10
  -9  12 -18-26.2954 75.7242   8
 -10  12   0 13618.4 691.593   3
 -12  10   0 13105.2 788.747   3
 -12   2   0 12494.0 774.779   3
 -10  -2   0 12727.2 736.422   3
  12 -10   0 12732.1 688.790   4
  -2  12   0 13481.7 636.052   2
  -2  12   0 14313.5 649.816   5
   2  10   0 12083.4 640.847   2
  10   2   0 11791.6 628.536   5
  12  -2   0 14024.9 635.315   5
   2  10   0 11970.9 629.900   5
  12 -10   1 8710.58 552.616   4
 -12  10   1 7978.42 604.048   3
 -12   2   1 8047.14 610.800   3
 -10  12  -1 8614.04 576.262   3
 -12  10  -1 7697.61 622.860   3
 -10  -2   1 7902.30 570.120   3
 -12   2  -1 7933.70 648.632   3
 -10  -2  -1 8024.85 599.117   3
  -2  12  -1 8679.89 510.900   2
  12  -2  -1 8638.59 496.961   5
  12 -10  -1 8277.36 573.850   4
   2  10   1 8052.86 518.368   2
  -2  12  -1 8119.67 503.290   5
   2  10  -1 7560.12 514.615   5
  10   2  -1 7626.26 516.991   5
  -2  12   1 8370.52 516.152   2
  -2  12   1 7989.98 492.246   5
  12  -2   1 9147.30 506.820   5
  12 -10  -2 14114.7 756.602   4
 -12   2   2 12908.2 753.806   3
  12 -10  -2 13718.2 589.245   1
 -10  -2   2 14142.8 732.797   3
 -12  10  -2 12383.6 793.459   3
 -10  12  -2 13593.6 723.175   3
 -12   2  -2 12932.9 840.761   3
 -10  -2  -2 12579.1 786.636   3
   2  10   2 12533.4 650.756   2
  10 -12  -2 13499.3 641.061   1
  12 -10   2 14332.4 688.888   4
  -2  12   2 13454.2 682.255   2
   2  10  -2 12336.1 672.768   5
  10   2  -2 13428.3 695.738   5
 -12   2   3 7136.74 578.045   3
 -10  -2   3 7620.09 547.306   3
 -12  10  -3 6861.19 610.244   3
 -10  12  -3 7454.07 549.969   3
 -12   2  -3 6810.02 653.938   3
  12 -10  -3 7553.06 579.978   4
   2  10   3 6645.50 501.277   2
 -10  -2  -3 6904.06 616.434   3
  -2  12   3 7772.66 541.497   2
  10 -12  -3 8173.81 553.704   1
  10   2   3 6821.90 460.580   2
  12 -10  -3 7721.37 499.745   1
  12 -10   3 8166.61 516.744   4
 -10  -2   4 4970.07 453.575   3
 -12  10  -4 4571.26 539.771   3
 -12   2  -4 4457.23 575.476   3
  12 -10  -4 5439.24 509.143   4
  -2 -10  -4 4694.78 427.636   3
  -2  12   4 5858.02 504.015   2
 -10  -2  -4 5023.96 562.023   3
  10   2   4 4782.13 411.944   2
  12 -10   4 5896.48 424.589   4
  10 -12  -4 5315.68 521.345   1
   2  10   4 4550.30 451.330   2
  12 -10  -4 5733.02 466.547   1
 -12   2  -5 2297.50 458.453   3
  12 -10  -5 3431.08 422.313   1
 -10  -2   5 3362.84 393.637   3
  12 -10  -5 2716.86 387.781   4
  -2 -10  -5 3302.39 388.011   3
  10 -12  -5 3391.08 449.482   1
   2  10   5 2578.84 381.784   2
 -12  10  -5 2811.24 449.716   3
  10   2   5 2830.57 341.568   2
 -10  -2  -5 2533.15 447.158   3
  12 -10  -6 8315.09 637.613   4
  -2 -10  -6 7518.98 588.139   3
 -12  10  -6 7911.90 738.152   3
  10 -12  -6 7859.90 694.139   1
  12 -10  -6 8730.64 693.482   1
 -12   2  -6 6792.00 761.679   3
 -10  -2  -6 6946.11 715.600   3
   2  10   6 7862.19 622.062   2
  10   2   6 7969.51 553.509   2
 -12   2  -7 2876.18 574.447   3
  12 -10  -7 3980.92 462.480   4
   2  10   7 4365.21 539.917   2
  10 -12  -7 3361.66 425.059   4
 -10  -2  -7 3224.39 555.240   3
  10 -12  -7 4343.96 560.662   1
 -12  10  -7 4175.39 566.684   3
  12 -10  -7 4274.48 535.485   1
 -12   2  -8 1470.74 471.114   3
 -12  10  -8 2629.45 497.288   3
  10 -12  -8 2138.65 373.781   4
  12 -10  -8 1859.14 334.812   4
  12 -10  -8 2178.07 437.432   1
  10 -12  -8 2298.85 461.387   1
 -10  -2  -8 1895.27 520.667   3
 -12   2  -9 2258.95 586.677   3
 -10  -2  -9 1989.14 524.182   3
  10 -12  -9 1965.03 437.327   1
  12 -10  -9 1857.43 430.646   1
  12 -10 -10 599.943 352.326   1
 -12   2 -10 106.325 406.376   3
 -10  -2 -10 598.476 364.591   3
   2 -12 -10 540.001 329.112   1
  10 -12 -10 30.2033 293.952   1
  -2 -10 -11 142.105 139.895  10
 -10  12 -11-60.1611 110.498   7
 -12  10 -11 81.1161 110.077   7
  12  -2  11 77.4411 86.1220   9
   2  10  11-34.0462 109.302   9
 -12   2 -11 388.165 110.154  10
   2 -12 -11-127.422 157.969  10
  10   2  11 195.392 105.997   9
 -10  -2 -11 85.0739 107.956  10
 -10  12 -12 845.183 146.939   7
  10   2  12 1149.93 131.150   9
 -10  -2 -12 983.861 134.888  10
   2 -12 -12 956.277 182.463  10
 -12  10 -12 925.720 135.224   7
  -2 -10 -12 721.072 156.330  10
   2  10  12 784.667 130.327   9
 -12   2 -12 992.471 134.330  10
 -12   2 -13 3016.31 181.347   7
 -12   2 -13 2227.02 171.119  10
  10 -12 -13 916.095 187.116  10
 -10  12 -13 2563.33 190.150   7
 -10  -2 -13 2842.52 184.939  10
  -2 -10 -13 1724.88 188.732  10
   2 -12 -13 970.441 179.180  10
   2  10  13 1759.53 158.686   9
  10   2  13 2371.12 157.012   9
 -12  10 -13 2365.28 173.695   7
 -12  10 -14 403.911 124.610   7
 -12   2 -14 444.943 122.660   7
 -10  -2 -14 298.199 115.024  10
  10   2  14 273.531 101.937   9
 -10  12 -14 354.374 134.220   7
   2 -12 -14 233.566 145.058  10
  10 -12 -14-27.3768 140.623  10
  -2 -10 -14 229.569 128.604  10
 -12   2 -14 215.857 120.786  10
 -10  12 -15-53.8931 120.597   7
 -12   2 -15 174.597 109.159   7
  -2 -10 -15 239.979 125.678   7
   2 -12 -15-127.545 128.726  10
 -10  -2 -15 147.450 102.308  10
  10 -12 -15-14.5149 127.330  10
  -2 -10 -15 106.969 110.500  10
 -12  10 -15 223.513 113.834   7
 -10  12 -16 120.530 117.411   7
 -12  10 -16 92.7320 108.455   7
 -12   2 -16 242.232 105.833   7
  -2 -10 -16 181.735 113.590   7
 -10  -2 -16 154.187 102.951  10
   2 -12 -16-97.6577 113.503  10
  -2 -10 -16 98.5124 104.547  10
   2 -12 -16 33.5841 107.656   7
 -12   2 -17 329.859 96.5802   7
 -12  10 -17 183.585 110.538   7
  -2 -10 -17 10.8884 96.5172   7
   2 -12 -17-65.0291 99.5444   7
  12 -10 -17 96.2622 86.8643   7
  10 -12 -17-175.913 94.2292   7
   2 -12 -17-29.4133 96.5329  10
  -2 -10 -17 35.8418 92.8912  10
 -10  12 -17 112.004 111.541   7
 -10  12 -17-103.700 92.9565   8
 -12  10 -18 53.6699 84.0336   8
 -12   2 -18 123.990 81.4510   7
  -2 -10 -18 139.700 81.9031   7
  12 -10 -18 21.2056 71.2858   7
   2 -12 -18-33.9024 80.5871   7
  10 -12 -18 47.6997 76.3223   7
  -2 -10 -18 30.8395 75.8521  10
   2 -12 -18-104.677 78.8964  10
 -10  12 -18 36.2501 77.0900   8
 -11  12   0 24473.3 987.143   3
 -12  11   0 23372.7 1038.19   3
 -12   1   0 21952.2 1051.83   3
 -11  -1   0 22760.5 1015.74   3
   1  11   0 22029.3 855.947   5
   1  11   0 21850.0 882.338   2
  -1  12   0 24212.0 888.911   2
  11   1   0 21622.5 882.194   5
  12  -1   0 24025.4 878.553   5
  -1  12   0 22353.9 853.318   5
 -12  11   1 2343.03 405.312   3
 -11  12  -1 2445.89 383.390   3
 -12   1   1 2196.46 388.283   3
 -11  -1  -1 2191.62 392.677   3
 -12  11  -1 1975.14 376.783   3
  -1  12   1 2854.42 365.020   2
   1  11  -1 2294.62 322.943   5
  -1  12  -1 2319.05 331.190   5
  -1  12  -1 2568.57 351.074   2
 -12   1  -1 2085.80 396.320   3
   1  11  -1 2261.47 350.725   2
 -11  -1   1 2040.46 365.815   3
  12  -1  -1 2394.22 331.034   5
   1  11   1 1855.29 315.763   5
   1  11   1 2020.95 320.664   2
  11   1  -1 2304.61 351.761   5
  -1  12   1 2182.94 316.427   5
  12  -1   1 2463.88 327.661   5
  11   1   1 2409.52 320.136   5
 -12   1   2 12869.1 775.881   3
 -11  -1   2 13534.1 776.514   3
 -12  11  -2 13128.0 827.297   3
 -11  12  -2 13400.7 768.587   3
 -12   1  -2 11346.1 809.612   3
 -11  -1  -2 12013.9 813.149   3
  -1  12   2 13266.2 696.884   2
   1  11   2 12871.7 686.967   2
  12 -11   2 14985.3 728.697   4
   1  11  -2 13099.7 700.992   5
  11   1  -2 12863.9 716.566   5
 -12   1   3 4878.68 492.409   3
 -11  -1   3 5422.87 507.211   3
 -12  11  -3 4737.51 515.394   3
 -11  12  -3 4546.08 493.306   3
 -12   1  -3 4455.99 560.815   3
 -11  -1  -3 4836.45 562.676   3
  -1  12   3 5524.79 507.074   2
  12 -11   3 5519.26 444.463   4
   1  11   3 5115.84 474.417   2
  12 -11  -3 5628.80 439.821   1
  12 -11  -3 5309.05 513.902   4
  11 -12  -3 4804.88 430.279   1
  12 -11   4 7333.64 487.399   4
 -12   1   4 7906.48 612.517   3
 -11  -1   4 8292.34 592.505   3
 -12  11  -4 7353.96 651.874   3
 -11  12  -4 7391.44 595.738   3
 -12   1  -4 6503.47 675.242   3
  11   1   4 7028.48 469.403   2
   1  11   4 7777.88 587.866   2
 -11  -1  -4 6676.92 665.841   3
  12 -11  -4 7243.67 590.962   4
  11 -12  -4 7520.77 596.238   1
  -1  12   4 7966.57 597.781   2
  12 -11  -4 8075.13 586.882   1
 -11  -1   5 5883.90 544.668   3
  11 -12  -5 7385.89 616.165   1
 -12  11  -5 5883.94 612.989   3
  -1  12   5 7213.76 597.344   2
   1  11   5 6402.02 564.527   2
  11   1   5 6226.25 477.413   2
  12 -11  -5 5816.07 557.660   4
 -12   1  -5 5300.40 653.106   3
 -11  -1  -5 5792.27 673.059   3
  12 -11  -5 6834.96 596.063   1
  11 -12  -6 3265.12 444.394   4
 -12   1  -6 2563.01 534.169   3
  12 -11  -6 3258.80 449.138   4
 -11  -1  -6 2298.90 524.125   3
   1  11   6 3177.21 477.875   2
  11 -12  -6 3239.80 486.992   1
 -12  11  -6 2569.67 482.700   3
  12 -11  -6 3646.77 507.723   1
 -12   1  -7 1125.06 413.598   3
  11 -12  -7 888.309 284.394   4
  12 -11  -7 1351.18 329.005   4
  12 -11  -7 1668.65 395.672   1
 -11  -1  -7 1598.26 458.956   3
  11 -12  -7 1093.56 357.320   1
   1  11   7 1945.54 444.290   2
  12 -11  -8 3269.85 464.967   4
 -12   1  -8 3195.83 645.509   3
 -11  -1  -8 2193.93 559.202   3
  11 -12  -8 3379.82 540.811   1
  12 -11  -8 3204.02 520.961   1
  11 -12  -8 2949.56 433.075   4
 -12   1  -9 972.027 412.468   3
 -11  -1  -9 721.862 447.021   3
  12 -11  -9 1273.11 360.511   1
  11 -12  -9 1281.08 407.265   1
  11 -12 -10 161.862 261.825   1
 -11  12 -10 793.159 130.261   7
 -12  11 -10 595.885 122.032   7
 -12   1 -10 782.611 444.157   3
 -11  -1 -10 591.694 353.257   3
 -12   1 -10 650.659 119.097  10
 -11  -1 -10 466.651 117.347  10
   1 -12 -10 461.712 160.230  10
  -1 -11 -10 732.002 158.212  10
  12 -11 -10 449.962 318.618   1
  11   1  10 657.857 111.795   9
 -11  12 -11 819.937 132.064   7
 -12   1 -11 692.900 120.243  10
  -1 -11 -11 973.220 165.849  10
 -11  -1 -11 924.297 127.288  10
   1 -12 -11 658.787 164.514  10
  11   1  11 829.709 118.409   9
 -12  11 -11 1037.36 130.434   7
  12  -1  11 737.139 101.888   9
 -11  12 -12 644.716 134.815   7
 -12  11 -12 704.110 132.006   7
  12  -1  12 673.830 107.214   9
   1 -12 -12 431.170 164.118  10
 -12   1 -12 556.659 119.049  10
 -11  -1 -12 669.262 130.119  10
  -1 -11 -12 569.985 153.049  10
  11   1  12 610.525 117.254   9
   1  11  12 610.811 123.216   9
  11   1  13 71.4992 96.7996   9
 -11  -1 -13 122.021 109.974  10
 -12   1 -13 42.4604 107.588  10
  -1 -11 -13 107.449 141.253  10
 -12  11 -13-116.102 117.010   7
 -11  12 -13 171.583 123.769   7
   1 -12 -13-204.249 154.279  10
 -12   1 -14 78.4820 106.649  10
 -12  11 -14 129.045 116.575   7
  11 -12 -14-3.57812 135.722  10
   1 -12 -14-157.555 137.741  10
  -1 -11 -14 78.0963 128.691  10
 -11  12 -14 61.3279 118.114   7
 -11  -1 -14 185.725 106.105  10
 -12  11 -15-55.6404 106.488   7
  -1 -11 -15-20.2859 114.423   7
   1 -12 -15-121.011 121.447  10
 -11  -1 -15-42.8182 99.9530  10
  -1 -11 -15-104.409 110.550  10
 -11  12 -15 71.6496 109.358   7
  -1 -11 -16-43.8954 104.897   7
   1 -12 -16 78.2179 107.146   7
  -1 -11 -16 100.170 100.938  10
 -11  12 -16 5.10391 105.942   7
   1 -12 -16-66.7450 106.551  10
 -12  11 -16-76.8318 103.468   7
 -11  12 -17 11.0511 102.193   7
  -1 -11 -17-24.4533 89.1462   7
   1 -12 -17 44.5020 93.2729   7
  12 -11 -17-47.7724 83.4646   7
  11 -12 -17-104.284 89.5910   7
 -11  12 -17-5.77996 86.8143   8
 -12  11 -17-53.9565 103.200   7
  -1 -11 -17 14.2092 88.2407  10
   1 -12 -17 24.8801 88.1411  10
 -12  11 -17 0.80574 92.4004   8
 -12  12   0 2266.85 365.832   3
 -12   0   0 2486.35 398.830   3
   0  12   0 2475.77 339.412   2
   0  12   0 2236.44 324.493   5
  12   0   0 2568.61 332.820   5
  12   0   1 839.143 214.912   5
   0  12  -1 592.460 236.171   2
   0  12   1 643.197 233.664   2
 -12   0   1 435.208 220.051   3
   0  12   1 665.545 214.009   5
 -12  12   1 876.206 270.630   3
  12   0  -1 745.037 234.030   5
 -12   0  -1 794.077 298.181   3
   0  12  -1 813.523 233.564   5
 -12  12  -1 606.822 255.445   3
 -12   0   2 14578.8 834.089   3
 -12  12  -2 13599.1 819.515   3
 -12   0  -2 13102.6 853.774   3
   0  12   2 13521.5 724.234   2
  12 -12  -3 1003.17 225.137   1
 -12  12  -3 999.466 289.199   3
   0  12   3 819.539 260.256   2
 -12   0   3 1083.01 281.051   3
 -12   0  -3 772.172 313.524   3
  12 -12  -4 25.6684 170.625   1
  12 -12   4-51.1119 174.436   4
 -12  12  -4 61.5388 219.857   3
 -12   0  -4 147.743 250.494   3
 -12   0   4-11.0162 187.869   3
   0  12   4-72.9535 206.070   2
 -12   0   5 3567.12 443.533   3
   0  12   5 3050.15 423.658   2
 -12   0  -5 2452.98 483.682   3
  12 -12  -5 2865.68 414.376   4
  12 -12  -5 3459.72 446.958   1
 -12   0  -6 3632.34 573.801   3
  12 -12  -6 4562.26 500.181   4
  12 -12  -6 4474.07 556.847   1
   0  12   6 4470.43 532.123   2
 -12   0  -7 17.9725 324.251   3
  12 -12  -7 372.792 236.574   4
   0  12   7 404.005 335.254   2
  12 -12  -7 502.554 278.642   1
  12 -12  -8 796.497 258.180   4
 -12   0  -8 634.605 401.427   3
  12 -12  -8 778.054 321.446   1
 -12   0  -9 881.751 492.655   3
  12 -12  -9 716.678 345.200   1
 -12  12 -10 62.3867 107.861   7
   0 -12 -10 206.705 153.426  10
 -12   0 -10-0.90483 105.633  10
  12   0  10 77.2656 93.7519   9
  12   0  11 87.5203 98.0464   9
 -12   0 -11 43.4093 104.960  10
   0 -12 -11 180.929 153.092  10
 -12  12 -11-86.0113 117.658   7
 -12  12 -12 439.705 118.816   7
   0 -12 -12 734.779 159.531  10
 -12   0 -12 822.861 128.744  10
   0  12  12 599.346 116.808   9
  12   0  12 691.625 111.228   9
 -12  12 -13 113.026 116.490   7
 -12   0 -13 222.793 111.238  10
   0 -12 -13 124.135 141.756  10
 -12  12 -14 163.589 116.273   7
   0 -12 -14 433.963 133.533  10
 -12   0 -14 295.533 109.746  10
 -12  12 -15 22.9595 104.593   7
   0 -12 -15-47.8288 111.229   7
 -12   0 -15 71.4913 93.9615  10
   0 -12 -15 54.6367 106.376  10
   0 -12 -16 129.351 105.529   7
   0 -12 -16 58.9687 100.212  10
 -12  12 -16 1.34283 100.433   7
   0 -12 -17-40.7775 88.7681   7
  12 -12 -17-116.739 86.4489   7
   0 -12 -17-108.845 91.3324  10
 -12  12 -17 15.1183 91.9060   8
   7   6   0 12543.2 676.979   5
  13  -7   0 10314.2 594.702   4
 -13   7   0 10888.1 760.084   3
 -13   6   0 10531.2 746.310   3
  -6  13   0 11983.5 532.639   2
  -7  13   0 12881.4 531.620   2
  -7  -6   0 11351.8 610.750   3
   6   7   0 9898.38 593.019   5
   6   7  -1 753.865 202.957   5
   7   6  -1 833.695 215.499   5
  -6  13  -1 934.438 207.344   2
   6   7   1 793.788 219.955   2
  13  -7  -1 956.035 226.423   4
  13  -7   1 1019.57 229.497   4
   7   6   1 917.467 234.131   2
  -6  -7  -1 1267.29 261.020   3
 -13   6   1 993.316 291.748   3
  -7  13   1 1342.13 232.306   2
 -13   6  -1 923.981 302.248   3
 -13   7  -1 799.597 295.082   3
 -13   7   1 787.755 265.918   3
  -6  13   1 1011.97 218.238   2
  -7  -6  -1 882.527 253.027   3
   6   7  -2 108.386 165.895   5
  -7  -6  -2 70.6405 197.994   3
  -6  -7  -2 8.67892 190.138   3
   6   7   2 162.050 175.401   2
   7   6  -2 122.860 155.581   5
   7   6   2 77.5069 168.629   2
  13  -7  -2 13.8485 140.794   4
 -13   6   2 137.827 193.628   3
 -13   6  -2 138.501 216.813   3
  -6  13   2 96.6235 173.685   2
 -13   7  -2-51.7440 216.739   3
  13  -7  -3 4282.05 429.589   4
 -13   7  -3 4039.04 550.153   3
 -13   6  -3 3836.05 518.148   3
   6   7   3 4312.25 405.635   2
  -7  -6  -3 4669.86 477.262   3
  -6  -7  -3 4825.67 470.204   3
   7   6   3 4472.58 408.522   2
 -13   7  -4 7118.57 714.693   3
 -13   6  -4 8654.54 789.412   3
   6   7   4 9052.66 594.598   2
  -7  -6  -4 8883.47 672.025   3
  -6  -7  -4 9262.21 673.593   3
   7   6   4 7920.07 548.553   2
  13  -7  -4 8626.37 609.806   4
  -7  -6  -5 881.433 295.226   3
  -6  -7  -5 1097.42 308.183   3
 -13   6  -5 763.884 326.335   3
   6   7   5 833.067 267.947   2
 -13   7  -5 741.233 334.518   3
   7   6   5 1002.30 272.683   2
 -13   7  -6 122.156 248.962   3
  -7  -6  -6 355.853 267.244   3
  -6  -7  -6 579.070 266.414   3
   7 -13  -6 220.663 216.314   1
 -13   6  -6 282.502 276.290   3
   7   6   6 375.865 223.382   2
   6   7   6 382.232 240.640   2
 -13   6  -7 2159.23 499.972   3
  -7  -6  -7 2173.86 437.902   3
   6 -13  -7 2017.33 425.881   1
   6   7   7 2423.98 400.138   2
   7 -13  -7 2016.90 423.787   1
  -6  -7  -7 2686.14 438.691   3
 -13   7  -7 1639.60 431.730   3
   7   6   7 2569.53 392.762   2
  -7  -6  -8 158.088 265.971   3
  -6  -7  -8 64.5191 234.990   3
   6   7   8 171.409 243.755   2
   7 -13  -8-98.3061 266.935   1
 -13   7  -8 81.7601 357.084   3
 -13   6  -8-11.8754 356.477   3
   6 -13  -8 216.678 235.565   1
   7   6   8 304.570 245.420   2
 -13   6  -9 76.1274 326.443   3
 -13   7  -9-135.037 405.765   3
  -7  -6  -9-258.923 306.744   3
  -6  -7  -9 370.440 284.026   3
   6   7   9 88.3362 272.771   2
   6 -13  -9 57.4656 260.979   1
   7   6   9 65.3142 250.619   2
   7 -13  -9 67.5866 241.421   1
 -13   6 -10 241.719 423.084   3
 -13   7 -10 182.350 331.611   3
  -7  -6 -10 184.992 335.796   3
  -6  -7 -10-193.822 326.404   3
   6   7  10-477.616 325.475   2
   7 -13 -10 259.110 293.013   1
   6 -13 -10 147.425 313.682   1
   7   6  10-182.175 318.034   2
  -6  13 -11 214.086 130.295   7
 -13   7 -11 64.4368 114.467   7
 -13   6 -11-110.593 126.948   7
  -7  -6 -11 252.931 130.388  10
  -6  -7 -11 41.0438 127.598  10
   7   6  11 112.182 114.921   9
  -7  13 -11-1.36413 127.730   7
   6   7  11 121.827 118.755   9
  -7  13 -12 741.284 154.637   7
  -6  13 -12 557.000 154.615   7
 -13   6 -12 392.101 126.347   7
   6   7  12 529.899 136.631   9
 -13   7 -12 722.378 135.099   7
   6 -13 -12 161.348 179.221  10
  -7  -6 -12 541.684 135.712  10
   7   6  12 605.909 130.003   9
  -6  -7 -12 294.720 137.754  10
  -6  13 -13 848.874 155.006   7
  -7  13 -13 573.662 147.823   7
 -13   7 -13 706.833 132.699   7
 -13   6 -13 395.560 123.713   7
  -7  -6 -13 551.803 136.101  10
   6 -13 -13-84.9386 167.216  10
   7 -13 -13 199.611 160.869  10
  -6  -7 -13 480.449 136.642  10
   6   7  13 419.024 122.703   9
   7   6  13 586.863 123.810   9
 -13   7 -14 220.923 117.483   7
 -13   6 -14 96.9803 116.294   7
   7   6  14 109.897 111.151   9
   7 -13 -14-42.3068 161.916  10
  -6  13 -14 238.518 128.448   8
  -6  13 -14 111.483 137.277   7
   6   7  14-24.9830 112.473   9
  -7  13 -14 18.7797 133.442   7
  -7  -6 -14 242.361 123.515  10
  -6  -7 -14 175.078 123.363  10
   6 -13 -14-218.915 166.621  10
  -6  13 -15 18.4260 124.478   7
  -7  13 -15-84.0155 112.792   8
 -13   6 -15 105.138 105.716   7
  -6  -7 -15 92.9441 114.064   7
  -7  -6 -15 204.213 104.637  10
   6 -13 -15-198.725 141.119  10
 -13   7 -15 275.484 111.290   7
  -7  13 -15-53.8816 125.590   7
  -6  13 -15 155.611 105.597   8
   7 -13 -15-27.8536 132.122  10
  -6  -7 -15 66.4069 106.999  10
  -6  13 -16 18.2899 119.796   7
 -13   6 -16 57.1088 104.946   7
  -7  13 -16-96.3618 127.184   7
 -13   7 -16 214.104 110.080   7
  -6  -7 -16 478.674 116.696   7
  -6  13 -16 198.451 108.318   8
  -7  13 -16-161.969 112.778   8
  -7  -6 -16 117.217 101.232  10
  -6  -7 -16 43.8979 101.303  10
   6 -13 -16-373.744 129.429  10
   7 -13 -16-61.0533 116.034  10
 -13   7 -17 186.463 98.5901   7
  -7  13 -17-155.860 89.6492   8
 -13   6 -17 159.900 94.9877   7
   6 -13 -17-121.725 98.6595   7
   7 -13 -17-81.6476 91.1091   7
  -7  -6 -17 63.4891 89.2884  10
   7 -13 -17-32.5961 89.5129  10
  -6  -7 -17 19.3516 90.1213  10
   6 -13 -17-157.766 98.6840  10
  -6  13 -17 30.2868 80.9676   8
 -13   6 -18 145.669 87.1423   7
   6 -13 -18-3.50304 80.2948   7
   7 -13 -18-81.6855 79.5772   7
   6 -13 -18-190.365 79.8656  10
  -6  -7 -18-50.8660 79.9292  10
  -7  13 -18-225.722 71.2422   8
 -13   7 -18-52.1221 85.3983   7
  13  -8   0 249.498 167.729   4
   5   8   0 237.479 180.435   2
   8   5   0-24.5768 154.808   5
   5   8   0 183.091 179.137   5
 -13   5   0 175.040 239.400   3
  -5  13   0 302.598 173.468   2
  -8  -5   0 432.315 207.314   3
 -13   8   0 282.160 219.295   3
  13  -8  -1 1932.50 298.901   4
   5   8   1 1431.65 266.840   2
  -8  -5   1 1968.48 299.352   3
  13  -8   1 1798.36 278.414   4
   8   5  -1 1567.40 271.060   5
 -13   5  -1 1565.18 347.159   3
  -5  13   1 2113.89 275.540   2
 -13   8   1 1570.74 322.673   3
  -5  13  -1 2076.13 263.043   2
   5   8  -1 1614.10 273.633   5
   8   5   1 1763.40 291.359   2
 -13   5   1 1687.13 342.442   3
  -8  -5  -1 1964.57 314.601   3
 -13   8  -1 1610.48 350.184   3
  -8  13   1 2274.67 259.919   2
   5   8  -2 1116.44 246.664   5
  -8  -5  -2 1237.80 281.937   3
   5   8   2 978.088 236.029   2
  -5  -8  -2 1297.34 258.401   3
   8   5   2 961.261 239.570   2
  13  -8  -2 852.777 229.970   4
  13  -8   2 1283.84 234.578   4
 -13   5   2 751.367 240.323   3
   8   5  -2 1116.39 245.989   5
 -13   5  -2 1101.30 318.814   3
  -5  13   2 1149.77 241.310   2
 -13   8  -2 889.939 306.189   3
   8   5   3-26.6627 172.857   2
  -8  -5  -3-116.021 231.329   3
  13  -8  -3 200.135 181.877   4
  -5  -8  -3 240.263 201.704   3
  13  -8   3 263.677 164.690   4
 -13   8  -3 72.4094 224.710   3
 -13   5  -3-2.02617 238.849   3
   5   8   3 106.834 184.618   2
  -8  -5  -4 219.211 242.590   3
  13  -8  -4 214.442 199.614   4
  -5  -8  -4 98.6387 212.994   3
   8 -13  -4 24.0692 203.195   1
   8   5   4 99.0725 192.376   2
 -13   5  -4 60.5340 276.572   3
 -13   8  -4-161.187 281.640   3
   5   8   4 236.104 226.443   2
  13  -8  -5 61.3601 174.325   4
  -5  -8  -5 257.568 231.544   3
   8 -13  -5 36.0215 203.256   1
   8   5   5 90.2550 203.778   2
   5   8   5 47.8067 202.753   2
 -13   8  -5 239.753 257.340   3
  -8  -5  -5 295.895 236.660   3
 -13   5  -5-188.967 274.763   3
 -13   8  -6 130.073 271.058   3
  -8  -5  -6 152.582 231.590   3
  13  -8  -6 372.427 216.485   4
  -5  -8  -6 308.117 226.087   3
   8 -13  -6 68.1417 199.099   1
 -13   5  -6 413.262 296.195   3
   8   5   6 249.620 218.263   2
   5   8   6 238.782 219.715   2
  -8  -5  -7 262.135 279.431   3
  -5  -8  -7-126.843 223.649   3
   5   8   7 46.0354 239.099   2
 -13   8  -7 29.0977 310.346   3
   8   5   7 263.035 250.359   2
   8 -13  -7 236.376 231.410   1
 -13   5  -7 33.8886 285.256   3
 -13   5  -8 48.9740 340.366   3
 -13   8  -8 187.382 312.093   3
  -8  -5  -8 146.282 290.139   3
  -5  -8  -8-32.7588 269.397   3
   5 -13  -8 301.225 284.821   1
   5   8   8 302.112 295.454   2
   8 -13  -8 77.9868 225.939   1
   8   5   8 201.987 256.537   2
   8 -13  -9-121.672 247.565   1
 -13   5  -9-582.959 419.015   3
  -8  -5  -9 84.0385 335.327   3
  -5  -8  -9-269.178 263.176   3
   5   8   9-220.347 320.102   2
 -13   8  -9 405.073 350.492   3
   8   5   9 591.193 295.542   2
   5 -13  -9 22.9881 233.388   1
  -8  13 -10 48.4016 117.229   7
 -13   5 -10-245.103 462.717   3
   8 -13 -10 67.2669 249.137   1
 -13   8 -10 460.245 427.411   3
  -8  -5 -10 7.28105 273.771   3
  -5  -8 -10-217.808 341.975   3
   5   8  10-169.892 329.620   2
   5 -13 -10 4.99968 262.381   1
 -13   5 -11 393.433 120.320  10
  -8  13 -11 559.710 140.547   7
 -13   8 -11 263.414 114.672   7
 -13   5 -11 577.791 137.647   7
   5   8  11 287.110 125.328   9
  -5  -8 -11 278.529 138.206  10
  -5  13 -11 451.358 147.119   7
  -8  -5 -11 250.531 131.852  10
   8   5  11 225.780 126.638   9
 -13   5 -12 368.957 132.800   7
  -8  13 -12 334.007 142.608   7
 -13   8 -12 60.6568 121.609   7
   5   8  12 28.3822 124.327   9
  -5  -8 -12 215.033 144.977  10
   8   5  12 413.128 137.674   9
  -5  13 -12 411.995 156.389   7
  -8  -5 -12 255.639 137.277  10
  -5  13 -13 113.416 142.349   7
 -13   8 -13 148.674 116.573   7
 -13   5 -13 228.646 120.582   7
  -8  13 -13 169.725 134.576   7
  -5  13 -13 279.016 128.501   8
   8 -13 -13-187.475 170.172  10
   5   8  13-169.506 124.101   9
  -5  -8 -13 26.5056 135.765  10
   5 -13 -13-95.9327 168.862  10
   8   5  13 138.455 116.795   9
  -8  -5 -13 178.645 124.032  10
  -5  13 -14 358.447 149.315   7
  -8  13 -14 78.5377 139.548   7
 -13   8 -14-25.0327 118.677   7
 -13   5 -14 504.376 131.732   7
  -5  -8 -14 361.294 141.246   7
  -8  -5 -14 73.6920 121.289  10
  -5  -8 -14 306.771 132.754  10
   8 -13 -14 70.1105 156.716  10
   8   5  14 257.240 119.519   9
   5 -13 -14 68.8847 161.334  10
   5   8  14-78.9242 121.591   9
  -5  13 -14 501.003 137.972   8
  -5  13 -15 10.7893 124.019   7
  -5  13 -15-93.7609 121.996   8
  -8  13 -15 301.952 119.176   8
  -8  13 -15 81.6673 125.886   7
 -13   8 -15 67.1598 106.175   7
 -13   5 -15 220.199 110.442   7
  -5  -8 -15 137.942 117.492   7
  -8  -5 -15-22.4348 104.071  10
  -5  -8 -15 224.756 114.699  10
   5 -13 -15-216.419 137.526  10
   8 -13 -15 5.04818 135.987  10
   8   5  15-219.383 106.965   9
  -5  13 -16 90.9446 120.199   7
 -13   5 -16 218.252 104.303   7
  -5  -8 -16 522.687 117.208   7
   8 -13 -16-28.3329 112.469  10
  -8  -5 -16 19.9414 99.0759  10
  -5  -8 -16 148.169 104.899  10
  -8  13 -16 317.992 114.501   8
   5 -13 -16-45.1631 113.569  10
  -8  13 -16 55.4589 119.099   7
 -13   8 -16 3.37312 103.294   7
  -5  13 -16 159.102 101.324   8
  -5  -8 -17 468.049 102.782   7
   5 -13 -17-80.9840 99.1998   7
   8 -13 -17 72.2030 93.6190   7
  -5  -8 -17 101.338 94.2705  10
  -8  -5 -17 57.6107 92.8045  10
   5 -13 -17-45.8986 94.2239  10
 -13   5 -17 105.454 92.1430   7
   8 -13 -17-126.848 95.7690  10
 -13   8 -17 90.7099 102.364   7
  -8  13 -17 255.403 97.9182   8
 -13   8 -18 177.053 92.8344   7
 -13   5 -18 127.246 85.2669   7
   5 -13 -18 94.4708 83.5960   7
   8 -13 -18 88.8937 82.1428   7
   5 -13 -18 33.4808 75.3741  10
 -13   4   0 877.903 318.096   3
   9   4   0 1031.23 239.326   5
  -4  13   0 1163.29 252.744   2
  13  -9   0 1252.13 265.845   4
   4   9   0 978.795 243.356   2
  -9  13   0 1193.67 258.396   3
 -13   9   0 1258.45 325.236   3
  13  -4   0 1014.84 217.968   5
   4   9   0 760.036 253.061   5
  -9  -4   0 1374.32 324.264   3
  -4  13   0 1055.22 224.604   5
   4   9   1 863.326 228.313   5
   4   9   1 1069.38 273.153   2
  13  -9  -1 1414.82 285.441   4
  13  -9   1 955.301 244.531   4
  -4  13  -1 959.982 232.159   2
  -9  -4  -1 1280.37 315.923   3
  -4  13   1 1247.97 266.227   2
 -13   9   1 1204.90 316.003   3
 -13   9  -1 1346.67 365.841   3
   4   9  -1 907.072 241.455   5
  -9  -4   1 1396.88 294.898   3
 -13   4   1 1089.21 306.823   3
 -13   4  -1 821.782 291.776   3
  -4  13   1 1514.17 254.471   5
   9   4  -1 1207.75 262.347   5
  13  -4   1 1144.75 222.477   5
  -9  -4  -2 284.776 228.312   3
   4   9   2 311.641 198.508   2
  13  -9  -2 176.952 180.650   4
  13  -9   2 184.366 163.090   4
   9   4   2 93.6570 185.245   2
 -13   4   2 239.178 203.404   3
   9 -13  -2 47.3372 149.123   1
  -9  -4   2 186.678 205.570   3
 -13   9  -2 81.9351 221.027   3
 -13   4  -2 98.2145 244.324   3
   9   4  -2-7.17775 172.120   5
  -4  13   2 87.3262 191.685   2
   4   9  -2 124.777 164.089   5
  -9  -4  -3 789.626 319.437   3
   9   4   3 1351.25 290.877   2
  13  -9  -3 983.807 282.132   4
  13  -9   3 949.741 237.564   4
  -4  -9  -3 1084.39 287.977   3
   4   9   3 1124.63 294.347   2
   9 -13  -3 1019.35 299.629   1
  -9  -4   3 1353.76 308.898   3
 -13   4  -3 630.173 306.888   3
 -13   9  -3 603.621 329.736   3
  -4  13   3 1555.48 318.657   2
 -13   4   3 1134.02 300.104   3
  -9  -4  -4 67.8130 264.984   3
   9   4   4 242.621 214.538   2
  13  -9  -4 99.8309 195.005   4
  13  -9   4 261.590 174.682   4
  -4  -9  -4 71.7165 196.551   3
 -13   9  -4 83.6031 250.637   3
   9 -13  -4 211.948 225.855   1
   4   9   4 206.728 231.516   2
 -13   4  -4 404.704 332.573   3
  -9  -4  -5 508.155 310.765   3
  13  -9  -5 93.8480 180.075   4
  -4  -9  -5 236.958 212.679   3
 -13   9  -5 204.444 267.789   3
  13  -9  -5 200.727 196.044   1
   4   9   5 145.416 210.798   2
   9 -13  -5 58.3839 202.004   1
   9   4   5 220.269 205.113   2
 -13   4  -5 68.4022 272.319   3
 -13   4  -6-341.895 309.380   3
   9   4   6-65.3758 203.328   2
 -13   9  -6-97.2939 274.043   3
  -9  -4  -6 248.154 260.560   3
  13  -9  -6-107.867 194.506   4
  13  -9  -6-30.4700 191.689   1
  -4  -9  -6 68.9481 196.289   3
   9 -13  -6-22.7985 224.311   1
   4   9   6 45.5592 213.607   2
 -13   9  -7 383.988 307.470   3
  13  -9  -7 752.936 280.835   1
  -9  -4  -7 745.360 404.028   3
  13  -9  -7 520.179 247.104   4
  -4  -9  -7 658.742 303.458   3
 -13   4  -7 320.010 337.565   3
   9   4   7 1120.57 307.141   2
   4   9   7 788.739 300.615   2
   9 -13  -7 610.564 309.666   1
  -9  -4  -8 336.688 298.742   3
 -13   9  -8-163.841 310.744   3
  13  -9  -8 92.6693 242.205   1
  -4  -9  -8 612.390 301.345   3
 -13   4  -8 405.048 394.871   3
   9 -13  -8 35.0699 221.574   1
   4   9   8 463.065 288.600   2
   9   4   8 45.0617 236.163   2
 -13   4  -9 853.533 439.609   3
 -13   9  -9 886.712 415.316   3
   9 -13  -9 588.361 294.800   1
  -9  -4  -9 642.655 358.680   3
   4 -13  -9 745.339 365.702   1
  13  -9  -9 1144.58 372.207   1
   4   9   9 1358.81 385.262   2
  -9  13 -10 719.810 131.072   7
 -13   4 -10 265.715 422.457   3
  -9  -4 -10 58.6922 360.760   3
   9 -13 -10 563.965 351.737   1
 -13   4 -10 838.895 123.692  10
  -9  -4 -10 931.116 141.539  10
   4 -13 -10 266.724 306.440   1
   4   9  10 907.882 363.408   2
   9   4  10 1054.67 137.605   9
  13  -9 -10 166.170 301.430   1
  -4  -9 -10 1201.48 160.384  10
  -4  13 -11 139.197 138.870   7
  -9  13 -11-93.3907 126.704   7
 -13   9 -11 93.6302 110.064   7
   9   4  11 243.438 112.719   9
  -9  -4 -11 70.3999 116.544  10
 -13   4 -11 65.0084 98.9138  10
   4   9  11-19.4790 111.755   9
  -4  -9 -11 91.8375 128.074  10
  -4  13 -11 147.327 127.682   8
  -4  13 -12 44.4781 135.938   7
 -13   9 -12 104.060 113.455   7
 -13   4 -12 23.8079 121.768   7
   4 -13 -12 75.0514 163.967  10
 -13   4 -12 9.52465 106.028  10
  -4  13 -12 241.382 127.439   8
   9   4  12 16.3690 108.539   9
  -9  13 -12 21.5032 123.444   7
  -4  -9 -12 2.93718 136.623  10
   4   9  12-92.1059 115.548   9
  -9  -4 -12 34.2701 118.568  10
  -4  13 -13 146.178 143.450   7
 -13   9 -13 73.6528 114.922   7
 -13   4 -13 387.296 130.076   7
  -4  -9 -13 257.120 141.151   7
   4   9  13 33.2316 117.585   9
  -4  13 -13 361.616 134.543   8
   4 -13 -13 266.280 164.490  10
  -4  -9 -13 583.762 153.948  10
   9   4  13 317.823 120.350   9
  -9  -4 -13 399.656 132.607  10
   9 -13 -13-90.1576 168.048  10
  -9  13 -13-7.50825 134.318   7
  -4  13 -14 75.3484 129.579   7
 -13   9 -14 204.281 113.966   7
 -13   4 -14 371.376 122.087   7
  -4  -9 -14 338.265 130.252   7
  -4  -9 -14 138.774 124.174  10
  -4  13 -14 299.871 120.952   8
  -9  -4 -14 143.893 110.029  10
   4 -13 -14 202.348 144.011  10
  -9  13 -14 38.7241 124.542   7
   9 -13 -14-60.7613 150.010  10
   9   4  14 88.8506 100.616   9
   4   9  14-101.943 112.557   9
  -4  13 -15-32.8153 110.268   8
 -13   9 -15 88.9835 105.823   7
 -13   4 -15 223.354 110.512   7
  -4  -9 -15 248.287 119.248   7
  -4  13 -15-100.742 121.970   7
  -9  -4 -15 38.6848 98.9018  10
  -4  -9 -15-4.89528 102.182  10
   4 -13 -15 147.216 130.081  10
  -9  13 -15 128.263 104.405   8
   9 -13 -15-150.184 134.123  10
  -9  13 -15-7.57113 120.914   7
  -9  13 -16-74.8980 102.134   8
  -9  13 -16-6.32252 113.185   7
 -13   4 -16 153.946 101.077   7
  -4  -9 -16 152.377 105.027   7
  13  -9 -16 252.743 102.531   7
   4 -13 -16 85.1817 110.552  10
  -4  -9 -16-24.9995 96.5868  10
  -9  -4 -16 61.5672 93.0229  10
   9 -13 -16-25.3079 107.895  10
  -4  13 -16-62.2214 109.820   7
 -13   9 -16-24.9115 99.8188   7
  -9  13 -17 113.334 88.1149   8
  -4  -9 -17 45.5012 87.4299   7
   4 -13 -17-37.2185 93.8994   7
  -9  -4 -17 57.8089 89.6373  10
  -4  -9 -17 1.75906 87.3642  10
   4 -13 -17-0.52096 92.5402  10
 -13   9 -17 71.8545 97.9612   7
 -13   4 -17 213.500 94.2215   7
   9 -13 -17-34.7741 90.2904   7
 -13   4 -18 246.764 83.0464   7
 -10  13   0 14274.1 728.714   3
 -13  10   0 12775.4 832.137   3
 -13   3   0 12977.9 841.230   3
 -10  -3   0 13434.6 753.795   3
  -3  13   0 14649.8 670.873   2
  -3  13   0 14464.6 652.345   5
  13 -10   0 14558.5 747.634   4
  13  -3   0 15065.0 648.707   5
   3  10   0 12966.3 680.122   2
   3  10   0 12491.5 679.723   5
  10   3   0 12411.7 684.944   5
  13 -10  -1 9778.59 649.615   4
 -13  10   1 8720.35 665.859   3
 -13   3   1 8972.17 696.874   3
 -10  13  -1 9914.59 616.892   3
 -13  10  -1 7654.97 674.255   3
 -13   3  -1 8869.24 731.291   3
 -10  -3   1 9434.95 647.170   3
 -10  -3  -1 9240.23 655.546   3
   3  10   1 9318.35 583.653   2
  -3  13   1 9450.84 574.065   2
  -3  13   1 9504.48 532.188   5
  10   3   1 9134.96 577.455   5
  13 -10   1 9668.88 605.614   4
  -3  13  -1 9888.97 553.564   2
  13  -3  -1 10712.1 552.396   5
   3  10  -1 8430.70 575.918   5
  10   3  -1 9176.36 598.999   5
  13  -3   1 7147.96 473.128   5
   3  10   1 8179.14 571.427   5
  13 -10  -2 9345.25 641.157   4
 -13   3   2 8677.25 659.628   3
 -10  -3   2 9237.69 614.818   3
 -13  10  -2 7569.38 689.002   3
 -13   3  -2 8255.75 718.891   3
 -10  -3  -2 8372.26 646.853   3
   3  10   2 8642.46 566.722   2
   3  10  -2 8523.79 585.425   5
  13 -10   2 9313.05 568.360   4
  10   3  -2 8839.24 592.777   5
  -3  13   2 9658.05 591.766   2
  13 -10   3 9535.13 563.431   4
 -13   3   3 8525.63 646.980   3
 -10  -3   3 9028.71 621.161   3
 -13  10  -3 7355.00 683.508   3
 -13   3  -3 7664.34 731.701   3
  10 -13  -3 9539.01 625.338   1
  13 -10  -3 8336.18 622.201   4
   3  10   3 8542.92 586.826   2
  10   3   3 8276.35 544.468   2
 -10  -3  -3 8015.57 686.016   3
  -3  13   3 9537.80 606.424   2
  13 -10  -4 2977.68 402.226   4
  13 -10   4 4014.32 362.953   4
 -10  -3   4 2909.09 377.803   3
  13 -10  -4 3619.50 393.428   1
 -10  -3  -4 3089.54 475.738   3
  -3  13   4 3969.54 442.975   2
  10   3   4 3046.72 362.159   2
 -13  10  -4 2654.68 446.233   3
   3  10   4 2766.05 378.315   2
  10 -13  -4 3514.23 456.187   1
 -13   3  -4 2543.04 463.847   3
 -13   3  -5 2174.56 475.833   3
  13 -10  -5 2692.59 392.867   4
 -10  -3  -5 2745.74 462.447   3
  13 -10  -5 2850.33 395.863   1
   3  10   5 2366.32 383.492   2
  10   3   5 2850.74 356.878   2
  -3 -10  -5 3179.78 401.355   3
  10 -13  -5 2823.15 442.343   1
 -13  10  -5 2344.35 448.383   3
  13 -10  -6 2188.16 380.001   4
 -10  -3  -6 1572.24 402.982   3
  13 -10  -6 2427.21 391.716   1
  10   3   6 2345.74 358.506   2
 -13  10  -6 1661.00 423.171   3
  -3 -10  -6 2185.82 376.636   3
   3  10   6 2158.19 394.650   2
 -13   3  -6 1301.40 399.167   3
  10 -13  -6 2314.68 421.898   1
 -13  10  -7 2335.52 506.929   3
 -10  -3  -7 1878.87 477.718   3
  10 -13  -7 2217.66 439.357   1
  13 -10  -7 2688.71 436.840   1
 -13   3  -7 1360.24 468.490   3
  -3 -10  -7 1930.23 380.878   3
   3  10   7 2313.17 411.585   2
  13 -10  -7 2341.69 386.517   4
  10 -13  -8 1145.99 299.825   4
 -10  -3  -8 960.603 407.078   3
  13 -10  -8 816.634 289.245   4
  10 -13  -8 1126.30 373.231   1
  13 -10  -8 1498.05 401.975   1
   3  10   8 1635.62 374.961   2
 -13   3  -8 1057.11 401.414   3
 -13  10  -8 981.302 371.911   3
 -13   3  -9 1437.05 549.913   3
 -10  -3  -9 897.510 406.160   3
  13 -10  -9 1241.00 361.081   1
   3  10   9 969.065 358.831   2
  10 -13  -9 663.297 330.978   1
 -13  10 -10 1393.87 145.714   7
 -10  -3 -10 1654.85 156.492  10
  13  -3  10 1183.28 115.254   9
 -13   3 -10 1400.34 134.124  10
 -10  13 -10 1380.18 151.328   7
  -3 -10 -10 1367.27 168.014  10
  10   3  10 1612.88 151.318   9
 -10  13 -11 1788.80 155.316   7
 -13  10 -11 1447.75 147.694   7
 -10  -3 -11 1682.80 151.662  10
 -13   3 -11 1428.90 134.762  10
  -3 -10 -11 1835.25 179.388  10
   3  10  11 1648.99 141.113   9
  10   3  11 1636.95 145.044   9
  -3  13 -11 2053.24 173.250   8
   3 -13 -11 1170.15 193.187  10
  -3  13 -12 363.669 139.676   8
  -3  13 -12 315.275 139.726   7
 -10  13 -12 184.914 122.810   7
 -13  10 -12 345.638 118.637   7
 -10  -3 -12 386.299 119.861  10
 -13   3 -12 357.720 110.842  10
  -3 -10 -12 237.857 138.433  10
  10   3  12 423.793 118.638   9
   3  10  12 169.427 113.138   9
   3 -13 -12 98.5262 154.334  10
 -10  13 -13-13.1807 136.117   7
 -13  10 -13-46.7174 118.796   7
  -3  13 -13-92.7756 147.486   7
 -13   3 -13 79.4104 114.849  10
 -10  -3 -13 551.476 134.721  10
   3 -13 -13 447.819 171.927  10
  10   3  13 242.737 119.804   9
  -3 -10 -13 427.897 156.830  10
  10 -13 -13-257.018 172.750  10
 -13  10 -14 19.6810 103.787   7
  -3  13 -14 74.6632 124.044   7
 -10  13 -14-86.6931 125.050   7
 -13   3 -14 60.6493 109.864   7
  -3 -10 -14 48.8308 118.141   7
  10   3  14-63.1955 95.8680   9
 -10  -3 -14 74.3371 100.875  10
  -3 -10 -14-74.4278 119.312  10
   3 -13 -14 2.77671 134.746  10
  10 -13 -14 66.9182 136.821  10
 -13  10 -15-1.02706 103.313   7
  -3  13 -15 22.1806 118.562   7
 -10  13 -15 39.2500 115.617   7
 -13   3 -15 258.881 110.815   7
  -3 -10 -15 98.3242 116.243   7
  10 -13 -15-89.4508 128.214  10
 -10  -3 -15 135.509 98.5066  10
  -3 -10 -15-59.0371 107.796  10
   3 -13 -15 92.9347 122.276  10
 -10  13 -16 11.0859 110.910   7
 -10  13 -16-130.536 107.206   8
 -13   3 -16 145.658 96.3224   7
  -3 -10 -16 179.795 104.100   7
  13 -10 -16 16.7663 94.9547   7
   3 -13 -16 65.6034 106.554   7
   3 -13 -16-87.8094 110.622  10
  10 -13 -16-13.4361 101.411  10
 -10  -3 -16 50.0635 89.8735  10
  -3 -10 -16 40.0793 98.6028  10
 -13  10 -16-64.7702 102.532   7
 -10  13 -17 58.4215 86.4510   8
 -13  10 -17 27.3609 98.8376   7
 -13   3 -17 185.462 90.9299   7
  -3 -10 -17 95.0653 91.3283   7
  13 -10 -17 74.1466 82.7245   7
   3 -13 -17 213.739 97.9698   7
  10 -13 -17-24.1637 86.0262   7
  -3 -10 -17 40.4620 90.8593  10
   3 -13 -17-138.959 95.4092  10
  13 -11   0 33222.1 1148.11   4
 -11  13   0 34979.0 1191.31   3
 -13  11   0 32387.3 1302.12   3
 -13   2   0 31062.9 1284.46   3
 -11  -2   0 33452.0 1239.81   3
  -2  13   0 34986.2 1067.15   2
   2  11   0 32266.7 1073.91   2
  -2  13   0 33477.7 1055.92   5
  13  -2   0 34841.3 1043.75   5
   2  11   0 29692.8 1065.00   5
  11   2   0 31944.1 1097.07   5
 -13  11   1 25969.0 1134.13   3
 -13   2   1 25820.7 1173.59   3
 -11  13  -1 27500.9 1064.88   3
 -13  11  -1 26170.5 1200.39   3
 -11  -2   1 28192.6 1134.31   3
 -13   2  -1 25282.0 1204.43   3
 -11  -2  -1 27167.7 1151.82   3
  -2  13  -1 28709.2 968.551   2
   2  11   1 25311.3 947.311   5
  -2  13   1 28714.8 998.606   2
  13 -11  -1 27727.9 1080.62   4
  11   2   1 27232.6 981.792   5
  11   2  -1 27477.8 1022.91   5
  13  -2  -1 28575.5 949.904   5
  13 -11   1 27898.1 1033.37   4
  -2  13  -1 26298.7 970.021   5
   2  11  -1 26509.2 997.182   5
   2  11   1 24119.9 946.642   2
  -2  13   1 27791.1 948.940   5
  13  -2   1 27197.5 932.217   5
  13 -11   2 24698.4 950.490   4
 -13   2   2 21912.3 1072.13   3
 -11  -2   2 22891.9 1011.00   3
 -13  11  -2 21701.4 1111.24   3
 -11  13  -2 22166.4 974.725   3
 -13   2  -2 19855.6 1092.60   3
 -11  -2  -2 21584.9 1076.98   3
  13 -11  -2 23918.2 1033.57   4
  -2  13   2 24646.6 949.885   2
   2  11   2 22734.7 926.252   2
   2  11  -2 21792.1 928.007   5
  11   2  -2 23523.3 965.120   5
  13 -11  -3 43880.7 1430.97   4
  13 -11   3 44877.5 1247.79   4
  13 -11  -3 45999.7 1213.01   1
 -13   2   3 42243.1 1422.97   3
 -11  -2   3 45559.1 1422.58   3
 -13  11  -3 40538.5 1522.67   3
 -13   2  -3 37838.3 1565.94   3
   2  11   3 42273.8 1298.22   2
  -2  13   3 46609.3 1355.76   2
 -11  -2  -3 40448.7 1486.94   3
  11 -13  -3 45459.9 1307.21   1
  13 -11  -4 28012.1 1167.12   4
  13 -11   4 30810.9 1002.02   4
  13 -11  -4 31582.1 1103.54   1
 -13   2   4 28352.5 1174.87   3
 -11  -2   4 29312.2 1132.51   3
 -13  11  -4 26870.4 1267.16   3
 -13   2  -4 23802.3 1297.26   3
 -11  -2  -4 25927.0 1257.38   3
  11 -13  -4 31034.3 1175.92   1
  11   2   4 27478.7 958.053   2
  -2  13   4 31360.1 1159.04   2
   2  11   4 28384.9 1105.16   2
  13 -11  -5 19372.1 950.225   1
 -11  -2   5 18342.3 921.048   3
 -13   2  -5 14437.0 1063.20   3
 -13  11  -5 15673.0 1008.39   3
  -2  13   5 20712.3 981.960   2
 -11  -2  -5 17691.0 1096.09   3
   2  11   5 16609.4 925.478   2
  13 -11  -5 18214.8 960.642   4
  11   2   5 18055.6 811.528   2
  11 -13  -5 18759.7 1008.39   1
  13 -11  -6 19596.1 1005.14   4
  13 -11  -6 19890.2 1070.24   1
   2  11   6 19327.5 993.637   2
 -13  11  -6 17552.6 1108.72   3
 -13   2  -6 16567.7 1207.00   3
  11 -13  -6 19793.8 1099.71   1
 -11  -2  -6 16498.3 1140.88   3
  13 -11  -7 12461.0 912.297   1
  13 -11  -7 11350.6 790.160   4
   2  11   7 11943.6 841.540   2
 -13  11  -7 10755.0 934.599   3
 -11  -2  -7 10172.4 942.734   3
  11 -13  -7 10253.7 741.746   4
 -13   2  -7 11113.8 1040.90   3
  11 -13  -7 12192.8 915.660   1
  13 -11  -8 10032.4 748.941   4
  11 -13  -8 9885.08 755.680   4
  13 -11  -8 11429.1 945.159   1
 -11  -2  -8 9598.96 990.368   3
 -13   2  -8 8802.86 972.807   3
   2  11   8 11359.1 859.222   2
  11 -13  -8 10546.0 914.730   1
  13 -11  -9 5363.70 691.699   1
 -11  -2  -9 4113.35 722.137   3
   2  11   9 4410.49 635.667   2
  11 -13  -9 5436.31 709.665   1
 -13   2  -9 4764.86 788.687   3
 -13   2 -10 2038.05 154.002  10
  -2 -11 -10 2743.33 217.947  10
  11   2  10 2700.91 172.214   9
 -11  13 -10 2141.58 167.345   7
  13  -2  10 2075.27 142.752   9
 -13  11 -10 2250.62 165.142   7
 -11  -2 -10 2736.12 177.838  10
   2 -13 -10 2496.80 215.246  10
 -11  13 -11 2490.90 178.645   7
 -13  11 -11 2493.59 171.099   7
   2 -13 -11 2163.83 206.363  10
 -13   2 -11 2192.14 161.345  10
  13  -2  11 2127.72 137.500   9
 -11  -2 -11 2414.29 166.416  10
  -2 -11 -11 2611.92 204.652  10
  11   2  11 2602.35 165.263   9
 -11  13 -12 2759.71 191.780   7
 -13  11 -12 3342.87 189.684   7
  11   2  12 2995.15 170.966   9
 -11  -2 -12 2714.54 178.006  10
 -13   2 -12 2601.60 172.880  10
  -2 -11 -12 3290.95 220.761  10
   2  11  12 3152.30 175.083   9
   2 -13 -12 2062.36 210.535  10
 -13  11 -13 2345.95 176.727   7
 -13   2 -13 2812.12 175.750  10
 -11  -2 -13 3133.34 195.851  10
  -2 -11 -13 3779.86 229.191  10
 -11  13 -13 2922.59 198.284   7
  11   2  13 3085.50 181.712   9
   2  11  13 1800.18 160.873   9
 -13  11 -14 197.545 114.639   7
  -2 -11 -14 451.601 135.276   7
 -11  13 -14 131.426 121.097   7
 -11  -2 -14 129.873 102.211  10
  -2 -11 -14 396.809 133.851  10
  11 -13 -14 213.135 142.689  10
   2 -13 -14 114.433 133.469  10
 -13  11 -15 437.349 119.441   7
  -2 -11 -15 356.548 127.568   7
   2 -13 -15 62.9487 120.107  10
  11 -13 -15 570.847 143.329  10
 -11  -2 -15 107.631 100.506  10
  -2 -11 -15 404.834 121.142  10
 -11  13 -15 73.4608 112.735   7
 -13  11 -16-18.0315 103.663   7
  -2 -11 -16 12.7252 101.011   7
   2 -13 -16-31.9407 102.620   7
  -2 -11 -16 156.674 104.364  10
   2 -13 -16-4.03044 99.7541  10
 -11  13 -16 58.5554 109.557   7
 -11  13 -16 81.2971 99.2533   8
 -11  13 -17-99.2808 94.6155   8
 -13  11 -17 29.5532 100.599   7
  -2 -11 -17 32.0120 90.7819   7
   2 -13 -17 121.239 93.8608   7
  13 -11 -17-71.2316 83.4138   7
  11 -13 -17 80.8635 88.4953   7
  -2 -11 -17 164.814 93.6601  10
   2 -13 -17-53.9367 90.3674  10
 -13  11 -17-154.465 97.9982   8
 -12  13   0 9228.56 676.474   3
 -13  12   0 8969.94 698.231   3
 -13   1   0 8715.89 706.927   3
 -12  -1   0 7390.96 635.229   3
  -1  13   0 8323.91 568.003   5
  -1  13   0 8547.38 570.421   2
   1  12   0 8848.01 589.708   2
  13 -12   0 8206.77 611.416   4
  13  -1   0 8596.94 554.736   5
   1  12   0 7829.13 561.151   5
  12   1   0 8476.96 575.170   5
 -12  13   1 34148.3 1258.28   3
 -13  12   1 29219.3 1209.69   3
 -12  13  -1 31510.3 1224.78   3
 -13  12  -1 32325.4 1307.51   3
 -13   1   1 31937.5 1294.35   3
 -12  -1   1 32584.8 1279.03   3
 -12  -1  -1 30200.8 1263.28   3
  13 -12   1 31913.0 1134.41   4
  -1  13  -1 32568.7 1079.02   2
  12   1  -1 31379.8 1109.02   5
  13 -12  -1 31267.6 1188.75   4
 -13   1  -1 30221.8 1306.24   3
  -1  13   1 32195.6 1058.44   5
   1  12   1 31784.4 1094.82   2
  -1  13  -1 29878.9 1068.32   5
  -1  13   1 32991.6 1084.75   2
  13  -1  -1 33635.2 1100.59   5
   1  12  -1 29993.5 1099.85   5
  13  -1   1 30219.0 1024.37   5
   1  12   1 30232.5 1050.33   5
  12   1   1 30258.2 1067.77   5
 -13   1   2 9293.13 714.639   3
 -12  -1   2 9032.02 688.028   3
 -13  12  -2 8784.76 712.199   3
 -12  13  -2 9171.18 672.806   3
 -13   1  -2 8984.52 767.618   3
 -12  -1  -2 8754.53 738.460   3
   1  12   2 10203.6 646.881   2
  -1  13   2 10372.5 655.127   2
  13 -12   2 10127.2 639.898   4
  13 -12  -2 9758.45 693.407   4
  13 -12  -3 23341.1 1075.09   4
 -13   1   3 24004.7 1106.03   3
 -12  -1   3 23626.0 1062.34   3
 -13  12  -3 20583.6 1069.63   3
 -13   1  -3 21767.7 1187.35   3
  13 -12   3 23661.3 926.222   4
 -12  -1  -3 19504.0 1089.02   3
  -1  13   3 22538.6 959.970   2
   1  12   3 23916.7 1019.36   2
 -13   1   4 13604.2 837.214   3
 -12  -1   4 13599.9 814.336   3
 -13  12  -4 11703.6 839.058   3
   1  12   4 14691.8 822.134   2
  13 -12   4 14159.9 703.068   4
  -1  13   4 14294.0 805.271   2
 -12  -1  -4 11996.7 909.779   3
 -13   1  -4 11800.2 927.637   3
  13 -12  -4 13813.8 754.301   1
  12 -13  -4 14364.8 785.973   1
  13 -12  -4 12348.3 807.618   4
 -13   1   5 9169.09 722.023   3
 -12  -1   5 9009.35 695.809   3
  -1  13   5 9219.63 708.169   2
 -13  12  -5 7678.80 715.883   3
   1  12   5 9375.55 704.589   2
 -13   1  -5 8237.88 827.610   3
  13 -12  -5 9063.90 687.621   1
  13 -12  -5 8372.61 687.689   4
 -12  -1  -5 8057.23 797.142   3
  12 -13  -5 9716.50 727.289   1
  13 -12  -6 5455.95 582.591   1
 -12  -1   6 5713.11 584.591   3
 -12  -1  -6 3420.95 600.395   3
  -1  13   6 5985.03 599.051   2
   1  12   6 6084.35 625.274   2
  13 -12  -6 4806.52 533.127   4
  12 -13  -6 5263.64 599.254   1
 -13   1  -6 4364.95 677.929   3
  12 -13  -6 4878.05 552.147   4
  13 -12  -7 7032.22 707.930   1
  13 -12  -7 5990.99 608.074   4
  -1  13   7 8002.57 733.285   2
 -13   1  -7 5576.38 768.840   3
  12 -13  -7 7145.34 754.224   1
   1  12   7 7403.80 676.079   2
 -12  -1  -7 5202.44 753.182   3
  12 -13  -7 6819.74 648.234   4
 -13   1  -8 2294.77 586.608   3
  12 -13  -8 2553.68 446.759   4
 -12  -1  -8 2253.52 531.008   3
  13 -12  -8 2276.99 401.343   4
  13 -12  -8 3099.77 525.646   1
   1  12   8 2414.79 481.395   2
  12 -13  -8 2747.64 532.877   1
 -13   1  -9 1171.83 509.524   3
 -12  -1  -9 1315.85 511.667   3
   1  12   9 984.364 392.974   2
  12 -13  -9 922.247 339.228   1
  13 -12  -9 1052.57 385.148   1
 -13   1 -10 2645.08 166.758  10
 -12  -1 -10 2649.75 174.012  10
  -1 -12 -10 2882.37 217.020  10
   1 -13 -10 2077.59 205.723  10
 -12  13 -10 2435.84 168.919   7
  12   1  10 2757.42 167.066   9
  13  -1  10 2248.14 149.300   9
 -13  12 -10 2456.44 169.853   7
 -12  13 -11 2885.06 178.412   7
 -13  12 -11 2357.97 170.273   7
 -13   1 -11 2656.28 171.782  10
  13  -1  11 2257.58 147.579   9
 -12  -1 -11 2530.35 170.986  10
  -1 -12 -11 2167.92 204.694  10
  12   1  11 2369.71 166.672   9
   1 -13 -11 1699.62 197.009  10
 -13  12 -12 655.970 129.182   7
 -12  13 -12 693.500 133.435   7
   1 -13 -12 170.363 157.612  10
 -12  -1 -12 450.625 124.340  10
 -13   1 -12 666.520 127.366  10
  -1 -12 -12 565.279 153.114  10
   1  12  12 246.166 111.455   9
  12   1  12 526.690 117.040   9
 -13  12 -13 708.347 139.384   7
   1  12  13 158.941 122.112   9
  -1 -12 -13 2195.96 199.479  10
 -12  -1 -13 740.148 137.220  10
 -12  13 -13 1313.82 154.063   7
   1 -13 -13 782.093 173.396  10
  12   1  13 985.755 134.441   9
 -13   1 -13 2021.80 157.659  10
 -12  13 -14 195.321 113.744   7
 -13  12 -14 44.3392 105.997   7
  -1 -12 -14 134.354 118.588  10
   1 -13 -14-48.2142 121.764  10
  12 -13 -14-153.470 135.769  10
 -12  -1 -14 116.916 100.179  10
 -13  12 -15 90.8574 108.038   7
  -1 -12 -15 255.032 121.066   7
 -12  -1 -15 135.718 97.7994  10
   1 -13 -15-55.3101 110.878  10
  -1 -12 -15 137.680 111.205  10
 -12  13 -15 155.255 111.526   7
 -12  13 -16 146.404 101.192   8
 -12  13 -16-22.7944 105.271   7
 -13  12 -16-21.5209 99.6774   7
  -1 -12 -16 182.784 102.301   7
   1 -13 -16-17.6492 99.3319   7
   1 -13 -16 19.9267 97.7119  10
  -1 -12 -16 146.179 99.1602  10
 -12  13 -17 16.5638 90.4442   8
  -1 -12 -17-42.4487 88.1404   7
   1 -13 -17 134.061 93.2810   7
  13 -12 -17 49.9914 80.6347   7
  12 -13 -17 46.5942 82.8858   7
 -13  12 -17 18.6973 88.7127   8
  -1 -12 -17 82.4678 86.5578  10
   1 -13 -17 73.8601 85.5179  10
 -13  13   0 6757.98 618.208   3
 -13   0   0 6346.93 621.159   3
   0  13   0 6901.56 532.786   2
   0  13   0 6947.88 518.056   5
  13   0   0 6284.67 497.811   5
 -13  13   1 32126.0 1277.74   3
 -13  13  -1 31311.8 1298.11   3
 -13   0   1 30503.4 1285.89   3
 -13   0  -1 27350.1 1257.20   3
   0  13   1 32241.9 1127.47   2
   0  13  -1 31214.2 1109.58   5
  13   0  -1 30241.6 1091.11   5
   0  13   1 29592.1 1069.26   5
  13   0   1 25383.2 991.403   5
 -13   0   2 31370.3 1293.03   3
 -13  13  -2 30614.5 1295.83   3
 -13   0  -2 28456.5 1336.71   3
   0  13   2 32448.4 1138.62   2
   0  13   2 30929.7 1087.89   5
 -13   0   3 30810.8 1269.21   3
 -13  13  -3 26441.3 1214.37   3
  13 -13   3 31370.0 1094.18   4
 -13   0  -3 27934.1 1348.37   3
   0  13   3 31381.0 1183.95   2
  13 -13  -4 16476.9 948.357   4
  13 -13   4 17757.7 801.534   4
 -13   0   4 18387.9 989.926   3
   0  13   4 18507.7 937.517   2
 -13   0  -4 16605.8 1087.35   3
 -13   0   5 25961.4 1195.80   3
   0  13   5 26547.0 1178.43   2
  13 -13  -5 25037.3 1180.07   4
  13 -13  -5 28303.0 1195.88   1
  13 -13  -6 15239.5 932.296   4
 -13   0   6 17650.7 1017.18   3
   0  13   6 16942.1 993.009   2
  13 -13  -6 17851.7 1028.56   1
  13 -13  -7 11473.6 830.135   4
 -13   0  -7 10961.1 1039.07   3
  13 -13  -7 14292.2 1014.48   1
   0  13   7 14449.6 950.608   2
  13 -13  -8 5645.38 603.850   4
   0  13   8 5850.30 681.043   2
 -13   0  -8 5568.60 808.307   3
  13 -13  -8 6653.40 747.899   1
 -13   0  -9 2016.11 613.698   3
  13 -13  -9 2441.98 515.237   1
   0 -13  -9 2697.96 214.033  10
  13   0   9 3142.66 170.053   9
   0  13   9 1888.29 479.559   2
 -13  13  -9 2893.04 175.903   7
 -13  13 -10 3444.65 181.299   7
  13   0  10 3312.26 175.002   9
 -13   0 -10 2939.25 179.380  10
   0 -13 -10 2710.56 215.711  10
  13   0  11 5385.17 217.021   9
 -13   0 -11 5725.06 229.619  10
 -13  13 -12 2038.79 163.374   7
 -13   0 -12 2085.27 159.523  10
   0 -13 -12 1641.88 185.748  10
  13   0  12 2078.66 146.735   9
   0  13  12 1743.78 139.556   9
 -13  13 -13 1074.66 146.014   7
 -13   0 -13 1244.61 140.709  10
   0 -13 -13 916.679 166.177  10
   0  13  13 735.714 124.015   9
 -13   0 -14 750.096 114.202  10
   0 -13 -14 611.968 134.111  10
 -13  13 -14 739.803 130.091   7
   0 -13 -15 179.228 115.190   7
   0 -13 -15 160.437 111.125  10
 -13  13 -15 166.598 112.479   7
 -13  13 -16 45.5773 97.0718   8
   0 -13 -16 271.701 104.037   7
   0 -13 -16-28.9123 92.4626  10
   0 -13 -17 84.1685 85.2745   7
  13 -13 -17-54.0996 80.5732   7
   0 -13 -17 57.1943 81.9976  10
 -13  13 -17 38.1777 89.4391   8
 -14   7   0 2221.71 444.226   3
   7   7   0 1974.26 314.972   5
  -7  14   0 2522.16 300.150   2
 -14   7   1 4953.32 535.468   3
 -14   7  -1 5483.74 619.391   3
   7   7   1 5060.02 456.805   5
  -7  14   1 6297.25 435.521   2
   7   7   1 5188.93 465.786   2
   7   7  -1 5162.37 471.879   5
 -14   7   2 21596.7 1050.87   3
 -14   7  -2 22235.2 1199.82   3
   7   7   2 21783.8 909.593   2
  -7  -7  -2 23571.1 988.995   3
   7   7  -2 21256.8 954.013   5
   7   7   3 2041.28 331.216   2
  -7  -7  -3 2118.62 382.540   3
 -14   7  -3 1825.14 428.027   3
 -14   7  -4 11818.1 969.524   3
  -7  -7  -4 13874.7 859.872   3
   7   7   4 13311.0 748.254   2
 -14   7  -5 11758.8 961.574   3
  -7  -7  -5 13838.7 897.178   3
   7   7   5 14201.3 812.706   2
   7 -14  -6 2792.64 483.718   1
  -7  -7  -6 2965.93 450.480   3
   7   7   6 3283.44 440.933   2
 -14   7  -6 2391.43 518.176   3
  -7  -7  -7 550.299 299.411   3
 -14   7  -7 625.933 416.974   3
   7 -14  -7 231.765 286.532   1
   7   7   7 498.915 299.223   2
 -14   7  -8 3109.40 643.151   3
   7 -14  -8 3833.22 591.412   1
   7   7   8 4175.53 538.941   2
  -7  -7  -8 3493.71 560.343   3
 -14   7  -9-146.264 337.104   3
  -7  -7  -9 126.178 261.837   3
   7 -14  -9 221.150 276.075   1
   7   7   9 58.3003 301.539   2
  -7  14 -10 1530.78 175.372   7
 -14   7 -10 1888.84 170.272   7
  -7  -7 -10 1692.54 169.648  10
   7   7  10 1161.85 385.448   2
   7   7  10 1575.97 152.533   9
  -7  14 -11 4060.13 224.717   7
 -14   7 -11 4141.75 209.379   7
  -7  -7 -11 4055.99 220.831  10
   7   7  11 3983.83 201.056   9
  -7  14 -12 160.414 139.794   8
  -7  14 -12 327.884 150.413   7
 -14   7 -12 145.926 124.799   7
  -7  -7 -12 442.287 140.682  10
   7   7  12 409.719 127.338   9
  -7  14 -13 230.077 126.110   8
  -7  14 -13 215.101 132.397   7
 -14   7 -13 313.639 117.488   7
   7 -14 -13 47.2692 152.059  10
  -7  -7 -13 353.920 121.416  10
   7   7  13 261.317 110.102   9
  -7  14 -14 171.515 115.591   8
  -7  14 -14 54.4443 127.681   7
 -14   7 -14 53.6295 105.379   7
  -7  -7 -14 112.149 108.121  10
   7 -14 -14-162.734 139.136  10
   7   7  14-80.2783 104.979   9
 -14   7 -15 63.6281 99.4028   7
  -7  14 -15-25.0254 120.427   7
   7   7  15-107.647 96.7299   9
  -7  -7 -15-92.3722 99.2419  10
  -7  14 -15-21.4705 107.335   8
   7 -14 -15-149.756 124.924  10
  -7  14 -16 73.5519 88.5118   8
  -7  -7 -16 11.1645 88.1593  10
   7 -14 -16-53.9774 104.527  10
 -14   7 -16 160.074 96.6669   7
 -14   7 -17 216.948 91.3940   7
   7 -14 -17-66.5945 87.0262   7
  -7  -7 -17 8.23082 82.2515  10
  -7  14 -17-96.6615 80.9607   8
   7 -14 -17-42.8713 84.7613  10
  14  -8   0 29364.5 1047.32   4
 -14   8   0 28618.3 1297.61   3
 -14   6   0 27793.9 1291.46   3
   6   8   0 27425.7 1034.13   5
   8   6   0 27626.7 1040.85   5
  14  -8  -1 16000.1 791.913   4
  14  -8   1 16232.7 763.858   4
 -14   8   1 15979.5 923.824   3
 -14   6   1 16557.3 953.087   3
 -14   8  -1 16295.7 1004.08   3
 -14   6  -1 15258.5 987.750   3
  -8  14   1 19928.8 712.227   2
   6   8   1 15541.8 786.265   5
   6   8   1 14747.8 740.564   2
  -8  -6  -1 16901.4 831.696   3
  -6  14  -1 18783.5 701.734   2
   6   8  -1 15375.9 773.493   5
  -6  14   1 18292.0 731.801   2
   8   6   1 14580.8 753.003   5
   8   6  -1 15918.2 792.606   5
  14  -8  -2 26147.5 1029.44   4
 -14   8   2 27166.0 1166.84   3
 -14   6   2 26258.0 1152.17   3
 -14   8  -2 25120.2 1277.44   3
 -14   6  -2 25908.8 1296.65   3
   6   8   2 26026.2 987.958   2
  -8  -6  -2 26741.5 1098.94   3
   8   6  -2 24186.5 1004.26   5
   8   6   2 25902.9 975.669   2
  -6  14   2 30496.6 996.841   2
  -8  14   2 31768.6 963.217   2
   6   8  -2 25687.1 1031.02   5
 -14   6   3 25272.9 1130.71   3
 -14   8  -3 23544.6 1266.01   3
 -14   6  -3 23295.0 1281.26   3
   6   8   3 24319.7 961.097   2
  -6  -8  -3 28163.7 1128.53   3
  -8  -6  -3 26370.3 1138.56   3
   8   6   3 24720.9 967.602   2
  14  -8  -3 26003.6 1052.15   4
  -6  14   3 30547.6 1036.48   2
 -14   8  -4 45182.0 1810.63   3
 -14   6  -4 44944.1 1820.59   3
  -8  -6  -4 51700.7 1641.23   3
  -6  -8  -4 53609.1 1579.33   3
   8   6   4 49579.8 1395.10   2
   6   8   4 49818.5 1447.41   2
  14  -8  -4 50245.7 1511.40   4
   8 -14  -5 32196.2 1398.38   1
 -14   8  -5 28306.6 1471.54   3
 -14   6  -5 30167.1 1517.42   3
  -8  -6  -5 32122.6 1368.68   3
   6   8   5 33656.8 1246.85   2
   8   6   5 34990.5 1216.91   2
  -6  -8  -5 33416.5 1278.62   3
   8 -14  -6 9702.36 807.309   1
 -14   6  -6 8504.55 884.073   3
  -6  -8  -6 8788.36 723.798   3
   8   6   6 10083.3 696.497   2
 -14   8  -6 8280.02 868.633   3
   6   8   6 9795.42 710.814   2
  -8  -6  -6 8979.74 781.682   3
   6   8   7 10725.3 773.598   2
   8 -14  -7 9793.04 853.344   1
 -14   8  -7 8587.42 920.675   3
   8   6   7 10740.4 771.229   2
  -8  -6  -7 9359.86 807.022   3
  -6  -8  -7 10266.4 792.944   3
 -14   6  -7 8121.48 916.279   3
   6 -14  -8 6239.78 752.419   1
 -14   6  -8 6601.49 913.870   3
 -14   8  -8 6183.84 842.914   3
   6   8   8 8492.51 739.875   2
   8   6   8 8414.99 727.312   2
  -8  -6  -8 7161.98 793.429   3
  -6  -8  -8 7927.92 740.879   3
   8 -14  -8 7437.57 782.752   1
 -14   6  -9 2764.52 620.188   3
  -8  -6  -9 2894.34 565.180   3
  -6  -8  -9 2883.65 502.652   3
   8 -14  -9 3405.03 615.334   1
   6 -14  -9 2920.85 576.512   1
 -14   8  -9 2455.98 614.383   3
   6   8   9 3115.62 524.598   2
   8   6   9 2892.07 498.390   2
  -6  14 -10 4350.89 228.111   7
  -8  14 -10 3979.84 213.755   7
 -14   8 -10 4423.45 208.935   7
  -6  14 -10 4359.45 218.318   8
  -8  -6 -10 4219.46 216.098  10
  -6  -8 -10 4560.28 224.937  10
   8   6  10 4402.64 209.265   9
   6   8  10 4283.91 202.468   9
  -6  14 -11 8533.88 305.081   7
  -8  14 -11 8501.85 292.435   7
 -14   8 -11 8076.54 268.398   7
 -14   6 -11 8769.10 277.585   7
  -6  14 -11 7131.53 286.470   8
  -6  -8 -11 8391.18 305.084  10
   6   8  11 8049.37 263.760   9
   8   6  11 8138.78 272.449   9
  -8  -6 -11 7560.14 278.722  10
  -6  14 -12 5313.07 260.245   7
  -8  14 -12 5079.67 246.942   7
 -14   8 -12 4556.92 218.999   7
 -14   6 -12 5170.36 228.921   7
  -6  14 -12 4084.46 238.967   8
   6   8  12 3963.81 204.557   9
  -8  -6 -12 5726.76 244.792  10
  -6  -8 -12 4824.03 241.625  10
   6 -14 -12 4608.35 293.197  10
   8   6  12 6075.21 246.121   9
  -8  14 -13 146.712 133.971   7
  -6  14 -13 190.241 139.324   7
 -14   8 -13 111.107 117.039   7
 -14   6 -13 502.521 129.838   7
  -8  14 -13 352.670 131.872   8
   6   8  13-31.4734 112.671   9
  -8  -6 -13 341.716 124.986  10
  -6  -8 -13 107.913 127.054  10
  -6  14 -13 321.527 140.626   8
   8   6  13 436.580 121.282   9
   6 -14 -13 381.998 167.738  10
   8 -14 -13-251.097 168.644  10
  -6  14 -14 274.531 149.323   7
  -8  14 -14 353.876 122.514   8
 -14   6 -14 760.385 140.120   7
  -8  14 -14 597.087 149.566   7
 -14   8 -14 380.032 119.381   7
  -6  -8 -14 613.184 139.536  10
   8 -14 -14-394.565 162.408  10
  -8  -6 -14 958.169 135.211  10
   8   6  14 422.911 121.131   9
   6   8  14 155.432 111.723   9
  -6  14 -14 537.836 130.812   8
  -8  14 -15 189.869 112.446   8
  -6  14 -15-91.4555 125.792   7
  -8  14 -15 100.524 131.152   7
  -6  -8 -15 107.382 101.386  10
 -14   8 -15 220.626 108.317   7
   6 -14 -15 334.335 135.034  10
  -6  14 -15 258.361 114.800   8
  -8  -6 -15 159.466 99.5090  10
   8 -14 -15-108.977 130.724  10
   8   6  15 243.757 104.103   9
  -8  14 -16 77.6627 92.9271   8
 -14   6 -16 358.140 103.136   7
  -6  -8 -16 24.4410 88.9908  10
  -8  -6 -16 131.252 93.7997  10
   6 -14 -16 85.4300 110.525  10
  -6  14 -16-168.695 99.1853   8
 -14   8 -16 111.814 100.982   7
   8 -14 -16-165.506 107.392  10
 -14   8 -17 33.9297 90.7425   7
 -14   6 -17 412.202 98.7633   7
   6 -14 -17 56.4538 88.9231   7
   8 -14 -17-29.5661 86.5632   7
  -8  -6 -17-35.6628 89.2879  10
  -8  14 -17 103.572 83.7807   8
  -6  -8 -17 46.3198 86.5036  10
   6 -14 -17 109.315 90.1678  10
   8 -14 -17-139.497 91.4499  10
  -6  14 -17-240.411 82.5898   8
   9   5   0 104.663 168.685   5
  -5  14   0 54.2306 167.870   2
  14  -9   0 267.897 191.284   4
   5   9   0 119.772 169.756   5
 -14   9   0 151.364 239.125   3
 -14   5   0 278.077 246.728   3
  -9  -5   0-105.118 199.428   3
  14  -9   1 2593.79 334.025   4
  14  -9  -1 2794.37 377.291   4
 -14   9   1 2484.36 403.359   3
 -14   5   1 2584.43 423.396   3
 -14   9  -1 2395.57 435.951   3
 -14   5  -1 2579.46 452.278   3
  -9  -5   1 3170.37 390.651   3
  -5  14  -1 2902.68 319.420   2
  -9  -5  -1 3220.90 425.392   3
  -5  14   1 3221.43 347.857   2
   9   5   1 2716.70 348.361   5
   5   9   1 2425.37 340.782   2
   5   9  -1 2219.68 330.063   5
   9   5  -1 2573.62 355.643   5
   5   9   1 2445.58 352.555   5
   5   9   2 352.813 214.748   2
  14  -9  -2 641.216 241.747   4
  14  -9   2 588.386 223.747   4
   9   5   2 255.593 210.684   2
 -14   5  -2 219.958 262.749   3
 -14   9   2 160.467 218.048   3
 -14   5   2 155.896 221.128   3
  -9  -5  -2 101.407 232.414   3
 -14   9  -2 303.736 281.653   3
   9   5  -2 370.336 204.129   5
  -5  14   2 618.305 231.661   2
   5   9  -2 164.284 201.801   5
  -9  -5  -3 389.204 289.912   3
   9   5   3 403.676 218.161   2
  14  -9  -3 516.930 240.093   4
  14  -9   3 596.065 207.709   4
   9 -14  -3 723.278 272.693   1
 -14   9  -3 402.924 286.072   3
 -14   5   3 522.614 238.839   3
  -5  14   3 927.796 272.722   2
   5   9   3 432.809 222.769   2
 -14   5  -3 571.921 304.131   3
   5   9   4 1348.49 317.646   2
  -9  -5  -4 1087.93 345.004   3
   9   5   4 1446.69 306.931   2
  14  -9  -4 1372.67 324.352   4
  -5  -9  -4 1254.23 321.751   3
   9 -14  -4 1387.60 351.568   1
 -14   9  -4 863.336 378.860   3
 -14   5  -4 1059.78 428.155   3
   9   5   5 486.321 253.576   2
  -9  -5  -5 837.691 335.166   3
  14  -9  -5 383.407 248.784   4
  -5  -9  -5 408.771 253.813   3
 -14   5  -5 306.882 340.259   3
   9 -14  -5 331.914 259.956   1
   5   9   5 299.286 278.086   2
 -14   9  -5 333.139 326.559   3
  -9  -5  -6 737.964 344.836   3
  14  -9  -6 477.234 248.120   4
  -5  -9  -6 512.255 270.320   3
 -14   9  -6 456.048 337.969   3
   9 -14  -6 96.8928 229.470   1
   9   5   6 265.308 209.061   2
 -14   5  -6-23.3928 340.992   3
   5   9   6 341.099 260.785   2
 -14   5  -7-138.184 353.104   3
  -9  -5  -7 374.765 329.654   3
  -5  -9  -7 256.505 251.809   3
   9   5   7 323.512 256.030   2
 -14   9  -7 139.071 289.579   3
   9 -14  -7 427.663 294.633   1
   5   9   7 65.6487 247.175   2
   9 -14  -8 55.7351 301.710   1
  -9  -5  -8-39.1575 295.963   3
   9   5   8 251.996 280.893   2
   5 -14  -8 572.916 369.979   1
  -5  -9  -8 655.008 321.901   3
 -14   9  -8 234.208 331.655   3
 -14   5  -8-226.481 413.429   3
   5   9   8 83.3896 268.234   2
 -14   5  -9-118.843 471.436   3
 -14   9  -9-139.432 357.215   3
  -9  -5  -9 370.997 376.323   3
  -5  -9  -9-195.802 270.297   3
   9 -14  -9-86.8598 291.803   1
   5   9   9-199.697 285.587   2
   5 -14  -9 10.0879 279.086   1
 -14   9 -10 351.906 124.628   7
  -5  14 -10 348.433 140.509   8
  -5  14 -10 297.246 142.533   7
  -9  -5 -10 457.488 138.629  10
  -9  14 -10 141.505 122.411   7
   5   9  10 355.560 126.838   9
  -5  -9 -10 275.485 146.289  10
   9   5  10 314.510 123.646   9
  -9  14 -11 116.744 132.514   7
 -14   9 -11 287.841 128.535   7
  -9  -5 -11 594.454 148.089  10
  -5  -9 -11 646.588 173.985  10
   5   9  11 361.312 133.209   9
  -5  14 -11 352.062 149.197   7
  -5  14 -11 503.602 139.513   8
   9   5  11 496.984 131.796   9
  -5  14 -12 39.8894 151.395   7
 -14   9 -12 132.745 124.970   7
 -14   5 -12 163.483 135.815   7
  -9  -5 -12 582.678 148.243  10
  -9  14 -12 38.2551 137.026   7
   9   5  12 514.354 137.677   9
  -5  -9 -12 433.798 159.480  10
   5   9  12 258.223 132.505   9
   5 -14 -12 322.918 175.720  10
  -5  14 -12 335.537 144.741   8
  -5  14 -13 291.676 130.152   8
  -5  14 -13 137.709 142.658   7
  -9  14 -13-85.1575 134.801   7
 -14   9 -13 403.771 126.174   7
 -14   5 -13 437.817 131.286   7
  -9  -5 -13 256.838 122.371  10
  -5  -9 -13 129.027 132.403  10
   5 -14 -13 84.0077 157.698  10
   9 -14 -13 414.581 169.634  10
   5   9  13 186.527 117.580   9
   9   5  13 422.764 124.005   9
  -5  14 -14 42.1795 114.006   8
  -9  14 -14-137.200 126.856   8
  -5  14 -14-92.8911 136.173   7
  -9  14 -14-215.149 136.049   7
 -14   5 -14 205.374 115.998   7
  -5  -9 -14 265.131 124.862  10
  -9  -5 -14 370.525 121.080  10
 -14   9 -14 173.676 114.647   7
   5 -14 -14 35.9011 135.689  10
   9 -14 -14 120.159 149.166  10
   9   5  14 166.344 106.989   9
   5   9  14 88.3397 106.787   9
 -14   5 -15 193.284 106.738   7
  -9  14 -15-141.532 110.440   8
 -14   9 -15 188.193 111.444   7
  -5  14 -15 138.018 121.569   7
  -9  -5 -15 53.9040 94.9279  10
  -5  -9 -15-21.0625 95.6757  10
   5 -14 -15-22.0464 117.612  10
   9   5  15-37.8742 90.9020   9
  -9  14 -15-246.103 131.955   7
   9 -14 -15 132.601 128.658  10
  -5  14 -15-47.1221 103.584   8
  -5  14 -16 57.3480 91.0079   8
  -9  14 -16-112.025 102.321   8
 -14   9 -16 51.8121 99.6685   7
 -14   5 -16 324.172 100.463   7
  -9  -5 -16 40.5640 89.4905  10
  -5  -9 -16 53.2090 94.7901  10
   5 -14 -16-42.0155 103.883  10
   9 -14 -16 106.312 106.088  10
 -14   9 -17 83.1340 92.5835   7
 -14   5 -17 224.652 93.1462   7
   5 -14 -17-1.95513 87.5356   7
   9 -14 -17-4.49101 85.0719   7
  -9  -5 -17 78.3212 84.3436  10
  -5  -9 -17 87.9556 86.9310  10
   5 -14 -17-26.3144 88.2471  10
   9 -14 -17 4.63604 81.0117  10
  -9  14 -17-12.1117 84.1975   8
  -4  14   0 310.777 206.377   2
  14 -10   0 350.051 206.412   4
   4  10   0 238.463 213.004   2
  10   4   0 144.387 179.447   5
 -14  10   0 115.682 248.435   3
 -10  -4   0 156.568 238.654   3
 -14   4   0 248.241 260.162   3
   4  10   0 310.917 188.442   5
   4  10   1 445.597 227.651   2
  14 -10  -1 390.142 220.927   4
  14 -10   1 405.990 215.833   4
  -4  14  -1 345.065 214.127   2
   4  10   1 371.328 211.171   5
  -4  14   1 313.618 224.701   2
 -14  10   1 354.380 258.537   3
   4  10  -1 401.389 210.539   5
 -14   4   1 711.950 298.939   3
 -14  10  -1 467.414 294.487   3
  10   4   1 282.289 187.126   5
 -14   4  -1 238.178 254.771   3
 -10  -4   1 627.500 253.136   3
  10   4  -1 465.850 237.305   5
 -10  -4  -1 359.391 266.135   3
   4  10  -2 333.629 203.526   5
   4  10   2 324.248 225.876   2
  14 -10  -2 195.769 200.752   4
  14 -10   2 160.469 189.896   4
 -10  -4  -2-49.8830 225.846   3
 -14  10  -2 224.608 283.823   3
 -14  10   2 388.006 257.643   3
 -10  -4   2 173.861 225.198   3
 -14   4  -2 531.048 329.297   3
 -14   4   2 517.991 289.029   3
  -4  14   2 412.363 226.450   2
  10   4  -2 411.227 223.996   5
  14 -10  -3 438.121 240.529   4
  14 -10   3 514.736 214.619   4
  10   4   3 911.882 266.463   2
 -10  -4  -3 242.175 261.005   3
 -14  10  -3 604.530 337.230   3
 -14   4   3 637.698 306.903   3
  -4  14   3 817.986 288.622   2
 -14   4  -3 251.173 303.231   3
   4  10   3 583.126 241.630   2
  10 -14  -3 527.636 241.395   1
 -10  -4  -4 2327.76 447.041   3
  14 -10   4 2101.02 307.951   4
  10   4   4 1862.19 329.946   2
  14 -10  -4 1866.37 363.722   4
 -14   4   4 2433.53 440.273   3
  10 -14  -4 2056.74 387.585   1
  -4  14   4 1658.67 339.744   2
 -14   4  -4 1463.46 443.276   3
 -14  10  -4 1501.49 429.883   3
   4  10   4 1699.30 355.589   2
  10   4   5 983.324 281.870   2
  14 -10  -5 1098.69 298.762   4
 -10  -4  -5 562.438 303.978   3
 -14  10  -5 568.717 317.909   3
  10 -14  -5 1245.90 338.925   1
   4  10   5 1041.20 312.033   2
 -14   4  -5 1144.96 405.211   3
 -14   4  -6 127.924 294.176   3
 -14  10  -6-6.82503 293.218   3
  10   4   6 504.037 241.619   2
 -10  -4  -6 101.418 241.953   3
  14 -10  -6 174.014 207.300   4
  -4 -10  -6 403.244 233.229   3
  14 -10  -6 162.741 186.129   1
  10 -14  -6 59.2913 222.560   1
   4  10   6 218.586 257.045   2
 -14  10  -7-104.494 317.371   3
 -10  -4  -7 166.859 320.544   3
  14 -10  -7 61.9039 206.863   4
  10 -14  -7-163.296 245.019   1
  -4 -10  -7 359.469 258.038   3
  14 -10  -7-54.8437 218.488   1
 -14   4  -7 117.320 305.677   3
  10   4   7 7.21533 228.565   2
   4  10   7 61.8646 256.079   2
  10 -14  -8 9.26291 215.073   4
 -14  10  -8 119.633 317.650   3
  14 -10  -8 122.291 224.188   1
 -10  -4  -8-183.784 344.222   3
  10 -14  -8 183.281 267.480   1
 -14   4  -8 226.380 335.475   3
  -4 -10  -8-352.935 262.279   3
   4  10   8 158.337 270.806   2
 -14   4  -9-694.175 483.672   3
 -10  -4  -9-291.916 425.015   3
  10 -14  -9-61.8412 253.586   1
   4 -14  -9 5.27541 298.460   1
   4  10   9-31.3891 310.743   2
  -4  14 -10 1093.11 179.074   7
 -10  14 -10 755.828 144.026   7
 -14  10 -10 438.156 129.504   7
  -4 -10 -10 1079.84 177.117  10
 -14   4 -10 838.416 128.010  10
  10   4  10 1130.08 154.117   9
 -10  -4 -10 953.805 152.922  10
  -4  14 -10 1116.23 162.755   8
  -4  14 -11 442.718 145.210   8
  -4  14 -11 385.339 152.008   7
 -10  14 -11 299.455 135.972   7
 -14  10 -11 113.008 118.916   7
   4 -14 -11 277.462 175.474  10
 -10  -4 -11 440.561 137.551  10
  -4 -10 -11 581.648 159.024  10
   4  10  11 273.036 121.695   9
  10   4  11 328.730 129.937   9
  -4  14 -12 526.544 156.064   7
 -14  10 -12 297.680 122.110   7
 -10  -4 -12 431.430 131.704  10
  -4  14 -12 529.843 149.627   8
   4 -14 -12 49.1659 162.065  10
  10   4  12 320.203 123.894   9
 -10  14 -12 185.938 134.317   7
   4  10  12 230.611 119.926   9
  -4 -10 -12 486.570 154.110  10
  -4  14 -13 536.149 152.969   7
 -14  10 -13 111.204 114.935   7
  -4 -10 -13 450.290 140.441  10
   4  10  13 19.7329 114.191   9
 -10  -4 -13 333.193 127.580  10
   4 -14 -13 130.936 156.855  10
  10 -14 -13 109.981 162.075  10
  10   4  13 425.886 122.519   9
 -10  14 -13 393.802 143.001   7
  -4  14 -13 704.112 145.620   8
 -10  14 -14 134.745 117.832   8
  -4  14 -14 79.3093 126.710   7
 -10  14 -14-6.24498 120.381   7
 -14  10 -14 219.012 107.866   7
 -14   4 -14 255.233 118.793   7
 -10  -4 -14 110.089 105.214  10
   4 -14 -14 202.981 135.286  10
  -4  14 -14 131.361 108.504   8
  10 -14 -14-19.7838 136.101  10
  -4 -10 -14 112.577 114.584  10
  10   4  14 160.002 102.056   9
   4  10  14-206.486 109.950   9
 -10  14 -15-34.1347 104.353   8
 -10  14 -15-41.1476 119.139   7
 -10  -4 -15-51.2664 92.8916  10
  10 -14 -15 22.6648 119.226  10
   4 -14 -15 61.8421 117.149  10
 -14  10 -15 65.1073 100.530   7
  -4 -10 -15 110.225 98.2305  10
 -14   4 -15 162.453 106.829   7
 -14  10 -16 57.0966 98.9591   7
 -10  14 -16 42.3438 100.120   8
 -14   4 -16 276.467 98.7067   7
 -10  -4 -16 18.3310 87.1768  10
  -4 -10 -16 65.2452 96.6068  10
   4 -14 -16 54.5971 103.390  10
  10 -14 -16-97.5902 103.517  10
 -10  14 -17-44.1950 83.6776   8
   4 -14 -17 26.3824 89.9727   7
  10 -14 -17 52.0828 84.2246   7
   4 -14 -17-40.6654 85.5777  10
  -4 -10 -17 134.013 85.8684  10
  -3  14   0 1394.57 253.930   5
  14 -11   0 916.501 261.546   4
  -3  14   0 1179.91 261.097   2
   3  11   0 1242.00 280.033   2
 -14  11   0 947.103 309.652   3
   3  11   0 855.602 235.509   5
  14  -3   0 1293.34 241.794   5
 -14   3   0 1081.55 334.327   3
 -11  -3   0 975.130 280.827   3
  11   3   0 1020.19 244.786   5
  14 -11  -1 8275.09 625.885   4
  14 -11   1 8713.91 607.249   4
 -11  14   1 9302.17 655.689   3
 -14  11   1 7326.61 656.397   3
 -14   3   1 8784.60 733.860   3
 -14  11  -1 7721.84 710.372   3
 -14   3  -1 8009.13 732.823   3
 -11  -3   1 8392.20 649.524   3
 -11  -3  -1 8524.92 683.727   3
  14  -3   1 9020.69 548.220   5
  -3  14  -1 8943.60 569.705   2
  -3  14   1 8906.85 579.270   2
  11   3   1 7508.60 550.417   5
   3  11   1 8320.75 597.181   2
   3  11  -1 8039.06 593.780   5
  11   3  -1 8213.91 602.251   5
  -3  14   1 8902.53 560.891   5
   3  11   1 7849.22 570.543   5
  14 -11  -2 3236.13 418.822   4
  14 -11   2 3328.06 382.273   4
 -14   3   2 2997.61 444.051   3
 -11  -3   2 3576.21 446.982   3
 -11  -3  -2 3072.93 440.589   3
  -3  14   2 3323.60 391.440   2
  14  -3   2 3344.25 353.209   5
   3  11   2 2796.28 371.003   2
   3  11  -2 2670.71 364.842   5
 -14   3  -2 2148.49 442.760   3
 -14  11  -2 2643.38 459.273   3
  11   3  -2 2512.74 370.986   5
  -3  14   2 3154.76 347.383   5
 -11  -3  -3 1790.69 386.006   3
  14 -11   3 2082.61 316.661   4
  14 -11  -3 1847.42 352.031   4
   3  11   3 1875.33 332.997   2
 -14   3   3 1649.26 355.432   3
 -11  -3   3 1835.86 331.665   3
 -14  11  -3 1837.78 411.090   3
  -3  14   3 1761.39 328.759   2
 -14   3  -3 1677.40 420.519   3
  11 -14  -4 356.748 235.494   1
  14 -11  -4 319.995 226.368   4
  14 -11   4 478.975 199.758   4
  11   3   4 61.8317 183.789   2
  -3  14   4 430.268 241.602   2
 -11  -3  -4-31.0672 266.434   3
 -14   3   4 35.5744 219.680   3
 -14  11  -4 295.409 285.594   3
 -14   3  -4 220.171 291.179   3
   3  11   4 298.113 232.845   2
 -11  -3  -5-61.5299 260.989   3
  11   3   5 430.318 229.979   2
  11 -14  -5 428.528 250.473   1
  14 -11  -5 339.527 236.195   4
 -14   3  -5 383.518 282.022   3
  14 -11  -5 0.75330 179.419   1
  -3  14   5 370.620 252.195   2
   3  11   5 580.534 269.044   2
 -14  11  -5 378.266 298.976   3
 -11  -3  -6 229.294 277.592   3
  14 -11  -6 208.434 214.059   4
  11 -14  -6 330.427 243.424   1
 -14  11  -6 465.316 355.345   3
 -14   3  -6 158.639 313.842   3
  -3  14   6 188.120 323.096   2
  14 -11  -6 423.757 237.970   1
   3  11   6 597.823 295.799   2
 -11  -3  -7 526.823 323.806   3
 -14   3  -7 1040.90 459.813   3
  14 -11  -7 1179.04 323.340   4
  11 -14  -7 1501.50 383.491   1
 -14  11  -7 816.320 368.387   3
   3  11   7 1327.70 362.472   2
  11 -14  -7 1077.70 328.687   4
  14 -11  -7 1123.81 344.531   1
 -14   3  -8-2.51227 331.462   3
  11 -14  -8-98.5714 239.659   4
 -11  -3  -8-263.502 367.027   3
  14 -11  -8 141.140 229.669   4
  11 -14  -8 7.35775 251.349   1
  14 -11  -8 54.4977 243.199   1
   3  11   8-82.6501 259.847   2
 -14   3  -9 192.212 372.212   3
 -11  -3  -9 286.162 323.960   3
   3  11   9 212.186 320.104   2
  14 -11  -9 61.0767 259.953   1
  11 -14  -9-174.147 268.189   1
 -11  14  -9 11.2155 120.206   7
 -11  14 -10 1340.52 149.408   7
 -14  11 -10 1488.26 149.078   7
 -14   3 -10 1837.97 152.710  10
 -11  -3 -10 1725.11 162.628  10
  -3  14 -10 2081.40 177.561   8
  -3 -11 -10 1386.99 173.455  10
  11   3  10 1624.23 155.492   9
 -11  14 -11 511.437 135.714   7
 -14  11 -11 441.231 124.385   7
 -14   3 -11 979.979 135.155  10
 -11  -3 -11 748.511 143.114  10
  -3 -11 -11 672.273 160.511  10
  11   3  11 728.549 134.385   9
   3  11  11 604.024 126.120   9
   3 -14 -11 329.638 168.328  10
 -11  14 -12 171.914 128.463   7
 -14  11 -12 136.128 113.844   7
  11   3  12 189.224 116.934   9
   3 -14 -12 71.4178 156.454  10
 -11  -3 -12 92.6543 121.560  10
   3  11  12 75.5649 111.435   9
  -3 -11 -12 322.789 142.025  10
 -11  14 -13 387.087 141.564   7
 -14  11 -13 476.733 126.444   7
 -11  -3 -13 714.070 135.261  10
  -3 -11 -13 398.251 142.557  10
   3 -14 -13 244.954 155.688  10
  11   3  13 731.539 131.338   9
   3  11  13 32.5704 115.663   9
 -11  14 -14 184.386 122.565   7
 -14  11 -14 166.133 111.125   7
 -11  14 -14 110.211 112.385   8
  11 -14 -14-62.4950 136.911  10
 -11  -3 -14 38.5324 102.783  10
  -3 -11 -14 168.047 117.967  10
  11   3  14 152.029 97.1996   9
   3  11  14-66.4561 100.233   9
   3 -14 -14 61.4603 130.290  10
 -11  14 -15 98.2423 109.327   8
 -14  11 -15 109.484 105.046   7
  -3 -11 -15 173.737 112.847   7
  11 -14 -15-143.253 124.642  10
 -11  -3 -15 77.7300 90.6532  10
  -3 -11 -15 87.5871 103.808  10
   3 -14 -15 18.3082 112.479  10
 -11  14 -15-36.2908 114.755   7
 -11  14 -16 95.5989 95.2688   8
 -14  11 -16 60.2586 100.477   7
  14 -11 -16-115.497 93.1267   7
   3 -14 -16 77.4357 101.493   7
 -11  -3 -16 108.919 90.3440  10
  -3 -11 -16 29.6216 89.4101  10
   3 -14 -16 54.2486 100.400  10
 -11  14 -17-7.14838 85.7713   8
 -14  11 -17 165.224 97.9864   8
   3 -14 -17-30.1581 87.9493   7
  11 -14 -17-3.16005 82.2975   7
  -3 -11 -17-17.0816 82.0593  10
   3 -14 -17 55.9808 84.7224  10
  -2  14   0 556.444 211.830   5
  14 -12   0 678.303 247.327   4
  -2  14   0 891.696 253.524   2
   2  12   0 732.405 238.692   2
  14  -2   0 658.135 210.290   5
 -12  14   0 767.360 270.038   3
   2  12   0 643.972 226.864   5
  12   2   0 549.402 212.143   5
 -12  -2   0 1042.57 300.681   3
 -14  12   0 639.621 315.800   3
 -14   2   0 405.150 264.568   3
  -2  14   1 625.776 237.773   5
  -2  14   1 544.818 237.957   2
  14 -12  -1 552.594 248.384   4
   2  12   1 447.030 226.850   2
  14 -12   1 570.981 244.226   4
  14  -2  -1 541.329 210.979   5
 -12  14   1 460.759 241.214   3
 -14  12   1 605.502 282.552   3
 -14   2  -1 672.941 299.834   3
   2  12  -1 467.830 232.303   5
  14  -2   1 683.130 230.478   5
   2  12   1 461.012 209.489   5
 -14  12  -1 390.593 273.163   3
 -14   2   1 758.524 315.433   3
  12   2   1 627.127 228.449   5
  12   2  -1 460.408 225.784   5
 -12  -2   1 575.409 263.681   3
 -12  -2  -1 753.440 303.282   3
  -2  14   2-228.695 208.096   5
  14  -2   2-69.5989 182.878   5
   2  12   2 23.2833 195.388   2
  14 -12  -2 210.068 222.355   4
  14 -12   2 18.7867 172.111   4
  12   2  -2 122.213 177.639   5
 -14   2   2-239.083 279.696   3
 -12  -2   2 92.9289 203.207   3
 -14  12  -2 71.8066 231.874   3
  -2  14   2 16.3800 208.239   2
 -14   2  -2 325.756 263.522   3
 -12  -2  -2 210.704 214.834   3
 -12  -2  -3 316.299 253.364   3
  14 -12   3 8.86886 180.163   4
 -14   2  -3 189.646 281.773   3
 -14   2   3-8.25062 236.148   3
   2  12   3-57.3611 211.871   2
  14 -12  -3 29.4460 207.049   4
 -12  -2   3 240.165 212.501   3
 -14  12  -3 266.348 245.891   3
  -2  14   3-191.337 234.074   2
 -12  -2  -4 54.7354 248.971   3
  14 -12  -4 184.010 222.250   4
 -14   2   4-205.655 221.611   3
  -2  14   4 159.103 214.323   2
 -12  -2   4 286.017 239.323   3
 -14   2  -4 388.165 326.658   3
   2  12   4 111.064 226.873   2
 -14  12  -4 77.3752 246.924   3
 -12  -2  -5 240.351 274.849   3
  14 -12  -5 5.33625 211.618   4
  14 -12  -5 185.630 183.342   1
 -14   2   5-87.4405 221.392   3
  12 -14  -5-176.773 239.630   1
  -2  14   5 330.639 242.159   2
 -14   2  -5 292.736 307.743   3
   2  12   5-94.2012 228.457   2
 -14  12  -5-162.212 254.710   3
 -12  -2  -6-213.322 291.155   3
  12 -14  -6 155.735 223.905   4
  14 -12  -6 232.788 232.220   1
  14 -12  -6 98.0867 208.141   4
 -14  12  -6 290.420 289.484   3
  12 -14  -6 121.500 219.558   1
 -14   2  -6 77.1076 297.778   3
  -2  14   6 237.633 261.583   2
   2  12   6 161.524 237.254   2
 -14   2  -7 190.988 331.840   3
  12 -14  -7 45.1372 222.696   4
 -12  -2  -7 224.993 319.387   3
  14 -12  -7 133.417 209.509   4
  14 -12  -7-110.050 262.469   1
  12 -14  -7 50.9329 252.626   1
  -2  14   7 425.381 340.982   2
   2  12   7 330.807 274.132   2
 -14   2  -8-316.291 390.339   3
  12 -14  -8-301.268 229.543   4
 -12  -2  -8 438.017 392.636   3
  14 -12  -8-57.7599 226.056   4
  14 -12  -8-88.1602 311.924   1
   2  12   8 9.33221 289.770   2
  12 -14  -8-119.477 281.624   1
  -2  14   8-397.812 449.090   2
 -12  14  -9 141.882 109.123   7
 -14  12  -9 25.8720 108.345   7
 -14   2  -9 13.7747 108.768  10
 -12  -2  -9 113.561 120.885  10
  14 -12  -9-94.3677 253.391   1
  14  -2   9 65.7039 93.3982   9
  -2 -12  -9 2.15900 141.965  10
  12   2   9 155.941 111.803   9
  12 -14  -9 18.0293 293.344   1
 -14  12 -10 28.9727 106.185   7
 -12  14 -10 175.115 109.977   7
  14  -2  10 155.160 98.9521   9
  -2 -12 -10 106.325 140.273  10
   2 -14 -10 207.824 155.108  10
  12   2  10 116.630 111.522   9
 -14   2 -10 29.3348 105.400  10
 -12  -2 -10 44.3665 119.952  10
 -12  14 -11 139.661 116.570   7
 -14  12 -11-20.7462 114.702   7
 -14   2 -11 152.470 116.140  10
  -2 -12 -11 169.422 146.494  10
  12   2  11 259.251 122.673   9
   2 -14 -11 565.124 180.017  10
 -12  -2 -11 405.792 130.844  10
 -12  14 -12-50.0014 117.874   7
 -14  12 -12 10.9115 107.699   7
   2 -14 -12 170.090 154.429  10
  -2 -12 -12 153.535 136.045  10
 -12  -2 -12 177.544 112.415  10
   2  12  12-139.697 108.631   9
  12   2  12 112.237 108.781   9
 -14   2 -12 74.3242 108.453  10
 -12  14 -13 133.750 125.836   7
 -14  12 -13 477.903 123.607   7
 -12  -2 -13 1376.78 140.811  10
   2 -14 -13 1131.30 179.384  10
  -2 -12 -13 503.237 143.561  10
  12   2  13 848.016 128.590   9
   2  12  13 170.748 109.724   9
 -12  14 -14 144.692 106.257   8
 -12  14 -14-226.650 111.533   7
 -14  12 -14 3.56972 100.552   7
  -2 -12 -14-15.7168 110.519   7
 -12  -2 -14 73.3505 91.5865  10
  12 -14 -14 40.3407 125.311  10
   2  12  14-88.3647 95.5036   9
   2 -14 -14 65.2501 115.770  10
  -2 -12 -14 104.116 111.705  10
 -12  14 -15-32.4468 107.564   8
 -12  14 -15-94.4753 112.991   7
 -14  12 -15 15.1201 99.1736   7
  -2 -12 -15 58.1443 104.848   7
 -12  -2 -15 41.8839 90.1770  10
  -2 -12 -15 90.7856 98.2599  10
   2 -14 -15 46.5430 108.150  10
  12 -14 -15-97.8311 115.912  10
  -2 -12 -16 16.8398 93.9594   7
   2 -14 -16-74.1075 100.198   7
  14 -12 -16-189.425 92.1256   7
 -14  12 -16 48.3163 96.6041   8
 -12  14 -16 58.1603 95.4182   8
  -2 -12 -16-16.1571 87.5397  10
   2 -14 -16 58.3650 95.0095  10
 -12  14 -17-61.6908 85.9753   8
 -14  12 -17-5.62521 90.6392   8
   2 -14 -17-38.2436 83.4181   7
  14 -12 -17 88.9499 75.0817   7
  12 -14 -17-184.229 86.9488   7
  -2 -12 -17 51.8456 81.2806  10
   2 -14 -17-40.0367 80.8030  10
  -1  14   0 931.396 249.370   5
  14  -1   0 1013.03 251.465   5
  -1  14   0 904.570 275.863   2
   1  13   0 927.512 268.896   2
   1  13   0 745.511 233.948   5
 -14  13   0 860.297 300.892   3
 -13  -1   0 1071.88 320.200   3
  14 -13   0 1001.22 279.164   4
 -14   1   0 647.650 287.833   3
 -13  14   0 929.822 305.578   3
  13   1   0 878.807 246.994   5
  14 -13  -1 1103.25 304.763   4
  14 -13   1 1841.93 331.576   4
   1  13   1 1267.71 309.824   2
  14  -1   1 1626.05 299.156   5
  -1  14   1 1861.89 329.075   2
 -13  14   1 1711.25 346.683   3
 -14  13   1 1854.06 388.356   3
 -14  13  -1 1387.99 340.994   3
  -1  14   1 1514.44 301.882   5
 -13  14  -1 1329.28 352.321   3
 -14   1   1 1501.18 370.649   3
   1  13   1 1597.86 298.439   5
 -13  -1   1 2154.12 407.025   3
 -14   1  -1 1588.69 390.339   3
  -1  14  -1 1490.91 296.229   5
  13   1   1 1513.84 311.728   5
 -13  -1  -1 1395.98 371.284   3
  14  -1  -1 2015.60 327.191   5
  13   1  -1 1413.79 292.731   5
   1  13  -1 1271.39 287.948   5
 -14  13   2 2788.64 454.386   3
 -13  -1   2 2828.52 427.921   3
 -13  -1  -2 3150.48 502.420   3
   1  13   2 2617.00 380.708   5
 -14   1   2 2648.71 422.912   3
  14 -13   2 3357.88 410.418   4
  -1  14   2 3199.93 418.230   2
   1  13   2 3198.57 413.837   2
 -14  13  -2 2310.11 421.677   3
 -14   1  -2 2749.63 491.214   3
  14 -13  -2 2792.85 433.985   4
  -1  14   2 3031.66 390.693   5
  14  -1   2 2919.23 364.067   5
  13   1   2 2703.25 361.558   5
 -13  -1  -3 2650.27 462.409   3
  14 -13  -3 2829.86 447.946   4
  14 -13   3 3160.51 393.164   4
 -14   1   3 2951.17 461.387   3
 -13  -1   3 2980.60 452.601   3
  -1  14   3 2977.17 429.802   2
 -14   1  -3 2504.48 486.770   3
   1  13   3 2764.84 411.857   2
 -14  13  -3 2480.87 445.932   3
  14 -13  -4 1873.85 370.961   4
 -13  -1   4 1928.75 380.279   3
 -14   1   4 1888.67 392.400   3
  13 -14   4 2046.28 318.786   4
  -1  14   4 1787.06 371.699   2
   1  13   4 1703.98 363.346   2
 -14  13  -4 1472.75 352.506   3
 -14   1  -4 1397.87 406.351   3
 -13  -1  -4 1266.60 401.052   3
 -13  -1  -5 2005.90 481.746   3
  14 -13  -5 2624.51 393.661   1
  13 -14  -5 1751.90 355.283   4
  14 -13  -5 1895.21 377.393   4
 -13  -1   5 2679.01 448.202   3
 -14   1  -5 1711.82 461.935   3
 -14   1   5 2488.00 430.335   3
  -1  14   5 2054.55 404.074   2
   1  13   5 2304.32 413.361   2
 -14   1  -6 409.644 340.652   3
 -13  -1  -6 927.002 417.753   3
  13 -14  -6 1071.99 337.053   4
  14 -13  -6 1076.68 325.352   4
  13 -14  -6 683.396 293.712   1
 -14   1   6 1348.29 380.365   3
  -1  14   6 1346.34 356.249   2
  14 -13  -6 980.800 314.700   1
   1  13   6 730.056 314.949   2
 -14   1  -7 1109.55 461.269   3
 -13  -1  -7 1038.90 470.346   3
  13 -14  -7 623.228 284.824   4
  14 -13  -7 999.553 347.101   4
  13 -14  -7 944.764 355.811   1
  -1  14   7 1063.58 366.401   2
  14 -13  -7 1379.77 378.594   1
   1  13   7 1080.89 340.411   2
 -14   1   7 1099.48 350.239   3
 -14   1  -8 283.599 343.013   3
 -13  -1  -8 87.9127 372.790   3
  13 -14  -8 882.888 364.286   1
  13 -14  -8 439.381 259.056   4
  14 -13  -8 375.442 267.336   4
   1  13   8 494.108 351.863   2
  -1  14   8 947.196 363.566   2
  14 -13  -8 395.453 296.370   1
 -13  14  -9 278.973 116.368   7
 -14  13  -9 223.097 109.993   7
   1 -14  -9 354.077 151.613  10
  -1 -13  -9 185.313 143.234  10
  14  -1   9 228.198 103.781   9
 -14   1  -9 197.348 114.177  10
 -13  -1  -9 241.469 126.639  10
  13   1   9 320.573 113.902   9
 -13  14 -10 350.704 118.622   7
 -14  13 -10 201.477 112.933   7
   1 -14 -10 161.165 155.767  10
 -14   1 -10 166.928 113.330  10
  14  -1  10 258.851 106.596   9
 -13  -1 -10 288.237 124.995  10
  -1 -13 -10 127.173 143.855  10
  13   1  10 100.649 105.833   9
 -13  14 -11 562.199 129.086   7
 -14  13 -11 615.424 126.484   7
 -13  -1 -11 791.077 137.823  10
 -14   1 -11 602.396 126.788  10
  14  -1  11 887.820 122.165   9
  13   1  11 877.568 126.995   9
   1 -14 -11 829.320 176.059  10
  -1 -13 -11 710.390 163.498  10
 -13  14 -12 48.4551 108.047   7
 -14  13 -12 236.206 114.327   7
 -13  -1 -12 175.290 114.196  10
 -14   1 -12 130.458 107.485  10
   1 -14 -12 199.587 144.713  10
  13   1  12 292.307 112.541   9
   1  13  12 120.701 100.911   9
  -1 -13 -12 199.585 139.635  10
 -14  13 -13 124.022 108.907   7
 -13  -1 -13 100.385 105.794  10
  -1 -13 -13-63.9180 126.126  10
   1 -14 -13 335.923 145.603  10
   1  13  13-215.731 108.026   9
 -13  14 -13-68.8472 119.523   7
 -14  13 -14 52.6606 98.2805   7
 -13  14 -14 60.2409 103.827   8
 -13  14 -14-37.1303 102.327   7
  -1 -13 -14 186.110 114.743  10
   1 -14 -14 133.004 114.073  10
 -13  -1 -14-50.6830 93.0334  10
  13 -14 -14-195.792 126.865  10
 -14  13 -15 52.2874 99.2030   7
 -13  14 -15-7.29690 98.6532   8
 -14  13 -15 166.263 103.748   8
  -1 -13 -15 8.23517 102.211   7
   1 -14 -15 144.890 107.308   7
  -1 -13 -15 73.0922 99.7224  10
   1 -14 -15 85.6155 103.652  10
 -13  14 -16-14.3711 89.0332   8
 -14  13 -16 18.9079 96.3750   8
  -1 -13 -16-103.750 91.4432   7
   1 -14 -16-3.85149 95.6672   7
   1 -14 -16 107.451 93.1557  10
  -1 -13 -16 99.3148 89.9953  10
   1 -14 -17-19.5128 79.8774   7
  14 -13 -17-142.785 77.9589   7
  13 -14 -17-66.5524 77.0693   7
  -1 -13 -17 99.6741 81.3860  10
   1 -14 -17 32.8239 79.6717  10
 -14  13 -17 157.054 91.6894   8
 -13  14 -17-61.5117 84.1871   8
 -14  14   0 4128.49 550.310   3
 -14   0   0 3316.64 514.340   3
   0  14   0 4134.48 455.002   2
   0  14   0 4103.60 453.480   5
  14   0   0 3789.31 427.274   5
  14 -14   1 3640.61 462.447   4
 -14  14   1 3513.28 488.694   3
 -14  14  -1 3276.72 487.603   3
 -14   0   1 3370.01 507.860   3
   0  14   1 3441.34 438.645   2
 -14   0  -1 2564.96 473.877   3
   0  14  -1 3468.09 417.803   5
  14   0  -1 3376.92 423.914   5
   0  14   1 3337.38 409.375   5
  14   0   1 3463.05 401.875   5
 -14  14   2 3172.18 472.909   3
 -14   0   2 3528.03 503.632   3
 -14  14  -2 3312.09 495.512   3
  14 -14  -2 3365.40 473.434   4
   0  14   2 3059.66 400.898   5
   0  14   2 3500.46 441.692   2
  14 -14   2 3925.53 451.206   4
 -14   0  -2 2906.40 492.890   3
  14   0   2 3642.14 418.670   5
  14 -14   3 3549.56 427.079   4
 -14   0   3 2765.07 461.601   3
   0  14   3 3572.24 456.810   2
  14 -14  -3 2959.00 467.493   4
 -14   0  -3 2414.46 479.479   3
 -14   0   4 4022.29 520.618   3
  14 -14  -4 3994.61 526.148   4
   0  14   4 3622.98 485.158   2
 -14   0  -4 2761.15 531.327   3
  14 -14  -5 1268.54 346.359   4
 -14   0   5 955.488 320.069   3
 -14   0  -5 558.830 321.324   3
   0  14   5 1530.71 361.883   2
 -14   0  -6 1097.60 399.751   3
  14 -14  -6 1083.50 328.054   4
 -14   0   6 252.703 287.460   3
   0  14   6 736.714 301.360   2
 -14   0  -7 1195.31 486.334   3
  14 -14  -7 836.879 314.388   4
   0  14   7 1210.73 422.087   2
  14 -14  -7 943.517 334.905   1
 -14   0  -8 1039.20 465.682   3
  14 -14  -8 512.574 269.496   4
  14 -14  -8 800.446 344.359   1
   0  14   8 406.656 321.583   2
 -14  14  -9 819.105 135.085   7
 -14   0  -9 1007.98 146.656  10
  14   0   9 1016.46 130.698   9
   0 -14  -9 822.663 171.565  10
 -14  14 -10 290.287 118.442   7
 -14   0 -10 345.455 127.844  10
   0 -14 -10 267.567 153.689  10
  14   0  10 369.728 115.869   9
 -14  14 -11 499.013 127.047   7
 -14   0 -11 306.963 122.334  10
   0 -14 -11 189.581 146.490  10
  14   0  11 544.685 122.425   9
 -14  14 -12 257.140 113.526   7
   0 -14 -12 146.901 140.155  10
 -14   0 -12 111.461 113.308  10
   0  14  12 61.5827 98.1251   9
 -14  14 -13 24.5406 105.849   7
 -14   0 -13 165.468 107.895  10
   0 -14 -13 170.568 129.853  10
   0  14  13-202.582 102.134   9
 -14  14 -14 74.0644 101.939   7
 -14  14 -14 146.035 98.8437   8
   0 -14 -14 122.800 113.333  10
 -14  14 -15 215.253 105.831   8
   0 -14 -15 70.0769 103.185   7
   0 -14 -15 106.212 100.037  10
 -14  14 -16-40.8886 96.9149   8
   0 -14 -16 262.587 97.8511   7
   0 -14 -16 12.4107 91.6279  10
  14 -14 -17 88.7550 74.7763   7
 -15   8   0 5156.93 604.805   3
 -15   7   0 4916.17 604.168   3
   7   8   0 4930.11 479.598   5
   8   7   0 5147.33 485.327   5
 -15   8   1 3805.91 517.311   3
 -15   7   1 3993.24 528.459   3
 -15   8  -1 4195.55 573.651   3
 -15   7  -1 4093.14 587.893   3
   7   8   1 3554.33 407.069   2
  -7  15   1 5482.64 446.107   2
   7   8  -1 3828.79 428.719   5
   8   7  -1 4390.55 462.340   5
   7   8   1 3990.36 432.974   5
   8   7   1 3696.27 410.797   5
 -15   8   2 5007.55 568.346   3
 -15   7   2 4684.29 563.696   3
 -15   8  -2 4664.26 623.004   3
 -15   7  -2 5280.67 672.670   3
  -7  15   2 5992.64 492.202   2
   8   7   2 4790.82 467.497   2
   7   8   2 5255.96 487.825   2
  -8  15   2 5894.91 468.600   2
   7   8  -2 5374.77 513.746   5
   8   7  -2 4947.05 500.330   5
 -15   8   3 5040.90 554.332   3
 -15   7   3 5046.97 560.455   3
 -15   8  -3 4711.05 633.028   3
 -15   7  -3 4062.83 604.388   3
  -8  15   3 6380.33 510.628   2
  -8  -7  -3 5275.16 554.074   3
   7   8   3 4581.04 480.816   2
   8   7   3 4631.44 480.864   2
  -7  15   3 6346.25 517.821   2
 -15   8  -4 3612.84 606.988   3
  -7  -8  -4 4722.38 554.985   3
  -8  -7  -4 4226.84 535.509   3
   7   8   4 3766.43 444.645   2
 -15   7  -4 3045.72 565.531   3
   8   7   4 3996.89 461.598   2
   8 -15  -5 2915.47 486.143   1
 -15   7  -5 2936.67 587.217   3
  -8  -7  -5 3636.17 546.263   3
 -15   8  -5 2295.50 501.907   3
   7   8   5 2914.72 422.318   2
  -7  -8  -5 3326.45 475.717   3
   8   7   5 2997.46 416.252   2
   7   8   6 1526.42 353.925   2
 -15   7  -6 1389.01 476.233   3
  -8  -7  -6 1351.74 385.563   3
  -7  -8  -6 1136.78 334.199   3
   8 -15  -6 1764.95 404.951   1
 -15   8  -6 1216.40 435.015   3
   8   7   6 1407.12 354.599   2
   8   7   7 2181.81 426.886   2
 -15   8  -7 1959.15 527.496   3
  -8  -7  -7 2310.92 448.926   3
  -7  -8  -7 2494.42 475.544   3
   8 -15  -7 2346.41 492.563   1
   7 -15  -7 2274.80 495.289   1
 -15   7  -7 1840.58 514.236   3
   7   8   7 2624.89 446.065   2
 -15   8  -8 1472.57 511.199   3
 -15   7  -8 1492.86 525.242   3
  -8  -7  -8 1256.52 421.883   3
  -7  -8  -8 1610.79 464.756   3
   8   7   8 1095.95 356.150   2
   7 -15  -8 1442.47 441.096   1
   8 -15  -8 722.537 333.002   1
   7   8   8 1438.02 374.110   2
  -8  15  -9 1602.02 171.094   7
 -15   7  -9 851.824 423.247   3
 -15   8  -9 483.704 423.750   3
  -8  -7  -9 1233.72 415.340   3
  -7  -8  -9 1464.29 452.737   3
  -7  15  -9 2230.45 179.490   8
   8   7   9 2016.63 159.582   9
   7 -15  -9 835.917 364.943   1
  -8  15  -9 1970.42 175.573   8
   7   8   9 2058.24 157.794   9
   8 -15  -9 1163.21 429.499   1
   7   8   9 312.345 310.263   2
   8   7   9 1101.59 398.916   2
  -7  15 -10 1359.18 165.642   7
 -15   8 -10 1310.68 159.303   7
  -7  15 -10 1257.23 161.753   8
  -8  -7 -10 1420.54 162.065  10
  -8  15 -10 1009.81 153.605   8
   7   8  10 1227.58 147.233   9
   8   7  10 1283.67 149.043   9
  -7  -8 -10 1473.10 169.462  10
  -8  15 -10 1258.02 160.504   7
  -7  15 -11 1898.42 188.116   7
  -8  15 -11 1736.86 183.543   7
 -15   8 -11 2198.99 180.610   7
 -15   7 -11 2229.64 185.727   7
   8   7  11 1812.67 167.546   9
  -8  -7 -11 1672.96 174.174  10
  -7  -8 -11 1780.77 178.472  10
  -7  15 -11 1853.95 180.885   8
  -8  15 -11 1687.86 180.734   8
   7   8  11 1994.85 170.153   9
  -8  15 -12 1132.62 159.669   8
  -7  15 -12 1618.31 177.550   7
  -8  15 -12 1645.23 178.602   7
 -15   8 -12 1233.56 147.873   7
 -15   7 -12 1330.32 150.585   7
  -7  15 -12 1170.61 158.742   8
   7   8  12 1052.73 138.289   9
  -8  -7 -12 1006.22 153.369  10
  -7  -8 -12 1021.86 152.663  10
   8   7  12 1293.72 147.063   9
  -8  15 -13 312.500 121.255   8
  -7  15 -13 240.262 138.996   7
  -8  15 -13 14.4513 127.304   7
 -15   8 -13 189.631 113.629   7
 -15   7 -13 273.321 120.407   7
   8 -15 -13 27.5494 144.939  10
  -7  -8 -13 156.887 119.480  10
   7 -15 -13 450.285 167.235  10
  -7  15 -13 330.069 126.075   8
   8   7  13 236.203 111.521   9
  -8  -7 -13 296.848 124.179  10
   7   8  13 224.106 107.568   9
  -7  15 -14 3.23306 111.591   8
  -8  15 -14 148.251 114.657   8
  -7  15 -14-62.4488 123.662   7
  -8  15 -14 9.20608 120.643   7
 -15   8 -14 121.299 104.127   7
 -15   7 -14 291.441 110.441   7
   7 -15 -14 131.191 131.582  10
  -8  -7 -14 2.88631 97.7102  10
  -7  -8 -14 120.701 108.799  10
   8   7  14-92.4682 94.9983   9
   7   8  14-39.5608 96.2214   9
   8 -15 -14 16.6883 127.419  10
  -8  15 -15-65.4908 98.4846   8
  -7  15 -15-9.71421 101.668   8
 -15   8 -15 117.689 100.576   7
 -15   7 -15 222.919 103.217   7
   7   8  15-169.327 96.2842   9
  -8  -7 -15 51.9507 91.3202  10
  -7  -8 -15 76.9754 93.6113  10
   7 -15 -15-41.1407 116.965  10
   8 -15 -15-123.046 120.621  10
   8   7  15-164.135 93.1639   9
  -8  15 -16 25.3447 85.4235   8
 -15   8 -16-13.6123 88.3622   7
 -15   7 -16 49.1816 86.2688   7
  -7  -8 -16 69.0648 83.3982  10
  -8  -7 -16 38.8506 84.0416  10
   7 -15 -16 5.18787 97.6771  10
   8 -15 -16-0.59534 96.5147  10
  -7  15 -16-35.5421 84.6321   8
   7 -15 -17-41.1046 82.0032   7
   8 -15 -17-39.7158 80.1902   7
  -7  -8 -17-60.4860 80.0544  10
   7 -15 -17 70.1451 80.2607  10
   8 -15 -17-215.213 85.8203  10
  -7  15 -17-138.594 75.8994   8
  -8  -7 -17-177.603 84.4853  10
  -8  15 -17 30.7366 72.3997   8
   9   6   0 557.592 228.539   5
   6   9   0 536.450 239.723   5
  15  -9   0 577.938 218.426   4
 -15   6   0 549.606 291.301   3
 -15   9   0 527.674 291.659   3
  -6  15   0 869.563 249.389   2
   6   9  -1 122.558 196.569   5
  -9  -6  -1 446.952 268.048   3
   6   9   1 175.099 189.566   5
   9   6   1 108.108 172.305   5
  15  -9  -1 338.478 216.333   4
  15  -9   1 293.573 203.646   4
   6   9   1 414.704 220.311   2
 -15   9  -1 230.309 298.671   3
  -6  15   1 316.449 201.821   2
   9   6  -1 263.414 205.083   5
 -15   6   1 307.450 270.013   3
 -15   6  -1 529.570 337.454   3
 -15   9   1 120.678 249.428   3
   6   9   2 155.121 213.926   2
  15  -9  -2 252.779 203.841   4
   9   6   2 197.246 215.512   2
   9   6  -2-99.7774 195.543   5
 -15   9   2 271.441 230.056   3
  -9  -6  -2 288.308 234.102   3
 -15   9  -2 156.017 271.644   3
 -15   6  -2 214.459 309.546   3
  -6  15   2 182.788 226.015   2
 -15   6   2 90.2111 232.136   3
   6   9  -2 122.115 200.433   5
  -9  -6  -3 1378.75 350.150   3
   6   9   3 1521.30 316.028   2
   9   6   3 1593.64 312.523   2
  15  -9  -3 1563.27 334.357   4
   9 -15  -3 1754.83 348.244   1
 -15   6   3 1666.52 385.973   3
  -6  15   3 1905.57 340.962   2
 -15   9  -3 1009.50 344.435   3
 -15   6  -3 1494.58 421.732   3
   6   9   4 388.746 234.095   2
  -9  -6  -4 103.280 258.190   3
   9   6   4 394.944 266.400   2
  15  -9  -4 378.438 239.265   4
   9 -15  -4 273.230 265.546   1
 -15   9  -4 166.638 276.574   3
 -15   6  -4 509.930 329.770   3
  -6  15   4 462.108 289.978   2
   6   9   5 31.4930 218.391   2
   9   6   5 49.4262 228.408   2
  -9  -6  -5 227.443 281.908   3
  -6  -9  -5 117.935 221.084   3
   9 -15  -5 154.783 238.495   1
 -15   9  -5 328.420 336.650   3
 -15   6  -5 143.795 292.893   3
   9   6   6 214.332 237.046   2
  -9  -6  -6 15.1772 294.282   3
  -6  -9  -6-225.061 298.631   3
   9 -15  -6-47.2614 252.271   1
 -15   6  -6-296.683 346.904   3
 -15   9  -6-55.7066 298.060   3
   6   9   6 166.527 240.005   2
   9   6   7-86.5504 243.086   2
 -15   9  -7-173.013 318.672   3
 -15   6  -7-166.841 332.901   3
  -9  -6  -7 242.589 259.906   3
  -6  -9  -7 469.637 309.267   3
   9 -15  -7 73.6749 234.320   1
   6   9   7-237.636 278.055   2
 -15   9  -8 479.364 364.875   3
 -15   6  -8 255.788 342.729   3
  -9  -6  -8 170.492 286.662   3
  -6  -9  -8 436.490 298.163   3
   6 -15  -8 314.095 328.354   1
   9   6   8 229.503 246.054   2
   6   9   8 488.950 291.694   2
   9 -15  -8 143.970 253.100   1
  -6  15  -9 59.6858 131.132   8
  -9  15  -9 136.758 121.915   8
   9 -15  -9 97.2451 275.547   1
  -9  15  -9-116.009 121.160   7
 -15   6  -9-11.8802 427.173   3
 -15   9  -9 18.1791 452.965   3
  -9  -6  -9 207.976 361.777   3
  -6  -9  -9 112.567 267.777   3
   6   9   9 162.739 110.232   9
   6 -15  -9-229.143 375.791   1
   9   6   9 249.109 120.830   9
   6   9   9-11.6142 308.526   2
   6   9  10 282.922 122.171   9
  -6  15 -10 233.295 135.263   8
  -9  15 -10 88.1549 129.749   8
  -6  15 -10 59.4778 141.158   7
  -9  15 -10 127.871 122.409   7
 -15   9 -10-47.6389 128.974   7
   9   6  10 186.618 123.170   9
  -9  -6 -10 264.513 143.896  10
  -6  -9 -10 183.894 143.758  10
  -6  15 -11 111.798 138.289   8
  -9  15 -11 271.763 144.549   8
  -6  15 -11 273.991 146.886   7
  -9  15 -11 218.763 134.737   7
 -15   9 -11 126.624 123.102   7
   9   6  11 394.038 131.043   9
  -9  -6 -11 564.389 148.272  10
  -6  -9 -11 423.222 143.971  10
   6   9  11 207.853 118.265   9
  -6  15 -12 294.903 138.603   8
  -6  15 -12 143.258 136.141   7
  -9  15 -12 139.917 133.395   7
 -15   9 -12 148.535 116.369   7
  -9  -6 -12 200.864 128.321  10
  -9  15 -12 334.737 138.396   8
   9   6  12 473.954 122.627   9
   6   9  12 195.582 111.382   9
   6 -15 -12 45.7949 150.455  10
  -6  -9 -12 209.733 126.556  10
  -9  15 -13 70.2081 124.875   8
  -6  15 -13-1.50583 131.639   7
  -9  15 -13-74.9515 129.437   7
 -15   9 -13-71.1722 111.248   7
 -15   6 -13 143.919 117.865   7
  -6  15 -13-19.3017 122.722   8
   9   6  13 126.617 108.491   9
  -9  -6 -13 301.412 122.050  10
  -6  -9 -13 192.330 127.689  10
   6 -15 -13-51.6754 141.869  10
   9 -15 -13 386.481 165.384  10
   6   9  13 195.448 106.304   9
  -6  15 -14-59.4388 102.403   8
  -9  15 -14 122.363 103.570   8
  -6  15 -14-158.473 122.659   7
 -15   6 -14 73.4911 101.896   7
 -15   9 -14 213.934 103.529   7
  -9  -6 -14-65.0272 96.4435  10
  -6  -9 -14 101.661 103.540  10
   9   6  14 85.5987 93.2549   9
   6 -15 -14 11.4207 121.373  10
   6   9  14 43.0045 89.8143   9
  -9  15 -14-108.147 119.325   7
   9 -15 -14 83.3927 133.357  10
  -6  15 -15-105.890 95.9439   8
 -15   9 -15-3.39330 93.7470   7
 -15   6 -15-13.8166 96.3115   7
  -9  -6 -15-10.6886 87.7170  10
  -6  -9 -15-27.7742 91.2808  10
   6 -15 -15-16.8097 112.354  10
  -9  15 -15-91.9536 105.409   8
   9 -15 -15 111.287 116.583  10
   9   6  15-0.27467 82.8666   9
   6   9  15-63.9866 84.2673   9
  -6  15 -16-85.4546 83.0276   8
 -15   9 -16 14.5406 88.8637   7
 -15   6 -16 57.3516 88.1660   7
  -9  -6 -16 95.9192 85.5496  10
  -6  -9 -16 40.4295 83.6810  10
   6 -15 -16 56.1875 97.2859  10
   9 -15 -16 42.8918 98.2037  10
  -9  15 -16 35.6320 85.2182   8
  -9  15 -17-97.9792 76.7504   8
   6 -15 -17-64.0847 82.0057   7
   9 -15 -17-150.742 85.3460   7
  -6  -9 -17 80.5891 78.1413  10
   9 -15 -17-37.7284 77.4842  10
  -9  -6 -17 118.345 80.9255  10
   6 -15 -17-72.6440 81.9153  10
 -15  10   0 5652.80 637.482   3
 -15   5   0 5756.80 655.285   3
 -10  -5   0 6700.19 590.057   3
  10   5   0 7021.09 564.287   5
  15 -10   0 7198.54 573.198   4
  -5  15   0 7636.31 522.432   2
   5  10   0 6337.71 535.335   5
  15 -10  -1 7467.12 595.315   4
 -15  10   1 6552.26 663.760   3
 -15   5   1 7561.15 712.601   3
 -15  10  -1 7197.86 731.566   3
 -15   5  -1 6644.27 711.698   3
  15 -10   1 8027.01 587.962   4
  -5  15  -1 8038.37 530.387   2
 -10  -5  -1 7688.19 649.663   3
  -5  15   1 7551.38 543.900   2
   5  10   1 6202.61 528.569   2
   5  10  -1 6352.44 549.592   5
  10   5  -1 6968.18 570.939   5
   5  10   1 6232.23 546.980   5
  10   5   1 6456.34 552.794   5
  15 -10   2 5092.88 466.907   4
 -15  10   2 4975.11 556.387   3
 -15   5   2 4484.04 561.379   3
 -15  10  -2 4934.16 639.406   3
 -15   5  -2 5008.08 644.917   3
  -5  15   2 5996.65 509.919   2
 -10  -5  -2 5526.55 575.003   3
   5  10   2 4758.23 485.288   2
  15 -10  -2 5131.35 526.268   4
   5  10  -2 4668.49 484.131   5
  10   5  -2 5014.16 505.905   5
  15 -10  -3 3679.32 464.455   4
  15 -10   3 4187.00 419.126   4
 -15   5   3 3526.35 507.922   3
 -10  -5  -3 3975.09 521.248   3
  10   5   3 3401.22 400.938   2
  -5  15   3 4145.76 453.975   2
   5  10   3 3413.77 418.769   2
 -15  10  -3 2853.50 519.632   3
 -15   5  -3 2453.37 502.979   3
  15 -10  -4 7784.36 657.422   4
 -15   5   4 7533.35 695.184   3
 -15  10  -4 5557.40 719.477   3
  10   5   4 7133.97 582.855   2
 -15   5  -4 6764.54 775.880   3
  -5  15   4 9290.90 673.842   2
   5  10   4 7800.97 626.328   2
  10 -15  -4 7636.07 661.192   1
 -10  -5  -4 7508.20 707.920   3
  15 -10  -5 4750.45 537.648   4
 -15  10  -5 3443.65 605.544   3
 -10  -5  -5 4293.35 595.433   3
 -15   5  -5 4723.90 684.816   3
  10 -15  -5 5081.71 577.104   1
  -5  15   5 6473.45 613.962   2
   5  10   5 4462.91 528.834   2
  10   5   5 5072.52 520.644   2
 -15   5  -6 2510.76 588.194   3
  15 -10  -6 2857.93 443.182   4
  10 -15  -6 3360.53 520.554   1
   5  10   6 2838.85 436.002   2
  10   5   6 2728.58 406.370   2
 -15  10  -6 2094.81 509.584   3
 -10  -5  -6 3097.98 556.403   3
 -15  10  -7 2291.97 533.094   3
  10   5   7 2480.89 405.575   2
 -15   5  -7 2086.65 559.342   3
 -10  -5  -7 2480.59 567.531   3
  -5 -10  -7 2723.95 438.341   3
  10 -15  -7 2742.77 514.827   1
   5  10   7 2408.72 448.515   2
 -15   5  -8 1722.23 555.419   3
 -15  10  -8 1522.15 528.375   3
 -10  -5  -8 1122.63 404.484   3
   5 -15  -8 1287.06 414.578   1
  -5 -10  -8 1762.26 398.299   3
  10 -15  -8 1618.44 462.054   1
   5  10   8 1740.61 433.564   2
 -10  15  -9 1317.34 150.537   8
 -10  15  -9 1552.21 158.317   7
 -15  10  -9 1247.12 527.901   3
  10 -15  -9 967.703 387.196   1
  -5  15  -9 2155.87 179.626   8
 -10  -5  -9 1961.00 181.320  10
  -5 -10  -9 2033.69 182.616  10
  10   5   9 2031.40 159.325   9
   5  10   9 734.880 343.630   2
  -5  15 -10 3200.49 234.355   7
 -10  15 -10 4190.19 213.685   7
 -15  10 -10 4571.00 221.027   7
 -10  -5 -10 4671.98 233.833  10
  -5 -10 -10 4590.32 235.590  10
  -5  15 -10 5119.12 233.428   8
   5  10  10 4007.34 196.836   9
 -10  15 -10 3516.78 202.045   8
  10   5  10 4541.05 214.383   9
  -5  15 -11 1885.26 189.338   7
 -15  10 -11 1602.46 158.369   7
 -10  -5 -11 1895.98 171.482  10
  -5 -10 -11 1605.19 179.460  10
   5  10  11 1776.09 154.564   9
 -10  15 -11 1720.08 173.814   8
  -5  15 -11 2114.14 184.074   8
  10   5  11 2036.20 164.957   9
 -10  15 -12 81.8565 129.134   8
  -5  15 -12 242.483 139.657   7
 -10  15 -12 98.3219 124.735   7
 -15  10 -12 201.022 112.348   7
  -5 -10 -12 195.188 134.215  10
   5 -15 -12 198.225 153.281  10
 -10  -5 -12 151.652 116.960  10
  10   5  12 246.606 111.729   9
  -5  15 -12 200.610 128.335   8
   5  10  12 157.750 107.975   9
  -5  15 -13 80.6623 118.927   8
 -10  15 -13 181.207 123.458   8
 -10  15 -13 56.1277 120.408   7
 -15  10 -13 79.1401 105.315   7
   5 -15 -13 283.772 152.979  10
  -5 -10 -13 284.187 121.975  10
 -10  -5 -13 165.387 114.062  10
  10 -15 -13-18.9688 144.590  10
  -5  15 -13-100.932 138.874   7
  10   5  13 155.923 105.700   9
   5  10  13 17.8285 100.312   9
 -15  10 -14-60.8037 99.8871   7
  -5  15 -14-19.8344 101.946   8
 -10  15 -14 47.3175 114.053   7
  10 -15 -14-83.6737 128.482  10
 -10  -5 -14 82.7482 97.8236  10
   5 -15 -14 22.0980 124.894  10
  -5 -10 -14 65.3716 103.872  10
 -10  15 -14 91.1909 106.487   8
   5  10  14 71.2849 90.1350   9
  10   5  14-88.7119 94.9610   9
 -10  15 -15-41.0647 98.2999   8
 -15  10 -15-52.3517 96.4040   7
   5  10  15-9.61828 81.1272   9
   5 -15 -15 27.0037 108.815  10
 -10  -5 -15-18.6234 89.1595  10
  -5 -10 -15-56.4638 93.3391  10
  -5  15 -15-47.2756 97.4973   8
  10 -15 -15 18.3697 111.461  10
 -15  10 -16 48.5339 93.7802   7
 -10  -5 -16 12.2576 81.2118  10
   5 -15 -16 55.5584 97.1005  10
 -10  15 -16 78.5421 91.4178   8
  10 -15 -16-248.757 102.631  10
  -5 -10 -16 110.921 91.9941  10
 -15  10 -17-82.4932 88.9165   8
   5 -15 -17 24.1881 81.5150   7
  10 -15 -17 12.1467 79.6061   7
  10 -15 -17 62.8349 76.0131  10
  -5 -10 -17-136.725 79.8068  10
   5 -15 -17-40.0319 78.0266  10
 -10  15 -17-62.5659 77.9416   8
   4  11   0 1142.10 277.277   5
  -4  15   0 1432.48 301.480   2
  15 -11   0 1014.94 269.329   4
 -15  11   0 1194.58 357.104   3
 -11  -4   0 1161.07 325.425   3
 -15   4   0 969.141 345.172   3
  11   4   0 695.177 245.450   5
  11   4   1 862.939 249.286   5
   4  11  -1 526.875 221.397   5
   4  11   1 318.684 211.084   5
  -4  15   1 596.544 245.900   2
  15 -11  -1 241.635 205.968   4
  15 -11   1 335.259 203.560   4
   4  11   1 375.669 218.672   2
  -4  15  -1 727.706 252.810   2
 -15  11  -1 451.954 291.000   3
 -15   4  -1 172.549 279.637   3
 -11  -4  -1-1.29090 248.251   3
 -11  -4   1 249.436 221.570   3
 -15   4   1 414.791 289.603   3
  11   4  -1 331.235 212.321   5
 -15  11   1 417.605 269.780   3
   4  11   2-193.419 209.751   2
  15 -11  -2 192.702 201.760   4
  15 -11   2 112.273 179.843   4
 -15  11   2 121.567 212.205   3
   4  11  -2 124.995 169.906   5
 -11  -4  -2 68.3807 238.569   3
 -15   4   2 121.510 240.543   3
  -4  15   2 56.1879 208.661   2
 -15  11  -2 109.463 274.218   3
 -15   4  -2 251.409 262.864   3
  11   4  -2 8.78785 181.448   5
 -11  -4  -3 369.050 273.631   3
   4  11   3 245.321 218.110   2
  15 -11  -3 326.927 236.324   4
  15 -11   3 592.075 213.499   4
 -15  11  -3 244.646 258.133   3
 -15   4   3 237.184 228.435   3
 -15   4  -3 235.755 324.978   3
  -4  15   3 488.646 238.679   2
 -15   4  -4 604.369 334.327   3
  15 -11  -4 318.591 232.836   4
  11   4   4 263.550 228.022   2
   4  11   4 502.626 266.241   2
 -11  -4  -4 527.995 318.439   3
 -15   4   4 683.675 296.574   3
  -4  15   4 586.459 267.035   2
 -15  11  -4 47.3746 276.012   3
  11 -15  -5 1221.59 350.608   1
 -11  -4  -5 1072.78 379.198   3
  11   4   5 1091.20 298.504   2
  15 -11  -5 898.447 291.530   4
 -15   4   5 830.570 313.690   3
 -15   4  -5 847.722 379.580   3
  -4  15   5 1100.81 340.396   2
 -15  11  -5 432.420 291.045   3
   4  11   5 1078.98 326.413   2
  11   4   6 87.8680 216.080   2
  11 -15  -6 148.003 248.523   1
 -11  -4  -6-35.8819 272.163   3
  15 -11  -6-58.5851 206.952   4
  -4  15   6 54.7845 287.940   2
 -15   4  -6 81.3344 327.456   3
   4  11   6-130.626 262.323   2
 -15  11  -6 105.336 278.197   3
 -15  11  -7 495.692 360.461   3
 -15   4  -7 111.428 326.905   3
 -11  -4  -7-137.225 328.756   3
  15 -11  -7-124.341 230.468   4
  11 -15  -7-6.93668 244.730   1
   4  11   7 109.631 237.704   2
 -15   4  -8 428.768 430.955   3
  11 -15  -8 64.4091 227.984   4
 -11  -4  -8 29.5583 338.048   3
  11 -15  -8 470.494 330.128   1
   4  11   8 73.0101 290.138   2
 -11  15  -9 207.002 116.401   7
 -15  11  -9 324.329 126.925   7
 -11  -4  -9 511.031 145.628  10
  -4  15  -9 364.291 133.142   8
  -4 -11  -9 308.674 143.499  10
 -11  15  -9 271.446 119.890   8
  11   4   9 380.630 119.844   9
 -11  15 -10-17.5153 117.205   7
 -15  11 -10 134.453 126.765   7
  11   4  10 278.805 126.930   9
 -11  -4 -10 409.858 138.516  10
  -4 -11 -10 158.400 138.936  10
  -4  15 -10 334.783 134.959   8
  -4  15 -11 204.747 138.288   8
 -11  15 -11-1.11692 117.248   7
 -15  11 -11 121.354 119.852   7
  11   4  11 293.561 125.458   9
 -11  -4 -11 376.892 138.095  10
  -4 -11 -11 360.330 143.233  10
   4  11  11 133.544 110.651   9
   4 -15 -11 152.208 156.979  10
  -4  15 -12 537.191 139.185   8
 -11  15 -12 256.845 124.830   8
 -11  15 -12 436.054 132.800   7
 -15  11 -12 582.439 122.260   7
  11   4  12 494.383 120.662   9
 -11  -4 -12 619.746 126.151  10
  -4 -11 -12 497.464 143.775  10
   4  11  12 456.505 114.531   9
   4 -15 -12 402.363 158.708  10
 -11  15 -13 3.17688 116.575   8
 -11  15 -13 25.3371 114.581   7
 -15  11 -13-4.06519 104.547   7
  11   4  13-15.9077 100.147   9
 -11  -4 -13 4.09212 108.325  10
   4 -15 -13-26.4169 140.229  10
  -4  15 -13 22.3663 115.397   8
  -4 -11 -13-100.291 116.509  10
   4  11  13-143.929 107.125   9
 -11  15 -14-31.3690 103.705   8
 -11  15 -14-26.6829 114.500   7
 -15  11 -14 133.761 100.951   7
  11 -15 -14 1.82585 127.432  10
 -11  -4 -14 104.368 98.4551  10
  -4 -11 -14 107.751 108.063  10
   4 -15 -14 175.913 124.801  10
  11   4  14 60.1766 91.9351   9
   4  11  14-62.3074 90.3766   9
 -11  15 -15-12.2782 103.026   8
 -15  11 -15 57.0424 96.4614   7
 -11  -4 -15 46.5731 87.2740  10
  -4 -11 -15 71.5631 96.3723  10
   4 -15 -15 46.5361 110.943  10
  11 -15 -15 61.7868 111.440  10
 -11  15 -16 0.82352 89.7493   8
   4 -15 -16 5.36179 92.9692   7
   4 -15 -16 8.43665 94.0449  10
  -4 -11 -16 70.7334 86.4128  10
  11 -15 -16-226.881 100.197  10
 -11  -4 -16 113.334 83.8355  10
 -11  15 -17-6.91002 78.3012   8
   4 -15 -17-38.9875 80.9366   7
  11 -15 -17-49.1074 81.0042   7
 -15  11 -17 17.1487 87.1063   8
  -4 -11 -17 148.260 81.4094  10
   4 -15 -17 0.96705 77.2311  10
  15 -12   0 5292.47 523.124   4
 -15  12   0 5128.32 633.968   3
 -15   3   0 5372.93 647.535   3
 -12  -3   0 5376.76 582.699   3
  -3  15   0 6441.79 527.747   2
   3  12   0 5390.29 516.701   2
   3  12   0 5456.68 516.550   5
  12   3   0 5258.86 502.143   5
   3  12  -1 1096.06 267.315   5
  12   3   1 822.851 255.187   5
  -3  15   1 1108.21 271.405   2
  15 -12  -1 1566.29 322.137   4
  15 -12   1 1322.58 298.684   4
   3  12   1 1026.53 280.882   2
 -15   3   1 1187.77 338.040   3
   3  12   1 1018.32 264.015   5
 -15  12   1 1038.22 340.830   3
 -15  12  -1 1251.58 380.315   3
 -15   3  -1 753.672 311.379   3
  12   3  -1 1092.07 260.970   5
 -12  -3  -1 1108.89 310.219   3
 -12  -3   1 1195.75 329.738   3
  12   3   2 885.894 247.104   5
   3  12   2 835.773 265.852   2
  15 -12  -2 827.558 272.989   4
  15 -12   2 733.859 226.990   4
 -15  12   2 646.030 274.964   3
   3  12   2 748.117 247.179   5
  -3  15   2 1033.95 266.622   2
 -15   3   2 842.852 310.181   3
 -15  12  -2 646.251 303.777   3
 -12  -3   2 1421.33 327.173   3
 -15   3  -2 906.111 350.508   3
 -12  -3  -2 1069.99 328.435   3
  12   3  -2 624.653 234.916   5
  15 -12   3 2077.72 325.084   4
  15 -12  -3 1582.24 344.391   4
   3  12   3 1526.39 323.889   2
 -15   3   3 1690.57 388.077   3
 -12  -3  -3 1313.98 366.872   3
 -15  12  -3 1201.93 375.454   3
 -15   3  -3 1287.16 416.694   3
  -3  15   3 1537.59 316.022   2
   3  12   4 2066.71 382.051   2
 -12  -3  -4 2317.23 480.405   3
  15 -12  -4 2547.51 424.932   4
  -3  15   4 2843.37 418.979   2
 -15   3   4 2199.72 415.696   3
 -15  12  -4 2043.20 465.887   3
 -15   3  -4 2244.77 513.654   3
 -15   3  -5 2932.26 576.446   3
 -12  -3  -5 2378.63 507.031   3
  15 -12  -5 3516.06 484.990   4
 -15   3   5 2915.28 500.877   3
  -3  15   5 3324.67 481.607   2
   3  12   5 2996.02 454.699   2
 -15  12  -5 2845.32 511.117   3
 -15   3  -6 384.143 361.373   3
 -12  -3  -6 212.619 271.102   3
  15 -12  -6 609.650 261.447   4
  15 -12  -6 381.179 225.593   1
  12 -15  -6 414.065 248.078   1
 -15  12  -6 178.746 287.399   3
  -3  15   6 476.751 286.148   2
 -15   3   6 256.216 280.025   3
   3  12   6 541.270 273.287   2
 -15   3  -7 643.229 372.968   3
  12 -15  -7 969.106 336.048   4
 -12  -3  -7 948.814 383.861   3
  15 -12  -7 1007.24 312.402   4
  15 -12  -7 1588.32 384.585   1
  12 -15  -7 1077.61 353.094   1
  -3  15   7 1210.85 415.248   2
   3  12   7 379.892 272.543   2
 -15   3  -8-15.0689 452.675   3
  12 -15  -8 144.956 224.266   4
 -12  -3  -8-155.040 377.307   3
  15 -12  -8 166.425 224.241   4
  12 -15  -8 713.962 344.401   1
  -3  15   8 205.817 373.331   2
  15 -12  -8 930.354 344.460   1
   3  12   8 218.088 283.073   2
 -12  15  -9 1452.54 150.440   7
 -15  12  -9 1581.42 160.285   7
 -15   3  -9 1732.02 150.811  10
 -12  -3  -9 1801.26 176.685  10
  -3 -12  -9 1470.88 182.885  10
  15  -3   9 1392.58 130.887   9
  12   3   9 1676.20 152.042   9
 -12  15 -10 746.445 129.422   7
 -15  12 -10 732.019 127.518   7
  -3 -12 -10 612.282 157.392  10
 -12  -3 -10 852.517 141.446  10
  12   3  10 1024.78 137.553   9
   3 -15 -10 389.028 149.677  10
 -12  15 -11 271.303 121.174   7
 -15  12 -11 202.440 113.562   7
 -12  -3 -11 319.385 122.298  10
  -3 -12 -11 178.512 138.522  10
   3 -15 -11 195.297 161.170  10
  12   3  11 267.398 117.535   9
   3  12  11 308.639 111.803   9
 -12  15 -12 88.0196 122.417   8
 -12  15 -12 35.3342 116.984   7
 -15  12 -12 108.939 110.784   7
 -12  -3 -12 62.7340 114.896  10
   3 -15 -12 163.101 151.871  10
  -3 -12 -12 259.642 141.032  10
  12   3  12 250.327 115.799   9
   3  12  12 14.4645 103.632   9
 -12  15 -13-66.9026 112.595   8
 -12  15 -13-197.153 114.856   7
 -15  12 -13 12.5963 99.3497   7
   3  12  13-131.803 95.5439   9
   3 -15 -13-71.9682 138.601  10
  12   3  13-43.9162 96.8205   9
 -12  -3 -13 56.8825 100.834  10
  -3 -12 -13 123.947 123.222  10
 -12  15 -14 16.8319 105.130   8
 -12  15 -14-12.2833 107.189   7
 -15  12 -14 176.186 103.921   7
 -12  -3 -14 82.4736 95.1298  10
  -3 -12 -14 306.749 115.636  10
   3 -15 -14 4.49642 111.303  10
   3  12  14 83.4948 87.4286   9
  12 -15 -14 4.72769 127.226  10
 -12  15 -15 157.257 99.8128   8
 -15  12 -15 0.05026 94.2569   7
  -3 -12 -15 0.45232 92.8492  10
 -12  -3 -15 16.4057 86.2612  10
   3 -15 -15-43.6311 103.234  10
  12 -15 -15-59.4921 109.332  10
 -15  12 -16 57.7946 94.8042   8
  15 -12 -16-35.5569 84.7374   7
   3 -15 -16 117.145 98.0266   7
  -3 -12 -16 106.206 91.0204  10
   3 -15 -16 30.4245 89.8858  10
 -12  15 -16-36.9484 94.7892   8
 -15  12 -17 125.476 89.1243   8
   3 -15 -17 85.9535 80.9359   7
  12 -15 -17-28.2701 76.6453   7
  -3 -12 -17 102.168 78.1592  10
   3 -15 -17-2.36080 76.6844  10
 -12  15 -17 6.81726 81.5304   8
  13   2   0 213.737 186.353   5
  15 -13   0 201.118 204.216   4
  -2  15   0 397.329 207.047   2
   2  13   0 403.728 234.247   2
 -15  13   0 272.406 274.792   3
   2  13   0 246.534 198.329   5
  15  -2   0 377.604 172.541   5
 -15   2   0 260.868 242.455   3
 -13  -2   0 523.874 279.566   3
  -2  15   0 371.962 207.411   5
  -2  15   1 1570.19 310.706   5
   2  13   1 808.923 266.042   5
  -2  15   1 1265.72 311.209   2
  15 -13  -1 1700.22 355.720   4
  15 -13   1 1267.14 302.956   4
   2  13   1 1486.00 320.304   2
 -15  13   1 1589.22 376.793   3
 -15   2   1 917.917 313.694   3
  13   2  -1 1098.48 279.090   5
  15  -2   1 1214.18 259.617   5
 -13  15   1 1202.57 305.565   3
 -15   2  -1 1194.95 376.110   3
 -15  13  -1 1111.76 350.157   3
 -13  -2   1 1454.66 347.738   3
 -13  -2  -1 1436.13 335.725   3
  13   2   1 1311.89 274.969   5
   2  13  -1 1267.99 297.505   5
  13   2   2 461.913 209.675   5
   2  13   2 389.315 243.407   2
  15 -13  -2 448.958 251.119   4
  15 -13   2 524.168 242.118   4
 -13  -2   2 430.135 264.338   3
 -15  13  -2 413.850 288.967   3
  -2  15   2 586.748 258.045   2
   2  13   2 269.862 201.369   5
 -15  13   2 225.999 221.993   3
  15  -2   2 449.457 235.636   5
 -15   2  -2 484.489 336.028   3
 -13  -2  -2 250.593 256.994   3
 -15   2   2 445.061 276.130   3
 -13  -2  -3 290.192 302.048   3
   2  13   3 701.495 269.997   2
  15 -13  -3 728.210 278.921   4
  15 -13   3 594.220 228.861   4
 -15   2   3 815.221 305.678   3
  -2  15   3 737.080 272.284   2
 -15  13  -3 934.317 353.635   3
 -15   2  -3 823.283 345.438   3
 -13  -2   3 266.856 211.688   3
  15 -13  -4 1047.00 328.826   4
 -15   2   4 776.629 335.130   3
 -15  13  -4 1383.48 419.498   3
  -2  15   4 1084.97 329.941   2
   2  13   4 1032.65 313.872   2
 -15   2  -4 921.554 377.272   3
 -13  -2  -4 774.550 361.754   3
 -15   2  -5 1087.13 435.174   3
  15 -13  -5 1340.50 353.025   4
  -2  15   5 1540.48 370.776   2
 -15   2   5 1338.02 379.974   3
 -13  -2  -5 1297.49 405.299   3
   2  13   5 1354.87 352.773   2
 -15   2  -6 270.688 367.865   3
 -13  -2  -6 517.237 324.165   3
  13 -15  -6-45.2467 231.345   4
  15 -13  -6 360.657 268.903   4
 -15   2   6 324.317 292.739   3
   2  13   6 255.328 262.147   2
  -2  15   6 49.0249 253.297   2
 -15   2  -7 913.635 462.691   3
 -13  -2  -7 1133.16 435.757   3
  13 -15  -7 442.624 266.853   4
  15 -13  -7 891.897 316.791   4
  -2  15   7 789.094 350.365   2
 -15   2   7 628.526 361.445   3
  15 -13  -7 447.015 237.062   1
   2  13   7 510.065 286.669   2
  13 -15  -7 352.589 266.136   1
  13 -15  -8-121.667 296.928   1
 -15   2  -8-549.129 397.331   3
  13 -15  -8 608.260 292.176   4
 -13  -2  -8 47.0952 359.617   3
  15 -13  -8 226.622 219.991   4
  15 -13  -8-292.775 339.810   1
  -2  15   8 601.138 312.451   2
  15  -2   8 16.7148 94.4387   9
  13   2   8 68.9079 101.689   9
   2  13   8-44.4776 288.648   2
 -15   2   8 41.7182 316.506   3
 -13  15  -9 78.9558 117.179   7
 -15  13  -9 26.5129 113.910   7
  15  -2   9 62.0063 96.3012   9
 -15   2  -9 62.5678 113.097  10
 -13  -2  -9 128.337 127.278  10
  -2 -13  -9 105.222 150.560  10
  13   2   9 193.605 113.782   9
 -13  15 -10 507.987 129.422   7
  -2 -13 -10 735.790 165.712  10
 -15   2 -10 623.781 122.975  10
 -13  -2 -10 662.074 137.743  10
   2 -15 -10 752.294 171.625  10
  15  -2  10 637.471 117.377   9
  13   2  10 755.833 127.768   9
 -15  13 -10 636.749 128.224   7
 -13  15 -11 674.511 133.017   7
 -15  13 -11 716.415 127.988   7
 -13  -2 -11 756.388 136.486  10
   2 -15 -11 494.799 161.863  10
  -2 -13 -11 868.471 157.677  10
  13   2  11 694.141 124.790   9
 -13  15 -12 154.810 118.753   8
 -13  15 -12 224.681 118.053   7
 -15  13 -12 146.715 109.584   7
 -13  -2 -12 167.704 112.651  10
   2 -15 -12 86.3020 143.141  10
  -2 -13 -12 222.639 134.798  10
  13   2  12 187.822 108.499   9
   2  13  12-26.7991 96.4516   9
 -13  15 -13 181.566 115.771   8
 -15  13 -13 125.623 108.163   7
 -13  -2 -13 284.827 109.043  10
  -2 -13 -13 149.642 123.720  10
   2  13  13 138.113 96.9597   9
   2 -15 -13 48.7856 126.864  10
  13   2  13 170.625 97.6540   9
 -13  15 -13 117.970 107.534   7
 -13  15 -14-15.8141 100.001   8
 -15  13 -14 22.0330 95.7798   7
 -13  -2 -14 37.6452 87.3583  10
   2 -15 -14 107.323 114.605  10
  -2 -13 -14 115.200 109.744  10
  13 -15 -14 47.0700 122.307  10
   2  13  14-8.41827 85.8415   9
 -15  13 -15-14.9430 96.5575   8
 -13  15 -15-86.4253 96.6303   8
  -2 -13 -15-20.3116 94.7559  10
   2 -15 -15 54.9236 101.620  10
  13 -15 -15-83.0463 110.327  10
 -15  13 -16 57.9265 87.7272   8
   2 -15 -16-8.39447 90.1317   7
  15 -13 -16-26.3467 83.8473   7
  -2 -13 -16 3.94400 85.1960  10
   2 -15 -16-29.8102 87.3537  10
 -13  15 -16 98.1558 92.6547   8
  -1  15   0 1587.39 307.762   5
  15  -1   0 1603.51 308.447   5
   1  14   0 1375.40 302.247   5
  15 -14   0 1436.41 347.818   4
  -1  15   0 1353.43 303.181   2
   1  14   0 1390.66 333.188   2
  14   1   0 1264.93 294.055   5
 -14  15   0 1484.47 360.463   3
 -15  14   0 1252.40 363.933   3
 -15   1   0 1210.61 372.092   3
 -14  -1   0 1615.68 374.586   3
  -1  15   1 380.599 222.414   5
  15 -14  -1 247.304 236.131   4
  15 -14   1 348.251 216.954   4
  -1  15   1 431.319 229.206   2
   1  14   1 644.370 254.775   2
 -15  14  -1 428.188 289.543   3
 -14  -1   1 43.9353 238.666   3
 -15   1   1 485.782 290.022   3
 -15  14   1 311.404 249.185   3
  15  -1   1 199.409 169.714   5
   1  14   1 397.516 243.667   5
 -15   1  -1 72.1324 247.838   3
 -14  15   1 273.892 250.360   3
 -14  -1  -1 575.107 280.094   3
  14   1   1 389.660 205.655   5
   1  14  -1 245.583 217.874   5
  14   1  -1 598.953 245.335   5
  -1  15   2 1228.07 312.791   5
  -1  15   2 1335.28 325.046   2
   1  14   2 1190.29 298.240   2
  15 -14  -2 933.562 318.012   4
  15 -14   2 884.619 278.179   4
  14   1   2 907.750 259.375   5
 -14  15   2 1342.53 354.557   3
 -15  14   2 1040.05 337.070   3
  15  -1   2 523.115 232.757   5
 -15   1   2 824.466 319.119   3
   1  14   2 526.812 260.202   5
 -14  -1   2 993.137 315.300   3
 -15   1  -2 721.235 334.564   3
 -14  -1  -2 652.146 345.277   3
 -15  14  -2 722.819 365.579   3
  -1  15   3 733.673 240.104   5
   1  14   3 814.146 289.943   2
  14 -15   3 851.577 272.223   4
  15 -14  -3 962.984 323.779   4
  15 -14   3 1266.39 294.921   4
 -14  -1   3 1051.44 335.989   3
  15  -1   3 838.159 240.975   5
  -1  15   3 1177.13 326.347   2
 -15   1   3 847.998 323.755   3
   1  14   3 959.320 296.237   5
 -15   1  -3 711.292 353.650   3
 -14  -1  -3 739.811 342.178   3
 -15   1  -4 1502.48 426.969   3
   1  14   4 1786.69 376.333   2
 -14  -1  -4 1538.85 434.150   3
  15 -14  -4 2492.88 446.287   4
  14 -15  -4 1958.45 406.539   4
 -15   1   4 1809.50 405.282   3
 -14  -1   4 1783.95 419.186   3
  -1  15   4 1804.79 374.000   2
  14 -15  -5 865.753 317.568   4
  15 -14  -5 1472.53 370.931   4
 -14  -1  -5 627.935 316.915   3
 -15   1  -5 830.818 413.375   3
 -15   1   5 1407.15 402.975   3
  -1  15   5 937.846 306.033   2
   1  14   5 1062.74 332.434   2
 -14  -1  -6 588.645 368.216   3
  14 -15  -6 439.355 258.431   4
  15 -14  -6 538.605 275.724   4
 -15   1   6 227.110 288.025   3
 -15   1  -6 116.577 316.776   3
  -1  15   6 509.808 315.303   2
   1  14   6 711.504 339.176   2
 -15   1  -7-31.7119 401.029   3
 -14  -1  -7 203.980 372.348   3
  14 -15  -7 209.352 274.872   4
  15 -14  -7 182.745 231.005   4
  -1  15   7 470.754 298.589   2
   1  14   7 815.073 364.096   2
 -14  15  -8 179.609 106.180   8
  14 -15  -8 389.257 247.021   4
  15 -14  -8 76.5974 283.616   4
 -15   1  -8 307.490 135.325  10
  15  -1   8 214.494 101.109   9
  -1 -14  -8 218.916 152.400  10
 -14  -1  -8 264.255 141.184  10
  14   1   8 263.146 104.406   9
 -14  15  -9 622.958 121.933   8
 -15  14  -9 431.555 128.049   7
  -1 -14  -9 623.801 165.581  10
 -15   1  -9 721.376 142.403  10
 -14  -1  -9 443.993 137.348  10
  15  -1   9 684.367 122.367   9
  14   1   9 810.420 131.761   9
   1 -15  -9 472.845 165.758  10
 -14  15 -10 502.013 131.507   7
 -15  14 -10 522.969 128.314   7
 -15   1 -10 732.397 143.290  10
 -14  -1 -10 601.652 141.915  10
   1 -15 -10 497.125 175.901  10
  -1 -14 -10 910.237 178.758  10
  15  -1  10 759.990 130.440   9
  14   1  10 865.135 138.061   9
 -14  15 -11 76.2683 108.168   8
 -14  15 -11 124.484 109.816   7
 -15  14 -11 80.7946 107.684   7
 -15   1 -11 136.578 118.463  10
 -14  -1 -11 204.443 126.062  10
   1 -15 -11-140.102 146.285  10
  14   1  11 191.720 115.296   9
  -1 -14 -11 482.857 151.067  10
 -14  15 -12 243.320 115.216   8
 -15  14 -12 209.490 118.430   7
   1  14  12 206.913 102.836   9
 -14  -1 -12 352.264 120.661  10
  -1 -14 -12 525.456 139.725  10
   1 -15 -12 121.057 140.582  10
 -14  15 -12 124.647 117.333   7
  14   1  12 382.758 117.678   9
  -1  15  12 61.9596 95.7637   9
 -14  15 -13 323.456 124.681   8
 -15  14 -13 158.018 109.200   7
 -14  -1 -13 67.8198 102.580  10
   1  14  13 104.420 95.6952   9
  -1  15  13-84.0769 96.7386   9
   1 -15 -13 70.1180 132.238  10
 -14  15 -14 76.9661 102.543   8
 -15  14 -14 89.6300 95.6908   8
   1 -15 -14 111.652 112.873  10
  14 -15 -14 158.875 129.402  10
  -1 -14 -14 65.8311 110.972  10
   1  14  14-34.0141 84.9551   9
 -14  15 -15 133.575 102.458   8
   1 -15 -15-5.80007 99.9874   7
  -1 -14 -15 135.180 100.691  10
   1 -15 -15-19.0262 96.6020  10
 -15  14 -15 34.5896 97.3481   8
 -14  15 -16-50.3377 93.2010   8
 -15  14 -16 48.5952 89.0326   8
   1 -15 -16 147.294 90.3916   7
   1 -15 -16 21.8115 88.4769  10
  -1 -14 -16 83.6901 88.2787  10
  15 -15   0 5568.41 589.182   4
 -15  15   0 5262.58 659.677   3
 -15   0   0 4290.46 590.937   3
   0  15   0 4714.49 520.615   5
  15   0   0 4795.37 501.934   5
   0  15   0 5286.05 544.579   2
  15 -15  -1 397.134 258.296   4
  15 -15   1 271.561 216.438   4
   0  15   1 260.957 235.849   2
   0  15   1 191.427 182.099   5
 -15  15   1 104.824 249.781   3
 -15   0   1 340.720 283.560   3
  15   0   1 231.639 195.332   5
 -15   0  -1 517.209 313.734   3
  15   0  -1 173.227 216.074   5
   0  15   2 373.929 225.241   5
   0  15   2 329.326 262.978   2
  15 -15  -2 427.229 263.987   4
  15 -15   2 306.377 207.910   4
 -15  15   2 390.530 279.314   3
 -15   0   2 370.496 281.122   3
 -15   0  -2 80.3428 275.210   3
  15   0   2 10.8271 210.582   5
   0  15   3 112.808 176.740   5
   0  15   3 265.980 247.037   2
  15 -15  -3 230.683 244.570   4
  15 -15   3 263.954 206.367   4
  15   0   3 130.709 193.207   5
 -15   0   3 216.248 257.326   3
 -15   0  -3-71.7267 310.819   3
 -15   0  -4 86.7839 279.716   3
  15 -15  -4 526.754 277.377   4
   0  15   4 161.826 277.594   2
 -15   0   4 847.785 342.000   3
 -15   0  -5 402.536 337.016   3
  15 -15  -5 209.854 265.513   4
 -15   0   5 165.712 254.794   3
   0  15   5 647.138 315.206   2
 -15   0  -6-275.506 390.492   3
  15 -15  -6 205.833 269.534   4
   0  15   6 629.425 312.681   2
 -15   0  -7 45.4296 328.975   3
  15 -15  -7-156.307 244.625   4
   0  15   7 258.915 317.589   2
 -15  15  -8 534.489 112.332   8
 -15   0  -8 455.238 147.339  10
   0 -15  -8 453.522 158.303  10
  15   0   8 469.778 110.598   9
   0  15  -8 494.625 115.637   6
 -15   0  -9 1303.72 171.071  10
  15   0   9 1210.91 138.799   9
 -15  15  -9 1143.01 134.353   8
   0 -15  -9 830.422 171.632  10
  15   0  10 1707.61 156.872   9
 -15   0 -10 2086.33 184.560  10
 -15  15 -11-79.7930 115.351   8
   0 -15 -11-27.9777 128.907  10
 -15   0 -11 108.558 122.192  10
  15   0  11 121.313 112.962   9
 -15  15 -12 164.838 112.471   8
   0  15  12 91.4657 92.5865   9
   0 -15 -12 300.085 130.932  10
 -15  15 -13 2.69349 107.696   8
   0 -15 -13 130.235 123.880  10
   0  15  13 82.1706 89.4487   9
 -15  15 -14 58.8739 94.6564   8
   0 -15 -14 91.1022 109.751  10
 -15  15 -15 59.8607 96.0485   8
   0 -15 -15-14.7166 93.5643  10
 -15  15 -16-54.5832 89.1677   8
   0 -15 -16 231.742 88.9603  10
 -16   8   0 38742.9 1674.61   3
   8   8   0 34286.4 1275.41   5
 -16   8   1 27237.7 1354.60   3
 -16   8  -1 26954.1 1430.72   3
   8   8  -1 26182.3 1121.62   5
   8   8   1 25522.3 1109.30   5
 -16   8   2 34444.4 1483.63   3
 -16   8  -2 36322.1 1698.06   3
   8   8   2 36116.0 1260.34   2
   8   8  -2 35312.9 1332.53   5
   8   8   2 33689.6 1277.50   5
 -16   8   3 35843.2 1481.51   3
 -16   8  -3 34382.4 1690.75   3
   8   8   3 35841.6 1282.04   2
 -16   8   4 16625.6 1057.27   3
 -16   8  -4 16494.2 1221.16   3
   8   8   4 18583.7 955.212   2
   8 -16  -5 5971.65 662.965   1
 -16   8  -5 5331.66 759.210   3
  -8  -8  -5 6296.26 654.651   3
   8   8   5 5616.57 572.544   2
   8 -16  -6 14417.2 1051.79   1
 -16   8  -6 13649.4 1200.79   3
  -8  -8  -6 14488.1 1032.66   3
   8   8   6 16099.9 976.214   2
   8 -16  -7 5347.15 702.151   1
 -16   8  -7 4368.50 749.298   3
   8   8   7 4757.67 600.318   2
  -8  -8  -7 4840.61 671.341   3
  -8  -8  -8 9227.44 881.265   3
   8   8   8 8754.95 825.467   2
   8 -16  -8 8882.54 900.990   1
 -16   8  -8 6515.97 947.871   3
  -8  16  -9 6941.03 258.013   8
   8   8   9 6302.40 231.811   9
  -8  16 -10 8246.89 299.167   7
  -8  16 -10 7223.63 293.042   8
   8   8  10 7784.80 269.122   9
  -8  16 -11 10019.3 332.248   7
 -16   8 -11 11604.7 331.539   7
  -8  -8 -11 11658.1 332.688  10
   8   8  11 10779.7 303.578   9
  -8  16 -11 9298.35 315.570   8
 -16   8 -12 3628.97 198.617   7
  -8  -8 -12 3577.52 202.121  10
   8   8  12 3539.44 185.729   9
  -8  16 -12 3231.75 200.680   8
  -8  16 -13 543.158 132.727   8
 -16   8 -13 735.125 128.551   7
  -8  -8 -13 593.673 125.468  10
   8   8  13 518.644 110.256   9
  -8  16 -14 427.835 118.354   8
 -16   8 -14 658.831 122.851   7
  -8  -8 -14 601.837 117.220  10
   8   8  14 406.916 101.823   9
   8 -16 -14 258.503 132.231  10
  -8  16 -15 153.806 96.1197   8
   8   8  15 110.545 82.2057   9
  -8  -8 -15 169.627 93.0159  10
   8 -16 -15-92.1184 112.883  10
  -8  -8 -16 82.9747 82.0547  10
   8 -16 -16 0.43122 93.1485  10
  -8  16 -16 68.0762 81.0661   8
   8 -16 -17-15.1281 76.5515   7
  -8  -8 -17 255.165 81.2247  10
   8 -16 -17 6.08485 74.1234  10
  -8  16 -17 147.673 70.9849   8
 -16   9   0 5554.43 666.098   3
 -16   7   0 5746.87 700.587   3
   7   9   0 6319.06 569.227   5
   9   7   0 5810.19 556.209   5
 -16   9   1 4849.51 625.633   3
 -16   7   1 5420.97 658.004   3
 -16   9  -1 4895.76 676.634   3
 -16   7  -1 4379.17 657.444   3
   9   7   1 5199.18 523.638   5
   7   9  -1 4999.67 521.730   5
   9   7  -1 4713.20 502.005   5
   7   9   1 5077.00 517.573   5
 -16   9   2 4490.65 584.632   3
 -16   7   2 4766.75 594.425   3
 -16   9  -2 3918.47 626.147   3
 -16   7  -2 4215.18 655.721   3
  -7  16   2 5252.63 490.183   2
   7   9   2 4049.84 488.029   2
   7   9  -2 4541.44 523.222   5
   9   7  -2 4864.00 533.487   5
   7   9   2 4822.54 537.560   5
   9   7   2 4528.14 500.473   5
 -16   9   3 7484.37 700.052   3
 -16   7   3 8206.97 740.682   3
 -16   9  -3 6173.83 775.406   3
 -16   7  -3 7445.63 837.028   3
  -7  16   3 9309.40 642.560   2
   9   7   3 8446.08 654.799   2
   7   9   3 7968.15 647.962   2
 -16   7   4 3300.36 529.169   3
   9 -16  -4 3630.19 534.299   1
  -7  16   4 4263.90 494.681   2
   7   9   4 3203.78 461.924   2
  -9  -7  -4 3892.68 548.754   3
   9   7   4 3396.57 449.201   2
 -16   9  -4 2638.09 574.340   3
 -16   7  -4 2700.35 557.033   3
   7   9   5 301.337 220.888   2
   9   7   5 487.747 270.069   2
  -9  -7  -5 596.959 311.951   3
   9 -16  -5 473.100 282.252   1
  -7  16   5 125.095 300.420   2
 -16   9  -5 263.095 293.629   3
 -16   7  -5 325.573 377.269   3
 -16   7  -6 2732.04 602.201   3
   7   9   6 2486.50 468.765   2
  -9  -7  -6 3149.44 545.299   3
   9 -16  -6 3204.46 537.318   1
 -16   9  -6 2499.89 587.954   3
   9   7   6 3295.98 483.139   2
 -16   9  -7 623.298 409.988   3
   9   7   7 1277.15 381.509   2
  -9  -7  -7 477.972 314.897   3
  -7  -9  -7 659.644 324.016   3
   7   9   7 803.973 318.824   2
   7 -16  -7-26.7634 287.460   1
   9 -16  -7 916.960 381.284   1
 -16   7  -7 697.065 476.526   3
   7   9   8 1160.56 401.866   2
 -16   9  -8 687.750 471.470   3
 -16   7  -8 1145.23 562.092   3
  -9  -7  -8 1060.79 400.385   3
  -7  -9  -8 1459.80 404.729   3
   7 -16  -8 747.426 386.444   1
   9 -16  -8 1366.73 429.606   1
   9   7   8 516.650 315.670   2
  -9  16  -9 960.987 152.253   8
  -9  -7  -9 1121.48 170.712  10
  -7  -9  -9 1079.82 171.803  10
  -7  16  -9 950.061 146.114   8
   9   7   9 965.069 140.536   9
   7   9   9 798.212 127.879   9
  -9  16 -10 1873.45 187.892   7
 -16   9 -10 2268.43 190.533   7
   9   7  10 2277.19 174.165   9
  -9  -7 -10 2260.58 198.016  10
  -7  -9 -10 2234.38 197.858  10
  -7  16 -10 1975.37 191.475   8
  -9  16 -10 2118.06 188.280   8
   7   9  10 2242.01 172.553   9
  -9  16 -11 751.746 152.951   8
  -9  16 -11 702.040 157.814   7
 -16   9 -11 994.104 159.727   7
  -9  -7 -11 1237.36 167.093  10
  -7  -9 -11 1167.41 170.494  10
   9   7  11 1350.02 155.608   9
   7   9  11 856.949 143.537   9
  -7  16 -11 1144.56 168.167   8
  -9  16 -12 164.104 120.547   8
  -9  16 -12 55.7556 133.643   7
 -16   9 -12 172.972 118.431   7
  -9  -7 -12 265.300 123.803  10
  -7  -9 -12 236.296 133.741  10
  -7  16 -12 220.591 124.730   8
   7 -16 -12 227.539 154.041  10
   9   7  12 349.848 116.364   9
   7   9  12 206.560 109.634   9
 -16   9 -13 195.143 110.542   7
 -16   7 -13 290.648 119.245   7
  -9  16 -13 120.158 116.375   8
   7 -16 -13-83.3248 139.964  10
  -9  -7 -13 177.056 110.946  10
  -7  -9 -13 155.320 115.164  10
   7   9  13 125.108 98.6269   9
   9   7  13 170.847 100.952   9
   9 -16 -13-22.8744 140.004  10
  -7  16 -13 185.277 116.722   8
  -7  16 -14 63.5402 104.098   8
 -16   9 -14 93.0219 99.0737   7
 -16   7 -14 312.768 112.230   7
   9 -16 -14-40.0752 128.104  10
   9   7  14 144.836 90.9140   9
  -9  -7 -14 161.074 102.223  10
  -7  -9 -14 287.493 110.134  10
  -9  16 -14 4.13135 106.055   8
   7 -16 -14 20.8911 119.173  10
   7   9  14 74.8545 88.0186   9
 -16   9 -15 66.4793 94.9953   7
 -16   7 -15 283.971 102.123   7
  -9  -7 -15 76.3962 91.3971  10
  -7  -9 -15 95.8708 90.6956  10
   7 -16 -15-2.14278 108.410  10
  -9  16 -15 125.318 94.9015   8
  -7  16 -15-4.63561 92.0244   8
   9 -16 -15 47.2901 112.786  10
   7   9  15 16.2183 78.1551   9
   9   7  15 72.1127 79.5114   9
  -7  16 -16-25.5685 78.0992   8
   9 -16 -16 42.3924 92.0952  10
  -9  -7 -16 9.78988 80.3225  10
  -7  -9 -16 122.512 83.7524  10
   7 -16 -16-18.1719 92.4970  10
  -9  16 -16-66.3434 85.6458   8
 -16   9 -17 11.3279 77.7998   8
   7 -16 -17-86.5433 78.3300   7
   9 -16 -17 59.3258 74.8524   7
  -7  -9 -17 181.296 79.2116  10
   9 -16 -17-71.6969 73.3225  10
   7 -16 -17-71.5465 76.5249  10
  -9  16 -17-59.2028 69.2509   8
  16 -10   0 6103.68 553.227   4
 -16  10   0 6011.67 674.885   3
 -16   6   0 5598.14 686.467   3
   6  10   0 6063.53 555.456   5
  10   6   0 5634.35 537.889   5
  16 -10  -1 6182.81 587.570   4
  16 -10   1 6162.83 545.271   4
 -16  10   1 6039.15 677.155   3
 -16   6   1 5859.01 680.094   3
 -16  10  -1 5231.16 683.874   3
 -16   6  -1 5658.66 713.606   3
  -6  16   1 7197.61 546.058   2
   6  10   1 6282.85 570.039   2
   6  10  -1 6395.80 584.905   5
  10   6  -1 6021.64 585.050   5
   6  10   1 6272.41 574.927   5
  10   6   1 5385.08 540.842   5
  16 -10  -2 3859.29 489.917   4
 -16  10   2 3730.34 532.300   3
 -16   6   2 3217.71 531.383   3
 -16   6  -2 3786.16 611.298   3
 -10  -6  -2 4475.07 588.254   3
   6  10   2 3818.01 456.727   2
 -16  10  -2 3153.73 589.646   3
   6  10  -2 3715.01 484.253   5
  10   6  -2 3988.55 480.626   5
  -6  16   2 4221.65 467.300   2
   6  10   2 3808.80 490.877   5
  10   6   2 3180.80 432.637   5
  16 -10  -3 9446.22 722.710   4
 -16  10   3 8455.04 738.622   3
 -16   6   3 9068.75 797.562   3
 -16  10  -3 8149.33 868.262   3
 -16   6  -3 8464.70 872.963   3
  -6  16   3 10333.6 691.211   2
   6  10   3 8435.01 681.137   2
 -10  -6  -3 9492.64 775.696   3
  10   6   3 8466.20 643.430   2
  16 -10  -4 4434.85 530.975   4
 -16   6   4 4752.57 595.762   3
 -16  10  -4 4165.19 655.296   3
 -16   6  -4 3677.79 657.109   3
  -6  16   4 5288.29 532.374   2
 -10  -6  -4 4627.46 618.509   3
   6  10   4 4451.88 512.574   2
  10   6   4 3814.97 458.465   2
  10   6   5 975.124 303.977   2
 -10  -6  -5 482.404 317.617   3
 -16   6   5 901.407 350.349   3
   6  10   5 856.711 295.763   2
  -6  16   5 834.606 322.043   2
  10 -16  -5 774.103 294.881   1
 -16  10  -5 162.104 304.051   3
 -16   6  -5 643.675 374.849   3
 -10  -6  -6 2751.60 558.940   3
  -6  16   6 3541.73 560.064   2
  10 -16  -6 2887.30 502.871   1
   6  10   6 3039.80 502.364   2
  10   6   6 3068.34 483.291   2
 -16  10  -6 2414.67 568.648   3
 -16   6  -6 2737.76 628.770   3
 -16  10  -7 1612.50 520.013   3
 -16   6  -7 2180.76 574.391   3
  10   6   7 2440.62 426.581   2
 -10  -6  -7 2726.47 563.521   3
   6  10   7 3210.66 511.717   2
  10 -16  -7 2808.48 529.093   1
  10 -16  -8 553.225 331.339   1
 -16  10  -8 464.373 382.707   3
 -16   6  -8 1322.79 519.167   3
 -10  -6  -8 1188.60 429.099   3
   6 -16  -8 775.165 405.215   1
   6  10   8 997.910 405.510   2
 -16  10  -9 1766.58 172.085   7
   6  10   9 1389.70 137.228   9
 -10  -6  -9 1759.34 178.183  10
  -6 -10  -9 1785.02 185.820  10
  10   6   9 1551.05 152.656   9
  -6  16  -9 1449.90 166.163   8
 -10  16  -9 1765.55 160.604   8
 -10  16 -10 3274.06 216.959   7
 -16  10 -10 4330.09 221.021   7
  -6 -10 -10 4311.32 234.261  10
 -10  -6 -10 4189.71 230.370  10
   6  10  10 3455.27 190.167   9
  -6  16 -10 4148.96 221.339   8
  10   6  10 3822.16 203.746   9
 -10  16 -10 3416.45 212.516   8
 -10  16 -11 1916.91 180.247   7
 -16  10 -11 2072.53 174.471   7
 -10  -6 -11 2094.19 180.058  10
  -6 -10 -11 1947.03 183.002  10
  10   6  11 2180.68 171.871   9
   6  10  11 2088.97 161.772   9
 -10  16 -11 2181.47 185.258   8
  -6  16 -11 2137.51 187.649   8
 -10  16 -12 416.620 133.818   8
 -10  16 -12 482.947 140.746   7
 -16  10 -12 296.170 116.744   7
   6 -16 -12 103.217 152.669  10
   6  10  12 338.282 111.355   9
 -10  -6 -12 436.361 131.415  10
  -6 -10 -12 449.141 131.647  10
  10   6  12 409.915 117.092   9
  -6  16 -12 547.523 138.973   8
  -6  16 -13 336.541 126.270   8
 -10  16 -13 159.172 119.534   8
 -16  10 -13 71.5290 106.475   7
   6 -16 -13 135.245 141.003  10
  10   6  13 366.966 108.994   9
 -10  -6 -13 353.368 116.412  10
  -6 -10 -13 338.717 125.345  10
  10 -16 -13-25.1546 141.738  10
   6  10  13 16.1385 101.190   9
 -10  16 -14-15.5382 98.3748   8
 -16  10 -14-6.43104 97.5188   7
  10   6  14 140.422 90.6581   9
   6  10  14-6.04406 87.1681   9
 -10  -6 -14 161.081 96.5457  10
  -6 -10 -14 139.796 107.036  10
  10 -16 -14-56.9442 125.064  10
   6 -16 -14 126.137 123.661  10
  -6  16 -14 134.478 105.808   8
 -10  16 -15-77.6647 102.124   8
 -16  10 -15-31.5957 92.1503   7
  -6 -10 -15 187.087 96.5331  10
 -10  -6 -15 143.530 89.6632  10
  10 -16 -15-38.1259 110.824  10
   6  10  15 49.9894 75.7668   9
  -6  16 -15 169.289 94.3772   8
   6 -16 -15 120.781 107.421  10
 -10  16 -16 0.04016 83.5803   8
   6 -16 -16-68.6490 92.1689  10
 -10  -6 -16 49.0911 80.0064  10
  -6 -10 -16 62.6259 85.7946  10
  10 -16 -16-8.29624 90.5209  10
 -10  16 -17-36.9243 69.1413   8
  10 -16 -17 14.4831 71.5382  10
  11   5   0 231.434 197.794   5
  -5  16   0 411.010 235.028   2
  16 -11   0 404.854 214.891   4
 -16  11   0 119.016 249.827   3
 -16   5   0-7.83910 275.060   3
   5  11   0 309.205 208.524   5
 -11  -5  -1 1343.05 362.327   3
   5  11  -1 1298.46 300.016   5
  11   5  -1 1097.72 292.217   5
  11   5   1 1005.48 258.767   5
  -5  16   1 1637.98 303.584   2
  16 -11  -1 1680.55 339.733   4
  16 -11   1 1295.13 307.692   4
   5  11   1 1409.18 324.966   2
 -16   5  -1 1110.57 378.386   3
 -16  11   1 1196.88 354.894   3
 -16   5   1 1204.10 362.166   3
 -16  11  -1 1348.08 398.317   3
   5  11   1 1305.58 293.356   5
  -5  16   2 402.160 246.687   2
  11   5   2 89.9828 177.568   5
   5  11   2 658.346 264.973   5
   5  11   2 300.231 246.955   2
  16 -11  -2 727.087 274.167   4
  16 -11   2 491.100 216.146   4
   5  11  -2 380.443 219.416   5
 -16  11   2 400.637 261.883   3
 -11  -5  -2 340.278 270.487   3
 -16   5   2 625.333 300.851   3
 -16  11  -2 196.399 300.742   3
  11   5  -2 634.721 240.863   5
 -16   5  -2 607.626 328.322   3
 -11  -5  -3 93.4478 264.600   3
   5  11   3 347.381 247.355   2
  16 -11  -3 213.771 210.535   4
 -16  11   3 336.343 223.095   3
 -16  11  -3 86.7693 325.404   3
 -16   5  -3-225.692 302.200   3
  -5  16   3 246.313 226.050   2
 -16   5   3-92.9574 267.331   3
   5  11   4 187.978 202.375   2
 -11  -5  -4 366.564 277.893   3
  16 -11  -4 6.88650 202.866   4
  11   5   4 45.9926 202.729   2
 -16   5   4 282.644 292.216   3
  -5  16   4 520.103 261.807   2
 -16  11  -4 342.961 291.975   3
 -16   5  -4-89.5748 327.169   3
 -11  -5  -5 360.311 290.928   3
  11   5   5 637.793 275.126   2
  16 -11  -5 731.764 295.563   4
 -16   5   5 530.820 291.910   3
  -5  16   5 454.879 254.773   2
   5  11   5 263.887 256.656   2
 -16  11  -5 299.475 310.061   3
 -16   5  -5 270.767 302.690   3
   5  11   6-253.874 262.229   2
  11 -16  -6-174.568 284.277   1
  11   5   6-29.2396 242.200   2
 -11  -5  -6-136.970 320.841   3
 -16   5   6-21.8942 291.660   3
 -16   5  -6-234.095 379.677   3
 -16  11  -6 372.345 344.123   3
  -5  16   6-104.766 290.402   2
 -16  11  -7-191.940 379.656   3
 -16   5  -7-96.1685 404.029   3
  11 -16  -7 170.924 259.018   1
 -11  -5  -7 368.879 337.327   3
  -5  16   7-81.5308 417.337   2
   5  11   7-29.8497 299.329   2
 -11  16  -8-2.42674 119.598   8
 -16   5  -8-209.964 442.439   3
 -16  11  -8-341.164 424.043   3
  11 -16  -8-397.092 296.982   4
 -11  -5  -8 71.1418 341.814   3
  11 -16  -8-249.692 359.451   1
   5 -16  -8-37.8327 317.104   1
  11   5   8 72.9346 110.321   9
   5  11   8-322.474 312.576   2
 -11  16  -9 39.9258 110.739   8
 -16  11  -9 331.021 137.953   7
 -11  -5  -9 315.757 145.655  10
  -5 -11  -9 112.775 140.925  10
  11   5   9 265.092 119.317   9
  -5  16  -9 165.050 127.577   8
  -5  16 -10 609.305 141.296   8
 -11  16 -10 296.657 134.519   7
 -16  11 -10 552.920 141.974   7
 -11  16 -10 426.964 141.166   8
 -11  -5 -10 507.981 152.505  10
  -5 -11 -10 886.413 171.665  10
  11   5  10 542.781 135.081   9
   5  11  10 514.889 122.820   9
  -5  16 -11 28.6308 131.681   8
 -11  16 -11 84.7456 119.508   8
 -11  16 -11 118.766 126.637   7
 -16  11 -11 236.628 123.370   7
   5  11  11 197.257 115.621   9
 -11  -5 -11 79.4383 135.102  10
  -5 -11 -11 205.824 145.287  10
   5 -16 -11-95.7621 160.698  10
  11   5  11 294.470 125.702   9
  -5  16 -12 196.650 129.791   8
 -11  16 -12 199.472 118.576   8
 -16  11 -12 134.333 114.480   7
 -11  -5 -12 141.209 123.106  10
  -5 -11 -12 190.334 131.929  10
   5 -16 -12 43.0955 150.397  10
  11   5  12 78.1308 107.370   9
   5  11  12 78.9910 100.247   9
  -5  16 -13 107.943 115.827   8
 -16  11 -13 74.4203 104.349   7
  11   5  13 267.789 106.118   9
   5 -16 -13-176.667 136.187  10
 -11  -5 -13 203.430 112.017  10
  -5 -11 -13 211.252 121.324  10
  11 -16 -13 239.872 149.994  10
 -11  16 -13 175.526 117.764   8
   5  11  13 10.3270 95.2399   9
 -11  16 -14 74.9079 100.413   8
 -16  11 -14-21.7638 95.5435   7
  -5 -11 -14 453.138 114.715  10
  11 -16 -14-69.5764 127.590  10
   5  11  14 14.6517 84.3244   9
  11   5  14 5.35310 86.7390   9
 -11  -5 -14-54.3090 93.6748  10
   5 -16 -14 20.0792 113.260  10
  -5  16 -14 63.7673 103.941   8
 -11  16 -15 81.3791 100.170   8
 -11  -5 -15 140.902 90.5549  10
  -5 -11 -15 269.846 100.691  10
  11 -16 -15 116.067 117.947  10
   5 -16 -15 75.8699 109.505  10
   5  11  15-19.4864 75.4091   9
 -11  16 -16 73.7971 85.9097   8
 -16  11 -16 154.014 91.4377   8
   5 -16 -16 65.4769 91.0671   7
  -5 -11 -16 173.383 85.8922  10
   5 -16 -16 111.180 94.2260  10
  11 -16 -16-113.933 92.3905  10
  12   4   0 17.6359 202.981   5
  16 -12   0 186.584 204.625   4
  -4  16   0-176.534 200.434   2
 -16  12   0 148.576 278.778   3
   4  12   0-202.861 192.259   5
 -12  -4   0-263.309 255.164   3
 -16   4   0 61.5781 264.934   3
   4  12  -1 166.264 189.293   5
   4  12   1 83.9152 182.486   5
  -4  16   1 557.708 244.157   2
  16 -12  -1 367.280 236.012   4
  16 -12   1 64.7108 174.540   4
   4  12   1 173.215 208.042   2
  12   4  -1 519.700 242.560   5
  12   4   1 312.644 194.247   5
 -16  12   1 359.601 293.415   3
 -16  12  -1 0.61649 278.757   3
 -16   4  -1 207.041 257.605   3
 -16   4   1 449.848 287.042   3
 -12  -4  -1 220.366 226.578   3
   4  12   2 1432.58 322.367   2
  16 -12  -2 1847.24 361.519   4
  16 -12   2 1510.21 310.899   4
   4  12   2 1370.15 313.184   5
 -12  -4  -2 1736.67 395.261   3
 -16  12   2 1259.44 333.949   3
 -16   4   2 1327.04 382.055   3
 -16  12  -2 1239.13 405.873   3
  -4  16   2 1775.67 321.243   2
 -16   4  -2 1171.12 403.137   3
  12   4   2 1348.51 306.580   5
   4  12   3 55.9349 210.957   2
  16 -12  -3 54.3312 202.728   4
  16 -12   3 105.637 204.202   4
 -16  12   3 148.419 244.137   3
 -16   4   3 233.679 259.507   3
 -12  -4  -3-303.730 302.977   3
 -16  12  -3-341.614 341.437   3
 -16   4  -3 55.1962 307.258   3
  -4  16   3-169.842 254.443   2
   4  12   4 77.4869 222.048   2
 -12  -4  -4-335.521 302.328   3
  16 -12  -4-55.8779 202.759   4
 -16   4   4-94.1866 232.309   3
  -4  16   4 114.972 228.483   2
 -16  12  -4-92.2174 286.221   3
 -16   4  -4-247.314 365.505   3
 -12  -4  -5 556.382 368.750   3
  16 -12  -5 145.733 238.658   4
  12   4   5 702.881 295.281   2
 -16   4  -5 248.964 306.589   3
 -16   4   5 30.1161 277.348   3
   4  12   5 852.251 330.630   2
  -4  16   5 337.594 249.366   2
 -16  12  -5 226.830 312.298   3
   4  12   6 135.683 252.519   2
 -16  12  -6 26.2159 308.741   3
 -12  -4  -6-3.26459 292.354   3
  16 -12  -6-115.782 244.437   4
 -16   4   6 16.9414 271.709   3
  -4  16   6 23.0144 254.247   2
 -16   4  -6-402.080 400.428   3
 -16   4  -7 27.3676 355.318   3
  12 -16  -7-63.7001 225.657   4
 -12  -4  -7 460.482 352.971   3
  16 -12  -7-75.5970 228.916   4
  12 -16  -7 133.490 274.142   1
 -16   4   7 73.0084 362.569   3
  -4  16   7-114.361 345.034   2
   4  12   7-171.162 323.508   2
 -12  16  -8 116.190 110.213   8
 -16  12  -8 154.269 134.658   7
  12 -16  -8-17.2609 297.611   4
  12 -16  -8-47.6949 327.132   1
  12   4   8 238.471 109.340   9
  -4  16  -9-13.0544 120.650   8
 -12  16  -9 153.492 122.273   8
 -16  12  -9 227.913 128.975   7
 -12  -4  -9 36.9378 142.473  10
  -4 -12  -9 257.881 151.285  10
  12   4   9 182.172 109.917   9
 -12  16 -10 272.276 118.149   8
 -16  12 -10 82.3786 121.584   7
 -12  -4 -10 189.218 131.488  10
  -4 -12 -10 105.251 145.514  10
  -4  16 -10 134.027 129.244   8
  12   4  10 147.755 115.667   9
 -12  16 -11-35.3482 125.894   8
 -16  12 -11-100.896 116.466   7
 -12  -4 -11 157.492 127.937  10
   4 -16 -11 80.3953 155.082  10
  -4 -12 -11 118.887 141.271  10
  12   4  11 179.097 118.572   9
  -4  16 -11 91.2568 118.778   8
   4  12  11 20.4228 103.977   9
  -4  16 -12 373.339 128.695   8
 -12  16 -12 158.813 122.397   8
 -16  12 -12 77.0193 106.513   7
 -12  -4 -12 413.910 126.292  10
  -4 -12 -12 298.700 131.210  10
   4 -16 -12 154.079 149.141  10
  12   4  12 259.525 111.093   9
   4  12  12 110.515 99.8012   9
 -16  12 -13 78.8689 103.087   7
 -12  -4 -13 185.054 102.977  10
  -4 -12 -13 171.369 119.388  10
   4 -16 -13 308.876 134.586  10
   4  12  13-0.78034 95.7547   9
 -12  16 -13-1.57114 101.651   8
  12   4  13-14.3676 97.5508   9
 -12  16 -14-9.69018 103.252   8
 -16  12 -14 29.8998 94.5468   7
 -12  -4 -14 57.5427 91.8701  10
  -4 -12 -14 53.0380 100.371  10
   4 -16 -14-45.0718 109.231  10
  12 -16 -14 103.823 123.420  10
   4  12  14-52.5836 84.3247   9
  12   4  14 43.8994 86.3128   9
 -12  16 -15 79.0366 92.5284   8
 -12  -4 -15-0.95029 85.6809  10
  -4 -12 -15-21.0234 89.9861  10
  12 -16 -15-56.0344 111.331  10
   4  12  15-53.1404 73.0588   9
   4 -16 -15-53.0223 100.834  10
 -16  12 -16-14.3054 88.6636   8
   4 -16 -16-99.5157 92.3123   7
 -12  16 -16 4.34025 89.6221   8
  -4 -12 -16-18.0924 83.9520  10
   4 -16 -16 12.8460 89.2519  10
  12 -16 -16 0.14063 88.2038  10
   3  13   0 1215.18 300.158   5
  16 -13   0 1051.27 297.906   4
  -3  16   0 1348.27 310.891   2
 -16  13   0 1031.06 372.631   3
 -16   3   0 1376.89 392.875   3
  13   3   0 1001.81 282.137   5
 -13  -3   0 966.746 333.584   3
  13   3  -1-24.5814 168.644   5
  13   3   1-111.287 183.889   5
  -3  16   1 203.140 212.244   2
  16 -13  -1 46.7544 202.537   4
  16 -13   1-39.1143 192.180   4
   3  13   1-96.8280 198.623   2
 -16   3  -1 232.710 315.202   3
 -16   3   1 178.750 238.149   3
   3  13   1 154.350 179.201   5
   3  13  -1-115.584 178.557   5
 -13  -3   1 50.8914 229.287   3
 -16  13  -1-62.9796 258.645   3
 -16  13   1 66.1647 246.036   3
 -13  -3  -1 68.0810 233.300   3
  -3  16   2 50.6941 214.350   2
   3  13   2 255.307 224.288   2
  16 -13  -2-100.566 225.993   4
  16 -13   2 132.355 181.550   4
 -16   3   2-46.6576 252.503   3
 -16  13   2 98.8226 206.157   3
  13   3   2 137.023 198.218   5
   3  13   2-86.2990 217.129   5
 -13  -3  -2-58.7302 249.355   3
 -16  13  -2 534.301 340.715   3
 -16   3  -2-164.978 332.467   3
  -3  16   3 106.675 229.766   2
   3  13   3 301.213 243.393   2
  16 -13  -3 150.048 197.666   4
  16 -13   3-206.809 223.283   4
 -16  13   3 256.881 262.129   3
 -16   3   3-157.116 263.308   3
 -13  -3  -3 367.170 316.690   3
 -16  13  -3-86.4751 273.852   3
 -16   3  -3 447.793 314.314   3
   3  13   4 265.343 219.180   2
  16 -13  -4 227.996 230.253   4
 -13  -3  -4 125.142 278.204   3
 -16   3   4-88.6389 273.313   3
 -16  13  -4 216.189 290.343   3
  -3  16   4 184.000 270.930   2
 -16   3  -4 261.665 323.140   3
   3  13   5 245.444 249.766   2
 -13  -3  -5 418.386 311.841   3
  16 -13  -5 91.6448 229.877   4
 -16   3   5 170.229 262.019   3
 -16   3  -5 321.170 336.792   3
  -3  16   5 582.547 310.436   2
 -16  13  -5-464.144 349.888   3
 -16   3  -6-815.325 445.615   3
 -13  -3  -6-141.758 304.422   3
  13 -16  -6-1.58706 259.063   4
  16 -13  -6-17.4197 231.978   4
 -16   3   6-62.6455 330.532   3
  -3  16   6-22.4854 291.158   2
   3  13   6 1.03822 260.716   2
 -16   3  -7-389.749 394.343   3
  13 -16  -7 9.51408 286.498   4
 -13  -3  -7-207.651 386.518   3
  16 -13  -7-325.811 314.334   4
 -16   3   7 145.419 336.066   3
  -3  16   7 121.542 291.235   2
   3  13   7 112.600 279.222   2
 -13  16  -8 55.5434 112.505   8
  -3  16  -8 128.200 105.170   6
  16  -3   8 163.678 95.7495   9
 -13  -3  -8 329.925 152.380  10
  -3 -13  -8 160.931 150.422  10
  13   3   8 166.725 105.516   9
 -13  16  -9 680.578 143.125   8
 -16  13  -9 584.180 148.171   7
 -13  -3  -9 907.431 166.241  10
  -3 -13  -9 715.177 169.389  10
  13   3   9 993.201 136.160   9
 -13  16 -10 328.302 121.795   8
 -16  13 -10 75.4289 119.093   7
 -13  -3 -10 62.9174 132.016  10
   3 -16 -10 91.0475 159.072  10
  -3 -13 -10 76.9407 150.057  10
  13   3  10 168.354 124.618   9
 -13  16 -11 383.602 128.338   8
 -16  13 -11 176.184 114.518   7
   3  13  11 376.840 109.155   9
 -13  -3 -11 596.688 144.508  10
  -3 -13 -11 272.919 142.396  10
  13   3  11 510.037 127.126   9
   3 -16 -11 370.966 159.037  10
   3  13  12-78.5790 106.355   9
 -13  16 -12 94.1683 117.988   8
 -16  13 -12 98.5649 112.469   7
  13   3  12 248.323 114.670   9
 -13  -3 -12 300.207 123.831  10
  -3 -13 -12 404.629 145.568  10
   3 -16 -12 438.077 163.606  10
 -13  16 -13 82.9115 104.312   8
 -16  13 -13 137.696 107.487   7
 -13  -3 -13 307.550 111.629  10
  -3 -13 -13 377.082 128.298  10
  13   3  13-51.8477 97.0357   9
   3  13  13-175.272 98.3628   9
   3 -16 -13 201.941 140.780  10
 -13  16 -14-40.9714 105.107   8
 -13  -3 -14 211.884 98.3879  10
  -3 -13 -14 153.835 115.358  10
   3 -16 -14 244.298 120.668  10
  13 -16 -14-121.703 129.905  10
   3  13  14-93.0208 88.4448   9
 -13  16 -15-61.7895 96.9831   8
 -16  13 -15-30.2802 92.9272   8
  13 -16 -15-134.228 104.754  10
  -3 -13 -15 81.9918 97.1232  10
   3 -16 -15 108.402 100.490  10
 -16  13 -16 125.668 90.1805   8
   3 -16 -16 128.134 91.7419   7
   3 -16 -16 54.5785 89.2988  10
 -13  16 -16-0.91675 90.6023   8
  -3 -13 -16 198.605 91.8894  10
  14   2   0 1328.12 307.332   5
  16 -14   0 1407.34 348.457   4
  -2  16   0 1559.36 336.999   2
 -16  14   0 1272.62 397.788   3
 -16   2   0 1062.19 378.536   3
 -14  -2   0 1315.58 353.209   3
   2  14   0 1127.48 304.732   5
  16 -14  -1-37.0813 227.813   4
  16 -14   1-98.7629 232.875   4
  -2  16   1 105.825 208.737   2
   2  14   1 74.2877 220.304   2
 -16  14   1 144.436 243.323   3
 -16  14  -1 9.32415 269.724   3
  14   2   1 97.4785 198.753   5
 -16   2   1-105.052 243.930   3
 -14  -2   1-111.700 284.245   3
 -16   2  -1 43.3329 252.036   3
 -14  -2  -1-5.64674 244.147   3
   2  14  -1 9.66012 198.068   5
   2  14   1-1.61795 190.260   5
  14   2  -1 199.736 197.491   5
  -2  16   2 591.002 268.746   2
   2  14   2-18.2149 251.961   2
  16 -14  -2 116.164 222.508   4
  16 -14   2 124.515 199.043   4
  14   2   2 128.319 187.085   5
 -16   2   2 206.964 253.094   3
   2  14   2 253.418 227.252   5
 -16  14   2-49.4636 231.255   3
 -14  -2   2 671.098 316.804   3
 -16  14  -2-6.82055 308.984   3
 -16   2  -2-108.457 288.277   3
 -14  -2  -2 125.016 272.907   3
  -2  16   3 702.338 293.631   2
  14   2   3 136.871 199.029   5
   2  14   3 457.118 287.539   2
  16 -14  -3 433.477 276.516   4
  16 -14   3 632.434 243.098   4
 -16  14   3 271.851 269.687   3
 -16   2   3 410.536 312.324   3
 -14  -2  -3 517.926 320.915   3
 -16  14  -3 368.161 339.383   3
   2  14   3 349.930 231.839   5
 -16   2  -3 220.975 330.185   3
 -14  -2  -4 103.939 288.178   3
  16 -14  -4 448.381 283.048   4
 -16   2  -4 270.350 313.074   3
  -2  16   4 416.301 275.482   2
   2  14   4 652.297 290.460   2
 -16   2   4 510.516 300.056   3
   2  14   5 375.092 306.860   2
 -14  -2  -5 215.912 333.070   3
  14 -16  -5 198.756 256.670   4
  16 -14  -5 180.824 227.556   4
 -16   2  -5-143.688 308.490   3
 -16   2   5-92.0518 336.526   3
  -2  16   5-309.085 260.881   2
 -16   2  -6-135.729 407.737   3
 -14  -2  -6 490.985 357.709   3
  14 -16  -6 4.88840 235.764   4
  16 -14  -6 214.540 270.004   4
 -16   2   6 83.0835 283.012   3
  -2  16   6 255.392 273.800   2
   2  14   6 584.395 357.294   2
 -16   2  -7-773.126 585.166   3
 -14  -2  -7 596.843 400.570   3
  14 -16  -7-242.084 279.857   4
  16 -14  -7 272.134 249.216   4
  16  -2   7 415.750 116.378   9
 -16   2   7-200.668 389.356   3
  14   2   7 493.552 121.084   9
  -2  16   7 267.700 326.454   2
   2  14   7 371.577 322.886   2
 -14  16  -8 665.908 123.484   8
  -2 -14  -8 371.267 155.323  10
 -14  -2  -8 641.373 161.533  10
   2  14  -8 445.080 116.640   6
  16  -2   8 613.151 111.668   9
  14   2   8 435.205 110.559   9
  -2  16  -8 546.915 121.052   6
 -14  16  -9 393.355 131.936   8
  14   2   9 265.486 124.483   9
  -2 -14  -9 481.840 166.620  10
 -14  -2  -9 112.862 148.348  10
   2 -16  -9 184.560 160.748  10
  16  -2   9 428.891 118.829   9
 -14  16 -10 529.186 132.059   8
 -14  -2 -10 148.889 144.595  10
  -2 -14 -10 654.245 174.713  10
   2 -16 -10 288.375 170.976  10
  14   2  10 487.840 134.580   9
 -14  16 -11 384.939 131.049   8
   2 -16 -11 138.523 147.760  10
 -14  -2 -11 93.3368 129.562  10
  -2 -14 -11 419.800 142.138  10
  14   2  11 451.401 126.405   9
   2  14  11 216.012 104.274   9
 -14  16 -12 213.128 125.170   8
 -14  -2 -12 360.979 129.840  10
   2  14  12 111.339 100.864   9
   2 -16 -12 178.047 136.777  10
  14   2  12 372.239 126.404   9
 -14  16 -13 64.0912 105.289   8
 -16  14 -13 80.0883 104.031   8
 -14  -2 -13 136.942 107.514  10
   2 -16 -13 240.948 129.440  10
   2  14  13-19.4716 94.0940   9
  -2  16  13-134.508 91.2224   9
 -14  16 -14 140.577 106.617   8
 -16  14 -14-84.2843 107.424   8
  14 -16 -14 279.133 141.349  10
   2  14  14 81.0656 86.5757   9
   2 -16 -14 24.3197 111.998  10
 -14  16 -15 146.135 96.5325   8
 -16  14 -15 2.19991 89.3478   8
   2 -16 -15 118.323 96.9379   7
  -2 -14 -15 184.703 98.8026  10
   2 -16 -15-9.67876 95.4885  10
  14 -16 -15 214.301 109.659  10
 -14  16 -16 83.6825 91.5365   8
 -16  14 -16-37.1045 90.2023   8
   2 -16 -16 69.1660 84.6744   7
  16 -14 -16 44.4347 77.2247   7
  -2 -14 -16 253.206 87.9439  10
   2 -16 -16 75.9125 87.8329  10
   1  15   0 2098.49 389.612   5
  15   1   0 1805.14 360.774   5
  16 -15   0 2702.74 454.695   4
  -1  16   0 2574.14 416.300   2
 -16   1   0 2125.43 491.419   3
 -16  15   0 2268.24 506.485   3
 -15  -1   0 1932.98 438.955   3
  16  -1   0 2858.79 409.004   5
  15   1   1 41.0939 196.263   5
  15 -16   1 221.724 254.361   4
  16 -15  -1 162.875 239.211   4
  16 -15   1 269.445 214.412   4
  -1  16   1 379.150 257.802   2
   1  15   1 165.555 246.133   2
 -16  15   1 348.778 316.358   3
   1  15   1 181.060 194.884   5
 -16  15  -1 153.212 323.574   3
  16  -1   1-37.4299 201.159   5
 -16   1   1 310.328 309.259   3
 -15  -1   1 82.2921 260.090   3
 -16   1  -1 332.426 299.500   3
 -15  -1  -1 111.871 278.099   3
  15   1  -1 178.039 228.909   5
  -1  16   2 777.641 311.099   2
  15 -16  -2 888.952 329.765   4
  15 -16   2 1029.00 302.941   4
  16 -15  -2 1237.38 355.050   4
   1  15   2 1351.06 354.862   2
  16 -15   2 1171.70 307.960   4
   1  15   2 1026.18 294.603   5
 -16  15   2 1152.25 368.646   3
 -16   1   2 1085.13 349.422   3
 -15  16   2 1116.37 344.552   3
 -15  -1   2 1446.55 442.923   3
 -16   1  -2 1274.46 413.352   3
 -15  -1  -2 1288.67 412.975   3
  15   1   2 669.328 230.919   5
  15   1   3 1225.80 289.471   5
  -1  16   3 1703.89 388.684   2
   1  15   3 1743.24 393.177   2
  15 -16  -3 2102.05 437.517   4
  15 -16   3 1579.90 345.124   4
  16 -15  -3 1338.56 373.287   4
  16 -15   3 1922.43 348.370   4
   1  15   3 1362.83 348.773   5
 -15  -1   3 1556.18 397.867   3
 -16  15   3 955.265 358.340   3
 -15  16   3 1449.35 371.012   3
 -15  -1  -3 1615.63 434.725   3
 -16   1  -3 1438.64 454.008   3
 -16   1   3 1214.49 388.625   3
 -16   1  -4 996.058 415.134   3
  -1  16   4 1272.95 357.657   2
  15 -16  -4 1255.24 353.231   4
  16 -15  -4 1123.54 351.041   4
   1  15   4 1097.79 347.775   2
 -16   1   4 1730.23 471.823   3
 -15  -1  -4 1217.75 433.909   3
  -1  16   5 822.771 340.974   2
 -16   1  -5 129.704 350.056   3
 -15  -1  -5 471.439 354.810   3
  15 -16  -5 534.663 290.796   4
  16 -15  -5 569.754 302.339   4
 -16   1   5 495.431 339.977   3
   1  15   5 607.726 344.653   2
 -16   1  -6-245.688 468.692   3
 -15  -1  -6 275.753 360.044   3
  15 -16  -6 87.7355 258.860   4
  16 -15  -6 812.417 344.970   4
   1  15   6 409.973 314.998   2
  -1  16   6 105.374 293.498   2
 -16  15  -7 915.839 137.797   8
  16  -1   7 919.782 121.093   9
  15   1   7 1030.23 125.611   9
   1  15  -7 973.912 140.507   6
  -1  16  -7 948.265 136.722   6
 -15  16  -7 1096.80 144.615   8
 -15  16  -8 81.0181 115.027   8
 -16  15  -8 78.3772 104.115   8
   1  15  -8 35.4124 110.399   6
  16  -1   8 120.965 102.559   9
 -15  -1  -8 171.551 151.108  10
  -1 -15  -8-89.6533 148.944  10
   1 -16  -8 29.8773 139.635  10
  15   1   8 179.897 108.852   9
  -1  16  -8 299.027 117.462   6
 -15  16  -9 383.002 119.060   8
 -16  15  -9 300.051 106.827   8
 -15  -1  -9 451.906 150.857  10
  -1 -15  -9 472.777 160.825  10
   1 -16  -9-16.0139 145.680  10
  16  -1   9 441.333 114.192   9
  15   1   9 336.360 114.652   9
 -15  16 -10 837.855 132.537   8
 -16  15 -10 613.616 126.710   8
 -15  -1 -10 1305.40 171.569  10
  15   1  10 953.057 136.906   9
  -1 -15 -10 510.007 151.226  10
   1 -16 -10 198.950 138.315  10
  16  -1  10 1079.22 139.631   9
 -15  16 -11 476.949 115.983   8
 -16  15 -11 228.347 106.511   8
  15   1  11 380.487 117.985   9
 -15  -1 -11 578.767 139.147  10
  -1 -15 -11 343.594 131.798  10
   1 -16 -11 71.8523 132.053  10
 -15  16 -12 85.7071 100.584   8
 -16  15 -12 142.780 100.448   8
   1 -16 -12 104.000 119.255  10
  -1  16  12 21.6580 85.9040   9
   1  15  12 112.260 92.5377   9
  -1 -15 -12 127.851 115.452  10
 -15  16 -13 76.8980 102.177   8
 -16  15 -13 7.83944 97.9805   8
   1 -16 -13-19.5250 105.398  10
   1  15  13-67.1474 84.1790   9
  -1  16  13 72.8372 84.8816   9
 -15  16 -14 101.493 97.6021   8
 -16  15 -14 17.7424 96.0761   8
  15 -16 -14-145.285 118.865  10
   1 -16 -14 88.8124 101.581  10
  -1 -15 -14 140.106 105.821  10
   1  15  14-137.574 78.1010   9
  -1 -15 -15 159.832 91.6563  10
   1 -16 -15-24.6684 91.1494  10
 -15  16 -15-96.3889 93.4544   8
 -16  15 -15 29.5255 89.2743   8
 -15  16 -16-57.2114 86.6709   8
  16 -15 -16-16.7527 75.8866   7
  -1 -15 -16 56.0500 79.5332  10
   1 -16 -16 51.1085 80.5505  10
 -16  15 -16-51.2519 88.1605   8
  16 -16   0 309.947 247.777   4
   0  16   0-49.4820 224.281   5
 -16   0   0 315.954 322.345   3
  16   0   0 4.94812 218.919   5
   0  16   1 1429.67 348.378   5
  16   0   1 1055.87 289.148   5
  16 -16  -1 1146.91 349.965   4
  16 -16   1 1345.48 349.113   4
   0  16   1 1172.99 333.761   2
 -16  16   1 1006.44 391.334   3
 -16   0   1 1341.62 428.476   3
 -16   0  -1 1367.98 428.043   3
   0  16   2-20.8591 270.462   5
  16 -16  -2 331.203 272.940   4
  16 -16   2 326.743 245.424   4
   0  16   2 973.550 325.731   2
 -16  16   2 605.847 362.992   3
 -16   0   2 845.373 370.017   3
  16   0   2 271.062 222.764   5
 -16   0  -2 330.139 317.109   3
   0  16   3 1235.39 369.292   2
  16 -16  -3 1588.18 418.137   4
  16 -16   3 1759.30 373.093   4
 -16  16   3 1366.97 423.769   3
 -16   0  -3 1167.13 432.313   3
  16   0   3 1048.58 299.040   5
 -16   0   3 1099.22 397.297   3
 -16   0  -4 1039.70 432.706   3
  16   0   4 753.422 288.712   5
   0  16   4 733.639 344.719   2
  16 -16  -4 1367.65 401.413   4
 -16   0   4 1122.49 385.786   3
 -16   0  -5 346.278 360.394   3
  16 -16  -5 598.988 328.196   4
   0  16   5 58.6700 322.184   2
   0  16   6-433.567 365.223   2
 -16   0  -6-63.4639 354.560   3
  16 -16  -6-55.5581 323.921   4
  16   0   6 373.732 105.730   9
 -16  16  -7 791.302 134.733   8
  16   0   7 973.486 123.247   9
   0 -16  -7 671.230 170.626  10
   0  16  -7 957.456 138.498   6
 -16  16  -8 81.1643 118.486   8
   0 -16  -8 151.605 155.584  10
  16   0   8 63.1082 109.870   9
   0  16  -8 164.080 119.330   6
 -16  16  -9 389.086 115.318   8
  16   0   9 342.943 117.047   9
   0 -16  -9 321.967 154.851  10
 -16  16 -10 152.886 109.898   8
   0 -16 -10 270.955 145.281  10
  16   0  10 238.459 117.409   9
 -16  16 -11 480.128 113.939   8
   0 -16 -11 345.519 140.181  10
 -16  16 -12 140.857 101.356   8
   0 -16 -12 65.3870 112.556  10
   0  16  12-0.88871 86.3329   9
 -16  16 -13 33.2442 97.9230   8
   0 -16 -13-143.279 100.806  10
   0  16  13 17.0611 80.9931   9
 -16  16 -14 54.6648 95.5229   8
   0 -16 -14 186.138 105.213  10
   0  16  14-145.538 75.6960   9
 -16  16 -15 134.045 90.5263   8
   0 -16 -15 157.516 96.1372  10
  16 -16 -16 100.683 76.3164   7
 -16  16 -16-14.6587 78.3753   8
   9   8   0 76.3008 197.423   5
 -17   9   0-21.4987 283.727   3
   8   9   0 24.4854 194.713   5
 -17   8   0-212.625 364.588   3
   8   9  -1 169.533 186.267   5
   9   8  -1 87.6286 187.396   5
   8   9   1 533.863 243.233   5
   9   8   1 305.785 208.565   5
 -17   9   1 140.480 287.259   3
 -17   8   1 353.350 292.152   3
 -17   9  -1 293.148 331.110   3
 -17   8  -1 85.5089 293.456   3
   9   8   2 147.737 201.462   5
   8   9   2 228.507 219.108   5
   8   9   2 10.4308 217.975   2
 -17   9   2 231.388 254.908   3
 -17   8   2 162.849 285.960   3
 -17   9  -2-150.373 323.664   3
 -17   8  -2 272.216 307.299   3
   8   9  -2-0.88204 205.714   5
   9   8  -2 86.6425 185.618   5
   8   9   3 153.718 223.682   2
   9   8   3 528.850 273.284   2
 -17   9   3 333.945 254.943   3
 -17   8   3 242.927 269.561   3
 -17   9  -3 135.243 310.660   3
 -17   8  -3-235.045 325.880   3
   8   9   4 157.053 234.671   2
   9   8   4 271.983 220.228   2
 -17   9   4 240.872 247.260   3
  -8  17   4 290.042 265.136   2
 -17   8   4 200.902 266.900   3
 -17   9  -4 98.8998 337.762   3
 -17   8  -4-101.099 335.848   3
   8   9   5-98.9583 255.122   2
   9   8   5 192.750 258.038   2
   8 -17  -5-53.2403 237.550   1
   9 -17  -5-89.2382 257.536   1
  -8  17   5 54.0052 276.660   2
  -9  17   5-221.922 304.636   2
 -17   8   5-323.817 312.540   3
 -17   9  -5-392.376 341.240   3
 -17   8  -5 561.370 418.606   3
 -17   9  -6 38.9774 377.539   3
   8   9   6 392.739 305.155   2
   9   8   6 103.476 262.259   2
   9 -17  -6 344.139 289.030   1
 -17   8  -6-207.329 429.946   3
   8 -17  -6-147.934 267.452   1
 -17   9  -7 16.0956 354.140   3
 -17   8  -7 270.065 402.327   3
   8   9   7-263.396 318.713   2
   9   8   7 417.306 268.261   2
  -9  -8  -7 277.944 293.147   3
   8 -17  -7 150.503 309.737   1
   9 -17  -7 157.639 258.919   1
  -9  17  -8 23.1281 115.844   8
  -8  17  -8 132.241 124.164   8
  -8  -9  -8-1.85666 156.606  10
   9   8   8 96.0998 107.455   9
  -9  -8  -8 53.3657 161.520  10
   8   9   8 28.9736 97.8487   9
  -9  17  -9 179.493 124.315   8
  -8  -9  -9 41.2190 148.520  10
  -8  17  -9 185.425 132.357   8
  -9  -8  -9 219.255 145.478  10
   9   8   9 181.243 114.165   9
   8   9   9 95.1457 108.638   9
  -8  17 -10 291.331 142.729   8
  -9  17 -10 222.152 142.759   8
  -9  -8 -10 569.524 160.299  10
  -8  -9 -10 331.309 154.103  10
   8   9  10 248.114 125.698   9
   9   8  10 283.517 121.947   9
  -8  17 -11 232.506 134.503   8
  -9  17 -11 35.6702 131.584   8
   9   8  11 141.258 106.832   9
   8   9  11-18.0627 107.324   9
  -9  -8 -11 92.6552 128.845  10
  -8  -9 -11 113.689 125.243  10
  -9  17 -12 13.0028 116.040   8
 -17   9 -12-23.2100 114.036   7
  -8  -9 -12-50.9003 116.946  10
  -8  17 -12 79.5142 118.056   8
  -9  -8 -12 62.1106 110.736  10
   8 -17 -12-56.3475 134.393  10
   9   8  12 36.6648 95.8845   9
   8   9  12 62.6016 95.0934   9
  -8  17 -13-37.0611 107.756   8
  -9  17 -13 94.5897 109.039   8
 -17   9 -13-78.2410 108.474   7
  -9  -8 -13 76.9787 102.319  10
  -8  -9 -13 131.195 111.158  10
   8 -17 -13 4.46191 122.433  10
   9 -17 -13-55.2712 127.877  10
   9   8  13 20.6875 88.4627   9
   8   9  13 30.9949 88.8536   9
  -9  17 -14-9.77913 95.5056   8
 -17   9 -14-71.2781 97.1784   7
  -8  17 -14 121.136 95.1434   8
  -9  -8 -14 100.107 95.3992  10
  -8  -9 -14 18.8082 92.9814  10
   8 -17 -14-109.258 118.707  10
   9   8  14 10.6961 81.6811   9
   8   9  14-28.2359 82.1706   9
   9 -17 -14-33.0127 119.202  10
  -9  17 -15-3.57091 88.3860   8
   8 -17 -15-35.7057 102.813  10
   9 -17 -15 63.4971 100.888  10
  -9  -8 -15-9.41817 83.7135  10
  -8  -9 -15-34.1274 85.3097  10
  -8  17 -15 29.1700 83.9981   8
   9   8  15-44.9570 73.1882   9
   8   9  15 32.5163 69.5689   9
  -9  -8 -16-30.9634 77.0874  10
  -8  -9 -16 93.9078 79.7210  10
   8 -17 -16-6.65681 86.5528  10
  -8  17 -16 31.4340 72.9648   8
  -9  17 -16-49.9147 78.2209   8
   9 -17 -16-32.8985 87.7821  10
   7  10   0 1781.98 349.945   5
  10   7   0 1622.43 330.351   5
 -17   7   0 1612.96 414.863   3
 -17  10   0 1528.87 401.954   3
 -17  10   1 3153.88 539.110   3
 -17   7   1 3657.11 579.403   3
 -17  10  -1 3328.49 612.567   3
 -17   7  -1 2449.32 531.906   3
   7  10  -1 3174.71 449.015   5
  10   7  -1 2916.85 442.925   5
   7  10   1 2953.14 431.845   5
  10   7   1 2832.95 409.729   5
   7  10   2 1793.03 371.965   5
   7  10   2 2116.78 365.519   2
  10   7  -2 1915.34 370.050   5
 -17  10   2 1796.29 446.180   3
 -17   7   2 1871.96 454.926   3
 -17  10  -2 1977.92 492.595   3
 -17   7  -2 1645.71 508.477   3
  10   7   2 2005.78 382.083   5
   7  10  -2 1833.76 363.212   5
   7  10   3 1546.29 364.498   2
 -17  10   3 1852.42 433.229   3
 -17   7   3 1876.38 433.120   3
 -17  10  -3 1455.43 474.884   3
 -17   7  -3 1759.29 482.894   3
  -7  17   3 2437.22 384.276   2
   7  10   4 1381.46 341.792   2
  10   7   4 1457.20 348.505   2
 -17  10   4 1497.37 378.578   3
 -17   7   4 1600.88 413.623   3
  -7  17   4 1988.25 373.166   2
 -17  10  -4 1150.75 451.641   3
 -17   7  -4 1205.91 463.265   3
   7  10   5 1127.66 319.742   2
  10   7   5 930.968 304.271   2
 -10  -7  -5 1180.44 424.893   3
 -17   7   5 597.219 344.673   3
  -7  17   5 1185.06 348.650   2
 -17  10  -5 690.697 441.489   3
 -17   7  -5 1058.59 487.504   3
 -17  10  -6 559.334 427.990   3
   7  10   6 935.866 352.894   2
  10   7   6 1031.63 341.175   2
 -10  -7  -6 773.455 339.218   3
 -17   7  -6 662.959 407.091   3
 -17   7   6 1134.38 418.916   3
  10 -17  -6 844.966 331.136   1
  -7  17   6 1006.95 372.561   2
 -17  10  -7 872.701 396.133   3
 -17   7  -7 1519.59 555.898   3
  10   7   7 1046.78 376.715   2
 -10  -7  -7 944.163 368.479   3
  -7  17   7 1860.18 543.089   2
   7 -17  -7 698.060 367.395   1
   7  10   7 916.552 347.804   2
  10 -17  -7 1190.22 416.622   1
 -10  -7  -8 897.467 177.230  10
  -7 -10  -8 1079.51 179.820  10
 -10  17  -8 753.507 143.464   8
  -7  17  -8 840.227 142.878   8
  10   7   8 703.514 120.213   9
   7  10   8 703.457 114.323   9
 -10  17  -9 1065.17 154.145   8
 -10  -7  -9 1830.65 193.850  10
  -7 -10  -9 1644.32 186.452  10
  -7  17  -9 1329.61 160.994   8
  10   7   9 1212.59 140.670   9
   7  10   9 1254.54 136.273   9
 -17  10 -10 2535.65 201.117   7
 -10  -7 -10 2661.31 214.398  10
  -7 -10 -10 2521.07 197.777  10
 -10  17 -10 1819.64 175.213   8
  10   7  10 2458.20 178.160   9
   7  10  10 1943.88 159.909   9
  -7  17 -10 1944.48 186.976   8
  -7  17 -11 885.783 148.846   8
 -10  17 -11 673.092 139.072   8
 -17  10 -11 1171.57 154.875   7
   7  10  11 768.991 123.962   9
 -10  -7 -11 1271.60 158.569  10
  -7 -10 -11 915.582 155.187  10
  10   7  11 744.568 127.318   9
  -7  17 -12 166.161 121.497   8
 -10  17 -12 51.2172 108.203   8
 -17  10 -12 269.533 120.380   7
 -10  -7 -12 186.850 119.114  10
   7 -17 -12 53.6118 139.658  10
  -7 -10 -12 349.125 121.712  10
  10   7  12 89.5861 102.482   9
   7  10  12 44.2597 93.7864   9
 -10  17 -13 183.987 107.710   8
 -17  10 -13 105.813 107.040   7
  -7 -10 -13 506.361 121.587  10
 -10  -7 -13 340.201 116.300  10
   7 -17 -13 116.896 131.290  10
  10 -17 -13-34.3644 129.060  10
  10   7  13 229.830 99.5334   9
   7  10  13 83.8430 90.9722   9
  -7  17 -13 304.476 118.690   8
 -10  17 -14 3.28257 101.293   8
 -10  -7 -14 164.684 95.1425  10
  10 -17 -14-16.6930 118.244  10
  -7 -10 -14-75.8606 93.3777  10
   7 -17 -14-69.9654 118.422  10
  10   7  14 63.2526 81.2613   9
   7  10  14-84.0126 81.9165   9
  -7  17 -14 89.8811 103.600   8
 -10  17 -15-49.4034 85.6718   8
  -7  17 -15 34.3226 85.3640   8
 -10  -7 -15 52.3455 82.8372  10
  -7 -10 -15 87.0613 89.0690  10
   7  10  15-182.573 75.8257   9
   7 -17 -15-78.1600 106.272  10
  10 -17 -15-63.8815 107.116  10
  -7  17 -16 22.8472 72.4597   8
 -10  17 -16 73.0611 79.0941   8
 -17  10 -16 28.5008 79.6895   8
 -10  -7 -16 79.7462 79.1811  10
  -7 -10 -16 79.7221 79.6653  10
   7 -17 -16 19.4852 88.5357  10
  10 -17 -16-11.5892 87.1096  10
  11   6   0 1263.75 311.451   5
  17 -11   0 1458.90 314.108   4
   6  11   0 1107.00 305.446   5
 -17  11   0 743.459 353.116   3
 -17   6   0 1342.71 430.501   3
   6  11  -1 500.975 242.595   5
  11   6  -1 330.571 216.943   5
   6  11   1 469.073 246.686   5
  11   6   1 447.634 225.658   5
  -6  17   1 716.734 254.386   2
  17 -11  -1 297.804 237.409   4
 -17  11   1 605.016 310.267   3
 -17   6   1 273.094 309.928   3
 -17  11  -1 120.685 311.066   3
 -17   6  -1 576.136 333.826   3
  11   6   2 1820.14 351.868   5
  -6  17   2 1732.44 338.438   2
   6  11   2 1374.86 343.587   5
  17 -11  -2 1375.33 332.173   4
   6  11   2 1564.85 341.309   2
 -17   6   2 1484.40 422.665   3
 -17  11  -2 1337.18 452.839   3
 -17  11   2 1352.57 399.968   3
 -17   6  -2 1246.84 441.831   3
   6  11   3 1488.83 361.530   2
  17 -11  -3 1832.70 374.350   4
 -17   6   3 1259.42 394.691   3
 -17  11  -3 1617.50 483.260   3
 -17  11   3 1049.46 329.598   3
 -17   6  -3 1107.51 430.333   3
  -6  17   3 1906.29 364.425   2
   6  11   4 1123.56 318.784   2
 -11  -6  -4 926.406 350.530   3
  17 -11  -4 877.138 296.572   4
  11   6   4 710.187 282.449   2
 -17  11   4 667.178 306.782   3
  -6  17   4 939.549 298.390   2
 -17  11  -4 91.9727 335.200   3
 -17   6  -4 412.175 345.919   3
 -17   6   4 857.995 356.527   3
   6  11   5 653.218 281.513   2
 -11  -6  -5 514.361 334.894   3
  11   6   5 548.081 274.781   2
 -17   6   5 92.5142 322.473   3
  -6  17   5 677.106 298.847   2
 -17  11  -5 234.625 332.024   3
 -17   6  -5 305.352 364.087   3
 -17   6  -6 810.934 454.691   3
   6  11   6 1637.16 412.364   2
  11   6   6 951.673 353.766   2
 -11  -6  -6 1571.48 501.749   3
  -6  17   6 1641.85 422.667   2
 -17   6   6 1423.63 467.530   3
 -17  11  -6 1575.92 531.565   3
   6  11   7 232.742 304.253   2
 -17  11  -7-175.950 342.421   3
 -17   6  -7 16.2576 424.866   3
  11 -17  -7-139.012 295.502   1
 -11  -6  -7 609.285 376.644   3
  -6  17   7-34.3415 335.795   2
 -11  -6  -8 1773.74 195.371  10
  -6 -11  -8 1583.96 184.495  10
  11   6   8 1252.36 140.177   9
  -6  17  -8 1321.92 152.579   8
 -11  17  -8 1076.03 150.686   8
  -6  17  -9 769.125 155.828   8
 -11  17  -9 513.351 138.805   8
 -17  11  -9 835.990 173.147   7
  -6 -11  -9 799.470 176.715  10
   6  11   9 578.714 118.482   9
  11   6   9 921.853 143.618   9
 -11  -6  -9 1151.95 185.880  10
 -11  17 -10 345.542 133.920   8
 -17  11 -10 455.786 148.205   7
 -11  -6 -10 609.548 159.905  10
  -6 -11 -10 699.835 172.713  10
  -6  17 -10 583.652 148.416   8
   6  11  10 375.241 121.778   9
  11   6  10 386.724 131.029   9
  -6  17 -11 435.259 145.295   8
 -11  17 -11 183.384 119.534   8
 -17  11 -11 294.548 132.580   7
 -11  -6 -11 458.829 148.764  10
  -6 -11 -11 493.838 148.241  10
  11   6  11 471.596 125.641   9
   6  11  11 268.927 111.202   9
 -11  17 -12 265.667 116.374   8
 -17  11 -12 130.937 113.074   7
 -11  -6 -12 341.666 125.648  10
  -6 -11 -12 381.744 132.171  10
   6  11  12 272.581 104.440   9
  11   6  12 358.969 115.007   9
  -6  17 -12 255.694 129.077   8
   6 -17 -12 457.769 162.701  10
  -6  17 -13 165.048 115.709   8
 -11  17 -13 46.8803 109.667   8
 -17  11 -13 102.886 106.284   7
  11 -17 -13 13.4470 135.279  10
 -11  -6 -13 342.498 117.815  10
  -6 -11 -13 360.897 118.326  10
   6 -17 -13 222.555 132.507  10
  11   6  13 201.771 101.026   9
   6  11  13 2.70737 93.8286   9
   6 -17 -14 106.359 113.385  10
 -11  -6 -14 124.870 96.6318  10
  -6 -11 -14 168.047 101.254  10
   6  11  14-1.20881 80.3023   9
 -11  17 -14-17.2733 99.8208   8
  11   6  14 31.5641 84.0724   9
  11 -17 -14-17.1720 120.813  10
  -6  17 -14 16.7655 97.3135   8
   6  11  15-77.3399 73.6847   9
  -6  17 -15 15.0626 85.1016   8
  11 -17 -15-99.5298 110.645  10
 -11  -6 -15 71.5023 87.7874  10
  -6 -11 -15 160.906 93.7269  10
   6 -17 -15 39.0603 99.7361  10
 -11  17 -15 86.8190 90.7645   8
 -17  11 -16-38.5955 81.0773   8
   6 -17 -16-46.9244 85.9333   7
  -6 -11 -16-18.8911 80.0243  10
   6 -17 -16 58.9114 87.4877  10
  11 -17 -16 81.3503 88.6673  10
 -11  17 -16-76.7003 84.8269   8
   5  12   0 295.437 233.678   5
  12   5   0 307.456 232.808   5
  17 -12   0 485.780 258.106   4
  -5  17   0 745.308 268.580   2
 -17   5   0 572.646 357.795   3
 -17  12   0 294.250 302.292   3
  12   5  -1 68.0571 222.170   5
   5  12   1 489.737 242.755   5
  12   5   1 244.599 212.197   5
   5  12  -1 54.8423 181.114   5
  -5  17   1 313.759 230.553   2
  17 -12  -1 297.189 222.899   4
  17 -12   1 412.428 248.876   4
 -17  12   1 225.627 285.751   3
 -17   5   1 168.479 277.679   3
 -17  12  -1 21.9836 313.458   3
 -17   5  -1 220.861 313.559   3
   5  12   2 306.846 218.403   5
  12   5   2 108.793 188.022   5
  -5  17   2 378.673 255.525   2
  17 -12  -2 361.137 260.935   4
  17 -12   2 358.022 205.360   4
   5  12   2 124.943 209.065   2
 -17   5   2-44.9558 273.065   3
 -17  12   2-273.198 272.465   3
 -17  12  -2 30.3073 286.511   3
 -17   5  -2 210.937 313.582   3
   5  12   3-17.3072 216.568   5
  12   5   3 120.706 173.527   5
 -12  -5  -3-97.3128 277.392   3
   5  12   3-82.1836 226.728   2
  17 -12  -3 209.627 214.866   4
 -17  12   3 450.116 277.331   3
 -17  12  -3-102.505 327.162   3
 -17   5  -3 73.4760 308.000   3
 -17   5   3-447.100 359.348   3
  -5  17   3 89.3765 231.261   2
 -12  -5  -4 174.656 293.785   3
   5  12   4-70.0077 249.779   2
  17 -12  -4-128.860 252.312   4
 -17   5   4-108.297 269.607   3
 -17  12   4 8.28082 232.513   3
 -17  12  -4 45.7380 357.386   3
  -5  17   4-137.786 261.153   2
 -17   5  -4 141.522 316.514   3
 -17   5  -5 73.5584 357.265   3
   5  12   5 124.251 264.572   2
 -12  -5  -5-25.1041 307.468   3
  17 -12  -5 626.461 319.120   4
  12   5   5 14.8671 276.863   2
  -5  17   5 118.696 274.693   2
 -17   5   5 457.424 285.509   3
 -17  12  -5 264.618 361.069   3
 -17   5  -6-386.733 367.238   3
 -12  -5  -6 43.6906 336.780   3
 -17  12  -6 461.440 372.360   3
 -17   5   6-81.1469 326.472   3
  -5  17   6-70.1617 330.122   2
   5  12   6 149.089 302.753   2
 -12  17  -7 873.965 142.388   8
 -17  12  -7 219.998 347.906   3
 -17   5  -7 355.261 442.218   3
 -12  -5  -7 427.467 414.879   3
 -17   5   7-126.693 358.548   3
  12   5   7 1084.34 139.091   9
   5  12   7-70.1545 329.981   2
  -5  17   7 519.162 375.233   2
  -5  17  -8 444.969 131.556   8
 -12  -5  -8 488.627 168.984  10
  -5 -12  -8 130.180 152.110  10
  12   5   8 287.808 119.598   9
 -12  17  -8 120.022 116.333   8
  -5  17  -8 338.997 120.710   6
  -5  17  -9 453.115 145.185   8
 -12  17  -9 445.623 143.790   8
  12   5   9 506.561 134.463   9
  -5 -12  -9 604.168 177.835  10
 -12  -5  -9 990.729 183.453  10
  -5  17 -10 265.433 137.846   8
 -12  17 -10 213.155 123.691   8
 -17  12 -10 378.064 142.927   7
 -12  -5 -10 520.095 161.748  10
  -5 -12 -10 254.063 153.525  10
  12   5  10 345.406 126.417   9
   5  12  10 109.607 108.479   9
  -5  17 -11 289.585 129.663   8
 -12  17 -11 241.869 127.039   8
 -17  12 -11 300.679 127.988   7
 -12  -5 -11 407.675 143.293  10
  -5 -12 -11 569.926 155.256  10
   5 -17 -11 247.266 161.034  10
  12   5  11 497.704 122.649   9
   5  12  11 222.436 108.258   9
 -12  17 -12 55.5144 117.633   8
 -17  12 -12 83.1782 112.240   7
 -12  -5 -12 621.250 139.515  10
  -5 -12 -12 375.782 130.906  10
   5 -17 -12 86.3531 146.505  10
  12   5  12 393.492 113.438   9
   5  12  12 212.577 105.057   9
  -5  17 -12 248.683 120.666   8
  -5  17 -13 464.999 115.031   8
 -12  17 -13 92.0704 102.709   8
 -12  -5 -13 345.598 116.444  10
  -5 -12 -13 465.544 122.115  10
   5 -17 -13 301.753 132.925  10
  12 -17 -13 117.372 137.009  10
  12   5  13 209.100 100.408   9
   5  12  13-20.0270 89.9809   9
   5  12  14-55.1835 80.9139   9
  12   5  14 115.567 86.1881   9
 -12  17 -14 22.2696 102.381   8
 -12  -5 -14 78.8905 95.2063  10
  -5 -12 -14 131.443 104.663  10
  12 -17 -14-45.7452 120.978  10
   5 -17 -14 97.9718 110.246  10
 -12  17 -15 21.6607 87.7457   8
 -17  12 -15 41.5657 89.6178   8
 -12  -5 -15 152.452 89.5022  10
  -5 -12 -15-50.0460 88.8359  10
   5 -17 -15 164.898 101.530  10
  12 -17 -15-93.9678 105.743  10
   5  12  15-64.5384 69.0863   9
 -12  17 -16-29.3532 83.2379   8
 -17  12 -16 26.9169 84.2806   8
   5 -17 -16 131.550 86.8598   7
  -5 -12 -16 236.109 83.9545  10
   5 -17 -16 20.6755 82.7750  10
  12 -17 -16-13.7515 84.7716  10
   4  13   0 413.283 211.803   5
  13   4   0 353.329 233.919   5
  17 -13   0 824.825 295.626   4
  -4  17   0 472.593 258.035   2
 -17  13   0 369.834 345.960   3
 -17   4   0 1244.10 431.026   3
   4  13   1 341.442 217.032   5
  -4  17   1 471.319 261.793   2
  17 -13  -1 347.361 253.993   4
  17 -13   1 522.184 235.489   4
   4  13   1 144.398 234.065   2
  13   4   1 285.822 208.559   5
 -13  -4  -1 382.895 316.769   3
 -17  13   1 69.6511 258.544   3
 -17   4   1 96.4371 296.113   3
 -17   4  -1 368.476 325.604   3
 -17  13  -1 47.5357 317.514   3
   4  13  -1 539.703 270.696   5
  13   4  -1 526.689 239.242   5
 -13  -4  -2-41.3714 275.984   3
  13   4   2 83.4856 202.158   5
  -4  17   2-149.391 251.101   2
  17 -13  -2-153.630 225.754   4
  17 -13   2-37.4478 208.166   4
   4  13   2-90.2221 232.908   2
 -17  13   2-28.3889 234.868   3
 -17   4   2 66.1003 283.927   3
 -17  13  -2-133.684 295.579   3
 -17   4  -2-68.7824 309.983   3
   4  13   2-77.0560 191.688   5
  -4  17   3 216.250 248.103   2
   4  13   3-76.0876 194.041   5
   4  13   3 285.055 258.558   2
  17 -13  -3 135.892 231.686   4
  17 -13   3-120.562 199.318   4
  13   4   3-18.8914 207.816   5
 -13  -4  -3-79.6798 272.913   3
 -17  13   3 25.0131 233.485   3
 -17   4   3-167.958 258.773   3
 -17  13  -3 19.7641 297.729   3
 -17   4  -3-206.051 325.268   3
 -13  -4  -4-141.138 310.431   3
   4  13   4 369.878 295.406   2
  17 -13  -4 67.0032 228.699   4
 -17  13   4 20.4595 251.786   3
 -17   4   4-181.507 289.159   3
 -17  13  -4 227.534 338.401   3
  -4  17   4-345.304 308.700   2
 -17   4  -4-11.7454 318.612   3
   4  13   5 329.688 297.193   2
 -13  -4  -5 364.992 356.702   3
  17 -13  -5 376.850 293.336   4
 -17   4  -5 262.955 363.250   3
 -17   4   5 126.241 279.137   3
  -4  17   5-18.1064 265.272   2
 -17  13  -5 50.3694 315.873   3
   4  13   6 146.326 287.962   2
 -17   4  -6 316.165 358.724   3
 -13  -4  -6-161.075 350.372   3
  17 -13  -6-193.114 280.583   4
 -17   4   6-475.515 380.860   3
  -4  17   6-85.7065 332.465   2
 -13  17  -7 788.813 145.234   8
  13 -17  -7 418.070 318.400   4
 -13  -4  -7 490.332 419.371   3
  -4  17  -7 1041.61 142.587   6
 -17   4   7 749.061 392.176   3
  13   4   7 1122.98 133.999   9
  -4  17  -8 111.085 119.474   8
  -4  17  -8 182.960 114.636   6
   4  13  -8 82.2027 120.326   6
 -13  -4  -8 501.602 167.082  10
  -4 -13  -8 50.8902 150.999  10
 -13  17  -8 48.4052 115.515   8
  13   4   8 239.239 115.137   9
  -4  17  -9 534.860 147.032   8
 -13  17  -9 778.023 137.680   8
  -4 -13  -9 816.428 182.923  10
 -13  -4  -9 905.223 180.854  10
  13   4   9 782.498 143.952   9
  -4  17 -10 223.096 127.093   8
 -13  17 -10 142.721 125.583   8
 -13  -4 -10 289.864 152.493  10
  -4 -13 -10 183.086 154.195  10
   4 -17 -10 349.569 165.923  10
  13   4  10 297.533 124.380   9
  -4  17 -11 128.873 125.051   8
 -13  17 -11 141.270 113.182   8
 -13  -4 -11 85.1301 127.885  10
  -4 -13 -11 41.0224 134.149  10
   4 -17 -11 474.324 160.737  10
  13   4  11 144.779 115.012   9
   4  13  11-45.4923 96.3211   9
 -13  17 -12 51.2433 103.873   8
  -4 -13 -12 209.870 116.947  10
 -13  -4 -12 186.378 126.698  10
   4 -17 -12 206.593 141.383  10
   4  13  12-26.4547 99.9229   9
  13   4  12 252.405 110.606   9
 -13  17 -13 144.103 110.590   8
 -13  -4 -13 358.187 115.245  10
  -4 -13 -13 222.118 107.431  10
   4 -17 -13 243.430 129.020  10
   4  13  13-44.8872 91.4518   9
  13   4  13 68.1691 96.2055   9
 -17  13 -14 60.7619 92.0379   8
 -13  -4 -14 32.0205 94.3769  10
  -4 -13 -14 260.456 105.239  10
   4 -17 -14 81.6595 108.151  10
  13 -17 -14-43.3459 120.540  10
   4  13  14-65.4198 79.8540   9
 -13  17 -14-102.742 99.7963   8
 -17  13 -15-65.2877 88.4427   8
   4 -17 -15 12.2065 94.7895  10
   4  13  15 83.6071 65.4913   9
  13 -17 -15 77.8022 103.548  10
 -13  17 -15 80.3369 92.8781   8
  -4 -13 -15 227.354 89.3989  10
 -17  13 -16 27.5684 83.1303   8
   4 -17 -16-131.699 83.8131   7
   4 -17 -16-18.9884 82.3540  10
  13 -17 -16-65.8997 83.4776  10
 -13  17 -16-74.3832 85.3259   8
  17 -14   0 3860.78 515.408   4
  -3  17   0 3504.66 474.921   2
 -17  14   0 2662.87 565.518   3
 -17   3   0 2622.17 561.370   3
   3  14   0 3053.67 467.723   5
  14   3   0 2929.76 449.494   5
 -14  -3   0 3345.88 545.310   3
  17 -14  -1 5881.07 625.157   4
  17 -14   1 5790.28 593.987   4
 -17  14   1 4855.91 697.988   3
 -17  14  -1 4804.75 729.495   3
 -17   3   1 5208.24 726.699   3
 -17   3  -1 5292.15 716.666   3
 -14  -3  -1 6249.13 706.421   3
  -3  17   1 6536.88 619.521   2
   3  14   1 5581.48 594.198   2
   3  14  -1 4865.23 576.280   5
  14   3  -1 4815.67 554.636   5
   3  14   1 5448.99 574.331   5
  14   3   1 4257.90 513.177   5
 -14  -3  -2 2597.98 508.971   3
  17 -14  -2 3578.46 522.864   4
  17 -14   2 3518.15 468.610   4
 -17  14   2 2780.12 525.394   3
  -3  17   2 3669.40 516.529   2
   3  14   2 3233.07 471.585   2
 -17  14  -2 2953.12 591.370   3
 -17   3  -2 2517.82 556.470   3
 -17   3   2 2993.04 563.352   3
   3  14   2 2885.15 436.930   5
  14   3   2 3076.12 449.908   5
 -14  -3  -3 2632.80 548.636   3
  -3  17   3 2792.06 453.355   2
  17 -14  -3 4021.34 570.998   4
  17 -14   3 3831.48 469.889   4
   3  14   3 2465.38 447.473   2
 -17   3   3 3101.98 566.202   3
 -17  14   3 2641.08 483.239   3
   3  14   3 2591.78 420.692   5
 -17  14  -3 2242.53 521.990   3
 -17   3  -3 2706.69 611.945   3
  14   3   3 2708.38 436.044   5
  -3  17   4 2357.26 450.415   2
 -14  -3  -4 1278.60 426.958   3
   3  14   4 1835.28 407.137   2
  17 -14  -4 1841.53 422.210   4
 -17   3  -4 1820.05 493.509   3
 -17  14   4 1823.88 438.986   3
 -17   3   4 1588.52 424.552   3
  14 -17  -5 2765.12 513.296   4
   3  14   5 2711.98 506.289   2
 -14  -3  -5 2502.72 563.616   3
  17 -14  -5 2418.97 467.638   4
 -17   3  -5 2205.78 605.834   3
 -17   3   5 2605.70 556.390   3
  -3  17   5 2624.77 478.620   2
   3  14   6 1233.08 381.387   2
 -17   3  -6 137.002 477.693   3
 -14  -3  -6 1108.30 440.132   3
  14 -17  -6 597.618 303.339   4
  17 -14  -6 909.887 353.148   4
 -17   3   6 1178.36 476.807   3
  -3  17   6 1114.77 378.371   2
   3  14  -7 4479.60 214.075   6
  -3  17  -7 4455.71 210.712   6
  17 -14  -7 4521.23 210.002  11
  14   3   7 4601.49 199.288   9
 -14  17  -7 4599.94 215.931   8
 -17  14  -7 4802.39 202.306   8
 -14  17  -8 746.843 131.535   8
 -17  14  -8 465.666 111.062   8
  -3 -14  -8 905.516 169.307  10
 -14  -3  -8 782.187 173.946  10
  14   3   8 690.797 122.671   9
  -3  17  -8 497.500 119.921   6
   3  14  -8 627.078 128.871   6
 -14  -3  -9 2770.22 220.711  10
  -3 -14  -9 2165.64 200.090  10
  14   3   9 2683.69 177.981   9
 -14  17  -9 2071.66 168.723   8
 -14  17 -10 2365.95 171.945   8
  14   3  10 2685.28 178.584   9
 -14  17 -11 796.059 127.773   8
 -14  -3 -11 978.567 156.034  10
  -3 -14 -11 608.350 139.431  10
  14   3  11 1181.27 139.624   9
   3  14  11 573.478 108.786   9
   3  14  12 261.052 96.3601   9
 -14  17 -12 422.004 113.409   8
 -17  14 -12 224.682 106.882   8
 -14  -3 -12 554.133 128.246  10
  -3 -14 -12 217.491 110.044  10
   3 -17 -12-18.5617 132.440  10
  14   3  12 410.844 112.339   9
 -14  17 -13 229.866 104.042   8
 -17  14 -13 213.946 99.9090   8
   3  14  13 118.749 85.7430   9
   3 -17 -13 75.6983 119.378  10
  -3 -14 -13 126.454 95.9873  10
 -14  17 -14-13.2119 97.1571   8
 -17  14 -14 24.8621 93.2701   8
  -3 -14 -14 232.892 101.190  10
   3 -17 -14 120.455 109.174  10
   3  14  14-104.112 81.4724   9
  14 -17 -14-18.5525 117.434  10
 -14  17 -15 78.2013 90.6456   8
 -17  14 -15-94.4610 86.0217   8
   3 -17 -15-17.6317 88.5823   7
  -3 -14 -15 23.0158 84.2199  10
   3 -17 -15 107.978 95.3515  10
  14 -17 -15-12.1678 96.1600  10
   3  14  15-64.8942 65.6272   9
 -14  17 -16-25.4031 82.1901   8
 -17  14 -16 22.6731 78.2786   8
   3 -17 -16-72.1024 78.9017   7
  -3 -14 -16-15.8334 76.3159  10
   3 -17 -16 72.0735 77.6843  10
   2  15   0 60.2979 231.685   5
  15   2   0 155.931 234.717   5
  17 -15   0 196.489 255.224   4
 -17   2   0 242.644 334.606   3
 -17  15   0 40.4556 315.163   3
 -15  -2   0-168.688 379.348   3
  17 -15  -1-9.33820 249.108   4
  17 -15   1 140.250 225.642   4
  -2  17   1 21.5492 263.586   2
   2  15   1 57.6669 258.307   2
  15   2   1 73.5944 233.947   5
 -17  15   1 171.262 315.422   3
 -17  15  -1-26.0032 338.909   3
   2  15   1 139.895 221.606   5
 -17   2   1-224.476 381.425   3
 -15  -2   1-177.810 353.871   3
 -17   2  -1-145.019 337.839   3
 -15  -2  -1-304.127 326.294   3
  15   2  -1 227.441 221.279   5
  15   2   2 175.057 235.387   5
  -2  17   2 37.8155 262.449   2
  17 -15  -2 268.962 252.942   4
  17 -15   2 143.414 229.515   4
   2  15   2 425.255 289.405   2
 -17  15  -2-396.418 461.845   3
 -17   2   2 236.443 341.811   3
   2  15   2 507.880 264.048   5
 -17  15   2-111.830 290.179   3
 -17   2  -2-23.5186 316.827   3
 -15  -2  -2 161.166 308.896   3
 -15  -2  -3 485.209 396.534   3
   2  15   3 146.023 246.197   5
  15   2   3 703.527 345.288   5
  -2  17   3 93.9311 261.393   2
  15 -17  -3-181.229 288.058   4
  15 -17   3 207.572 246.825   4
   2  15   3 104.051 264.366   2
  17 -15  -3 78.3533 256.927   4
  17 -15   3 276.435 246.687   4
 -17   2   3-119.009 318.377   3
 -17  15   3 139.124 255.515   3
 -17   2  -3 438.856 357.933   3
 -17   2  -4 337.466 369.875   3
  -2  17   4 625.335 355.008   2
   2  15   4 129.553 235.248   5
  15   2   4 359.087 245.856   5
   2  15   4 519.154 316.575   2
  15 -17  -4 199.599 270.739   4
  17 -15  -4-1.14558 252.353   4
 -17   2   4 295.093 297.607   3
 -15  -2  -4 108.058 331.211   3
 -17  15   4-76.6092 267.842   3
  -2  17   5 719.542 369.604   2
 -17   2  -5 116.155 359.919   3
   2  15   5 440.305 312.968   2
 -15  -2  -5 581.358 415.385   3
  15 -17  -5 685.058 315.465   4
  17 -15  -5 561.260 328.437   4
 -17   2   5 372.990 324.075   3
 -15  17  -6 148.614 125.837   8
 -15  -2  -6-103.088 339.808   3
  15 -17  -6 322.090 319.136   4
  17 -15  -6 238.131 252.724   4
 -17   2   6-379.548 355.200   3
  15 -17  -6 141.809 115.024  11
  17  -2   6 299.888 101.468   9
   2  15  -6 70.8830 121.065   6
  15   2   6 478.354 111.940   9
  -2  17  -6 219.709 123.555   6
  -2  17  -7 931.587 138.612   6
  17  -2   7 1040.39 129.819   9
  17 -15  -7 1128.01 142.784  11
 -15  17  -7 1255.07 143.992   8
 -17  15  -7 1322.22 143.099   8
  15   2   7 1042.07 134.415   9
   2  15  -7 991.578 142.801   6
 -15  17  -8-10.0316 106.820   8
 -17  15  -8 183.916 107.207   8
 -15  -2  -8 173.410 159.977  10
  -2 -15  -8 110.542 152.491  10
   2  15  -8-4.85090 114.997   6
  15   2   8 116.681 111.216   9
  -2  17  -8 223.995 117.107   6
 -15  17  -9 111.698 115.255   8
 -17  15  -9 182.822 113.314   8
 -15  -2  -9 256.517 156.842  10
  -2 -15  -9 26.4632 143.957  10
  -2  17  -9 106.430 109.846   6
   2 -17  -9-36.3504 145.507  10
  15   2   9 222.597 119.072   9
 -15  17 -10 224.030 116.324   8
 -17  15 -10 52.6530 103.272   8
   2 -17 -10-141.014 138.848  10
  15   2  10 274.226 120.527   9
 -15  -2 -10 213.780 145.370  10
  -2 -15 -10-30.4818 130.435  10
 -15  17 -11 190.899 112.532   8
 -17  15 -11 216.543 106.478   8
   2 -17 -11 23.2063 127.094  10
 -15  -2 -11-114.127 134.826  10
  -2 -15 -11-22.5154 115.316  10
  15   2  11 163.221 106.993   9
   2  15  11-2.11533 90.5078   9
 -15  17 -12-5.23069 103.349   8
 -17  15 -12 204.698 104.524   8
  15   2  12-15.4623 95.8992   9
  -2 -15 -12 125.639 108.091  10
   2 -17 -12 31.1197 112.704  10
   2  15  12 44.9063 83.8748   9
 -15  17 -13 54.8570 95.1549   8
 -17  15 -13-171.684 99.8109   8
   2 -17 -13-94.6161 107.281  10
  -2 -15 -13-44.8418 92.6292  10
   2  15  13-27.0082 78.1347   9
  -2  17  13-91.2007 79.5099   9
 -15  17 -14-87.9571 92.4666   8
 -17  15 -14 2.89345 85.8948   8
  -2 -15 -14-134.658 92.9456  10
   2 -17 -14-36.3799 97.7276  10
   2  15  14-8.72197 69.6936   9
  15 -17 -14-62.1846 113.332  10
 -15  17 -15 41.7786 90.0018   8
 -17  15 -15 104.909 87.7969   8
   2 -17 -15 37.0664 84.3601   7
  -2 -15 -15 7.81480 85.5183  10
   2 -17 -15 59.6559 87.5014  10
 -15  17 -16-13.7086 79.8542   8
  16 -17   0 1274.41 374.288   4
  17 -16   0 1338.45 389.419   4
 -17   1   0 1345.57 440.504   3
 -16  -1   0 444.405 379.971   3
   1  16   0 714.476 299.554   5
  16   1   0 677.531 300.991   5
   1  16   1 588.391 291.617   5
  16   1   1 830.004 279.657   5
  16 -17  -1 473.945 309.257   4
  16 -17   1 909.300 334.882   4
  17 -16  -1 1088.79 369.745   4
  17 -16   1 657.375 285.012   4
  -1  17   1 616.162 312.689   2
   1  16   1 660.286 336.549   2
 -17  16   1 671.601 413.918   3
 -17   1   1 1023.55 401.896   3
 -16  -1   1 959.047 376.254   3
 -17   1  -1 678.395 376.714   3
 -16  -1  -1 746.344 387.112   3
  16 -17  -2 1697.06 431.598   4
  16 -17   2 1260.20 332.539   4
  17 -16  -2 1506.79 422.233   4
  17 -16   2 1177.05 315.879   4
  -1  17   2 1201.79 411.613   2
   1  16   2 953.394 356.920   2
  16   1   2 770.441 301.639   5
 -17   1   2 1430.77 481.472   3
 -17  16   2 510.452 326.996   3
 -17   1  -2 746.928 388.820   3
 -16  -1  -2 1492.77 484.718   3
 -16  -1   2 1205.24 408.465   3
   1  16   2 902.691 360.100   5
 -16  -1  -3 123.395 345.387   3
   1  16   3 156.001 257.994   5
  16   1   3 132.603 234.003   5
  -1  17   3 754.260 338.438   2
   1  16   3 43.1060 285.854   2
  16 -17  -3 756.358 360.562   4
  16 -17   3-61.2565 256.254   4
  17 -16  -3 140.518 279.408   4
 -17   1   3 129.350 337.042   3
 -17  16   3 53.1127 271.884   3
 -17   1  -3 343.160 365.293   3
   1  16   4 844.603 311.087   5
 -16  -1  -4 327.155 369.225   3
  -1  17   4 651.685 392.207   2
   1  16   4 621.578 363.363   2
  16 -17  -4 339.810 277.091   4
  17 -16  -4 625.824 343.445   4
 -17  16   4 80.4756 303.965   3
 -17   1  -4 374.133 387.773   3
 -17   1   4 1020.03 433.424   3
  16   1   4 281.134 305.091   5
 -16  17   4 451.470 330.398   3
  -1  17   5 388.896 314.598   2
 -17   1  -5 382.515 352.589   3
   1  16   5 747.669 391.384   2
 -16  -1  -5 504.089 388.364   3
  16 -17  -5 573.546 313.247   4
  17 -16  -5 575.454 343.170   4
 -16  17  -6 887.336 152.322   8
 -17  16  -6 823.063 149.301   8
  16   1  -6 885.256 144.108   6
   1  16  -6 1043.48 155.751   6
  17 -16  -6 556.429 141.797  11
  16   1   6 937.693 127.441   9
  17  -1   6 989.840 125.793   9
  -1  17  -6 815.055 147.471   6
  16 -17  -6 672.313 137.732  11
 -16  17  -7 1011.92 141.210   8
   1 -17  -7 1088.05 179.784  10
  17  -1   7 1307.86 136.013   9
  16   1   7 939.227 122.658   9
   1  16  -7 1007.21 142.280   6
  -1  17  -7 1062.67 144.742   6
 -17  16  -7 1310.57 143.278   8
 -16  17  -8 407.835 131.914   8
 -17  16  -8 467.596 126.830   8
  -1 -16  -8 846.439 183.461  10
  17  -1   8 684.662 131.986   9
   1  16  -8 455.710 142.028   6
  16   1   8 494.909 127.437   9
  -1  17  -8 428.595 137.382   6
   1 -17  -8 655.057 169.121  10
   1  16  -9 578.115 133.635   6
 -16  17  -9 568.163 129.544   8
 -17  16  -9 518.320 126.221   8
  16   1   9 711.624 133.082   9
  -1 -16  -9 618.978 159.720  10
   1 -17  -9 271.439 152.036  10
  -1  17  -9 616.656 135.769   6
 -16  17 -10 543.640 119.152   8
 -17  16 -10 472.064 118.364   8
  -1 -16 -10 456.126 144.371  10
   1 -17 -10 266.447 138.797  10
  16   1  10 439.116 125.020   9
 -16  17 -11 357.578 115.526   8
 -17  16 -11 127.081 108.894   8
   1 -17 -11 107.758 122.630  10
  -1 -16 -11 34.3086 113.022  10
  16   1  11 355.412 115.041   9
 -17  16 -12 253.893 108.906   8
  -1 -16 -12 32.5354 98.1071  10
   1 -17 -12 130.624 109.652  10
 -16  17 -12 246.938 108.121   8
   1  16  12 156.189 89.0051   9
  -1  17  12 112.486 85.3829   9
 -16  17 -13 233.806 96.9476   8
 -17  16 -13 129.367 95.6480   8
  -1  17  13 30.6771 77.6238   9
  -1 -16 -13 320.158 100.187  10
   1 -17 -13-0.05508 93.3716  10
   1  16  13 84.2079 78.9959   9
 -16  17 -14 76.1771 91.4128   8
 -17  16 -14 74.6879 84.9045   8
  -1 -16 -14 130.779 93.4055  10
  16 -17 -14-74.5952 109.553  10
   1  16  14 175.919 69.9751   9
 -17  16 -15-10.1264 86.2603   8
 -16  17 -15 32.5360 89.3443   8
  -1 -16 -15 249.190 88.3294  10
   1 -17 -15 53.0389 87.1049  10
  17 -17   0 1029.83 390.772   4
 -17   0   0 1095.16 444.659   3
  17 -17  -1 562.594 325.059   4
  17 -17   1-9.24762 265.888   4
   0  17   1 65.6092 292.017   2
 -17   0   1-448.991 342.958   3
 -17   0  -1 57.2778 336.222   3
  17 -17  -2 281.307 275.995   4
  17 -17   2 54.2345 233.386   4
   0  17   2 325.667 303.462   2
 -17   0   2 9.59059 318.843   3
 -17   0  -2-32.3370 305.810   3
 -17   0  -3-176.967 335.338   3
   0  17   3 121.403 293.017   2
  17 -17  -3-136.520 282.262   4
 -17  17   3-8.22063 296.789   3
 -17   0  -4 13.5926 344.698   3
   0  17   4 321.214 271.928   2
  17 -17  -4-105.767 323.822   4
 -17  17   4-345.611 301.546   3
 -17  17  -5 93.4216 138.090   8
  17 -17  -5 8.56157 110.819  11
  17   0   5-2.61497 92.0520   9
   0  17  -5 209.221 123.675   6
  17   0  -5 22.6859 106.447   6
 -17  17  -6 475.998 134.700   8
  17   0   6 497.342 113.098   9
  17 -17  -6 270.338 127.729  11
   0  17  -6 658.592 138.147   6
  17   0   7 537.302 112.491   9
   0  17  -7 568.687 135.449   6
 -17  17  -7 612.960 125.355   8
   0  17  -8 2045.57 170.456   6
  17   0   8 2123.88 159.209   9
 -17  17  -8 2018.46 155.668   8
 -17  17  -9 328.961 116.063   8
   0 -17  -9 162.085 138.418  10
  17   0   9 449.304 123.143   9
   0  17  -9 419.407 127.304   6
 -17  17 -10 188.344 107.959   8
   0 -17 -10-128.789 121.045  10
 -17  17 -11 155.854 101.789   8
   0 -17 -11 25.0364 107.510  10
 -17  17 -12 124.508 97.5455   8
   0  17  12 30.7993 78.7498   9
   0 -17 -12 28.7813 94.4026  10
 -17  17 -13 23.6567 89.4729   8
   0 -17 -13 86.7897 84.2019  10
   0  17  13 4.95089 71.4836   9
   0  17  14-69.7795 65.4527   9
 -17  17 -14-14.8702 81.9568   8
   0 -17 -14 95.7369 83.4198  10
   0 -17 -15 142.402 80.4888  10
 -17  17 -15-97.9918 80.0447   8
   9   9   0 1753.08 355.518   5
 -18   9   0 1343.26 399.199   3
 -18   9   1 3390.83 589.729   3
 -18   9  -1 3505.38 628.781   3
   9   9  -1 4121.23 522.691   5
   9   9   1 4426.98 541.476   5
   9   9   2 1262.16 338.432   5
 -18   9   2 1539.47 407.868   3
 -18   9  -2 1341.79 463.176   3
   9   9   3 1493.85 364.257   5
   9   9   3 1380.19 348.776   2
 -18   9   3 1278.58 414.415   3
 -18   9  -3 1029.56 404.485   3
   9   9   4 1048.45 331.273   2
 -18   9   4 893.473 335.981   3
 -18   9  -4 692.491 395.623   3
   9   9   5 2253.16 434.448   2
 -18   9   5 2538.00 542.977   3
 -18   9  -5 1901.34 568.552   3
 -18   9  -6-182.960 443.492   3
   9   9   6 7.97374 273.845   2
 -18   9   6-220.104 358.403   3
  -9  18   6-570.236 345.215   2
   9   9  -7 3025.85 179.527   6
   9   9   7 3041.40 167.198   9
  -9  18  -7 2718.87 194.185   8
  -9  18  -8 333.718 128.473   8
  -9  -9  -8 110.793 146.845  10
   9   9   8 152.126 99.4868   9
  -9  -9  -9 1840.04 199.177  10
   9   9   9 1574.49 147.100   9
  -9  18  -9 1455.80 166.959   8
  -9  -9 -10 657.632 157.664  10
   9   9  10 304.950 112.081   9
  -9  18 -10 300.229 130.131   8
  -9  18 -11 632.155 136.671   8
  -9  -9 -11 735.129 148.263  10
   9   9  11 490.348 113.333   9
  -9  18 -12 298.976 116.447   8
   9   9  12 141.106 94.8563   9
  -9  -9 -12 312.198 120.304  10
  -9  18 -13 149.466 102.400   8
  -9  -9 -13 423.250 118.506  10
   9   9  13 47.1489 87.9038   9
   9 -18 -13 179.297 131.845  10
  -9  18 -14-8.26721 93.6366   8
  -9  -9 -14 31.2860 90.4703  10
   9 -18 -14 99.6383 112.841  10
   9   9  14 15.0379 76.2137   9
  -9  18 -15 60.3413 83.6998   8
  -9  -9 -15 163.031 87.3849  10
   9 -18 -15 3.72673 99.8926  10
   9   9  15-117.754 68.9016   9
 -18   9 -16 135.216 72.8688   8
  -9  -9 -16 94.9309 79.0166  10
   9 -18 -16-24.6605 83.3872  10
  -9  18 -16-5.99639 72.0640   8
  10   8   0 1050.69 277.089   5
   8  10   0 1185.26 325.479   5
 -18  10   0 615.047 346.716   3
 -18   8   0 1048.08 363.376   3
 -18   8   1 3393.65 599.552   3
 -18  10   1 2710.47 547.980   3
 -18  10  -1 2443.87 590.241   3
 -18   8  -1 2714.16 568.085   3
   8  10  -1 2818.04 468.311   5
  10   8  -1 3003.46 469.703   5
   8  10   1 3098.58 464.120   5
  10   8   1 3223.57 467.633   5
   8  10   2 1055.59 316.991   5
  10   8   2 1262.12 320.623   5
 -18   8   2 630.313 328.810   3
 -18  10   2 891.545 361.624   3
 -18  10  -2 978.956 407.616   3
 -18   8  -2 1007.33 442.648   3
   8  10   3 868.907 278.087   5
  10   8   3 731.805 294.255   5
   8  10   3 972.936 316.670   2
 -18  10   3 853.316 320.659   3
 -18   8   3 937.029 376.893   3
 -18  10  -3 608.601 395.453   3
 -18   8  -3 792.122 400.843   3
   8  10   4 205.360 254.163   2
  10   8   4 844.251 339.206   2
 -18  10   4 406.865 299.547   3
 -18   8   4 555.964 311.402   3
 -18  10  -4 420.530 345.273   3
 -18   8  -4 349.571 315.236   3
   8  10   5 1907.18 440.390   2
  10   8   5 1123.05 356.427   2
 -18  10   5 2126.22 494.027   3
 -18   8   5 1079.07 431.115   3
  -8  18   5 1626.70 400.067   2
 -18  10  -5 1115.06 464.205   3
 -18   8  -5 1463.63 523.786   3
   8  10   6 90.2701 258.140   2
  10   8   6 51.0441 269.385   2
   8 -18  -6 111.665 249.225   1
 -18  10  -6-177.349 337.353   3
 -18   8   6 180.676 339.106   3
 -18   8  -6-267.620 494.632   3
  -8  18   6 413.680 336.728   2
  10   8  -7 1256.40 145.070   6
   8  10  -7 1305.91 148.386   6
  10   8   7 986.602 127.152   9
   8  10   7 1060.56 126.423   9
  -8  18  -7 1181.02 156.773   8
 -10  18  -7 1106.90 143.121   8
  -8  18  -8 155.069 124.958   8
 -10  18  -8-6.02170 110.527   8
 -10  -8  -8 175.516 155.066  10
  -8 -10  -8 86.1483 148.849  10
  10   8   8 83.0250 99.7901   9
   8  10   8 212.361 100.442   9
  -8  18  -9 962.727 154.368   8
 -10  18  -9 813.714 147.726   8
 -10  -8  -9 1116.24 179.294  10
  -8 -10  -9 1323.98 178.303  10
   8  10   9 828.577 126.776   9
  10   8   9 798.495 126.939   9
  -8  18 -10 481.573 132.404   8
 -10  18 -10 542.904 138.937   8
 -10  -8 -10 998.422 165.803  10
  -8 -10 -10 694.507 158.557  10
  10   8  10 519.781 119.112   9
   8  10  10 631.686 120.215   9
 -10  18 -11 734.307 138.527   8
  -8 -10 -11 1278.41 160.699  10
  -8  18 -11 701.624 137.891   8
 -10  -8 -11 1177.54 152.979  10
  10   8  11 778.531 122.487   9
   8  10  11 812.312 123.145   9
  -8  18 -12 216.417 115.265   8
 -10  18 -12 258.176 120.626   8
 -10  -8 -12 299.514 122.226  10
  -8 -10 -12 360.357 114.099  10
   8  10  12 199.812 93.8716   9
   8 -18 -12-19.9516 131.194  10
  10   8  12 154.564 92.6519   9
  -8  18 -13 108.462 103.102   8
 -10  18 -13 191.237 106.644   8
 -10  -8 -13 168.808 105.457  10
   8 -18 -13-15.3532 117.025  10
  10 -18 -13 1.45062 126.282  10
  10   8  13 103.509 87.9950   9
   8  10  13 36.0297 85.4906   9
  -8 -10 -13 330.926 111.306  10
  -8  18 -14 34.0987 90.7931   8
 -10  -8 -14 66.6806 93.5418  10
  -8 -10 -14 116.181 95.5108  10
  10 -18 -14-33.0959 113.936  10
   8 -18 -14-30.8725 107.726  10
  10   8  14 41.2518 76.9447   9
 -10  18 -14-20.5567 89.8254   8
   8  10  14-27.8705 75.1997   9
  -8  18 -15-155.186 88.6486   8
 -10  18 -15-5.30929 83.1019   8
  10   8  15 82.0220 68.3204   9
  -8 -10 -15 13.4722 83.5590  10
 -10  -8 -15 14.6894 84.1880  10
  10 -18 -15 33.3017 96.4288  10
   8  10  15 88.1284 66.0829   9
   8 -18 -15 11.8611 96.7077  10
 -10  18 -16-47.9332 76.0359   8
 -18  10 -16 136.044 75.4441   8
 -18   8 -16 3.75581 67.8620   8
  -8 -10 -16 70.9909 76.4917  10
   8 -18 -16 133.384 81.9940  10
  10 -18 -16-35.1648 81.1664  10
  -8  18 -16-31.7842 69.9956   8
   7  11   0 1742.09 354.046   5
 -18  11   0 1723.98 492.285   3
 -18   7   0 2001.91 524.198   3
  11   7   0 2313.63 404.893   5
  11   7  -1 1662.58 373.197   5
  11   7   1 1924.19 390.937   5
 -18  11   1 2052.59 495.969   3
 -18  11  -1 2059.01 508.692   3
 -18   7  -1 2207.88 553.932   3
 -18   7   1 1746.01 450.920   3
   7  11   1 2310.86 409.433   5
   7  11  -1 1973.17 386.578   5
 -18  11  -2 1450.94 515.002   3
   7  11   2 1480.58 362.301   5
  11   7   2 1415.45 327.888   5
   7  11   2 1949.66 388.483   2
 -18  11   2 1615.41 442.822   3
 -18   7   2 1335.16 415.071   3
 -18   7  -2 1213.41 464.026   3
   7  11   3 799.668 273.931   5
  11   7   3 560.404 264.620   5
   7  11   3 934.099 308.658   2
 -18  11   3 808.492 331.642   3
 -18   7   3 524.991 311.782   3
 -18  11  -3 521.594 328.681   3
 -18   7  -3 591.211 365.465   3
   7  11   4 871.162 313.267   2
 -18  11   4 662.984 306.225   3
 -18   7   4 882.204 377.515   3
  -7  18   4 1661.60 377.892   2
 -18  11  -4 263.145 344.023   3
 -18   7  -4 210.385 419.313   3
   7  11   5 1112.48 367.456   2
  11   7   5 1504.05 387.997   2
 -18  11   5 850.193 354.320   3
 -18   7   5 2151.67 517.223   3
  -7  18   5 1848.22 409.116   2
 -18  11  -5 1168.69 515.119   3
 -18   7  -5 1046.13 496.703   3
 -18   7  -6 427.405 434.365   3
   7  11   6 214.135 284.658   2
  11   7   6 383.340 298.895   2
  -7  18   6 388.215 312.376   2
 -18   7   6 120.379 388.409   3
 -18  11  -6-189.221 458.895   3
  11   7   7 1297.76 131.143   9
  -7  18  -7 1345.43 149.980   8
 -11  18  -7 1106.74 150.764   8
   7  11  -7 1253.41 145.589   6
 -11  18  -8 454.518 131.964   8
 -11  -7  -8 409.668 156.374  10
  -7  18  -8 575.296 132.423   8
  11   7   8 513.839 113.696   9
   7  11   8 536.741 105.819   9
 -11  18  -9 853.233 150.525   8
 -11  -7  -9 1073.00 180.484  10
  -7 -11  -9 1022.82 171.540  10
  11   7   9 927.138 132.981   9
   7  11   9 692.036 116.711   9
  -7  18  -9 1026.18 156.082   8
  -7  18  -9 726.627 130.375   6
  -7  18 -10 231.237 130.805   8
 -11  18 -10 338.913 125.097   8
 -11  -7 -10 259.185 140.504  10
  -7 -11 -10 324.045 141.933  10
  11   7  10 115.253 108.164   9
   7  11  10 170.933 103.237   9
  -7  18 -11 402.235 130.642   8
 -11  18 -11 368.585 124.041   8
 -11  -7 -11 659.652 141.292  10
  -7 -11 -11 498.012 128.656  10
   7  11  11 273.420 100.392   9
  11   7  11 360.993 112.997   9
  -7  18 -12 285.114 116.288   8
 -11  18 -12 375.571 119.828   8
 -11  -7 -12 385.572 122.837  10
  -7 -11 -12 174.713 106.829  10
   7 -18 -12-21.2420 135.175  10
  11   7  12 240.408 101.045   9
   7  11  12 257.944 94.2296   9
  -7  18 -13 55.8571 99.0729   8
 -11  18 -13 115.260 96.9870   8
 -11  -7 -13-46.9445 102.954  10
  -7 -11 -13 235.878 105.265  10
   7 -18 -13 47.4163 117.257  10
  11 -18 -13 107.549 123.245  10
  11   7  13 63.3446 84.2656   9
   7  11  13-28.8492 84.1126   9
  -7  18 -14 24.5251 88.3188   8
 -11  18 -14 50.5343 94.7918   8
 -11  -7 -14 7.61904 88.2675  10
  -7 -11 -14 96.3472 92.2406  10
  11   7  14 12.2070 74.1733   9
   7 -18 -14-34.4687 105.651  10
  11 -18 -14 116.853 114.018  10
   7  11  14 1.50444 72.6228   9
 -18  11 -15 60.7702 79.4923   8
 -11  -7 -15 72.8134 81.1551  10
  -7 -11 -15 77.8740 86.2878  10
   7 -18 -15-29.2055 94.2108  10
  11 -18 -15 5.44288 100.378  10
   7  11  15 21.8711 63.5749   9
 -11  18 -15-23.2804 86.5733   8
  -7  18 -15 98.6221 80.4670   8
 -11  18 -16-52.5143 75.8449   8
 -18  11 -16 92.3305 74.9819   8
   7 -18 -16 1.50790 76.8651   7
  -7 -11 -16 135.246 77.4434  10
   7 -18 -16-10.2436 78.9709  10
  11 -18 -16 2.82140 80.4485  10
  12   6   0 374.424 246.919   5
  18 -12   0 363.846 265.445   4
 -18  12   0 303.283 364.428   3
 -18   6   0 630.671 382.515   3
   6  12   0 277.875 251.485   5
   6  12   1 74.9007 206.817   5
  18 -12  -1 379.495 259.103   4
 -18  12   1 176.282 359.872   3
  12   6   1 148.083 245.219   5
 -18   6   1-0.70299 307.354   3
 -18  12  -1-256.548 379.306   3
 -18   6  -1-275.856 291.164   3
   6  12  -1-21.2185 206.062   5
  12   6  -1 71.4888 210.333   5
  12   6   2 117.862 188.000   5
  -6  18   2-39.0147 248.806   2
  18 -12  -2 79.5773 211.742   4
   6  12   2-104.077 239.025   2
   6  12   2-51.0565 211.998   5
 -18  12   2 99.9492 292.139   3
 -18   6   2 313.599 296.824   3
 -18  12  -2 100.778 325.526   3
 -18   6  -2 147.482 318.517   3
  -6  18   3 8.61286 240.303   2
   6  12   3-142.342 208.954   5
  12   6   3-173.785 211.863   5
   6  12   3 66.0248 220.552   2
  18 -12  -3 17.0282 226.836   4
 -18  12   3 42.6712 278.270   3
 -18   6   3-44.1786 290.201   3
 -18  12  -3-107.908 321.697   3
 -18   6  -3 38.4249 364.299   3
   6  12   4-211.466 314.792   2
 -18  12   4 146.929 255.473   3
 -18   6   4-4.16130 285.605   3
 -18  12  -4 368.196 388.438   3
 -18   6  -4-544.489 446.542   3
  -6  18   4 491.940 305.300   2
 -18   6  -5 591.629 490.732   3
   6  12   5 68.6872 274.511   2
 -18   6   5-157.896 332.343   3
 -18  12   5 253.382 244.313   3
  -6  18   5-93.7908 298.114   2
 -18  12  -5 328.343 350.252   3
 -18  12  -6 993.888 482.482   3
 -12  18  -6 844.473 140.148   8
 -18   6  -6 468.764 462.423   3
   6  12   6 167.328 302.509   2
 -12  -6  -6-434.049 433.982   3
 -18   6   6 301.260 341.385   3
  -6  18   6 607.670 324.892   2
  -6  18  -7 538.062 137.839   8
 -12  18  -7 382.133 129.903   8
   6  12  -7 404.922 131.585   6
  12   6   7 394.698 114.482   9
  -6  18  -8-53.0976 125.490   8
 -12  18  -8 172.356 116.843   8
 -12  -6  -8 0.92212 153.332  10
   6  12  -8 214.342 122.528   6
  12   6   8 241.303 111.522   9
  -6  18  -8 178.961 115.259   6
  -6  18  -9 204.310 136.640   8
 -12  18  -9 248.391 126.343   8
  -6 -12  -9 87.9904 152.675  10
  12   6   9 129.925 108.140   9
   6  12   9 137.434 106.287   9
  -6  18  -9 201.680 117.061   6
 -12  -6  -9 185.199 152.535  10
  -6  18 -10 174.643 127.258   8
 -12  18 -10 82.5865 112.806   8
 -12  -6 -10 40.3244 141.785  10
  -6 -12 -10 100.359 138.505  10
  12   6  10 97.4865 107.754   9
   6  12  10-106.014 100.265   9
  -6  18 -11 132.781 119.641   8
 -12  18 -11-93.8465 116.369   8
  12   6  11 102.762 104.293   9
 -12  -6 -11 217.513 135.582  10
   6 -18 -11 80.5973 145.110  10
  -6 -12 -11 28.3159 120.272  10
   6  12  11 92.8741 94.0989   9
  -6  18 -12 47.1369 105.367   8
 -12  18 -12 24.6954 105.335   8
  12   6  12-20.9428 93.5414   9
 -12  -6 -12-46.5838 114.703  10
  -6 -12 -12 64.1553 104.439  10
   6 -18 -12 85.9809 129.644  10
   6  12  12 110.543 90.3205   9
  -6  18 -13 5.46817 98.1626   8
 -12  18 -13-28.1667 94.1461   8
 -12  -6 -13-37.8264 103.122  10
  -6 -12 -13 50.6437 89.7947  10
  12 -18 -13-60.4976 123.609  10
   6 -18 -13 116.049 118.963  10
   6  12  13-112.556 81.9501   9
  12   6  13 129.397 84.8348   9
 -18  12 -14-40.2541 85.0153   8
 -12  -6 -14 218.093 96.2312  10
  -6 -12 -14 42.8155 91.1091  10
 -12  18 -14 55.8930 92.0448   8
  12 -18 -14 28.2397 109.132  10
   6 -18 -14-76.7020 107.384  10
  -6  18 -14-48.0302 91.6256   8
  12   6  14 29.6658 77.1227   9
   6  12  14-53.1671 71.8294   9
 -12  18 -15-19.9418 86.7712   8
 -18  12 -15-18.8496 81.4755   8
  -6 -12 -15 109.353 84.9284  10
   6  12  15 1.96825 62.2454   9
  12 -18 -15-118.598 98.7284  10
 -12  18 -16-53.0724 76.3682   8
 -18  12 -16 181.453 78.3560   8
   6 -18 -16 152.067 80.8472   7
  -6 -12 -16 0.08999 72.8630  10
   6 -18 -16 35.3353 77.8221  10
  12 -18 -16-67.6389 79.1314  10
   5  13   0 293.844 246.495   5
  13   5   0-78.5821 220.358   5
  18 -13   0 937.722 319.345   4
 -18  13   0-65.3820 419.174   3
 -18   5   0 611.014 383.814   3
   5  13   1 1352.94 352.023   5
  13   5   1 1087.34 318.160   5
  -5  18   1 1502.59 347.767   2
  18 -13  -1 1210.37 339.382   4
  18 -13   1 1411.61 338.117   4
 -18   5   1 1557.44 467.898   3
 -18   5  -1 1121.83 443.458   3
 -18  13   1 1199.40 467.963   3
 -18  13  -1 1242.25 422.869   3
   5  13  -1 1165.26 319.917   5
  13   5  -1 1267.46 339.756   5
   5  13   2 265.120 199.657   5
  13   5   2 266.241 221.710   5
  -5  18   2 421.841 252.254   2
  18 -13  -2 429.373 266.594   4
  18 -13   2 392.469 248.734   4
   5  13   2 285.534 266.002   2
 -18  13   2 384.846 306.897   3
 -18   5   2 424.494 336.968   3
 -18  13  -2 10.0298 388.473   3
 -18   5  -2 214.433 332.612   3
   5  13   3 436.749 235.683   5
  13   5   3 423.240 228.755   5
   5  13   3 299.551 241.700   2
  18 -13  -3 651.360 298.043   4
  -5  18   3 777.304 316.946   2
 -18   5   3 47.7908 321.547   3
 -18  13  -3 453.512 376.344   3
 -18   5  -3 278.064 327.492   3
 -18  13   3 92.4262 244.273   3
 -13  -5  -4 583.319 327.253   3
   5  13   4 627.837 345.756   2
  18 -13  -4 526.978 289.436   4
 -18   5   4 2.82509 297.715   3
 -18  13   4 677.853 316.235   3
 -18  13  -4-491.532 429.520   3
 -18   5  -4 1345.83 486.555   3
  -5  18   4 790.480 341.012   2
 -18   5  -5 845.126 492.164   3
   5  13   5 501.351 336.955   2
 -13  -5  -5 697.077 362.676   3
  18 -13  -5 746.594 338.229   4
 -18  13   5 901.175 368.947   3
 -18   5   5 499.710 402.286   3
  -5  18   5 701.544 343.494   2
 -18  13  -5 319.233 361.025   3
 -13  18  -6-26.5802 121.596   8
 -13  -5  -6 270.039 347.966   3
   5  13  -6 64.3165 122.651   6
 -18   5   6-234.169 350.072   3
  13   5   6 164.671 105.587   9
  -5  18   6 135.359 311.699   2
 -13  18  -7 1235.02 145.505   8
   5  13  -7 1447.87 159.260   6
  -5  18  -7 1186.24 145.421   6
  13   5   7 1563.92 142.957   9
  -5  18  -7 1476.03 157.499   8
  -5  18  -8 339.039 131.495   8
 -13  18  -8 96.6751 120.470   8
 -13  -5  -8 241.328 151.326  10
  -5 -13  -8 58.6650 159.648  10
   5  13  -8 177.885 120.929   6
  13   5   8 250.306 113.291   9
  -5  18  -8 184.862 115.074   6
  -5  18  -9 249.196 125.438   8
 -13  18  -9 321.517 121.868   8
 -13  -5  -9 764.497 176.075  10
  13   5   9 369.933 118.185   9
  -5  18  -9 230.490 117.559   6
  -5 -13  -9 212.860 150.854  10
  -5  18 -10 236.547 129.191   8
 -13  18 -10 328.925 127.410   8
 -13  -5 -10 660.175 159.855  10
  13   5  10 413.864 120.689   9
   5  13  10 262.558 102.732   9
  -5 -13 -10 425.035 148.095  10
  -5  18 -11 533.551 127.726   8
 -13  18 -11 310.034 111.617   8
 -13  -5 -11 543.683 142.315  10
  13   5  11 408.763 111.874   9
  -5 -13 -11 463.464 134.139  10
   5 -18 -11 3.11966 135.360  10
   5  13  11 162.766 95.8918   9
  -5  18 -12 82.0613 111.924   8
 -13  18 -12-6.59430 100.640   8
 -13  -5 -12 140.866 119.871  10
  -5 -13 -12 214.279 107.948  10
   5 -18 -12-65.2273 124.722  10
   5  13  12-34.5987 88.3256   9
  13   5  12 17.3358 90.5056   9
 -13  18 -13 55.8039 95.5430   8
 -18  13 -13 4.68546 90.0603   8
 -13  -5 -13 97.3153 103.387  10
  -5 -13 -13 27.1577 86.4821  10
   5 -18 -13-18.7037 113.976  10
  13   5  13 52.4750 85.4513   9
   5  13  13 3.95685 80.1948   9
  13 -18 -13 130.630 126.122  10
 -13  18 -14-158.535 96.7956   8
 -18  13 -14 61.2826 87.1514   8
  -5 -13 -14-89.2330 92.2740  10
  13 -18 -14-139.540 115.573  10
   5 -18 -14 62.1790 102.618  10
 -13  -5 -14 53.1784 92.3653  10
   5  13  14-152.226 75.4378   9
 -13  18 -15 11.4235 83.2581   8
 -18  13 -15 77.3612 83.2687   8
  -5 -13 -15 38.5747 83.6850  10
  13 -18 -15-51.4292 96.6477  10
   5  13  15-44.8617 62.3438   9
   5 -18 -15-41.4097 88.3307  10
 -13  18 -16 29.1808 74.6753   8
  13 -18 -16 49.6175 75.6435  10
   4  14   0 1520.87 365.832   5
  14   4   0 1194.64 343.539   5
  18 -14   0 894.841 330.634   4
 -18  14   0 430.296 345.174   3
 -18   4   0 962.154 433.006   3
   4  14   1 216.398 249.356   5
  14   4   1 348.090 288.336   5
  18 -14  -1 552.971 323.675   4
  18 -14   1 233.256 231.574   4
  -4  18   1 340.534 276.435   2
 -18  14   1 249.038 334.792   3
 -18  14  -1 527.098 409.262   3
 -18   4   1 83.3145 341.816   3
 -18   4  -1 169.633 387.048   3
   4  14  -1 433.214 235.988   5
  14   4  -1 228.571 229.919   5
   4  14   2 1146.90 333.929   5
  14   4   2 1070.76 305.774   5
  -4  18   2 1545.62 380.384   2
  18 -14  -2 1488.98 399.085   4
  18 -14   2 1454.44 343.526   4
   4  14   2 1306.33 361.826   2
 -18  14   2 842.945 379.645   3
 -18  14  -2 1291.80 460.546   3
 -18   4  -2 1142.17 481.488   3
 -18   4   2 1369.19 441.704   3
   4  14   3 573.928 298.216   5
  14   4   3 335.525 245.714   5
 -14  -4  -3 811.160 402.910   3
  -4  18   3 776.714 318.465   2
   4  14   3 465.233 285.789   2
  18 -14  -3 447.192 300.720   4
 -18  14   3 518.051 326.800   3
 -18   4   3 619.983 380.622   3
 -18  14  -3 317.038 320.986   3
 -18   4  -3-24.1121 394.992   3
  -4  18   4 737.655 349.249   2
   4  14   4 521.932 294.020   5
  14   4   4 373.394 266.084   5
 -14  -4  -4 228.198 388.507   3
   4  14   4 549.084 354.779   2
  18 -14  -4 252.553 283.668   4
 -18  14   4 558.219 349.312   3
 -18   4   4 238.070 348.414   3
 -18  14  -4 53.9194 488.432   3
 -18   4  -4 521.712 417.013   3
 -18   4  -5 197.297 395.126   3
   4  14   5 238.685 279.743   2
 -14  -4  -5-7.05376 357.721   3
  18 -14  -5-309.166 314.226   4
 -18   4   5 296.735 391.603   3
 -18  14   5 274.359 336.079   3
  -4  18   5 610.307 385.523   2
  14   4  -6 1481.66 153.443   6
   4  14  -6 1730.76 168.987   6
  -4  18  -6 1586.61 160.381   6
  14   4   6 1836.16 141.622   9
  18 -14  -6 1321.18 158.158  11
  -4  18  -6 2001.40 173.050   8
 -14  18  -6 1431.93 154.867   8
 -14  18  -7 304.450 120.087   8
   4  14  -7 288.465 132.016   6
  14   4   7 334.400 113.181   9
  -4  18  -7 327.334 125.599   6
  18 -14  -7 130.473 126.119  11
  -4  18  -7 313.178 125.896   8
 -14  18  -8 368.800 121.613   8
 -18  14  -8 282.931 117.720   8
 -14  -4  -8 464.254 160.520  10
  -4 -14  -8 400.041 160.838  10
   4  14  -8 377.016 126.933   6
  14   4   8 438.568 119.726   9
  -4  18  -8 281.334 119.247   6
  -4  18  -8 346.149 122.277   8
  -4  18  -9 485.519 131.494   8
 -14  18  -9 451.105 121.029   8
 -18  14  -9 505.379 113.567   8
  -4 -14  -9 457.901 153.271  10
  14   4   9 608.205 124.366   9
  -4  18  -9 473.571 122.861   6
  -4  18 -10 442.481 141.186   8
 -14  18 -10 453.097 128.128   8
 -18  14 -10 446.423 117.233   8
  14   4  10 547.384 126.087   9
  -4 -14 -10 367.158 137.149  10
   4 -18 -10 263.296 150.765  10
   4  14  10 528.222 109.686   9
 -14  18 -11 182.951 112.849   8
 -18  14 -11 112.622 95.2892   8
  14   4  11 177.588 107.146   9
 -14  -4 -11 100.009 134.582  10
   4 -18 -11 25.6483 123.744  10
   4  14  11-20.3440 90.0925   9
  -4 -14 -11-175.434 110.333  10
 -14  18 -12 239.488 106.301   8
 -18  14 -12 131.417 88.4979   8
 -14  -4 -12 377.177 125.672  10
  -4 -14 -12-83.3900 92.4811  10
   4 -18 -12-232.551 132.812  10
  14   4  12 75.7288 95.6725   9
   4  14  12 138.217 86.7722   9
 -14  18 -13-37.1511 98.0502   8
 -18  14 -13 84.4234 86.9414   8
 -14  -4 -13 119.064 103.750  10
  -4 -14 -13 306.544 95.8930  10
   4 -18 -13 172.363 114.514  10
   4  14  13 92.4999 79.0525   9
  14   4  13 67.2454 85.4888   9
 -14  18 -14 134.403 92.7121   8
 -18  14 -14 12.1676 86.8424   8
  -4 -14 -14 98.1639 89.6043  10
   4 -18 -14 49.9847 103.020  10
  14 -18 -14-195.601 116.476  10
   4  14  14 36.7493 68.4709   9
 -14  18 -15-28.8471 86.4629   8
 -18  14 -15 18.8350 79.4749   8
  -4 -14 -15 61.9747 81.7045  10
   4 -18 -15 12.6856 84.9150  10
   4  14  15-76.4994 59.8924   9
  14 -18 -15 0.46676 91.1962  10
  15   3   0 819.776 284.378   5
  18 -15   0 1023.88 335.909   4
 -18   3   0 644.144 397.243   3
 -18  15   0 303.737 373.650   3
   3  15   0 652.885 286.218   5
   3  15   1 443.478 279.554   5
  18 -15  -1 618.962 300.291   4
  18 -15   1 717.799 296.339   4
  -3  18   1 813.666 321.167   2
  15   3   1 545.423 252.001   5
 -18  15   1 164.775 342.371   3
 -18  15  -1-374.163 396.797   3
 -18   3   1 347.022 344.384   3
 -18   3  -1 959.291 432.355   3
 -15  -3  -2 473.359 373.165   3
   3  15   2 101.181 226.650   5
  15   3   2-85.8584 293.115   5
  -3  18   2 505.885 339.153   2
  18 -15  -2 281.065 291.502   4
  18 -15   2-47.5458 246.749   4
   3  15   2-40.3672 269.082   2
 -18   3   2 570.138 376.838   3
 -18  15  -2 354.660 381.377   3
 -18  15   2 283.346 350.400   3
 -18   3  -2 464.627 442.956   3
  15   3   3 322.718 258.977   5
 -15  -3  -3 924.828 425.205   3
  -3  18   3 688.072 328.970   2
   3  15   3 718.626 351.896   2
  18 -15  -3 705.523 317.746   4
   3  15   3 476.731 272.351   5
 -18  15   3 290.393 275.803   3
 -18   3   3 292.129 328.151   3
 -18   3  -3 302.415 374.322   3
 -18   3  -4 298.169 368.686   3
  -3  18   4 168.398 310.760   2
   3  15   4 151.029 248.595   5
  15   3   4 189.276 248.129   5
 -15  -3  -4 313.740 323.140   3
  15 -18  -4-180.079 339.357   4
   3  15   4 34.7554 317.252   2
  18 -15  -4 357.729 271.739   4
 -18  15   4 262.705 300.785   3
 -18   3   4 79.1760 346.445   3
  -3  18   5-123.860 361.588   2
 -15  18  -5 567.695 140.314   8
 -15  -3  -5-126.322 493.841   3
 -18   3   5 899.616 425.510   3
  15 -18  -5 877.343 133.406  11
   3  15  -5 942.591 147.458   6
  -3  18  -5 596.793 133.286   6
 -18  15   5 308.781 289.388   3
 -15  18  -6-48.8785 125.268   8
  15 -18  -6-51.8692 130.828  11
   3  15  -6 282.146 139.830   6
  15   3   6 229.209 107.668   9
  18 -15  -6-66.3734 128.004  11
  -3  18  -6 279.356 128.882   6
  15   3  -6 288.138 122.031   6
  -3  18  -6 220.786 131.983   8
 -15  18  -7 615.642 134.052   8
 -18  15  -7 730.263 135.822   8
   3  15  -7 833.652 145.338   6
  15   3   7 659.161 119.177   9
  -3  18  -7 666.784 132.687   6
 -15  18  -8-62.8557 118.472   8
 -18  15  -8 73.6576 110.334   8
 -15  -3  -8-19.8951 165.917  10
  -3 -15  -8 305.830 159.075  10
   3  15  -8 86.3941 120.570   6
  15   3   8 63.9067 112.716   9
  -3  18  -8 43.7848 115.342   6
 -15  18  -9 557.958 128.536   8
 -18  15  -9 378.428 118.669   8
  -3 -15  -9 411.525 147.956  10
   3 -18  -9 189.347 150.979  10
  15   3   9 589.017 122.603   9
  -3  18  -9 733.576 132.015   6
 -15  18 -10 353.758 117.344   8
 -18  15 -10 286.273 107.035   8
  -3 -15 -10 193.550 125.663  10
   3 -18 -10 28.6488 128.833  10
  15   3  10 345.789 115.957   9
 -15  18 -11 169.198 101.381   8
 -18  15 -11 131.011 96.4241   8
 -15  -3 -11 228.908 132.930  10
  -3 -15 -11 511.338 126.407  10
   3 -18 -11-175.229 120.040  10
  15   3  11 149.405 99.1982   9
   3  15  11-6.09492 87.9671   9
 -15  18 -12 126.293 95.5868   8
 -18  15 -12 223.599 95.1108   8
   3 -18 -12 110.994 109.779  10
  15   3  12 268.026 100.417   9
   3  15  12-25.9764 86.1822   9
 -15  18 -13-64.3104 95.1741   8
 -18  15 -13-30.6471 90.4309   8
  -3 -15 -13-23.7459 83.7014  10
   3  15  13 58.3990 77.5971   9
  -3  18  13-37.6372 73.3652   9
   3 -18 -13-57.0901 99.7078  10
 -15  18 -14-11.9379 89.0464   8
 -18  15 -14 24.8624 84.9175   8
   3 -18 -14 54.3450 96.0129  10
  -3 -15 -14 58.0996 82.1469  10
  15 -18 -14 123.475 109.462  10
   3  15  14-162.815 70.5489   9
 -15  18 -15-69.3555 84.4395   8
 -18  15 -15 4.87947 79.1085   8
   3 -18 -15-125.882 82.1295   7
  15 -18 -15-29.9858 88.6116  10
  -3 -15 -15 10.2595 78.6685  10
   3  15  15-13.0271 56.0432   9
   3 -18 -15 112.343 87.0889  10
  16 -18   0 423.736 319.770   4
  18 -16   0 244.434 290.742   4
 -18  16   0 105.991 355.189   3
 -18   2   0-1.49252 385.372   3
   2  16   0 183.883 263.099   5
  16   2   0 190.754 241.961   5
   2  16   1 772.762 298.105   5
  16   2   1 559.567 303.417   5
  16 -18  -1 996.037 367.091   4
  16 -18   1 675.180 324.761   4
  18 -16  -1 1321.10 376.249   4
  18 -16   1 1097.59 343.694   4
  -2  18   1 1045.36 395.918   2
 -18  16   1 1080.20 453.630   3
 -18   2   1 696.589 467.623   3
 -18   2  -1 312.029 362.834   3
 -16  -2  -1 584.187 343.854   3
 -16  -2  -2 831.650 418.099   3
   2  16   2 1052.40 353.959   5
  16   2   2 1128.48 352.801   5
  16 -18  -2 927.685 395.607   4
  16 -18   2 1210.30 364.688   4
  18 -16  -2 1232.61 402.482   4
  -2  18   2 931.810 348.728   2
  18 -16   2 1240.95 340.640   4
   2  16   2 1070.04 362.943   2
 -18  16   2 1009.42 449.689   3
 -18   2   2 69.2202 350.897   3
 -18   2  -2 666.330 403.615   3
   2  16   3 480.185 306.808   5
  16   2   3 391.412 255.271   5
  -2  18   3 502.721 357.062   2
  16 -18  -3 244.459 295.479   4
  18 -16  -3 490.296 323.585   4
   2  16   3 600.448 360.975   2
 -18  16   3 130.166 305.309   3
 -18   2   3 50.4616 366.680   3
 -16  -2  -3 188.559 368.696   3
 -18   2  -3 688.038 451.570   3
 -18   2  -4 84.7821 362.966   3
   2  16   4-290.255 310.120   5
  16   2   4 225.171 265.575   5
 -16  -2  -4 1043.26 411.032   3
  -2  18   4 796.049 371.359   2
   2  16   4 650.482 385.079   2
  16 -18  -4 673.950 371.530   4
  18 -16  -4 422.609 322.336   4
   2  16  -4 1403.59 161.494   6
  -2  18  -4 1217.18 157.340   6
  16 -18  -4 1100.29 146.090  11
 -18   2   4 246.445 338.110   3
 -18  16   4-48.3796 294.278   3
  16   2   5 896.777 116.670   9
  16   2  -5 812.031 140.759   6
  18 -16  -5 788.421 144.087  11
  16 -18  -5 759.367 138.848  11
   2  16  -5 1101.41 155.497   6
  -2  18  -5 952.855 148.506   6
 -16  18  -5 1182.15 170.387   8
  16   2  -6 1625.41 158.095   6
   2  16  -6 1729.10 173.576   6
  -2  18  -6 1479.13 163.885   6
  18 -16  -6 1302.19 160.376  11
  16 -18  -6 1354.86 165.028  11
 -16  18  -6 2228.65 177.073   8
  16   2   6 1837.69 144.891   9
 -18  16  -6 1783.87 169.408   8
 -16  18  -7 355.397 116.968   8
 -18  16  -7 438.280 124.207   8
  -2  18  -7 439.121 127.050   6
   2  16  -7 290.151 123.383   6
  16   2   7 493.289 114.795   9
   2  16  -8 1900.42 171.892   6
  -2  18  -8 1735.41 167.545   6
  -2 -16  -8 1355.82 191.737  10
  16   2   8 2164.45 163.869   9
 -16  18  -8 2192.52 166.353   8
 -18  16  -8 1804.79 162.061   8
   2 -18  -8 974.971 172.560  10
 -16  18  -9 537.506 121.785   8
 -18  16  -9 496.377 123.591   8
  -2  18  -9 558.815 131.243   6
  -2 -16  -9 720.432 162.052  10
   2 -18  -9 566.542 156.645  10
   2  16  -9 571.939 135.574   6
  16   2   9 624.782 125.499   9
 -16  18 -10 320.421 113.687   8
 -18  16 -10 160.510 97.4614   8
  -2 -16 -10 176.175 124.107  10
  16   2  10 154.203 106.561   9
 -16  18 -11 123.164 102.751   8
 -18  16 -11 232.881 102.097   8
   2 -18 -11 36.5185 105.186  10
  -2 -16 -11 26.4830 103.459  10
  16   2  11 223.540 108.059   9
   2  16  11-49.7339 86.2543   9
 -16  18 -12 172.820 99.8308   8
 -18  16 -12 200.600 94.8286   8
   2 -18 -12-83.7072 96.0976  10
   2  16  12 47.0350 81.8825   9
  -2  18  12 91.1189 79.1761   9
 -16  18 -13 46.8695 89.3090   8
 -18  16 -13 84.0293 86.1194   8
  -2 -16 -13-15.7013 77.5043  10
   2 -18 -13 132.976 90.5848  10
   2  16  13 154.727 75.2822   9
  -2  18  13-0.78064 72.0241   9
 -16  18 -14 41.0800 85.9623   8
 -18  16 -14-61.5123 81.5641   8
  -2 -16 -14 42.0062 74.0982  10
   2 -18 -14 54.1405 86.5412  10
  16 -18 -14 34.0713 102.819  10
   2  16  14-82.7013 65.5104   9
 -16  18 -15-17.1022 80.7412   8
 -18  16 -15-70.8200 76.3770   8
   2 -18 -15 45.4538 81.2451  10
  -2 -16 -15 218.866 82.7376  10
  17 -18   0-18.1454 292.414   4
  18 -17   0 437.814 298.889   4
 -18   1   0-64.1363 426.429   3
 -17  -1   0 3.62469 404.760   3
  17 -18  -1 154.095 268.424   4
  17 -18   1-257.055 246.333   4
  18 -17  -1 256.953 299.640   4
  18 -17   1 90.4237 240.314   4
 -18   1   1-132.490 297.586   3
 -18   1  -1-539.915 458.643   3
 -17  -1  -1 44.9674 342.102   3
  17 -18  -2-39.4284 277.307   4
  17 -18   2-937.941 393.021   4
  18 -17  -2 123.361 276.612   4
  18 -17   2 111.842 255.639   4
  -1  18   2-153.489 334.830   2
   1  17   2-146.177 286.563   2
 -18   1   2 225.205 345.770   3
 -18   1  -2 61.3760 360.516   3
 -17  -1  -2 230.216 357.966   3
 -18   1  -3 95.3636 358.125   3
 -17  -1  -3-54.4053 346.784   3
  -1  18   3-510.591 408.687   2
   1  17   3 100.393 295.683   2
  17   1  -3 55.6324 115.655   6
 -18  17   3 858.299 412.472   3
   1  17  -3 243.357 129.905   6
  17 -18  -3-10.9833 101.170  11
  18 -17  -3-9.23265 108.717  11
 -18   1   3-42.4584 329.067   3
  -1  18  -3 167.187 122.908   6
 -17  18  -4 381.014 145.695   8
   1  17  -4 268.180 127.623   6
  17   1  -4 364.532 124.050   6
  17 -18  -4 163.065 115.137  11
  18 -17  -4 277.004 120.447  11
  17   1   4 293.768 99.1114   9
  -1  18  -4 380.331 127.474   6
 -17  18  -5 118.539 145.155   8
 -18  17  -5 181.639 149.668   8
  17 -18  -5-15.4326 117.345  11
  18 -17  -5 48.7608 119.278  11
  -1  18  -5 153.289 123.271   6
  18  -1   5 306.007 100.400   9
  17   1   5 177.989 100.436   9
   1  17  -5 74.7284 122.694   6
  17   1  -5 62.3273 114.355   6
 -17  18  -6 36.8446 119.418   8
 -18  17  -6 218.867 138.889   8
  18 -17  -6 114.020 114.550  11
  17   1   6 325.069 103.837   9
  17   1  -6 106.350 113.538   6
  18  -1   6 166.126 101.864   9
   1  17  -6 296.375 131.428   6
  -1  18  -6 209.536 125.649   6
  17 -18  -6-23.5265 120.846  11
 -17  18  -7 294.775 117.206   8
 -18  17  -7 486.961 132.302   8
  17   1   7 428.936 109.904   9
  -1  18  -7 420.490 134.016   6
   1  17  -7 347.462 127.680   6
 -17  18  -8 333.906 119.095   8
 -18  17  -8 262.163 120.902   8
  -1 -17  -8 547.700 154.209  10
   1 -18  -8-30.6900 139.291  10
   1  17  -8 528.059 136.204   6
  17   1   8 413.519 119.087   9
  -1  18  -8 304.764 126.172   6
 -17  18  -9 108.922 101.510   8
 -18  17  -9 151.506 109.536   8
  -1 -17  -9 255.006 129.851  10
   1 -18  -9 232.459 131.680  10
  17   1   9 88.3181 103.911   9
  -1  18  -9 170.352 116.561   6
   1  17  -9 14.8110 112.475   6
 -17  18 -10-16.9432 99.0743   8
 -18  17 -10 110.645 92.8773   8
  -1 -17 -10-47.0529 106.060  10
   1 -18 -10 46.1634 107.847  10
  17   1  10 111.270 97.0498   9
 -17  18 -11 9.53078 91.5480   8
 -18  17 -11 23.0324 87.9688   8
  -1 -17 -11 131.104 99.3354  10
   1 -18 -11 221.905 104.644  10
   1  17  11 60.5595 80.6218   9
 -17  18 -12 32.2887 90.6306   8
 -18  17 -12 20.2234 85.5525   8
  -1 -17 -12 22.8020 86.7575  10
   1 -18 -12-26.6167 81.7458  10
   1  17  12 101.256 77.1656   9
  -1  18  12 6.72420 72.3926   9
 -17  18 -13 151.572 88.7213   8
 -18  17 -13 61.0755 79.3447   8
  -1 -17 -13-18.4612 73.0597  10
   1 -18 -13-104.561 77.7806  10
   1  17  13-3.73200 68.4215   9
  -1  18  13 96.1559 70.0575   9
 -17  18 -14 70.6513 82.6252   8
 -18  17 -14 82.6736 76.7016   8
  -1 -17 -14-145.090 68.0604  10
   1 -18 -14 131.283 75.3466  10
  17 -18 -14 54.0878 98.6388  10
   1  17  14-11.2831 59.3440   9
  -1  18  14 35.9357 57.5940   9
 -17  18 -15 72.5651 78.3405   8
 -18  17 -15 120.890 76.1929   8
  -1 -17 -15 378.365 78.2498  10
   1 -18 -15 307.866 79.7276  10
  18 -18   0 766.743 349.320   4
  18 -18   0 909.546 118.258  11
  18 -18   1 756.518 335.737   4
  18 -18  -1 808.893 119.741  11
   0  18  -1 985.128 141.719   6
  18   0  -1 1097.31 156.888   6
 -18   0   1 410.892 377.148   3
  18   0  -2 1796.20 167.401   6
   0  18  -2 1701.30 164.520   6
  18 -18  -2 1607.13 141.644  11
  18 -18  -3 796.532 128.601  11
  18   0  -3 829.574 138.353   6
   0  18  -3 893.784 142.878   6
  18   0  -4 548.972 125.548   6
  18 -18  -4 469.466 115.816  11
  18   0   4 500.643 97.2269   9
   0  18  -4 507.188 134.753   6
 -18  18  -4 850.106 167.567   8
 -18  18  -5 1193.16 162.608   8
  18 -18  -5 879.997 141.724  11
  18   0   5 793.111 110.128   9
   0  18  -5 1050.65 151.602   6
 -18  18  -6 1041.65 153.542   8
  18 -18  -6 977.953 138.296  11
  18   0   6 910.643 117.645   9
   0  18  -6 897.374 145.536   6
   0  18  -7 1670.75 162.591   6
  18   0   7 1695.89 140.697   9
 -18  18  -7 1512.14 157.935   8
 -18  18  -8 428.362 118.987   8
   0  18  -8 756.602 135.384   6
  18   0   8 598.164 114.799   9
 -18  18  -9 71.4172 100.007   8
   0 -18  -9-56.5495 113.963  10
   0  18  -9 120.385 108.178   6
 -18  18 -10 63.5589 89.2721   8
   0 -18 -10 33.9275 100.947  10
 -18  18 -11-53.4676 86.5820   8
   0 -18 -11-9.08576 87.5182  10
 -18  18 -12-15.2921 83.8974   8
   0 -18 -12 15.3450 77.2499  10
   0  18  12 79.7443 70.3477   9
 -18  18 -13 65.7504 80.5105   8
  18 -18 -13-78.1544 108.054  10
   0 -18 -13-117.269 68.5864  10
   0  18  13 7.42877 63.2042   9
 -18  18 -14 85.5547 77.6564   8
   0 -18 -14 1.68485 59.6489  10
   0  18  14 1.82918 57.1574   9
   9  10   0 118.256 212.935   5
  10   9   0-130.505 200.800   5
 -19  10   0-121.877 329.497   3
 -19   9   0 293.968 367.273   3
   9  10   1 73.1985 209.469   5
  10   9   1 76.3530 206.234   5
 -19   9  -1-128.665 359.199   3
 -19  10   1 147.156 262.778   3
 -19   9   1 51.4718 315.719   3
 -19  10  -1-107.918 326.668   3
   9  10  -1-182.909 240.028   5
  10   9  -1-26.3811 205.698   5
   9  10   2 68.5181 189.686   5
  10   9   2-59.1425 213.384   5
 -19  10   2-271.655 346.014   3
 -19   9   2 127.046 286.935   3
 -19  10  -2-99.4382 351.200   3
 -19   9  -2 424.512 369.837   3
   9  10   3 64.7420 249.858   5
  10   9   3-79.5226 219.282   5
 -19  10   3-196.216 311.418   3
 -19   9   3-141.880 349.303   3
 -19  10  -3-303.929 407.004   3
 -19   9  -3-455.710 400.354   3
   9  10   4 220.519 213.926   5
  10   9   4 200.111 199.967   5
   9  10   4 3.55616 264.941   2
 -19  10   4-174.599 276.938   3
 -19   9   4 82.6844 345.853   3
 -19  10  -4-543.323 451.893   3
 -19   9  -4-231.444 436.941   3
   9  10   5-199.387 337.095   2
  10   9   5 264.345 322.915   2
 -19  10   5-74.6668 286.919   3
 -19   9   5-51.8887 302.473   3
 -19  10  -5-200.442 386.665   3
 -19   9  -5-275.879 520.440   3
  -9  19  -6-28.9458 123.209   8
 -10  19  -6-48.8992 113.286   8
  10   9  -6 236.079 118.096   6
   9  10  -6 267.106 117.844   6
  10   9   6 56.3134 93.1877   9
   9  10   6 15.0183 87.1409   9
  -9  19  -7 243.428 127.578   8
 -10  19  -7 173.978 123.640   8
  10   9  -7 321.515 130.059   6
   9  10  -7 440.437 137.156   6
  10   9   7 266.632 109.944   9
   9  10   7 278.186 106.117   9
  -9  19  -8 48.2830 116.008   8
 -10  19  -8 39.9754 117.739   8
  10   9   8 124.643 100.816   9
   9  10   8 96.5967 99.5231   9
  -9  19  -9 261.684 129.523   8
 -10  19  -9 218.421 126.157   8
 -10  -9  -9 181.775 153.321  10
  -9 -10  -9 359.737 159.668  10
   9  10   9 134.376 106.814   9
  10   9   9 171.287 112.760   9
  -9  19 -10 142.650 124.112   8
 -10  19 -10 331.409 132.982   8
 -10  -9 -10 172.290 143.205  10
  -9 -10 -10 36.9383 139.838  10
  10   9  10 239.214 107.077   9
   9  10  10 185.781 102.730   9
  -9  19 -11-142.478 114.230   8
 -10  19 -11-31.0305 104.567   8
 -10  -9 -11 146.329 123.118  10
  -9 -10 -11 111.182 123.248  10
  10   9  11 36.7677 90.0337   9
   9  10  11 39.2244 86.6236   9
  -9  19 -12 90.3176 102.668   8
 -10  19 -12-128.757 104.652   8
 -10  -9 -12 167.612 109.784  10
  -9 -10 -12 63.9608 102.490  10
   9 -19 -12 109.705 129.293  10
  10   9  12-2.57396 84.0532   9
   9  10  12 124.430 89.2181   9
  -9  19 -13 87.1336 99.1725   8
 -10  19 -13-30.9983 95.2323   8
 -10  -9 -13 182.720 106.138  10
  -9 -10 -13 147.894 104.481  10
   9 -19 -13 127.380 119.967  10
  10   9  13 84.6805 81.7819   9
   9  10  13 77.3410 81.4312   9
  10 -19 -13-51.0701 119.480  10
  -9  19 -14-95.6863 90.7469   8
 -10  19 -14-159.133 92.6712   8
   9  10  14-48.9742 72.7831   9
 -10  -9 -14-48.8406 91.6902  10
  -9 -10 -14 183.928 95.2109  10
   9 -19 -14 98.0186 109.438  10
  10 -19 -14 9.17733 108.110  10
  10   9  14-34.7325 70.3151   9
 -10  19 -15 10.6537 81.9782   8
 -19  10 -15 138.049 76.0997   8
 -19   9 -15 70.8887 72.9808   8
   9 -19 -15 28.1019 95.2620  10
 -10  -9 -15 24.5350 82.6866  10
  -9 -10 -15 44.6707 81.9677  10
  10 -19 -15 191.809 98.0943  10
   9  10  15 30.2131 62.6154   9
  -9  19 -15-47.3718 81.9178   8
  11   8   0 519.881 263.387   5
 -19  11   0 334.609 355.086   3
 -19   8   0 824.871 419.003   3
   8  11   0 595.259 288.957   5
   8  11   1 667.408 272.342   5
  11   8   1 447.008 230.171   5
 -19  11   1 229.940 334.649   3
 -19  11  -1 509.285 418.219   3
 -19   8  -1 569.902 391.031   3
 -19   8   1 509.094 374.872   3
   8  11  -1 396.845 240.237   5
  11   8  -1 560.722 281.142   5
   8  11   2 589.428 264.812   5
  11   8   2 885.756 282.703   5
 -19   8   2 900.473 409.400   3
 -19  11   2 585.124 363.335   3
 -19  11  -2 708.087 399.361   3
 -19   8  -2 715.088 395.936   3
   8  11   3 167.459 227.738   5
  11   8   3 241.449 216.722   5
   8  11   3 321.833 270.898   2
 -19  11   3 518.615 330.726   3
 -19   8   3 200.410 328.285   3
 -19  11  -3 16.7550 367.236   3
 -19   8  -3 365.524 381.579   3
   8  11   4 255.322 243.625   5
  11   8   4 335.024 240.821   5
   8  11   4 229.824 277.922   2
 -19  11   4 446.441 288.820   3
 -19   8   4 297.947 327.181   3
 -19  11  -4 373.105 403.472   3
 -19   8  -4 619.016 418.453   3
 -19   8  -5 232.423 403.318   3
 -11  19  -5 624.024 137.881   8
   8  11   5 635.457 352.933   2
  11   8   5 93.1003 304.451   2
 -19  11   5 216.597 279.562   3
 -19   8   5 150.869 339.248   3
 -19  11  -5 164.686 405.690   3
  -8  19  -6 317.475 129.607   8
 -11  19  -6 402.303 130.938   8
  11   8  -6 411.117 125.991   6
   8  11  -6 525.767 134.369   6
  11   8   6 577.702 112.258   9
 -11  19  -7 1031.06 144.025   8
  11   8  -7 1223.21 147.348   6
   8  11  -7 1259.37 157.512   6
  11   8   7 1203.80 132.759   9
   8  11   7 1112.50 124.879   9
  -8  19  -7 1519.32 158.230   8
 -11  19  -8 628.659 131.896   8
  -8  19  -8 767.213 147.092   8
   8  11  -8 727.871 139.782   6
  11   8   8 692.467 124.300   9
   8  11   8 711.102 117.932   9
  -8  19  -9 537.255 137.648   8
 -11  19  -9 395.753 137.925   8
   8  11   9 568.388 119.555   9
 -11  -8  -9 907.734 172.911  10
  -8 -11  -9 953.924 178.254  10
  11   8   9 525.528 123.205   9
  -8  19  -9 564.356 130.878   6
  -8  19 -10 305.247 132.759   8
 -11  19 -10 391.794 131.876   8
  -8 -11 -10 291.726 139.284  10
  11   8  10 416.549 116.201   9
 -11  -8 -10 517.228 156.256  10
   8  11  10 322.351 111.548   9
  -8  19 -11 84.2510 109.472   8
 -11  19 -11 125.151 115.776   8
 -11  -8 -11 201.181 123.489  10
  -8 -11 -11 322.026 124.397  10
  11   8  11 182.655 97.8473   9
   8  11  11 58.5117 90.6746   9
  -8  19 -12 66.8876 113.091   8
 -11  -8 -12 153.327 115.777  10
  -8 -11 -12-187.823 107.677  10
  11   8  12 179.246 92.4783   9
   8  11  12-2.59721 89.7704   9
 -11  19 -12 56.7255 109.223   8
   8 -19 -12 191.704 131.005  10
  -8  19 -13-2.60478 103.320   8
 -11  19 -13 178.602 106.998   8
 -11  -8 -13 306.498 112.665  10
   8 -19 -13 29.4597 111.573  10
  11 -19 -13 122.861 124.846  10
  11   8  13-67.7786 82.3531   9
  -8 -11 -13 260.517 103.037  10
   8  11  13-4.08581 79.4078   9
  -8  19 -14 192.417 94.5465   8
 -11  19 -14 88.8953 96.2611   8
 -19  11 -14 341.272 87.9765   8
 -11  -8 -14 189.309 97.2193  10
   8 -19 -14 100.141 107.796  10
  11 -19 -14 50.5983 110.971  10
  11   8  14 93.0069 75.7522   9
   8  11  14 139.692 73.6235   9
 -11  19 -15 177.861 89.8543   8
 -19  11 -15 178.795 78.9724   8
 -19   8 -15 432.802 82.7432   8
   8  11  15 54.9342 63.2142   9
  -8 -11 -15 128.227 85.0542  10
   8 -19 -15 5.49355 90.3258  10
  11 -19 -15-69.5132 97.1569  10
 -11  -8 -15 237.235 87.9047  10
  -8  19 -15 37.0854 80.6330   8
   7  12   0 158.588 235.363   5
  12   7   0 25.7378 245.475   5
 -19  12   0 140.687 354.805   3
 -19   7   0 90.1023 353.445   3
   7  12   1 15.2792 254.178   5
  12   7   1 33.8921 220.355   5
 -19  12   1 412.212 372.349   3
 -19   7   1 332.032 369.463   3
 -19  12  -1 437.726 357.272   3
 -19   7  -1 627.091 406.034   3
   7  12  -1 236.901 247.607   5
  12   7  -1 113.575 214.651   5
   7  12   2-204.473 263.491   5
  12   7   2 64.7420 183.699   5
 -19  12   2-275.464 281.494   3
 -19   7   2 30.6438 337.963   3
 -19  12  -2-38.3844 412.589   3
 -19   7  -2 182.641 370.218   3
   7  12   3 105.740 219.469   5
  12   7   3 44.8308 230.215   5
   7  12   3 6.06200 240.121   2
 -19  12   3 22.6522 308.098   3
 -19   7   3-90.4627 348.340   3
 -19  12  -3-62.9239 367.592   3
 -19   7  -3 217.527 364.750   3
   7  12   4 212.508 251.020   5
  12   7   4 476.334 305.999   5
   7  12   4 185.142 281.483   2
 -19   7   4 179.197 344.981   3
 -19  12   4 230.686 294.330   3
 -19  12  -4 504.589 405.372   3
 -19   7  -4 203.947 456.334   3
 -12  19  -5 107.456 127.910   8
   7  12   5-149.166 276.300   2
   7  12  -5 536.251 139.196   6
 -19  12   5 217.528 262.474   3
 -19   7   5-115.967 388.356   3
  -7  19   5 448.696 305.504   2
  -7  19  -5 241.128 132.771   8
 -12  19  -6 301.719 138.697   8
  12   7  -6 733.436 143.506   6
   7  12  -6 755.243 155.358   6
  12   7   6 839.603 126.527   9
  -7  19  -6 561.412 142.264   8
  -7  19  -7 238.654 132.430   8
 -12  19  -7 275.381 128.155   8
  12   7  -7 304.652 127.220   6
   7  12  -7 198.955 130.618   6
  12   7   7 199.810 109.554   9
  -7  19  -8 468.151 142.420   8
 -12  19  -8 98.5000 117.612   8
   7  12  -8 515.318 141.671   6
  12   7   8 503.068 124.655   9
   7  12   8 250.796 107.228   9
  -7  19  -8 519.575 136.367   6
  -7  19  -9 411.152 143.072   8
 -12  19  -9 175.523 127.024   8
 -12  -7  -9 449.124 165.723  10
  -7 -12  -9 327.729 161.059  10
  12   7   9 254.334 113.785   9
   7  12   9 144.166 104.336   9
  -7  19  -9 243.597 121.742   6
  -7  19 -10 371.733 138.037   8
 -12  19 -10 277.960 124.015   8
 -12  -7 -10 552.941 159.548  10
  -7 -12 -10 543.804 146.177  10
  12   7  10 309.848 115.556   9
   7  12  10 252.441 105.214   9
  -7  19 -11 84.6533 117.567   8
 -12  19 -11 204.942 115.882   8
 -12  -7 -11 129.594 127.680  10
  -7 -12 -11 98.6461 120.335  10
   7 -19 -11 24.5983 136.044  10
   7  12  11-7.65167 89.6894   9
  12   7  11 159.701 95.6895   9
  -7  19 -12 132.615 105.869   8
 -12  19 -12 34.4701 107.535   8
 -12  -7 -12 326.031 126.599  10
  -7 -12 -12 172.034 102.716  10
   7 -19 -12 127.502 129.313  10
  12   7  12 144.737 92.5967   9
   7  12  12 49.8247 86.5800   9
  -7  19 -13 88.8349 97.7834   8
 -12  19 -13-77.0185 102.065   8
 -19  12 -13-6.60093 83.4755   8
 -12  -7 -13 229.377 107.258  10
  -7 -12 -13 325.319 99.1283  10
   7 -19 -13 188.540 113.723  10
  12 -19 -13-33.4367 118.712  10
  12   7  13 83.8486 82.5205   9
   7  12  13 1.97069 76.2166   9
 -12  19 -14 107.861 91.1485   8
 -19  12 -14 140.435 82.1435   8
  12 -19 -14-124.377 114.200  10
 -12  -7 -14 96.2296 93.6371  10
  12   7  14 37.7970 73.6134   9
   7  12  14 133.811 73.6041   9
   7 -19 -14 199.180 105.479  10
  -7  19 -14-40.0883 87.3394   8
 -12  19 -15 7.33921 82.3904   8
 -19  12 -15 182.606 77.7754   8
  -7 -12 -15 136.509 84.8603  10
   7 -19 -15 66.7949 90.4665  10
  12 -19 -15 82.0589 95.1675  10
   7  12  15 19.8565 59.8488   9
   6  13   0 533.877 286.577   5
  13   6   0 121.916 247.459   5
 -19  13   0 412.140 365.404   3
 -19   6   0 103.685 389.610   3
   6  13   1 188.057 227.962   5
  13   6   1 115.116 232.748   5
 -19  13   1-156.872 353.494   3
 -19   6   1-260.398 334.529   3
 -19  13  -1 97.2090 346.016   3
 -19   6  -1 5.79150 399.810   3
   6  13  -1 149.830 292.544   5
  13   6  -1 256.080 240.130   5
   6  13   2-10.9561 234.559   5
  13   6   2 81.9226 241.883   5
 -19  13   2-288.996 353.359   3
 -19   6   2 307.784 342.091   3
 -19  13  -2-52.7353 419.979   3
 -19   6  -2 600.470 424.959   3
   6  13   3-416.683 326.860   5
  13   6   3-56.4076 264.166   5
   6  13   3-143.493 295.963   2
 -19  13   3 50.7087 277.703   3
 -19   6   3-353.852 406.709   3
 -19  13  -3 376.251 369.588   3
 -19   6  -3 270.787 342.917   3
   6  13   4-19.6594 260.693   5
  13   6   4 35.3641 271.173   5
   6  13   4 130.875 300.037   2
  -6  19   4-333.854 354.586   2
 -19  13   4-15.8323 311.377   3
 -19   6   4 110.290 354.846   3
 -19  13  -4 672.451 456.149   3
 -19   6  -4-192.720 422.147   3
 -13  19  -5 268.390 124.890   8
  13   6  -5 562.255 136.456   6
   6  13  -5 503.293 152.437   6
  13 -19  -5 274.318 127.537  11
  13   6   5 603.950 117.661   9
  -6  19   5 1004.89 413.863   2
  -6  19  -5 377.610 137.285   8
 -19  13  -5 135.118 432.175   3
 -13  19  -6 209.412 136.534   8
  13   6  -6 839.788 155.801   6
   6  13  -6 762.170 165.286   6
  13   6   6 1335.11 148.013   9
  -6  19  -6 696.718 152.573   8
 -13  19  -7 68.0722 114.312   8
  13   6  -7 173.320 121.096   6
   6  13  -7 63.6967 127.098   6
  13   6   7 209.697 109.653   9
  -6  19  -7 279.235 123.578   6
  -6  19  -7 136.969 128.511   8
  -6  19  -8 566.127 153.091   8
 -13  19  -8 323.176 131.934   8
   6  13  -8 503.518 147.423   6
  -6  19  -8 349.045 134.232   6
  13   6   8 493.746 127.447   9
  -6  19  -9 307.132 135.710   8
 -13  19  -9 39.0928 112.841   8
  -6 -13  -9 213.786 150.288  10
 -13  -6  -9 545.568 167.668  10
  13   6   9 283.810 112.833   9
   6  13   9 228.287 106.553   9
  -6  19  -9 377.448 130.265   6
  -6  19 -10 254.090 135.717   8
 -13  19 -10 141.050 119.908   8
 -19  13 -10 225.883 102.192   8
 -13  -6 -10 415.708 150.022  10
  -6 -13 -10 267.006 135.217  10
  13   6  10 257.353 113.951   9
   6  13  10 188.584 103.694   9
  -6  19 -11 254.771 113.724   8
 -13  19 -11 192.508 107.669   8
 -19  13 -11 364.277 106.635   8
  -6 -13 -11 107.015 105.252  10
   6 -19 -11 487.538 148.977  10
  13   6  11 150.241 100.389   9
   6  13  11 147.391 93.8133   9
  -6  19 -12 161.525 113.654   8
 -13  19 -12 72.4895 101.395   8
 -19  13 -12 265.304 99.8318   8
 -13  -6 -12 416.374 134.116  10
  -6 -13 -12 121.333 92.2310  10
  13   6  12 206.633 97.8576   9
   6 -19 -12 584.002 146.027  10
   6  13  12-6.11306 83.7966   9
 -13  19 -13-32.7929 94.9703   8
 -19  13 -13 210.346 91.3007   8
   6 -19 -13 388.177 121.420  10
 -13  -6 -13 239.530 107.524  10
  -6 -13 -13 14.0660 81.5275  10
  13   6  13 145.994 85.9378   9
  13 -19 -13 10.8991 116.618  10
   6  13  13 89.7415 77.6938   9
  -6  19 -13 112.455 95.1524   8
 -13  19 -14 39.5524 92.5995   8
 -19  13 -14 148.668 84.1581   8
  -6 -13 -14 373.487 89.5064  10
   6 -19 -14 223.720 106.466  10
  13 -19 -14-102.850 114.078  10
   6  13  14 80.4090 70.5800   9
 -13  19 -15 43.2085 85.8646   8
 -19  13 -15 229.300 79.5301   8
  13 -19 -15 205.817 96.0601  10
   6  13  15 16.1082 57.0878   9
   6 -19 -15 109.575 87.5389  10
  -6 -13 -15 387.051 89.7718  10
  19 -14   0 8667.31 772.833   4
 -19  14   0 6684.04 902.911   3
 -19   5   0 6903.22 902.352   3
   5  14   0 7119.14 725.830   5
  14   5   0 7261.97 732.914   5
  19 -14  -1 4226.78 587.114   4
  19 -14   1 4770.68 572.668   4
 -19  14  -1 4091.98 798.585   3
 -19  14   1 3680.16 683.228   3
 -19   5   1 3795.14 688.615   3
 -19   5  -1 3668.37 721.384   3
  14   5  -1 3389.02 534.222   5
   5  14   1 3794.69 566.130   5
  14   5   1 4375.37 556.283   5
  19 -14  -2 5199.74 650.685   4
 -19  14   2 3348.38 645.828   3
 -19   5   2 3679.01 686.258   3
 -19  14  -2 3081.78 676.884   3
 -19   5  -2 3992.79 743.755   3
   5  14   2 3698.43 564.553   5
  14   5   2 3813.04 551.036   5
  19 -14  -3 5017.15 676.099   4
   5  14   3 3446.30 572.556   2
 -19   5   3 4407.37 750.750   3
  -5  19   3 4632.06 603.697   2
 -19  14   3 3195.92 604.919   3
 -19  14  -3 3586.08 745.808   3
 -19   5  -3 2893.38 710.330   3
   5  14   3 3806.75 564.800   5
  14   5   3 3506.08 524.519   5
  19 -14  -4 5636.09 718.921   4
 -19  14   4 3824.64 655.752   3
  -5  19   4 5136.83 633.284   2
   5  14   4 4962.17 670.665   2
 -19   5   4 3275.78 677.927   3
 -19  14  -4 4169.34 813.291   3
 -19   5  -4 3692.77 753.292   3
  14   5  -5 4807.10 220.138   6
   5  14  -5 5294.11 246.891   6
  -5  19  -5 5058.56 232.612   6
  19 -14  -5 5503.68 237.493  11
  14 -19  -5 5431.31 231.819  11
  14   5   5 5283.56 195.408   9
  -5  19  -5 5107.55 230.098   8
 -14  19  -5 5249.65 232.270   8
  14   5  -6 7418.03 265.527   6
   5  14  -6 8580.36 303.355   6
  -5  19  -6 7851.22 279.560   6
  -5  19  -6 7634.93 283.079   8
 -14  19  -6 7166.57 273.700   8
  14   5   6 8810.15 255.068   9
  19 -14  -6 7410.97 272.492  11
  14   5  -7 2429.74 171.122   6
   5  14  -7 2430.27 186.304   6
  -5  19  -7 2268.12 174.954   6
  14   5   7 2481.49 158.978   9
  -5  19  -7 2850.84 183.820   8
 -14  19  -7 2060.26 165.580   8
   5  14  -8 3666.63 216.089   6
  -5  19  -8 3461.18 203.160   6
  14   5   8 4579.51 207.745   9
 -14  19  -8 4525.73 213.625   8
  -5  19  -8 5199.33 236.118   8
  -5  19  -9 2537.09 176.099   6
 -14  -5  -9 2349.41 212.845  10
  -5 -14  -9 2902.59 210.347  10
 -14  19  -9 2897.18 180.278   8
 -19  14  -9 2526.53 161.745   8
  14   5   9 3329.62 182.336   9
  -5  19  -9 3217.19 194.291   8
  -5  19 -10 2712.54 177.200   8
  -5 -14 -10 2018.11 173.785  10
  14   5  10 2735.04 168.596   9
   5  14  10 2454.69 152.110   9
 -14  -5 -10 3087.61 222.877  10
 -14  19 -10 2341.91 176.996   8
 -19  14 -10 2144.85 149.608   8
 -14  19 -11 667.325 125.429   8
 -19  14 -11 650.384 111.129   8
  -5 -14 -11 498.940 118.229  10
  14   5  11 843.715 117.389   9
   5  14  11 868.588 111.293   9
  -5  19 -11 702.320 125.540   8
 -14  19 -12 428.239 111.923   8
 -19  14 -12 445.348 98.7525   8
 -14  -5 -12 1067.21 147.038  10
  -5 -14 -12 632.736 109.751  10
   5 -19 -12-131.019 120.874  10
  14   5  12 641.663 107.717   9
   5  14  12 383.999 94.7968   9
 -14  19 -13 172.620 96.3512   8
 -19  14 -13 245.007 87.0048   8
  -5 -14 -13-10.8817 76.3728  10
   5 -19 -13 49.9154 106.693  10
  14 -19 -13 188.509 121.083  10
  14   5  13 375.354 90.1664   9
   5  14  13 352.740 83.8733   9
 -14  19 -14-27.3536 86.7427   8
 -19  14 -14 97.5779 79.1158   8
  -5 -14 -14-58.3730 78.4974  10
   5 -19 -14-10.6180 94.0575  10
  14 -19 -14 51.6524 105.783  10
   5  14  14 45.4444 66.0122   9
 -14  19 -15-84.8683 82.6932   8
 -19  14 -15 19.7134 71.4896   8
   5 -19 -15-4.97966 81.0306  10
  14 -19 -15 8.54459 89.6403  10
   5  14  15 132.262 58.3383   9
  19 -15   0 1538.96 425.695   4
 -19  15   0 1003.88 542.840   3
 -19   4   0 1298.13 530.694   3
   4  15   0 1548.39 429.235   5
  15   4   0 1008.47 376.322   5
   4  15   1 1790.12 425.227   5
  15   4   1 1634.02 402.704   5
  19 -15  -1 1990.85 450.562   4
  19 -15   1 1816.79 414.563   4
 -19  15   1 1261.65 517.724   3
 -19  15  -1 1385.09 524.734   3
 -19   4   1 1432.78 544.324   3
 -19   4  -1 1778.64 584.884   3
   4  15   2 539.141 324.229   5
  15   4   2 599.866 307.162   5
  -4  19   2 1081.19 399.284   2
  19 -15  -2 947.060 382.141   4
  19 -15   2 688.424 299.881   4
 -19  15   2 607.748 419.479   3
 -19   4   2 1399.78 505.930   3
 -19  15  -2 478.522 429.102   3
 -19   4  -2 1470.82 585.075   3
   4  15   3 906.109 335.888   5
  15   4   3 622.235 295.467   5
  -4  19   3 1175.69 414.101   2
  19 -15  -3 1364.47 416.579   4
   4  15   3 579.203 357.266   2
 -19  15   3 1008.35 461.448   3
 -19   4   3 1677.85 533.113   3
 -19   4  -3 1201.86 517.931   3
  -4  19   4 1319.76 444.813   2
  15   4  -4 3616.41 205.059   6
   4  15  -4 3779.93 222.986   6
  -4  19  -4 3317.00 207.490   6
  19 -15  -4 3136.89 188.961  11
 -19   4   4 898.189 471.203   3
  15 -19  -4 3236.62 197.840  11
  -4  19  -4 3627.37 214.214   8
 -15  19  -4 3416.75 214.116   8
  15   4  -5 1721.26 164.163   6
   4  15  -5 1955.96 185.971   6
  -4  19  -5 1899.90 174.623   6
  15 -19  -5 1323.21 161.488  11
  19 -15  -5 1627.57 162.286  11
  15   4   5 1784.69 143.201   9
  -4  19  -5 2325.93 184.045   8
 -15  19  -5 1664.45 170.269   8
  15   4  -6 3889.61 208.888   6
   4  15  -6 4372.97 235.283   6
  -4  19  -6 4470.39 226.999   6
  19 -15  -6 3975.12 218.113  11
  15   4   6 4534.88 200.275   9
  -4  19  -6 4567.13 228.502   8
 -15  19  -6 4205.02 227.356   8
 -15  19  -7 372.902 120.350   8
  15   4  -7 607.426 133.170   6
   4  15  -7 406.154 131.918   6
  15   4   7 449.182 114.596   9
  -4  19  -7 262.328 122.873   6
  -4  19  -7 570.890 132.287   8
   4  15  -8 2792.81 193.855   6
  -4  19  -8 2518.09 183.930   6
  15   4   8 3098.56 179.221   9
  -4  19  -8 3638.53 207.308   8
 -15  19  -8 3279.41 190.434   8
 -19  15  -8 2676.90 180.951   8
 -15  19  -9 666.739 129.005   8
 -19  15  -9 641.796 124.072   8
 -15  -4  -9 1075.62 192.968  10
  -4 -15  -9 925.939 158.395  10
   4  15  -9 780.957 136.464   6
   4 -19  -9 489.403 151.136  10
  15   4   9 932.836 134.176   9
  -4  19  -9 708.867 133.331   6
  -4  19  -9 784.377 149.216   8
 -15  19 -10 692.755 125.351   8
 -19  15 -10 580.736 113.110   8
 -15  -4 -10 1416.61 191.369  10
  -4 -15 -10 988.313 145.034  10
   4 -19 -10 19.8021 118.344  10
  15   4  10 719.880 123.181   9
   4  15  10 554.856 104.145   9
 -15  19 -11 365.627 113.703   8
 -19  15 -11 386.543 96.2249   8
 -15  -4 -11 666.645 150.252  10
  -4 -15 -11 180.350 101.685  10
  15   4  11 454.901 106.093   9
   4  15  11 345.400 92.7771   9
 -15  19 -12 155.413 95.9700   8
 -19  15 -12 144.284 86.9917   8
  -4 -15 -12-105.353 83.7220  10
   4 -19 -12 107.468 101.180  10
  15   4  12 173.796 88.1446   9
   4  15  12 130.466 83.5856   9
 -15  19 -13 85.0227 91.3173   8
 -19  15 -13 91.7058 80.7130   8
  -4 -15 -13 60.1202 74.6165  10
   4 -19 -13-76.1358 99.3461  10
   4  15  13 105.576 72.2590   9
  15 -19 -13 2.62254 113.709  10
 -15  19 -14-29.6609 86.4429   8
 -19  15 -14 85.7635 74.7984   8
  -4 -15 -14 42.3249 71.1607  10
   4 -19 -14 80.2081 92.8262  10
   4  15  14 73.3523 63.3524   9
  15 -19 -14-82.2613 102.214  10
 -15  19 -15 30.7778 79.8342   8
 -19  15 -15 87.5727 71.2594   8
   4 -19 -15-66.3497 73.9048   7
  -4 -15 -15 264.491 71.6619  10
   4 -19 -15-73.1580 80.7739  10
  15 -19 -15-58.0613 86.4519  10
   4  15  15 46.0839 52.6285   9
  19 -16   0 6653.66 731.078   4
 -19  16   0 5857.09 926.170   3
 -19   3   0 5358.23 858.281   3
   3  16   0 6122.56 700.567   5
  16   3   0 5306.24 628.082   5
  16 -19   1 6532.86 720.863   4
  19 -16  -1 7355.85 779.203   4
  19 -16   1 6943.17 714.400   4
 -19   3   1 5433.85 813.189   3
 -19  16   1 4144.04 777.238   3
  -3  19   1 6096.20 682.251   2
 -19   3  -1 4289.48 733.100   3
   3  16   1 5077.62 664.362   5
  16   3   1 4997.49 627.668   5
  16 -19  -2 5870.57 742.012   4
  16 -19   2 5869.31 683.335   4
  19 -16  -2 7019.16 777.548   4
  19 -16   2 5796.59 633.034   4
 -19   3  -2 5343.97 859.978   3
 -19  16   2 4275.99 737.223   3
  -3  19   2 6197.52 691.934   2
   3  16   2 5413.31 691.306   2
 -19   3   2 4330.66 763.003   3
   3  16   2 4511.06 614.448   5
  16   3   2 4503.67 613.134   5
  16   3   3 11768.0 366.972   6
  16   3  -3 9653.23 299.743   6
   3  16  -3 10342.2 323.105   6
  -3  19  -3 9837.13 303.546   6
  -3  19   3 5820.26 713.435   2
  16 -19  -3 9420.49 287.939  11
 -19   3   3 4596.80 771.400   3
  19 -16  -3 9793.73 284.470  11
  16   3  -4 9264.20 285.283   6
   3  16  -4 9559.50 309.450   6
  -3  19  -4 9409.57 300.097   6
  16 -19  -4 8331.49 277.400  11
  16   3   4 8407.28 227.390   9
  -3  19  -4 9519.62 295.320   8
 -16  19  -4 9914.84 314.239   8
  19 -16  -4 9771.92 287.991  11
  16   3  -5 7450.37 259.992   6
   3  16  -5 8766.57 302.234   6
  -3  19  -5 7692.12 281.412   6
  16 -19  -5 8472.30 279.788  11
  -3  19  -5 7475.19 266.404   8
 -16  19  -5 7903.28 284.725   8
  16   3   5 7269.48 225.958   9
  19 -16  -5 7749.53 277.065  11
  16   3  -6 8305.40 272.389   6
   3  16  -6 10198.6 325.044   6
  -3  19  -6 8906.78 296.610   6
  16   3   6 9477.71 259.587   9
  19 -16  -6 9648.30 306.162  11
 -16  19  -6 10069.3 297.292   8
   3  16  -7 1612.99 167.254   6
  -3  19  -7 1553.02 158.900   6
  16   3   7 1552.96 137.134   9
 -16  19  -7 1268.88 151.905   8
 -19  16  -7 1583.35 159.714   8
   3  16  -8 5212.31 235.106   6
  -3  19  -8 5444.26 237.796   6
 -16  19  -8 4905.00 220.857   8
 -19  16  -8 5224.54 219.645   8
   3  16  -9 3253.75 192.147   6
  -3  19  -9 2918.22 183.621   6
  -3 -16  -9 2324.01 196.262  10
  16   3   9 4031.16 191.289   9
 -16  19  -9 3427.78 190.698   8
 -19  16  -9 3136.23 174.390   8
 -16  19 -10 1157.20 129.567   8
 -19  16 -10 1293.04 128.352   8
 -16  19 -11 746.272 113.341   8
 -19  16 -11 670.152 108.074   8
  16   3  11 726.588 110.844   9
   3  16  11 470.642 94.5195   9
 -16  19 -12 317.443 98.2845   8
 -19  16 -12 419.743 97.4729   8
  -3 -16 -12 57.4485 78.6098  10
   3  16  12 345.575 86.8592   9
  -3  19  12 372.756 82.3207   9
 -16  19 -13 233.619 89.7852   8
 -19  16 -13 314.323 87.3702   8
  -3 -16 -13 220.221 78.2368  10
   3 -19 -13 62.2055 83.4980  10
  16 -19 -13-119.401 119.917  10
   3  16  13 70.5197 68.9091   9
  -3  19  13 260.817 73.6338   9
 -16  19 -14 155.740 82.1374   8
 -19  16 -14 211.686 80.3857   8
  -3 -16 -14 105.224 65.9555  10
   3 -19 -14 183.273 87.8318  10
  16 -19 -14-100.456 99.2516  10
   3  16  14-32.0930 60.3641   9
 -16  19 -15 54.3301 76.3718   8
 -19  16 -15 7.22384 67.7010   8
   3 -19 -15 142.940 76.5937  10
  16 -19 -15 40.6922 78.9788  10
   3  16  15-154.505 50.7336   9
  17 -19   0 438.231 297.375   4
  19 -17   0-134.070 295.424   4
  17   2   0 794.154 159.386   6
  17 -19   0 611.813 120.548  11
   2  17   0 533.248 135.936   6
  -2  19   0 836.580 139.497   6
 -19   2   0 192.728 397.445   3
  17 -19   1-40.9302 265.959   4
  19 -17   1-320.546 317.549   4
  17   2  -1 276.534 142.003   6
  17   2   1 351.268 154.915   6
  19 -17  -1 209.199 113.512  11
  17 -19   1 234.335 116.750  11
  -2  19  -1 537.782 134.259   6
 -19   2   1-103.717 382.298   3
  17 -19  -1 181.739 120.513  11
 -19   2  -1-415.533 442.229   3
   2  17  -1 361.232 138.191   6
  17 -19   2-238.606 301.646   4
  -2  19   2 555.827 382.946   2
  17   2  -2 297.180 138.751   6
  17   2   2 447.278 161.341   6
   2  17  -2 230.875 134.404   6
  19 -17  -2 333.341 118.270  11
  17 -19  -2 446.822 122.461  11
  -2  19  -2 213.997 130.207   6
 -19   2   2 618.438 413.593   3
  -2  19  -2 657.173 141.185   8
  17   2  -3 581.446 137.509   6
  17 -19  -3 527.589 127.080  11
   2  17  -3 609.711 150.936   6
  19 -17  -3 605.395 127.803  11
  -2  19  -3 700.769 147.768   6
 -17  19  -3 588.204 175.424   8
  19 -17  -4 486.951 131.209  11
  17   2   4 546.808 107.366   9
   2  17  -4 404.837 143.892   6
  -2  19  -4 562.946 143.665   6
  17 -19  -4 297.293 133.871  11
  17   2  -4 351.557 129.342   6
 -17  19  -4 329.096 158.624   8
 -17  19  -5 399.053 147.169   8
   2  17  -5 935.559 163.345   6
  17   2  -5 598.703 133.173   6
  19 -17  -5 417.877 142.017  11
  17   2   5 612.343 113.506   9
  17 -19  -5 563.544 132.279  11
  -2  19  -5 503.243 141.003   6
 -17  19  -6 640.913 137.348   8
  17   2  -6 586.939 134.456   6
  17 -19  -6 451.380 133.106  11
  19 -17  -6 546.090 134.766  11
   2  17  -6 584.079 150.562   6
  17   2   6 689.309 116.999   9
  -2  19  -6 552.756 137.249   6
 -17  19  -7-26.0657 117.386   8
 -19  17  -7-33.5350 113.354   8
   2 -19  -7-118.503 136.363  10
   2  17  -7-63.8281 122.786   6
  17   2   7 129.767 100.040   9
  -2  19  -7 169.097 121.081   6
 -17  19  -8 312.136 124.008   8
 -19  17  -8 187.851 115.561   8
  17   2   8 225.769 112.582   9
   2 -19  -8 180.483 133.631  10
   2  17  -8 310.381 134.739   6
  -2  19  -8 265.343 129.474   6
 -17  19  -9 321.818 111.764   8
 -19  17  -9 189.421 111.605   8
  -2 -17  -9 220.980 121.393  10
   2 -19  -9 159.149 119.862  10
   2  17  -9 395.127 123.814   6
  -2  19  -9 111.907 113.176   6
  17   2   9 347.393 109.464   9
 -17  19 -10 174.736 97.9435   8
 -19  17 -10 205.348 91.1196   8
  -2 -17 -10 174.683 101.954  10
   2 -19 -10-42.2447 104.350  10
  17   2  10 70.6909 91.7763   9
 -17  19 -11-20.0457 83.3490   8
 -19  17 -11 117.429 87.9916   8
  -2 -17 -11 49.1954 87.7886  10
   2 -19 -11 59.8777 89.8635  10
   2  17  11-22.9102 75.3062   9
 -17  19 -12 47.4910 82.4086   8
 -19  17 -12-23.2056 82.3077   8
  -2 -17 -12-20.6544 73.2760  10
   2 -19 -12 68.0298 74.6714  10
   2  17  12 105.029 73.7254   9
  -2  19  12-71.5523 71.8476   9
 -17  19 -13 23.5945 78.7667   8
 -19  17 -13 7.04260 78.1004   8
  -2 -17 -13-49.2556 68.0496  10
   2 -19 -13-113.911 74.2905  10
  17 -19 -13-15.9653 108.069  10
   2  17  13 59.5655 65.5052   9
  -2  19  13-152.818 69.1315   9
 -17  19 -14 163.843 79.7919   8
 -19  17 -14 132.640 75.3314   8
  -2 -17 -14-99.9544 56.2327  10
   2 -19 -14 148.873 74.8397  10
  17 -19 -14-109.778 94.4556  10
   2  17  14 101.917 57.1395   9
  18 -19   0 538.729 117.936  11
  19 -18   0 515.511 111.671  11
   1  18   0 696.153 136.447   6
  -1  19   0 753.960 137.056   6
  18   1   0 794.978 160.687   6
  18   1  -1 1966.04 180.184   6
   1  18   1 1611.28 159.415   6
   1  18  -1 1588.75 160.911   6
  -1  19   1 1677.58 157.147   6
  -1  19  -1 1576.06 159.988   6
  18 -19  -1 1332.71 141.545  11
  18 -19   1 1689.71 149.768  11
  19 -18  -1 1522.95 141.875  11
  18   1  -2 1764.29 173.751   6
   1  18   2 2164.10 168.679   6
  -1  19   2 1844.22 161.117   6
   1  18  -2 1746.39 172.784   6
  -1  19  -2 1871.00 171.900   6
  18 -19  -2 1777.81 155.881  11
  19 -18  -2 1574.64 150.341  11
   1  18  -3 1214.74 158.232   6
  19 -18  -3 1042.93 132.334  11
  18 -19  -3 922.839 136.463  11
  18   1  -3 919.934 142.729   6
  -1  19  -3 874.209 146.343   6
 -18  19  -3 1119.91 187.069   8
  18   1  -4 880.179 138.738   6
  18   1   4 923.955 113.300   9
  19 -18  -4 1012.40 143.335  11
  18 -19  -4 904.744 142.861  11
   1  18  -4 1087.55 152.884   6
  -1  19  -4 943.675 147.633   6
 -18  19  -4 1318.80 176.790   8
  18   1  -5 874.890 140.724   6
   1  18  -5 1138.06 158.760   6
  18 -19  -5 1001.60 146.456  11
  18   1   5 882.141 117.953   9
  19 -18  -5 946.184 153.616  11
  -1  19  -5 993.661 154.903   6
 -18  19  -5 1168.25 163.390   8
 -18  19  -6 813.367 148.032   8
  18   1   6 744.487 115.303   9
   1  18  -6 958.920 148.415   6
  -1  19  -6 1029.31 150.617   6
  19 -18  -6 981.261 144.181  11
  18 -19  -6 686.215 129.891  11
 -19  18  -6 1084.89 158.431   8
 -18  19  -7 420.380 131.753   8
 -19  18  -7 418.677 135.128   8
  18   1   7 294.182 112.972   9
   1  18  -7 358.781 137.505   6
  -1  19  -7 394.740 135.065   6
 -18  19  -8 426.573 116.040   8
 -19  18  -8 500.491 120.059   8
   1  18  -8 394.147 127.894   6
   1 -19  -8-1.39098 119.893  10
  18   1   8 431.981 110.150   9
  -1  19  -8 475.534 124.216   6
 -18  19  -9 106.552 105.727   8
 -19  18  -9 231.632 105.525   8
  -1 -18  -9 76.8890 103.855  10
   1 -19  -9 2.24840 113.608  10
   1  18  -9 152.146 114.268   6
  -1  19  -9 58.8546 106.944   6
 -18  19 -10 160.860 88.1267   8
 -19  18 -10 57.5428 85.1951   8
  -1 -18 -10-41.4135 102.136  10
   1 -19 -10 47.7341 95.4936  10
 -18  19 -11 101.133 86.7962   8
 -19  18 -11 198.120 87.4271   8
  -1 -18 -11 126.598 85.7269  10
   1 -19 -11-84.2429 84.4621  10
   1  18  11-85.9763 75.5183   9
 -18  19 -12 35.3205 80.8145   8
 -19  18 -12-77.0414 79.0736   8
  -1 -18 -12-206.158 73.8893  10
   1 -19 -12 20.6867 70.8609  10
   1  18  12 8.05123 67.2205   9
  -1  19  12 71.3915 67.5621   9
 -18  19 -13 64.7005 81.8277   8
 -19  18 -13-44.8515 76.9478   8
   1  18  13-37.1912 63.8598   9
  -1 -18 -13-30.1892 62.1152  10
   1 -19 -13 71.6229 69.0137  10
  18 -19 -13 10.1481 102.134  10
  -1  19  13 48.6087 62.6567   9
 -18  19 -14 12.8432 74.5117   8
 -19  18 -14 31.3905 72.4711   8
   1 -19 -14-82.4296 63.7680  10
  -1 -18 -14-32.4730 53.4086  10
   1  18  14 101.036 54.0148   9
  -1  19  14-79.9210 54.6595   9
  19 -19   0 520.152 113.694  11
   0  19   0 431.078 128.222   6
  19 -19  -1 151.145 103.359  11
  19 -19   1 45.8095 98.6066  11
   0  19   1 158.599 117.292   6
   0  19  -1 55.0067 119.085   6
   0  19   2 227.504 120.951   6
   0  19  -2 174.483 122.199   6
  19 -19  -2 25.6929 97.9028  11
  19 -19  -3 169.079 103.520  11
   0  19  -3 321.443 128.902   6
  19 -19  -4 98.4561 110.165  11
   0  19  -4-176.425 125.979   6
 -19  19  -5 333.803 142.500   8
   0  19  -5 451.501 135.707   6
  19 -19  -5 252.719 113.874  11
 -19  19  -6 176.321 124.327   8
   0  19  -6 196.407 125.178   6
  19 -19  -6-84.8414 112.035  11
   0  19  -7 1433.19 163.321   6
 -19  19  -7 1517.35 157.923   8
 -19  19  -8 127.312 109.976   8
   0  19  -8 99.2291 110.869   6
 -19  19  -9 23.5545 91.4715   8
   0 -19  -9-13.7017 102.932  10
   0  19  -9 87.6424 106.860   6
 -19  19 -10-36.6875 85.3437   8
   0 -19 -10 34.2953 87.7125  10
 -19  19 -11 120.073 81.9210   8
   0 -19 -11-120.716 75.7432  10
   0  19  11-18.8896 72.0685   9
 -19  19 -12 144.497 81.3046   8
   0 -19 -12 180.143 72.9028  10
   0  19  12 32.0807 64.9759   9
 -19  19 -13 30.8631 74.0960   8
   0 -19 -13-106.719 65.6186  10
  19 -19 -13-71.1800 99.5569  10
   0  19  13 51.9080 58.3845   9
 -19  19 -14 162.685 70.7420   8
   0  19  14 36.8517 50.5263   9
  10  10   0 218.296 271.149   5
 -20  10   0-10.3025 332.157   3
  10  10   1 254.336 242.499   5
 -20  10   1 148.795 318.030   3
 -20  10  -1 154.774 357.561   3
  10  10  -1 198.672 233.830   5
  10  10   2 929.759 361.750   5
 -20  10   2 1258.20 446.088   3
 -20  10  -2 635.033 466.086   3
 -20  10   3 494.076 335.519   3
 -20  10  -3 641.916 436.407   3
  10  10  -4-119.940 117.583   6
  10  10   4 103.938 85.4507   9
 -10  20  -4 35.3871 103.725   8
  10  10  -5 958.346 143.593   6
  10  10   5 940.162 116.030   9
 -10  20  -5 1281.00 143.614   8
 -10  20  -6 304.216 120.778   8
  10  10  -6 141.715 119.788   6
  10  10   6 186.965 95.1740   9
 -10  20  -7 604.536 137.942   8
  10  10  -7 498.011 136.917   6
  10  10   7 803.516 116.838   9
 -10  20  -8 86.6537 122.232   8
  10  10  -8 150.395 120.107   6
  10  10   8 37.1021 94.1154   9
 -10  20  -9 368.596 134.130   8
  10  10   9 433.600 108.741   9
 -10  20 -10-107.200 113.003   8
 -10 -10 -10 59.9997 124.565  10
  10  10  10 93.8242 90.2021   9
 -10  20 -11 12.0922 107.711   8
 -10 -10 -11 144.469 109.489  10
  10  10  11 3.53566 82.2797   9
 -10  20 -12 40.4909 101.230   8
 -10 -10 -12 22.7041 95.0160  10
  10 -20 -12-10.9172 114.506  10
  10  10  12 10.5017 78.1183   9
 -10  20 -13 70.4545 91.2539   8
 -10 -10 -13 104.805 92.4832  10
  10 -20 -13 36.9375 106.924  10
  10  10  13 51.9694 74.1096   9
 -10 -10 -14 201.646 94.9491  10
  10 -20 -14 66.3834 101.080  10
  10  10  14 14.8028 67.0022   9
 -10  20 -14 36.3167 85.5484   8
 -10 -10 -15 218.454 83.3337  10
  10 -20 -15 16.3160 85.9559  10
 -10  20 -15-65.1462 76.8554   8
   9  11   0 56.7397 209.431   5
  11   9   0 368.179 268.824   5
 -20  11   0-110.464 312.869   3
 -20   9   0 5.14183 352.943   3
   9  11   1 303.305 256.752   5
  11   9   1 550.709 315.469   5
 -20  11   1 78.0918 381.514   3
 -20   9   1 321.814 421.844   3
 -20  11  -1 374.777 416.981   3
 -20   9  -1 37.2366 398.979   3
   9  11  -1 499.000 274.928   5
  11   9  -1 541.806 259.495   5
   9  11   2 1009.32 349.436   5
  11   9   2 531.979 306.300   5
 -20  11   2 416.385 329.741   3
 -20   9   2 609.222 370.432   3
 -20  11  -2 1028.15 533.687   3
 -20   9  -2 293.252 412.200   3
 -20  11   3 257.598 320.133   3
 -20   9   3 259.795 359.977   3
 -20  11  -3 817.549 463.638   3
 -20   9  -3 261.735 386.290   3
  11   9  -4 158.669 114.105   6
   9  11  -4 265.068 121.383   6
  11   9   4 188.202 89.1844   9
  -9  20  -4 31.1704 112.922   8
 -11  20  -4 282.226 121.172   8
  11   9  -5 1232.55 152.243   6
   9  11  -5 1203.02 155.078   6
  11   9   5 1062.53 118.590   9
  -9  20  -5 930.691 136.087   8
 -11  20  -5 1007.82 144.787   8
 -11  20  -6 145.602 122.200   8
  11   9  -6 248.104 123.299   6
   9  11  -6 288.554 128.999   6
  11   9   6 290.534 105.171   9
   9  11   6 302.738 101.747   9
  -9  20  -6 170.080 126.508   8
  -9  20  -7 796.357 149.853   8
 -11  20  -7 694.743 135.554   8
  11   9  -7 803.118 143.007   6
   9  11  -7 848.874 146.980   6
  11   9   7 545.802 112.314   9
   9  11   7 658.506 116.861   9
  -9  20  -8 107.551 131.966   8
 -11  20  -8 226.765 121.880   8
   9  11  -8 10.1723 115.341   6
  11   9   8 79.2638 99.2798   9
   9  11   8 44.3478 96.3579   9
  -9  20  -9 544.516 143.448   8
 -11  20  -9 463.709 125.498   8
  11   9   9 471.773 114.226   9
   9  11   9 498.503 109.332   9
  -9  20  -9 323.208 122.856   6
  -9  20 -10 120.432 114.725   8
 -11  20 -10 57.3840 112.031   8
 -11  -9 -10 227.034 137.532  10
  -9 -11 -10-45.4425 119.493  10
   9  11  10 82.5460 92.2129   9
  11   9  10 111.262 92.0280   9
  -9  20 -11 160.770 114.472   8
 -11  20 -11 20.4190 97.6547   8
 -11  -9 -11 87.0216 116.479  10
  -9 -11 -11 93.6580 109.274  10
  11   9  11 61.2211 85.8649   9
   9  11  11 66.4498 86.4503   9
  -9  20 -12-20.5052 101.524   8
 -11  20 -12 53.0897 101.540   8
 -11  -9 -12 59.8615 101.247  10
  -9 -11 -12 26.3782 91.9002  10
   9 -20 -12 164.025 121.124  10
  11   9  12 36.0578 83.8334   9
   9  11  12 163.268 83.4104   9
  -9  20 -13 13.0208 94.5576   8
 -11  20 -13 118.622 95.9829   8
 -20  11 -13 151.805 84.8399   8
 -11  -9 -13 128.091 98.9645  10
  -9 -11 -13 187.253 85.5656  10
   9 -20 -13 83.1893 109.983  10
  11 -20 -13 37.6721 109.296  10
  11   9  13 178.110 80.0194   9
   9  11  13 14.9932 75.6342   9
 -11  20 -14 45.2870 89.6097   8
 -20  11 -14 57.3992 76.1383   8
 -11  -9 -14 222.872 95.4209  10
  -9 -11 -14 62.0835 82.0131  10
   9 -20 -14-38.4540 101.004  10
  11 -20 -14 97.5133 101.892  10
  11   9  14 32.0856 69.7909   9
   9  11  14-100.983 69.3051   9
  -9  20 -14 14.6842 88.4749   8
 -20  11 -15 151.194 69.5598   8
  -9 -11 -15 18.0103 77.5959  10
  11 -20 -15 87.0791 90.3921  10
   9  11  15-50.8108 57.4249   9
   9 -20 -15 74.5918 86.7652  10
  -9  20 -15-41.5263 75.8164   8
 -11  20 -15 4.17388 75.6232   8
   8  12   0 253.813 217.304   5
  12   8   0 173.369 230.397   5
 -20  12   0-88.2730 332.446   3
 -20   8   0-108.934 398.970   3
   8  12   1 67.9458 251.582   5
  12   8   1-360.369 309.062   5
 -20   8  -1-222.176 513.546   3
 -20  12   1 558.084 361.079   3
 -20   8   1-62.3906 361.312   3
 -20  12  -1-12.5546 351.776   3
   8  12  -1-181.863 238.894   5
  12   8  -1 41.4816 226.268   5
   8  12   2 114.450 294.674   5
  12   8   2 404.933 279.889   5
 -20  12   2 550.951 368.454   3
 -20   8   2 153.817 322.090   3
 -20  12  -2 620.772 428.630   3
 -20   8  -2-122.383 351.112   3
   8  12  -3 256.826 123.687   6
 -20  12   3-220.568 286.467   3
 -20   8   3 550.449 357.833   3
 -20  12  -3-18.1934 384.959   3
 -20   8  -3 351.292 421.934   3
  -8  20  -3 206.549 114.590   8
 -12  20  -3 30.5056 117.443   8
  12 -20  -4 64.4080 102.689  11
  12   8  -4-55.3237 115.844   6
   8  12  -4 34.1345 119.433   6
  12   8   4 102.152 98.7086   9
  -8  20  -4 144.805 112.458   8
 -12  20  -4-17.8539 113.989   8
 -12  20  -5 57.1814 126.407   8
  12   8  -5 442.373 132.059   6
   8  12  -5 329.541 134.219   6
  12   8   5 391.972 106.690   9
  -8  20  -5 253.996 123.092   8
 -12  20  -6 419.825 131.079   8
  12   8  -6 306.616 129.486   6
   8  12  -6 546.250 140.739   6
  12   8   6 411.527 109.628   9
  -8  20  -6 331.723 127.789   8
 -12  20  -7 353.909 128.722   8
  12   8  -7 545.206 138.140   6
   8  12  -7 549.649 142.817   6
  12   8   7 605.718 121.069   9
   8  12   7 347.272 104.503   9
  -8  20  -7 432.823 135.961   8
  -8  20  -8 206.025 124.520   8
 -12  20  -8 289.311 120.920   8
   8  12  -8 255.094 130.606   6
  12   8   8 274.807 109.654   9
   8  12   8 123.495 100.507   9
  -8  20  -8 187.782 122.081   6
  -8  20  -9 93.0026 120.999   8
 -12  20  -9 79.0125 110.890   8
  12   8   9 157.410 104.751   9
   8  12   9 111.660 97.0644   9
  -8  20  -9-1.42060 109.195   6
  -8  20 -10 45.8453 116.417   8
 -12  20 -10 120.521 111.321   8
 -12  -8 -10 1.97188 128.323  10
  -8 -12 -10 191.919 128.746  10
  12   8  10 210.229 98.2124   9
   8  12  10 17.6921 89.3309   9
  -8  20 -11 139.926 108.061   8
 -12  20 -11 109.797 104.952   8
 -12  -8 -11 284.969 125.987  10
  -8 -12 -11 196.443 107.517  10
   8 -20 -11 164.597 133.995  10
  12   8  11 14.0658 83.4870   9
   8  12  11 10.6164 85.5446   9
  -8  20 -12 63.8641 108.860   8
 -12  20 -12-58.1219 98.5005   8
 -20  12 -12 142.951 89.4281   8
 -12  -8 -12 308.386 116.928  10
  -8 -12 -12-27.6548 80.9557  10
   8 -20 -12 58.0193 115.326  10
  12   8  12 105.929 82.8601   9
   8  12  12 67.0470 81.5237   9
 -12  20 -13 14.1519 91.2181   8
 -20  12 -13 172.502 81.5919   8
  -8 -12 -13 242.323 86.3165  10
   8 -20 -13 150.466 111.167  10
  12 -20 -13-29.1372 113.774  10
  12   8  13-5.95795 74.1874   9
   8  12  13 22.4532 72.7862   9
  -8  20 -13 36.9335 91.6029   8
 -12  20 -14-47.1235 86.8509   8
 -20  12 -14 118.060 75.9649   8
 -12  -8 -14 292.626 97.0716  10
  -8 -12 -14-106.028 78.4576  10
  12 -20 -14-45.1684 104.616  10
   8 -20 -14 10.9838 95.6413  10
  12   8  14 72.5656 69.5547   9
   8  12  14 31.9169 65.9644   9
  -8  20 -14 31.1103 86.2129   8
 -20  12 -15 198.462 69.5352   8
  -8 -12 -15 273.809 83.0470  10
   8 -20 -15 67.8745 85.1301  10
  12 -20 -15-9.06100 84.6747  10
   8  12  15 58.0710 56.2266   9
  -8  20 -15-28.7339 70.5008   8
 -12  20 -15-63.8025 82.4478   8
   7  13   0 468.828 303.100   5
  13   7   0 91.9659 243.447   5
 -20  13   0-296.993 405.780   3
 -20   7   0 382.506 401.175   3
   7  13   1 607.615 351.733   5
  13   7   1 294.976 256.947   5
 -20  13   1 385.918 416.665   3
 -20   7   1 100.398 374.352   3
 -20  13  -1 651.850 519.606   3
 -20   7  -1-94.9842 439.499   3
  13   7  -1 420.844 290.347   5
  13   7   2 38.5271 237.822   5
 -20  13   2-336.969 489.205   3
 -20   7   2-148.284 371.653   3
 -20  13  -2 496.343 374.269   3
 -20   7  -2-283.163 421.364   3
  13   7  -3 597.235 131.574   6
   7  13  -3 458.436 129.982   6
 -20  13   3-239.901 356.890   3
  13 -20  -3 657.634 134.260  11
 -20  13  -3-19.0013 383.538   3
  -7  20  -3 676.969 137.287   8
 -13  20  -3 548.830 133.843   8
  13 -20  -4 802.485 135.003  11
  13   7  -4 722.959 134.658   6
   7  13  -4 518.673 136.415   6
  13   7   4 480.296 106.696   9
  -7  20  -4 550.252 141.693   8
 -13  20  -4 426.711 135.691   8
 -13  20  -5 183.312 124.750   8
  13   7  -5 241.218 122.457   6
   7  13  -5 231.674 137.557   6
  13   7   5 486.611 112.286   9
  -7  20  -5 198.192 131.124   8
 -13  20  -6 374.283 128.991   8
  13   7  -6 490.026 132.557   6
   7  13  -6 715.652 148.343   6
  13   7   6 647.738 113.250   9
  -7  20  -6 648.034 146.622   8
 -13  20  -7 271.563 123.485   8
  13   7  -7 389.323 131.526   6
   7  13  -7 405.676 142.342   6
  13   7   7 228.622 106.189   9
  -7  20  -7 246.947 127.772   6
  -7  20  -7 468.804 141.188   8
 -13  20  -8 655.223 133.302   8
   7  13  -8 705.526 143.792   6
  13   7   8 586.661 119.516   9
   7  13   8 465.245 107.179   9
  -7  20  -8 542.231 132.835   6
  -7  20  -8 469.753 144.963   8
 -13  20  -9 7.25178 106.254   8
  13   7   9 261.933 102.121   9
   7  13   9 174.676 98.8400   9
  -7  20  -9 113.645 114.945   6
  -7  20  -9 74.8521 123.189   8
 -13  20 -10 117.372 111.030   8
 -13  -7 -10 158.641 127.081  10
  -7 -13 -10 530.140 135.616  10
  13   7  10 293.017 102.606   9
   7  13  10 292.791 94.0746   9
  -7  20 -10 133.876 119.474   8
 -13  20 -11 313.047 105.335   8
 -20  13 -11 390.480 98.1157   8
  -7 -13 -11 261.798 103.352  10
 -13  -7 -11 289.500 130.375  10
   7 -20 -11-141.977 129.694  10
  13   7  11 178.394 91.6508   9
   7  13  11 147.624 89.4772   9
  -7  20 -11 239.216 109.693   8
 -13  20 -12 88.4127 92.1931   8
 -20  13 -12 23.1105 86.2556   8
 -13  -7 -12 280.480 124.030  10
  -7 -13 -12 154.726 85.3061  10
   7 -20 -12 114.474 115.827  10
  13   7  12 158.141 84.8333   9
   7  13  12 127.723 83.8975   9
  -7  20 -12 56.4620 104.379   8
 -13  20 -13 84.2622 87.4551   8
 -20  13 -13 115.144 81.1406   8
 -13  -7 -13 439.499 116.057  10
  -7 -13 -13 91.7722 76.2717  10
   7 -20 -13-0.32870 105.080  10
  13 -20 -13 179.475 117.154  10
  13   7  13 107.080 79.0834   9
   7  13  13 58.3660 72.3514   9
  -7  20 -13 94.1157 92.5310   8
 -13  20 -14 138.853 82.6710   8
 -20  13 -14 54.9158 73.3476   8
  -7 -13 -14 26.0893 68.4753  10
   7 -20 -14 224.262 98.4038  10
  13 -20 -14 55.4581 104.830  10
   7  13  14 42.0550 64.4777   9
  -7  20 -14 41.9423 79.6308   8
 -20  13 -15 77.6501 66.7011   8
   7 -20 -15-57.2720 81.5055  10
  13 -20 -15 133.096 90.5415  10
   7  13  15 90.6494 54.8709   9
 -13  20 -15 79.7295 81.0252   8
 -20  14   0 59.8239 379.680   3
 -20   6   0-143.472 367.165   3
   6  14   0 122.695 258.026   5
  14   6   0 109.353 285.748   5
   6  14   1 18.3867 247.015   5
  14   6   1 187.208 250.946   5
 -20  14   1-190.047 430.033   3
 -20   6   1 254.136 425.320   3
 -20  14  -1-156.620 367.845   3
 -20   6  -1 535.882 474.783   3
  14   6  -2 2.76127 120.354   6
   6  14  -2-177.613 127.761   6
 -20  14   2-522.859 428.461   3
 -20  14  -2-257.746 448.667   3
 -20   6  -2-21.4622 393.686   3
  -6  20  -2 177.995 133.710   8
 -20   6   2-64.8468 374.687   3
  20 -14  -3 63.2419 115.259  11
  14   6  -3-84.6772 121.449   6
   6  14  -3 170.932 130.515   6
  14 -20  -3 73.7912 111.866  11
  14   6   3-4.51864 144.079   6
 -20  14  -3 336.040 396.579   3
  -6  20  -3 204.826 132.699   8
 -14  20  -3 88.3360 131.767   8
  20 -14  -4 65.1035 121.474  11
  14   6  -4 254.294 126.409   6
  14 -20  -4 232.137 120.814  11
   6  14  -4 269.875 133.974   6
  14   6   4 223.547 101.338   9
  14   6   4 336.745 160.337   6
  -6  20  -4 278.573 139.649   8
 -14  20  -4 171.567 128.667   8
 -14  20  -5-68.1535 121.883   8
  20 -14  -5-64.9291 126.456  11
  14   6  -5 17.2243 115.970   6
   6  14  -5-78.7147 131.923   6
  14   6   5 69.2636 97.1894   9
  -6  20  -5-205.596 127.086   6
  -6  20  -5 73.7234 122.553   8
 -14  20  -6 126.389 118.732   8
  14   6  -6 300.071 130.545   6
   6  14  -6 371.545 140.371   6
  14   6   6 173.562 102.848   9
  -6  20  -6 239.735 126.177   6
  -6  20  -6 355.920 139.230   8
 -14  20  -7 138.465 120.453   8
   6  14  -7 96.1423 127.967   6
  14   6   7-21.9983 95.8420   9
  -6  20  -7-11.2683 114.036   6
  14   6  -7 228.293 126.412   6
  -6  20  -7 144.828 134.142   8
 -14  20  -8 101.600 117.698   8
   6  14  -8 181.046 126.805   6
  14   6   8 204.054 106.061   9
  -6  20  -8 181.189 120.314   6
  -6  20  -8 208.321 128.070   8
 -14  20  -9 80.5200 111.090   8
 -14  -6  -9 56.6612 139.668  10
  14   6   9 95.9849 98.1499   9
  -6  20  -9 105.751 108.211   6
   6  14   9 118.929 93.3102   9
  -6  20  -9 105.098 116.087   8
 -14  20 -10 114.990 100.609   8
 -20  14 -10-44.0275 94.3505   8
 -14  -6 -10 43.2620 121.984  10
  -6 -14 -10 228.000 114.299  10
   6 -20 -10 118.472 125.323  10
  14   6  10-23.4211 89.3221   9
   6  14  10 66.3010 87.0766   9
  -6  20 -10 177.147 118.593   8
 -14  20 -11 11.1230 98.5219   8
 -20  14 -11 94.2229 86.1167   8
 -14  -6 -11 62.0277 124.274  10
  -6 -14 -11 64.0400 94.4387  10
   6 -20 -11 126.051 116.172  10
  14   6  11-23.6743 81.9129   9
   6  14  11-1.66060 77.8316   9
  -6  20 -11 156.687 109.222   8
 -14  20 -12 80.2652 90.3822   8
 -20  14 -12 19.2609 80.2692   8
 -14  -6 -12 209.126 124.525  10
  -6 -14 -12 134.028 82.6878  10
   6 -20 -12 10.8717 106.001  10
  14   6  12 66.6059 78.1609   9
   6  14  12-9.86494 74.1570   9
  -6  20 -12 196.443 102.620   8
 -14  20 -13-42.9237 90.6972   8
 -20  14 -13-44.1942 79.4874   8
   6 -20 -13 192.105 104.006  10
  -6 -14 -13-64.9887 73.1400  10
  14 -20 -13 83.9230 108.797  10
  14   6  13-15.3047 70.3567   9
   6  14  13 123.892 71.3302   9
 -14  20 -14-98.3840 84.6687   8
 -20  14 -14 121.556 72.4587   8
  -6 -14 -14 146.400 67.3630  10
   6 -20 -14-5.67800 88.9150  10
  14 -20 -14 65.8303 98.6014  10
   6  14  14 53.1808 61.6235   9
 -20  14 -15 62.8996 63.1212   8
  14 -20 -15-52.0415 82.0621  10
   6  14  15-52.3986 51.0950   9
 -14  20 -15 39.6897 74.7257   8
  20 -15   0 568.883 309.275   4
  15   5   0 794.972 150.350   6
 -20  15   0 104.282 467.401   3
 -20   5   0 266.186 435.267   3
  -5  20   0 801.134 149.006   8
  15   5   1 74.0208 137.437   6
  15   5  -1 4.48048 124.769   6
   5  15  -1 77.9323 127.714   6
  15 -20  -1-31.2096 109.657  11
 -20  15   1-144.397 428.788   3
 -20  15  -1 345.195 460.058   3
  -5  20   1-24.4507 126.587   8
  -5  20  -1 17.1700 119.331   6
  -5  20  -1-61.2197 127.173   8
  20 -15  -2 29.8136 97.9650  11
  15 -20   2 217.626 116.434  11
  15 -20  -2 3.41770 109.436  11
   5  15  -2 117.600 123.517   6
  15   5   2 99.8353 141.696   6
  15   5  -2 39.4016 117.687   6
 -20  15  -2 128.640 438.557   3
  -5  20  -2 16.3786 116.498   6
  -5  20  -2 16.6939 131.259   8
 -15  20  -2 76.2335 138.615   8
  15 -20  -3 170.349 112.158  11
  20 -15  -3 19.7236 113.080  11
  15   5  -3 305.383 126.418   6
   5  15  -3 448.074 134.166   6
  15 -20   3 535.149 132.148  11
  15   5   3 243.618 153.100   6
  -5  20  -3 398.531 131.238   6
  -5  20  -3 198.575 124.365   8
 -15  20  -3 223.364 131.767   8
  15   5  -4 363.184 132.070   6
  15 -20  -4 334.877 122.494  11
  20 -15  -4 259.496 120.404  11
  15   5   4 499.420 159.325   6
   5  15  -4 382.631 137.677   6
  15   5   4 241.421 98.4813   9
  -5  20  -4 281.194 125.292   6
  -5  20  -4 315.527 127.092   8
 -15  20  -4 323.726 137.615   8
 -15  20  -5-131.522 126.301   8
  15 -20  -5 48.0106 111.242  11
  20 -15  -5-53.1540 123.487  11
  15   5   5 113.364 101.946   9
  -5  20  -5 169.026 120.654   6
  15   5  -5 4.75090 118.265   6
   5  15  -5 115.581 130.509   6
  -5  20  -5 75.4708 129.647   8
 -15  20  -6 256.205 124.415   8
   5  15  -6 179.943 132.186   6
  15   5  -6 33.1521 118.739   6
  15   5   6 235.541 105.558   9
  -5  20  -6 193.620 123.078   6
  20 -15  -6 158.287 114.878  11
  -5  20  -6 180.023 134.146   8
 -15  20  -7 99.6832 118.003   8
   5  15  -7 246.435 136.948   6
  15   5   7 123.371 102.764   9
  -5  20  -7-72.6313 114.872   6
  15   5  -7 3.35382 111.940   6
  -5  20  -7 165.654 123.379   8
 -15  20  -8 171.057 118.480   8
   5  15  -8-2.76771 121.636   6
  15   5   8 54.9045 98.5487   9
  -5  20  -8 129.973 117.378   6
  -5  20  -8-26.3189 128.928   8
 -15  20  -9 121.477 109.228   8
   5  15  -9 85.4084 112.616   6
   5 -20  -9-122.540 130.236  10
  15   5   9 89.1787 97.1989   9
  -5  20  -9 61.9366 107.258   6
   5  15   9 33.2746 87.0094   9
  -5  20  -9 148.059 123.583   8
 -15  20 -10 125.152 98.1642   8
 -20  15 -10 47.4203 91.3458   8
 -15  -5 -10 69.4902 129.348  10
  -5 -15 -10 195.737 110.401  10
   5 -20 -10-130.689 114.386  10
  15   5  10 144.590 89.8442   9
   5  15  10 115.363 81.2676   9
  -5  20 -10-27.1678 113.057   8
 -15  20 -11 10.1200 91.0657   8
 -20  15 -11 110.749 85.7698   8
  -5 -15 -11 112.190 86.7692  10
   5 -20 -11-42.5288 101.294  10
  15   5  11 103.863 81.9289   9
   5  15  11 9.17635 78.2050   9
 -15  20 -12 170.095 90.7833   8
 -20  15 -12-54.6931 78.4317   8
  -5 -15 -12-35.3032 70.1255  10
   5 -20 -12 8.72192 90.7227  10
  15   5  12 102.851 79.4233   9
   5  15  12-15.4976 70.7300   9
 -15  20 -13-5.00459 85.8528   8
 -20  15 -13 49.3305 75.9168   8
  -5 -15 -13-156.329 74.6561  10
   5 -20 -13-117.681 91.2898  10
  15 -20 -13 206.646 113.761  10
   5  15  13 56.8955 67.4912   9
 -15  20 -14 98.6576 82.8964   8
 -20  15 -14 51.2620 67.9476   8
  -5 -15 -14-33.1133 61.0727  10
   5 -20 -14-52.9586 85.6511  10
  15 -20 -14 68.8715 95.4439  10
   5  15  14 35.3552 57.5280   9
  16   4   0 754.004 152.336   6
  16 -20   0 799.493 133.998  11
   4  16   0 708.017 139.143   6
 -20  16   0 452.340 513.735   3
  -4  20   0 783.196 136.891   6
  -4  20   0 729.188 145.770   8
 -16  20   0 819.582 175.972   8
  16   4   1 1738.72 191.154   6
  16   4  -1 1420.26 169.053   6
   4  16   1 1244.68 149.929   6
   4  16  -1 1398.46 158.461   6
  -4  20   1 1329.04 151.964   6
  -4  20  -1 1540.92 160.626   6
  20 -16  -1 1491.11 137.767  11
  16 -20  -1 1398.94 147.484  11
 -16  20   1 2072.48 198.153   8
 -16  20  -1 1753.00 187.940   8
  -4  20  -1 1823.30 172.730   8
  16 -20   1 1520.63 156.059  11
  16   4   2 2350.68 205.285   6
  16   4  -2 2068.28 174.893   6
   4  16   2 2112.05 166.502   6
   4  16  -2 1743.86 166.365   6
  -4  20   2 1822.01 162.060   6
  -4  20  -2 2057.55 171.598   6
  20 -16  -2 1635.52 152.450  11
  16 -20  -2 1754.66 161.184  11
  -4  20  -2 2109.13 180.639   8
  16 -20   2 1939.85 158.408  11
 -16  20  -2 2375.40 199.775   8
  16   4   3 1516.55 189.105   6
  16   4  -3 1356.35 155.882   6
  -4  20  -3 1272.21 157.142   6
  16 -20  -3 1352.96 149.841  11
  20 -16  -3 1211.20 147.058  11
   4  16  -3 948.347 144.609   6
  -4  20  -3 1551.51 166.748   8
 -16  20  -3 1572.21 181.890   8
  20 -16  -4 594.351 139.461  11
   4  16  -4 879.269 153.969   6
  16   4   4 887.266 113.358   9
  -4  20  -4 1113.55 159.940   8
  -4  20  -4 678.660 139.099   6
  16   4  -4 955.025 143.424   6
  16 -20  -4 838.929 133.463  11
 -16  20  -4 732.649 155.726   8
  16   4  -5 1457.75 158.121   6
   4  16  -5 1843.85 181.505   6
  -4  20  -5 1719.50 167.707   6
  16 -20  -5 1874.54 159.292  11
  16   4   5 1803.54 136.903   9
  -4  20  -5 2292.23 179.590   8
 -16  20  -5 1700.32 171.833   8
  20 -16  -5 1857.01 168.863  11
 -16  20  -6 561.728 134.200   8
  16   4  -6 769.322 135.542   6
  20 -16  -6 747.440 136.247  11
   4  16  -6 550.135 142.303   6
  16   4   6 886.191 122.330   9
  -4  20  -6 721.036 139.661   6
  -4  20  -6 952.967 152.420   8
 -16  20  -7 857.945 133.307   8
  16   4  -7 730.856 135.866   6
   4  16  -7 862.739 146.361   6
  16   4   7 920.313 121.207   9
  -4  20  -7 922.377 145.247   6
  -4  20  -7 1154.87 146.777   8
 -16  20  -8 509.467 116.851   8
   4  16  -8 558.915 133.123   6
  16   4   8 672.682 118.147   9
  -4  20  -8 608.707 132.003   6
  -4  20  -8 833.555 145.127   8
 -16  20  -9 384.127 108.599   8
 -20  16  -9 473.454 116.679   8
   4  16  -9 530.184 125.892   6
   4 -20  -9 286.195 121.651  10
  16   4   9 682.287 114.747   9
  -4  20  -9 383.102 117.162   6
 -16  20 -10-2.08453 95.5839   8
 -20  16 -10 54.9751 86.0230   8
  -4 -16 -10 77.9759 95.8939  10
  16   4  10-48.7692 85.8157   9
   4  16  10 64.6170 79.9274   9
   4 -20 -10-80.3668 100.937  10
 -16  20 -11-123.136 90.3005   8
 -20  16 -11-87.2410 84.3974   8
  -4 -16 -11 138.464 84.8210  10
   4 -20 -11-166.365 95.3763  10
  16   4  11-59.2016 78.9646   9
   4  16  11 2.24844 75.1131   9
 -16  20 -12 44.9508 79.3313   8
 -20  16 -12 47.3542 76.9390   8
  -4 -16 -12 9.56886 67.4953  10
   4 -20 -12 120.179 84.2122  10
   4  16  12-63.9126 71.4677   9
  -4  20  12 141.288 68.7735   9
 -16  20 -13 77.1609 79.8391   8
 -20  16 -13 97.6366 74.2139   8
  -4 -16 -13-120.842 66.7683  10
   4 -20 -13-60.0753 80.4837  10
  16 -20 -13 61.5353 106.754  10
   4  16  13 87.0032 66.8942   9
  -4  20  13-19.5954 61.9453   9
 -16  20 -14-52.1583 74.7448   8
 -20  16 -14 33.3053 67.4932   8
  -4 -16 -14 12.5632 51.4793  10
   4 -20 -14 227.083 83.5030  10
  16 -20 -14-29.6907 92.9774  10
   4  16  14 150.697 58.6125   9
  17 -20   0 496.376 122.161  11
  17   3   0 754.256 154.342   6
   3  17   0 511.658 127.899   6
  -3  20   0 553.269 128.888   6
  -3  20   0 600.451 139.660   8
  -3  20   1 1152.22 146.279   6
  20 -17  -1 1125.71 126.226  11
  17 -20   1 868.334 127.158  11
  17 -20  -1 1017.70 135.394  11
  17   3   1 1349.32 172.109   6
   3  17   1 1015.20 144.399   6
   3  17  -1 1071.07 147.919   6
  -3  20  -1 1095.42 145.988   6
  -3  20  -1 1326.36 161.645   8
 -17  20  -1 1366.20 183.838   8
  17   3  -1 922.610 149.733   6
  17   3   2 723.391 164.840   6
  17 -20  -2 480.174 118.976  11
  17 -20   2 675.466 132.102  11
   3  17   2 778.095 136.332   6
   3  17  -2 831.283 144.894   6
  -3  20   2 917.517 141.230   6
  20 -17  -2 634.491 118.143  11
  -3  20  -2 743.897 138.080   6
  17   3  -2 649.734 141.666   6
  -3  20  -2 928.979 152.170   8
 -17  20  -2 916.326 174.483   8
  17   3  -3 587.506 136.374   6
  17 -20  -3 377.617 120.936  11
   3  17  -3 435.667 136.013   6
  20 -17  -3 460.777 127.105  11
  -3  20  -3 787.709 142.514   6
  -3  20  -3 615.801 139.098   8
 -17  20  -3 656.850 165.029   8
  20 -17  -4 265.628 125.865  11
  17   3  -4 542.503 131.552   6
   3  17  -4 285.580 135.117   6
  17   3   4 371.133 102.507   9
  17 -20  -4 68.4826 112.943  11
  -3  20  -4 297.362 126.818   6
  -3  20  -4 436.684 131.391   8
 -17  20  -4 404.576 149.564   8
 -17  20  -5 624.820 148.000   8
  17 -20  -5 429.165 120.828  11
  17   3  -5 613.017 132.038   6
  17   3   5 885.449 119.023   9
   3  17  -5 646.645 150.731   6
  -3  20  -5 722.688 141.069   6
  20 -17  -5 513.793 130.539  11
  -3  20  -5 913.191 151.238   8
 -17  20  -6 237.807 118.324   8
  17   3  -6 171.036 117.048   6
   3  17  -6 206.908 129.365   6
  17   3   6 247.207 99.8267   9
  -3  20  -6 201.243 120.838   6
  20 -17  -6 38.7527 119.908  11
 -17  20  -7 598.214 130.281   8
  17   3  -7 715.898 131.810   6
   3  17  -7 807.775 149.148   6
   3 -20  -7 413.856 138.371  10
  17   3   7 816.532 118.875   9
  -3  20  -7 911.022 147.407   6
 -17  20  -8 51.1661 105.718   8
 -20  17  -8 198.292 113.677   8
   3  17  -8 131.045 119.494   6
   3 -20  -8 69.4725 115.599  10
  17   3   8 86.8321 95.9986   9
  -3  20  -8-36.2722 114.299   6
 -17  20  -9 82.6959 98.9813   8
 -20  17  -9 290.752 101.045   8
   3  17  -9 134.379 110.247   6
  -3  20  -9 133.817 107.501   6
  17   3   9 211.601 96.6654   9
 -17  20 -10 21.2697 88.3601   8
 -20  17 -10 145.049 91.6554   8
  -3 -17 -10-14.5821 85.0971  10
   3 -20 -10 94.6869 97.3775  10
  17   3  10 89.2705 85.0669   9
   3  17  10 145.556 80.1777   9
 -17  20 -11 75.8782 87.2113   8
 -20  17 -11-4.20074 75.6849   8
   3 -20 -11 96.2527 82.4333  10
  -3 -17 -11 37.6754 78.5018  10
   3  17  11 73.0775 71.6092   9
 -17  20 -12-24.0566 82.4865   8
 -20  17 -12 13.7465 72.5376   8
  -3 -17 -12 46.2541 64.8031  10
   3 -20 -12 20.2587 72.1080  10
   3  17  12-23.2717 68.5194   9
  -3  20  12-51.7533 66.1344   9
 -17  20 -13 24.2588 78.4483   8
 -20  17 -13 40.2788 70.8120   8
  -3 -17 -13 78.1999 54.2770  10
   3 -20 -13 1.07955 67.1244  10
  17 -20 -13-6.28079 102.776  10
   3  17  13 67.9044 62.7688   9
  -3  20  13-39.7872 60.8517   9
 -17  20 -14 9.91098 71.9628   8
 -20  17 -14 12.9753 65.2510   8
  -3 -17 -14-113.280 52.4947  10
   3 -20 -14-103.114 72.3047  10
  17 -20 -14 127.911 89.5009  10
   3  17  14 30.7439 52.2158   9
  20 -18   0 349.966 110.681  11
  18 -20   0 505.223 122.883  11
   2  18   0 392.068 126.841   6
  -2  20   0 474.107 127.803   6
  18   2   0 451.748 145.183   6
  18   2   1 2155.64 195.137   6
  18   2  -1 2017.62 177.721   6
   2  18   1 1991.72 163.829   6
   2  18  -1 1982.38 170.789   6
  -2  20   1 2225.23 170.039   6
  -2  20  -1 1994.50 167.324   6
  18 -20  -1 2099.92 160.587  11
  20 -18  -1 1964.75 146.748  11
  -2  20  -1 2313.89 176.753   8
  18 -20   1 2093.79 156.889  11
  18   2  -2 1860.36 168.863   6
   2  18   2 2087.92 166.113   6
   2  18  -2 1914.70 169.373   6
  -2  20   2 1904.14 157.159   6
  -2  20  -2 2011.94 170.982   6
  18 -20   2 1915.36 156.907  11
  18 -20  -2 2023.61 157.672  11
  20 -18  -2 1924.12 149.604  11
  -2  20  -2 2209.26 174.533   8
 -18  20  -2 2595.28 216.169   8
  18   2  -3 1265.16 148.731   6
   2  18  -3 1383.17 160.996   6
  20 -18  -3 1207.94 136.238  11
  18 -20  -3 1040.72 137.737  11
  -2  20  -3 1149.92 150.474   6
 -18  20  -3 1623.17 188.459   8
  18   2  -4 1286.08 145.972   6
   2  18  -4 1254.14 156.818   6
  -2  20  -4 1164.27 149.335   6
  20 -18  -4 1204.20 146.752  11
  18 -20  -4 1226.29 141.814  11
 -18  20  -4 1677.27 174.661   8
  18   2  -5 1239.58 144.698   6
   2  18  -5 1643.01 172.477   6
  -2  20  -5 1565.84 164.063   6
  20 -18  -5 1364.85 157.760  11
  18   2   5 1404.36 126.665   9
  18 -20  -5 1474.51 144.915  11
 -18  20  -5 1593.98 168.377   8
 -18  20  -6 877.811 136.097   8
  18   2   6 826.866 112.802   9
   2  18  -6 937.849 144.637   6
  20 -18  -6 850.538 133.671  11
  -2  20  -6 914.720 141.042   6
   2  18  -7 1588.60 167.748   6
  -2  20  -7 1519.85 164.515   6
  18   2   7 1372.54 136.203   9
 -18  20  -7 1645.29 155.927   8
 -20  18  -7 1565.85 154.321   8
 -18  20  -8 316.376 104.805   8
 -20  18  -8 288.619 104.390   8
   2 -20  -8-30.0037 113.501  10
   2  18  -8 359.104 122.524   6
  18   2   8 344.511 102.517   9
  -2  20  -8 322.136 118.582   6
 -18  20  -9 189.556 99.0806   8
 -20  18  -9 79.5979 92.2272   8
   2  18  -9 76.4391 104.300   6
   2 -20  -9 103.701 99.8832  10
  -2  20  -9 129.281 104.467   6
 -18  20 -10 126.056 88.5295   8
 -20  18 -10 119.378 83.6045   8
  -2 -18 -10 22.6238 85.6363  10
   2 -20 -10 21.2387 87.3295  10
 -18  20 -11 117.859 83.2447   8
 -20  18 -11 120.567 81.7834   8
  -2 -18 -11 38.6926 71.7872  10
   2 -20 -11-28.9394 81.7880  10
   2  18  11-7.24797 69.4506   9
 -18  20 -12 6.54024 73.9561   8
 -20  18 -12-7.80707 70.0173   8
  -2 -18 -12-10.8276 60.3259  10
   2 -20 -12-73.4713 69.6826  10
   2  18  12-54.8279 66.9645   9
  -2  20  12-126.148 67.4240   9
 -18  20 -13 99.2907 76.3391   8
 -20  18 -13 30.0919 69.1196   8
  -2 -18 -13 91.1629 57.7504  10
   2 -20 -13 30.1756 62.7102  10
  18 -20 -13-146.424 105.370  10
   2  18  13 122.989 60.7774   9
  -2  20  13 85.1759 60.1253   9
 -18  20 -14 74.4165 73.2251   8
 -20  18 -14 82.4599 64.9700   8
  -2 -18 -14 252.650 59.5745  10
   2 -20 -14 224.357 74.1215  10
  18 -20 -14-58.5808 83.9961  10
   2  18  14-4.89656 50.0171   9
   1  19   0 1437.39 154.780   6
  -1  20   0 1220.98 148.063   6
  19 -20   0 1274.46 135.781  11
  20 -19   0 1066.38 122.866  11
  20 -19  -1 525.624 111.445  11
  19 -20   1 618.562 120.541  11
   1  19   1 524.114 128.048   6
   1  19  -1 615.642 133.838   6
  -1  20   1 432.637 122.591   6
  -1  20  -1 539.581 133.804   6
  20 -19   1 441.852 109.985  11
  19 -20  -1 420.948 110.115  11
  20 -19  -2 236.942 105.201  11
  19 -20   2 507.541 113.443  11
   1  19   2 443.925 122.741   6
  -1  20   2 396.980 121.226   6
   1  19  -2 495.156 128.671   6
  -1  20  -2 394.542 124.130   6
  19 -20  -2 283.581 108.393  11
  19 -20  -3 307.369 102.896  11
  20 -19  -3 323.393 107.189  11
   1  19  -3 304.991 125.470   6
  -1  20  -3 417.486 124.973   6
  19 -20  -4 212.132 104.379  11
   1  19  -4 417.845 129.941   6
  -1  20  -4 214.712 119.454   6
  20 -19  -4 238.040 111.539  11
 -19  20  -4 321.112 145.407   8
  20 -19  -5 77.0585 103.777  11
  19 -20  -5 96.0488 109.407  11
   1  19  -5 197.044 125.177   6
  -1  20  -5 145.684 121.696   6
 -19  20  -5 154.795 133.353   8
 -19  20  -6 307.371 115.360   8
 -20  19  -6 526.592 133.996   8
   1  19  -6 390.196 127.615   6
  -1  20  -6 376.646 123.334   6
  20 -19  -6 224.436 112.012  11
 -19  20  -7 342.121 122.797   8
 -20  19  -7 358.038 124.498   8
   1  19  -7 287.007 130.376   6
  -1  20  -7 221.986 124.651   6
 -19  20  -8 141.391 99.9840   8
 -20  19  -8 70.5910 98.3617   8
   1  19  -8 128.615 113.158   6
  -1  20  -8 124.997 110.405   6
 -19  20  -9 93.1126 91.2586   8
 -20  19  -9 189.759 96.6659   8
   1 -20  -9 206.515 96.7341  10
   1  19  -9 227.557 110.106   6
  -1  20  -9 14.1410 102.334   6
 -19  20 -10 103.866 80.3810   8
 -20  19 -10 35.1793 77.6987   8
  -1 -19 -10 174.009 84.0785  10
   1 -20 -10 4.97594 80.7504  10
 -19  20 -11 7.70834 77.7839   8
 -20  19 -11 39.7707 77.6237   8
  -1 -19 -11 82.2604 68.3373  10
   1 -20 -11 14.3842 73.6324  10
   1  19  11 111.603 70.8544   9
  -1  20  11-37.0218 67.4366   9
 -19  20 -12 43.2419 75.0963   8
 -20  19 -12 19.9855 70.7860   8
  -1 -19 -12-41.3607 59.2909  10
   1 -20 -12 88.7080 66.6087  10
   1  19  12-70.7175 65.5420   9
  -1  20  12-47.5008 64.1005   9
 -19  20 -13-31.5143 68.1517   8
 -20  19 -13 101.893 70.4888   8
  -1 -19 -13-79.9305 54.9861  10
   1 -20 -13 68.3424 63.1738  10
  19 -20 -13 64.6395 96.9947  10
   1  19  13 76.7572 58.2411   9
  -1  20  13 44.6612 56.0533   9
  20 -20   0 40.1683 98.9784  11
   0  20   0-27.8838 111.458   6
  20 -20   1 18.6782 92.3254  11
   0  20   1-37.9501 110.924   6
   0  20  -1 116.605 115.800   6
  20 -20  -1 1.43559 101.193  11
  20 -20  -2 55.1698 92.1256  11
  20 -20   2-46.7286 92.7030  11
   0  20   2-2.28154 108.883   6
   0  20  -2 209.527 117.722   6
   0  20  -3 126.606 114.273   6
  20 -20  -3 32.0353 94.6333  11
  20 -20  -4-62.1159 100.638  11
   0  20  -4 151.872 115.481   6
  20 -20  -5 75.8091 107.191  11
   0  20  -5-24.6743 113.318   6
 -20  20  -5-215.708 137.713   8
   0  20  -6-18.8596 110.515   6
 -20  20  -6 123.920 112.218   8
 -20  20  -7-13.3653 106.838   8
   0  20  -7 142.267 115.008   6
 -20  20  -8 106.890 97.3872   8
   0  20  -8 15.5094 104.479   6
 -20  20  -9 11.7439 84.9146   8
   0  20  -9 38.6941 100.776   6
 -20  20 -10 96.0646 75.3371   8
   0 -20 -10-66.2634 72.7941  10
 -20  20 -11-1.06617 73.0427   8
   0 -20 -11 54.7924 62.8191  10
   0  20  11 86.1343 66.8905   9
 -20  20 -12-26.8834 68.7276   8
   0 -20 -12-13.3102 57.6884  10
   0  20  12 34.0665 61.7431   9
 -20  20 -13-67.5521 67.9059   8
   0 -20 -13-66.5079 59.3708  10
   0  20  13-6.77988 53.0118   9
  11  10   0 166.631 117.667   6
  10  11   0 47.9427 117.617   6
 -10  21   0 125.554 122.504   8
 -11  21   0 32.6641 122.740   8
  11  10   1 374.513 119.616   6
  11  10  -1 483.451 129.417   6
  10  11   1 506.474 130.764   6
  10  11  -1 438.141 126.655   6
 -10  21   1 301.200 122.523   8
 -11  21   1 341.665 131.983   8
 -10  21  -1 388.151 123.109   8
 -11  21  -1 418.194 133.087   8
  11  10   2 232.899 125.724   6
  10  11   2 366.855 127.540   6
  11  10  -2 56.7920 116.330   6
  10  11  -2 203.320 119.536   6
  11 -21  -2 394.423 124.976  11
 -10  21   2 242.555 125.455   8
 -11  21   2 76.2230 121.036   8
 -10  21  -2 38.1164 120.702   8
 -11  21  -2 316.795 121.159   8
  11  10   3 200.555 127.185   6
  10  11   3 359.106 132.830   6
  11  10  -3 246.645 122.230   6
  10  11  -3 207.283 124.580   6
  10  11   3 240.681 98.4969   9
 -10  21  -3 314.239 123.335   8
 -11  21  -3 90.6259 122.146   8
  11  10  -4 334.119 124.011   6
  10  11  -4 472.613 134.868   6
  11  10   4 379.289 104.181   9
  10  11   4 216.430 98.0234   9
 -10  21  -4 353.634 127.186   8
 -11  21  -4 245.751 115.384   8
  11  10  -5 381.040 131.436   6
  10  11  -5 380.360 130.670   6
  11  10   5 171.372 94.0003   9
  10  11   5 266.506 98.7463   9
 -10  21  -5 287.919 121.070   8
 -11  21  -5 76.9404 119.665   8
  11  10  -6 50.2594 125.415   6
  10  11  -6 144.434 127.302   6
  11  10   6 61.4589 95.6757   9
  10  11   6 175.236 98.4705   9
 -10  21  -6 132.787 118.833   8
 -11  21  -6 49.1598 126.033   8
  11  10  -7 199.488 124.208   6
  10  11  -7 84.3613 121.435   6
  11  10   7 190.143 102.518   9
  10  11   7 191.355 98.4356   9
 -10  21  -7 132.744 118.152   8
 -11  21  -7 221.118 118.405   8
 -11  21  -8 175.584 125.501   8
  11  10  -8 161.417 126.052   6
  10  11  -8 60.2815 117.986   6
  11  10   8 136.518 102.562   9
  10  11   8 103.178 97.1268   9
 -10  21  -8 66.4580 115.909   8
 -10  21  -9 180.871 115.174   8
 -11  21  -9 74.8660 117.039   8
  11  10   9 147.244 92.5286   9
  10  11   9 120.418 92.7727   9
 -10  21  -9 165.684 111.686   6
 -10  21 -10 201.776 108.338   8
 -11  21 -10 42.4306 103.200   8
 -11 -10 -10 294.544 127.158  10
 -10 -11 -10 67.0523 119.708  10
  11  10  10 119.067 84.8664   9
  10  11  10 37.9630 81.6846   9
 -10  21 -11 79.2113 107.105   8
 -11  21 -11 75.4263 103.831   8
 -11 -10 -11 226.397 109.235  10
 -10 -11 -11 178.136 106.881  10
  11  10  11-8.78019 77.1384   9
  10  11  11-9.09340 79.1711   9
 -11  21 -12 63.2072 95.2403   8
  10 -21 -12 65.7486 112.578  10
 -11 -10 -12 57.6644 88.9590  10
 -10 -11 -12 201.947 88.5336  10
  11 -21 -12 31.4349 109.145  10
  11  10  12 67.9556 74.5811   9
  10  11  12 39.8180 72.2408   9
 -10  21 -12-25.1304 99.4787   8
 -10 -11 -13 80.3193 68.0096  10
  10 -21 -13 3.67271 100.929  10
  11 -21 -13 19.6766 101.970  10
  11  10  13 34.9126 69.0674   9
  10  11  13-17.9106 68.6547   9
 -10  21 -13-75.7753 91.5807   8
 -11  21 -13-13.9468 88.9351   8
 -10 -11 -14 140.794 73.2501  10
  10 -21 -14-44.1219 93.0549  10
  11 -21 -14 78.1898 96.3432  10
  11  10  14-1.93819 63.2390   9
  10  11  14 46.6114 62.9745   9
 -10  21 -14-49.5196 82.7795   8
 -11  21 -14 117.555 85.6226   8
  12   9   0 213.523 126.161   6
   9  12   0 311.775 125.830   6
  -9  21   0 171.332 119.675   8
 -12  21   0 157.123 135.506   8
  12 -21  -1 377.800 126.458  11
  12   9   1 78.6057 122.329   6
  12   9  -1-11.1503 117.065   6
   9  12   1 107.503 118.510   6
   9  12  -1 297.955 126.211   6
  -9  21   1 58.8258 122.188   8
 -12  21   1 88.6997 127.283   8
  -9  21  -1 81.9651 124.011   8
 -12  21  -1 103.825 130.205   8
  12 -21  -2 314.156 125.460  11
  12   9   2 204.093 130.968   6
  12   9  -2 130.690 121.633   6
   9  12   2 220.512 125.548   6
   9  12  -2 190.342 127.886   6
  -9  21   2 87.8382 119.886   8
 -12  21   2 6.93224 131.433   8
  -9  21  -2 60.4928 125.009   8
 -12  21  -2 185.607 125.051   8
  12 -21  -3 342.268 119.616  11
  12   9  -3 284.898 124.038   6
   9  12   3 309.957 127.134   6
   9  12  -3 444.702 132.337   6
  12   9   3 206.582 138.321   6
  -9  21  -3 300.026 130.810   8
 -12  21  -3 317.020 124.366   8
  12   9  -4 291.773 124.936   6
   9  12  -4 317.667 129.489   6
  12   9   4 261.532 98.2077   9
  12   9   4 310.627 140.789   6
  -9  21  -4 264.894 126.182   8
 -12  21  -4 257.577 122.557   8
  12   9  -5 184.489 122.475   6
   9  12  -5 327.477 134.231   6
  12   9   5 193.144 100.446   9
   9  12   5 203.950 93.0473   9
  -9  21  -5 310.084 122.550   8
 -12  21  -5 265.155 121.015   8
  12   9  -6 234.498 133.246   6
   9  12  -6 181.351 129.886   6
  12   9   6 164.637 101.178   9
   9  12   6 117.471 96.0517   9
  -9  21  -6 234.838 122.755   8
 -12  21  -6 177.555 118.327   8
 -12  21  -7 221.279 119.490   8
  12   9  -7 175.769 123.354   6
   9  12  -7 108.175 122.602   6
  12   9   7 116.638 99.0649   9
   9  12   7 33.1573 92.9514   9
  -9  21  -7 144.461 123.432   8
 -12  21  -8 38.1161 108.665   8
  12   9  -8 23.9601 119.388   6
   9  12  -8 153.984 113.522   6
  12   9   8 83.4375 97.1974   9
   9  12   8 201.506 95.3469   9
  -9  21  -8 294.783 118.755   6
  -9  21  -8 95.8364 118.692   8
 -12  21  -9 100.404 105.870   8
  12   9   9 11.8980 85.6000   9
   9  12   9-3.42949 84.3998   9
  -9  21  -9 33.3952 103.110   6
  -9  21  -9 44.3571 115.139   8
 -12  21 -10-39.0155 101.639   8
 -12  -9 -10-153.494 123.739  10
  12   9  10 136.205 84.6518   9
   9  12  10 66.2579 81.6714   9
  -9  21 -10 30.8404 101.512   8
 -12  21 -11 73.7325 97.0065   8
 -12  -9 -11 123.998 107.615  10
  -9 -12 -11 220.010 103.999  10
   9 -21 -11 93.7671 121.207  10
  12   9  11 52.6423 78.5634   9
   9  12  11 3.77546 76.6907   9
  -9  21 -11 10.7638 103.551   8
 -12  21 -12 53.0354 97.5550   8
 -12  -9 -12-106.606 95.8720  10
  -9 -12 -12 31.2732 76.7530  10
   9 -21 -12 30.3070 107.827  10
  12 -21 -12-25.7833 109.029  10
  12   9  12-11.6435 73.3465   9
   9  12  12 25.9231 70.9049   9
  -9  21 -12 39.7110 94.2445   8
 -12  21 -13-51.4351 91.4041   8
 -12  -9 -13-190.096 89.9434  10
  -9 -12 -13 75.5257 68.5277  10
   9 -21 -13-94.9892 103.040  10
  12 -21 -13 130.225 102.713  10
  12   9  13 38.7645 68.1782   9
   9  12  13 38.0645 66.1202   9
  -9  21 -13-58.2177 89.9077   8
  -9 -12 -14 82.8799 62.0920  10
  12 -21 -14-25.5828 92.8084  10
   9 -21 -14 27.7638 88.0350  10
  12   9  14 0.08473 61.8230   9
   9  12  14-74.5702 61.2154   9
  -9  21 -14 41.1769 77.7618   8
 -12  21 -14-30.6606 78.0315   8
  13   8   0 1756.88 164.663   6
   8  13   0 1545.25 157.539   6
  -8  21   0 1272.70 158.425   8
 -13  21   0 1516.09 167.324   8
  13 -21  -1 535.284 133.248  11
  13   8   1 398.766 137.253   6
  13   8  -1 333.955 130.084   6
   8  13   1 352.590 121.922   6
   8  13  -1 538.726 132.500   6
  13 -21   1 858.978 133.654  11
  -8  21   1 285.762 122.598   8
 -13  21   1 338.986 135.777   8
  -8  21  -1 372.533 126.912   8
 -13  21  -1 264.408 134.558   8
  13   8  -2 1185.90 152.247   6
   8  13  -2 1283.28 159.953   6
   8  13   2 1108.06 147.506   6
  13   8   2 1226.31 163.211   6
  21 -13  -2 1152.14 135.796  11
  13 -21  -2 1215.47 151.069  11
 -13  21   2 919.285 155.499   8
  -8  21  -2 910.389 151.128   8
 -13  21  -2 870.982 152.111   8
  13   8   3 886.517 155.207   6
  13 -21  -3 1092.45 143.534  11
  13   8  -3 826.929 140.160   6
   8  13   3 906.363 140.394   6
   8  13  -3 1003.08 153.286   6
  21 -13  -3 806.415 133.636  11
  -8  21  -3 981.303 142.784   8
 -13  21  -3 812.464 148.860   8
  13   8   4 736.057 155.958   6
  13   8  -4 825.420 142.259   6
   8  13  -4 589.037 143.405   6
  13   8   4 754.054 108.864   9
  -8  21  -4 492.388 130.805   8
 -13  21  -4 818.019 137.733   8
  13   8  -5 556.111 135.771   6
   8  13  -5 551.339 142.361   6
  13   8   5 379.139 106.472   9
  -8  21  -5 425.342 135.812   8
 -13  21  -5 208.466 127.944   8
  13   8  -6 419.098 130.571   6
   8  13  -6 647.814 147.302   6
  13   8   6 421.397 105.821   9
  -8  21  -6 504.093 140.496   8
 -13  21  -6 457.722 128.230   8
 -13  21  -7 344.957 120.175   8
   8  13  -7 433.413 137.512   6
  13   8  -7 123.729 118.727   6
  13   8   7 144.741 101.429   9
   8  13   7 109.793 90.5955   9
  -8  21  -7 259.219 124.042   6
  -8  21  -7 320.516 135.207   8
 -13  21  -8 87.3949 110.652   8
  13   8  -8-37.8747 120.377   6
   8  13  -8 253.221 119.414   6
  13   8   8 137.997 95.6073   9
   8  13   8 224.849 95.1070   9
  -8  21  -8 108.737 112.949   6
  -8  21  -8 189.777 127.254   8
 -13  21  -9 256.646 107.798   8
  -8  21  -9-12.4623 107.185   6
  13   8   9 151.690 86.3986   9
   8  13   9 116.622 89.2891   9
  -8  21  -9 141.680 117.596   8
 -13  21 -10 156.920 100.535   8
 -13  -8 -10-34.6479 114.071  10
  13   8  10 263.203 89.1643   9
   8  13  10 200.702 85.1916   9
  -8  21 -10 121.530 109.789   8
 -13  21 -11 30.3617 94.3698   8
 -13  -8 -11 126.122 112.283  10
  -8 -13 -11 189.861 94.4831  10
   8 -21 -11-14.9624 115.946  10
  13   8  11 68.8755 75.5383   9
   8  13  11 128.308 80.0417   9
  -8  21 -11 162.507 109.848   8
 -13  21 -12 140.101 95.8826   8
 -13  -8 -12 100.606 100.964  10
  -8 -13 -12-4.84256 71.8470  10
   8 -21 -12 11.4424 107.959  10
  13   8  12 19.7742 70.8899   9
   8  13  12 114.382 74.2663   9
  -8  21 -12-3.74468 94.8882   8
 -13  21 -13 23.5583 86.9545   8
  -8 -13 -13 43.8031 63.8653  10
   8 -21 -13 27.6379 95.9017  10
  13 -21 -13 14.9463 104.821  10
  13   8  13 69.2364 67.4732   9
   8  13  13 32.2660 65.6289   9
  -8  21 -13-68.0989 88.1340   8
  -8 -13 -14 116.181 57.7479  10
  13 -21 -14 14.7541 89.7174  10
   8 -21 -14 13.9328 87.7535  10
   8  13  14-13.3123 59.2269   9
  -8  21 -14-213.540 79.3337   8
 -13  21 -14 31.6339 77.5952   8
  14   7   0 1592.45 170.930   6
   7  14   0 1236.06 156.603   6
  14 -21   0 1568.76 157.979  11
 -14  21   0 1150.91 177.534   8
  -7  21   0 1246.14 167.544   8
  14   7  -1 1236.41 156.613   6
  14 -21   1 1079.28 147.203  11
  14   7   1 982.138 159.199   6
   7  14   1 560.040 133.940   6
   7  14  -1 1082.85 150.980   6
  14 -21  -1 1035.48 146.302  11
  -7  21   1 810.601 146.302   8
 -14  21   1 832.726 160.573   8
  -7  21  -1 991.565 150.060   8
 -14  21  -1 899.360 169.550   8
  14   7   2 1451.41 177.707   6
  14   7  -2 1327.12 161.880   6
   7  14   2 1086.50 149.706   6
   7  14  -2 1183.58 161.153   6
  -7  21   2 1318.22 151.964   6
  14 -21  -2 1374.33 156.922  11
  14 -21   2 1761.10 162.518  11
  21 -14  -2 1238.41 149.102  11
  -7  21  -2 1389.46 160.382   8
 -14  21   2 1006.13 167.576   8
 -14  21  -2 954.506 155.761   8
  14   7   3 928.564 170.470   6
  14   7  -3 802.614 148.822   6
   7  14   3 545.333 135.551   6
   7  14  -3 480.589 140.429   6
  14 -21  -3 724.198 135.408  11
  21 -14  -3 509.015 123.124  11
  -7  21  -3 603.556 149.809   8
 -14  21  -3 334.014 132.887   8
  14   7   4 746.464 169.599   6
  14 -21  -4 628.235 138.371  11
  21 -14  -4 447.545 132.726  11
  14   7  -4 438.376 135.460   6
   7  14  -4 557.591 149.788   6
  14   7   4 557.625 117.782   9
  -7  21  -4 519.520 144.001   8
 -14  21  -4 504.464 145.315   8
  14   7  -5 593.145 145.377   6
   7  14  -5 669.841 151.542   6
  14   7   5 784.027 118.308   9
  -7  21  -5 648.136 143.776   8
 -14  21  -5 557.564 137.840   8
  14   7  -6 277.627 126.202   6
   7  14  -6 369.716 139.729   6
  14   7   6 267.818 103.017   9
  -7  21  -6 353.662 129.698   6
  -7  21  -6 425.529 139.159   8
 -14  21  -6 289.769 125.703   8
 -14  21  -7 814.344 143.758   8
  14   7  -7 604.046 140.970   6
   7  14  -7 866.616 152.997   6
  14   7   7 814.068 120.583   9
  -7  21  -7 832.820 144.479   6
  -7  21  -7 916.008 148.190   8
 -14  21  -8 214.001 117.021   8
   7  14  -8 167.030 121.323   6
  14   7   8 434.206 109.013   9
   7  14   8 234.657 95.4682   9
  -7  21  -8 221.283 118.790   6
  -7  21  -8 263.844 129.122   8
 -14  21  -9 242.048 113.270   8
   7  14  -9 307.566 119.054   6
  14   7   9 355.248 100.324   9
   7  14   9 192.797 87.5791   9
  -7  21  -9 294.637 114.911   6
  -7  21  -9 468.318 131.420   8
 -14  21 -10 166.028 98.7289   8
 -14  -7 -10 207.915 115.211  10
  14   7  10 87.9899 85.0139   9
  -7  21 -10 181.635 99.9500   6
   7 -21 -10 143.729 121.219  10
   7  14  10 88.2840 82.0292   9
  -7  21 -10 278.855 117.971   8
 -14  21 -11 27.6478 88.9416   8
 -14  -7 -11 14.0129 109.015  10
  -7 -14 -11 82.1303 87.4959  10
   7 -21 -11 82.0271 106.587  10
  14   7  11 5.21684 72.9137   9
   7  14  11 10.8703 71.3869   9
  -7  21 -11 72.2384 103.291   8
 -14  21 -12-8.50659 84.1895   8
 -21  14 -12-7.95489 76.5441   8
  -7 -14 -12 9.77528 67.0975  10
   7 -21 -12-198.356 109.293  10
  14   7  12-14.3698 71.1653   9
   7  14  12 12.8744 68.1366   9
  -7  21 -12-33.5249 98.4217   8
 -14  21 -13-50.5310 81.0913   8
 -21  14 -13 13.6427 71.1080   8
  -7 -14 -13-169.169 66.0933  10
  14 -21 -13 49.3901 103.320  10
  14   7  13 94.8127 69.1728   9
   7  14  13 51.6730 64.8665   9
   7 -21 -13 142.799 96.8550  10
  -7  21 -13-52.1812 84.7281   8
 -21  14 -14 90.6411 63.8037   8
  14 -21 -14 5.30110 92.0652  10
  -7 -14 -14-58.6193 51.1395  10
   7 -21 -14-3.33062 82.3348  10
   7  14  14 22.4193 56.2508   9
 -14  21 -14 111.576 80.7773   8
  15   6   0 1704.00 177.148   6
   6  15   0 1339.51 158.823   6
  -6  21   0 1544.64 158.542   6
  15 -21   0 1735.33 170.748  11
  -6  21   0 1456.61 161.976   8
 -15  21   0 1842.37 191.074   8
  15   6   1 3079.58 209.636   6
  15   6  -1 3151.63 198.555   6
   6  15   1 2793.16 184.684   6
   6  15  -1 2974.90 192.761   6
  -6  21   1 2752.35 180.822   6
  -6  21  -1 2788.03 185.378   6
  15 -21   1 3566.16 198.759  11
  15 -21  -1 3308.43 193.328  11
  -6  21   1 3010.96 189.868   8
 -15  21   1 3126.09 217.520   8
  -6  21  -1 3262.57 198.397   8
 -15  21  -1 3624.81 227.121   8
  15   6   2 4101.92 233.143   6
  15   6  -2 3530.50 206.917   6
   6  15   2 3759.24 205.475   6
   6  15  -2 3612.13 214.017   6
  -6  21   2 3482.19 191.549   6
  -6  21  -2 3435.43 203.114   6
  15 -21  -2 3593.97 203.292  11
  21 -15  -2 4042.44 197.188  11
  15 -21   2 4402.22 224.185  11
 -15  21   2 3984.41 232.916   8
  -6  21  -2 4090.53 212.129   8
 -15  21  -2 4326.87 227.210   8
  15   6   3 2964.46 214.369   6
  15   6  -3 2522.35 185.033   6
   6  15   3 2549.30 177.929   6
   6  15  -3 2748.33 202.048   6
  -6  21  -3 2616.01 182.451   6
  15 -21  -3 2632.29 181.563  11
  -6  21  -3 2793.03 194.188   8
 -15  21  -3 3074.74 203.323   8
  21 -15  -3 2663.75 175.444  11
  15   6   4 2668.08 208.711   6
  15   6  -4 2106.90 173.034   6
   6  15  -4 2038.41 187.574   6
  -6  21  -4 1981.17 170.827   6
  21 -15  -4 2085.16 164.814  11
  15 -21   4 2662.14 179.485  11
  15   6   4 2141.17 139.298   9
  -6  21  -4 1836.80 177.027   8
  15 -21  -4 2257.82 176.728  11
 -15  21  -4 2156.24 185.322   8
  15   6  -5 2247.47 178.300   6
   6  15  -5 2387.97 194.900   6
  -6  21  -5 2112.10 174.296   6
  21 -15  -5 2251.18 171.783  11
  15   6   5 2035.02 141.443   9
  -6  21  -5 2253.45 184.908   8
 -15  21  -5 2062.91 177.925   8
 -15  21  -6 974.835 144.703   8
  15   6  -6 992.777 143.625   6
   6  15  -6 1110.91 159.295   6
  21 -15  -6 904.908 146.204  11
  15   6   6 1083.74 119.204   9
  -6  21  -6 901.489 142.911   6
  -6  21  -6 943.472 155.045   8
  15   6  -7 2144.90 173.803   6
   6  15  -7 1861.85 177.179   6
  -6  21  -7 1980.21 171.423   6
  15   6   7 2059.49 150.735   9
  -6  21  -7 2510.48 184.315   8
 -15  21  -7 2187.12 162.186   8
 -15  21  -8 697.965 129.373   8
   6  15  -8 938.698 140.196   6
  15   6   8 880.649 117.534   9
  -6  21  -8 803.923 133.752   6
   6  15   8 520.406 100.992   9
  -6  21  -8 961.294 143.789   8
 -15  21  -9 459.900 112.511   8
   6  15  -9 811.158 130.430   6
  15   6   9 621.011 108.418   9
  -6  21  -9 678.922 122.324   6
   6  15   9 437.232 94.4293   9
  -6  21  -9 776.102 132.928   8
 -15  21 -10 291.000 96.6070   8
   6 -21 -10 49.6622 102.120  10
  15   6  10 288.194 87.9282   9
  -6  21 -10 272.143 105.425   6
   6  15  10 211.346 81.1046   9
  -6  21 -10 387.511 114.923   8
 -15  21 -11 119.911 92.1744   8
 -21  15 -11 33.0898 81.6346   8
  -6 -15 -11 197.965 84.5437  10
   6 -21 -11-41.3309 98.4234  10
  15   6  11 138.580 75.3659   9
   6  15  11 101.695 75.5927   9
  -6  21 -11 173.470 104.854   8
 -15  21 -12 69.6891 83.4309   8
 -21  15 -12 150.532 77.1979   8
  -6 -15 -12-15.2707 63.9289  10
   6 -21 -12 20.5562 89.5503  10
  15   6  12 29.7444 70.2516   9
   6  15  12-57.7534 68.4708   9
 -15  21 -13 22.1187 81.0182   8
 -21  15 -13 68.7627 66.8615   8
  -6 -15 -13-11.3713 56.3942  10
   6 -21 -13-181.606 91.9386  10
  15 -21 -13-195.226 107.253  10
   6  15  13 62.9939 61.4967   9
 -21  15 -14-53.5726 60.3225   8
  -6 -15 -14 60.5336 48.6063  10
  15 -21 -14-48.2117 89.2690  10
   6  15  14 10.5476 53.1109   9
 -15  21 -14 71.4013 75.1276   8
  16   5   0 3287.42 207.612   6
   5  16   0 3021.91 190.513   6
  -5  21   0 2832.52 183.922   6
  -5  21   0 2706.87 193.346   8
 -16  21   0 3550.12 232.600   8
  16 -21   0 3186.48 188.893  11
  16   5   1 3132.65 211.985   6
  16   5  -1 2936.20 197.113   6
   5  16   1 2802.11 184.814   6
   5  16  -1 2588.73 187.148   6
  -5  21   1 2691.67 179.530   6
  -5  21  -1 2343.81 181.225   6
  16 -21  -1 2687.67 181.454  11
  16 -21   1 2932.19 186.625  11
  21 -16  -1 2643.28 161.093  11
  -5  21  -1 2561.83 189.848   8
 -16  21   1 3216.30 226.498   8
 -16  21  -1 3087.44 217.316   8
  16   5   2 3001.44 216.248   6
  16   5  -2 2546.84 186.906   6
   5  16   2 2548.96 181.505   6
   5  16  -2 2325.94 189.485   6
  -5  21   2 2466.39 176.494   6
  -5  21  -2 2345.18 179.162   6
  16 -21  -2 2436.46 179.139  11
  21 -16  -2 2521.16 169.605  11
  16 -21   2 3283.12 194.490  11
 -16  21   2 3005.24 222.702   8
  -5  21  -2 2725.62 196.549   8
 -16  21  -2 2938.93 215.170   8
  16   5   3 2428.35 207.182   6
  16   5  -3 1978.42 171.925   6
   5  16   3 2119.60 169.581   6
   5  16  -3 2088.02 186.685   6
  -5  21  -3 2103.96 173.944   6
  16 -21  -3 2263.26 167.721  11
  16 -21   3 2430.59 178.196  11
  21 -16  -3 2258.08 166.575  11
  -5  21  -3 2547.98 184.554   8
 -16  21  -3 2444.98 194.841   8
  16   5   4 2144.50 200.948   6
  16   5  -4 2349.23 180.093   6
   5  16  -4 1947.11 185.805   6
  -5  21  -4 2292.24 178.849   6
  21 -16  -4 2148.05 180.108  11
  16 -21  -4 1808.00 165.140  11
  16   5   4 2238.46 141.228   9
  -5  21  -4 2701.74 186.851   8
 -16  21  -4 1876.33 184.109   8
  16 -21   4 2600.44 179.112  11
  16   5  -5 1864.60 168.721   6
   5  16  -5 2011.65 186.142   6
  -5  21  -5 1782.32 167.863   6
  21 -16  -5 1882.97 167.238  11
  16   5   5 2111.62 145.251   9
  -5  21  -5 2078.34 177.918   8
 -16  21  -5 2012.66 174.056   8
   5  16  -6 1179.72 158.274   6
  21 -16  -6 1247.27 144.636  11
  16   5  -6 877.901 138.938   6
  16   5   6 1158.70 122.091   9
  -5  21  -6 1010.63 144.639   6
  -5  21  -6 1453.63 153.989   8
 -16  21  -6 1031.48 140.770   8
  16   5  -7 1390.40 153.466   6
   5  16  -7 1456.57 166.111   6
  -5  21  -7 1557.70 162.125   6
  16   5   7 1572.09 137.606   9
  -5  21  -7 1821.95 166.848   8
 -16  21  -7 1239.30 145.669   8
   5  16  -8 1381.90 153.900   6
  16   5   8 1288.38 125.539   9
  -5  21  -8 1012.37 136.620   6
  -5  21  -8 1345.75 156.156   8
 -16  21  -8 1090.36 135.748   8
 -16  21  -9 732.781 121.829   8
   5  16  -9 974.665 132.352   6
  16   5   9 977.679 112.754   9
  -5  21  -9 882.407 126.388   6
   5  16   9 760.626 102.863   9
  -5  21  -9 1146.62 139.391   8
 -16  21 -10 240.019 92.7845   8
 -21  16 -10 297.790 95.0992   8
   5 -21 -10 40.7615 95.6015  10
  16   5  10 298.535 91.3457   9
  -5  21 -10 536.707 110.361   6
   5  16  10 241.738 82.8468   9
  -5  21 -10 327.678 112.825   8
 -16  21 -11 104.500 89.2257   8
 -21  16 -11 168.805 80.1393   8
  -5 -16 -11 29.1288 70.3324  10
   5 -21 -11-31.9516 86.9256  10
  16   5  11 203.145 77.8085   9
   5  16  11 122.713 75.3334   9
 -16  21 -12 38.8645 81.7981   8
 -21  16 -12 100.244 74.4212   8
  -5 -16 -12-159.010 68.5592  10
   5 -21 -12-26.5629 80.5912  10
   5  16  12 50.8190 67.1143   9
  -5  21  12 10.6681 63.8378   9
 -16  21 -13 187.528 80.2632   8
 -21  16 -13 107.502 69.2573   8
  -5 -16 -13 102.735 54.2875  10
   5 -21 -13 14.2874 77.4649  10
  16 -21 -13-124.924 100.982  10
   5  16  13 107.717 61.6955   9
 -21  16 -14 138.079 60.9958   8
  -5 -16 -14-29.2090 43.4725  10
   5 -21 -14 83.1780 75.4940  10
  16 -21 -14-7.44157 85.9787  10
   5  16  14-46.7820 53.6694   9
 -16  21 -14-11.5098 77.5435   8
  17   4   0 2352.63 190.247   6
   4  17   0 2187.02 176.190   6
  -4  21   0 2033.33 168.312   6
  17 -21   0 2205.88 165.625  11
  -4  21   0 2433.36 178.379   8
 -17  21   0 2622.29 224.449   8
  17   4   1 2503.16 199.263   6
  17   4  -1 2217.25 182.604   6
   4  17   1 2274.98 175.398   6
   4  17  -1 2257.23 181.657   6
  -4  21   1 2076.35 166.411   6
  -4  21  -1 2318.09 176.301   6
  17 -21  -1 2364.71 169.494  11
  17 -21   1 2556.10 174.723  11
  21 -17  -1 2263.61 158.354  11
  -4  21  -1 2510.62 182.675   8
 -17  21   1 2833.85 222.955   8
 -17  21  -1 3151.19 224.450   8
  17   4   2 2826.11 210.289   6
  17   4  -2 2398.92 183.394   6
   4  17   2 2570.83 181.357   6
   4  17  -2 2529.10 191.180   6
  -4  21   2 2498.24 175.907   6
  -4  21  -2 2577.28 182.779   6
  17 -21   2 2389.20 180.355  11
  21 -17  -2 2473.51 169.098  11
  17 -21  -2 2850.11 177.510  11
  -4  21  -2 2891.00 189.514   8
 -17  21  -2 3171.18 221.325   8
  17   4   3 2192.40 198.666   6
  17   4  -3 1951.58 168.811   6
   4  17   3 2174.06 170.284   6
   4  17  -3 1916.95 179.442   6
  -4  21  -3 2021.08 170.334   6
  17 -21  -3 1963.46 163.226  11
  17 -21   3 2535.55 175.542  11
  21 -17  -3 2079.05 164.967  11
  -4  21  -3 2243.35 178.615   8
 -17  21  -3 2483.79 196.832   8
  17   4  -4 2238.85 176.747   6
   4  17  -4 2640.86 197.988   6
  -4  21  -4 2354.14 179.834   6
  21 -17  -4 2565.53 178.932  11
  17 -21   4 3291.16 191.190  11
  17 -21  -4 2797.89 176.677  11
  -4  21  -4 2922.87 188.708   8
 -17  21  -4 2830.39 201.130   8
  17   4  -5 1906.27 170.233   6
   4  17  -5 2368.52 192.785   6
  -4  21  -5 2298.53 178.997   6
  17 -21  -5 2526.98 170.653  11
  21 -17  -5 1992.46 174.823  11
  17   4   5 2140.00 139.619   9
  -4  21  -5 2308.41 177.612   8
 -17  21  -5 2387.49 188.478   8
  21 -17  -6 844.455 133.989  11
  17   4  -6 474.677 120.676   6
   4  17  -6 772.270 142.605   6
  17   4   6 628.655 102.714   9
  -4  21  -6 577.696 128.366   6
  -4  21  -6 824.201 140.927   8
 -17  21  -6 730.370 129.054   8
  17   4  -7 1479.09 150.297   6
   4  17  -7 1853.30 173.861   6
  -4  21  -7 1672.96 162.363   6
  17   4   7 1688.44 137.972   9
  -4  21  -7 1993.83 174.892   8
 -17  21  -7 1538.33 145.506   8
 -17  21  -8 322.743 103.642   8
   4  17  -8 336.625 120.558   6
   4 -21  -8 24.9835 111.426  10
  17   4   8 357.136 100.643   9
 -17  21  -9 294.306 95.4471   8
 -21  17  -9 463.951 104.906   8
   4  17  -9 601.209 117.485   6
   4 -21  -9 93.7741 104.580  10
  17   4   9 534.338 99.1512   9
  -4  21  -9 569.096 117.615   6
   4  17   9 327.435 87.5480   9
 -17  21 -10 264.838 93.2484   8
 -21  17 -10 317.096 89.0766   8
   4 -21 -10 133.476 95.6298  10
  17   4  10 239.567 84.4519   9
  -4  21 -10 222.098 98.3221   6
   4  17  10 247.637 80.4586   9
 -17  21 -11 139.322 83.6699   8
  -4 -17 -11-1.14998 67.9630  10
   4 -21 -11-19.8540 79.5206  10
   4  17  11 115.752 73.7953   9
 -17  21 -12 112.120 82.7903   8
 -21  17 -12-41.4830 72.5094   8
  -4 -17 -12 13.4697 58.0909  10
   4 -21 -12-25.6425 71.1472  10
   4  17  12 39.9459 65.3515   9
  -4  21  12 27.4533 60.8825   9
 -17  21 -13 33.9015 77.9979   8
 -21  17 -13 2.43432 64.2668   8
  -4 -17 -13-10.9156 46.0998  10
   4 -21 -13 41.7124 75.4111  10
  17 -21 -13 32.7184 96.7635  10
   4  17  13 53.3168 58.6880   9
  -4  21  13-17.0719 56.7352   9
 -21  17 -14 22.8024 58.9761   8
  17 -21 -14 0.80001 81.8102  10
   4  17  14 88.3446 51.5802   9
 -17  21 -14 32.2880 73.0377   8
  18   3   0 591.156 148.172   6
  18 -21   0 804.559 131.839  11
  21 -18   0 802.514 114.746  11
   3  18   0 654.028 137.244   6
  -3  21   0 679.359 133.889   6
  18   3   1 626.909 154.541   6
  18   3  -1 617.151 138.478   6
  18 -21   1 632.810 130.925  11
  18 -21  -1 727.893 129.788  11
  21 -18  -1 552.123 119.123  11
   3  18   1 743.975 137.541   6
   3  18  -1 535.647 135.336   6
  -3  21   1 674.785 133.041   6
  -3  21  -1 630.821 132.517   6
  -3  21  -1 749.815 140.157   8
 -18  21  -1 1109.09 193.998   8
  18   3  -2 1383.72 158.644   6
   3  18   2 1394.05 154.608   6
   3  18  -2 1398.95 161.359   6
  -3  21   2 1281.08 145.798   6
  -3  21  -2 1135.99 150.051   6
  18 -21  -2 1229.26 143.449  11
  21 -18  -2 1053.64 134.437  11
  -3  21  -2 1602.90 162.393   8
 -18  21  -2 1826.82 203.238   8
  18 -21   2 1458.38 154.546  11
  18 -21   3 707.510 127.606  11
  18   3  -3 476.677 126.100   6
  18 -21  -3 421.542 115.726  11
   3  18  -3 365.469 134.852   6
  21 -18  -3 365.465 118.207  11
  -3  21  -3 501.416 130.594   6
  -3  21  -3 532.125 137.327   8
 -18  21  -3 569.965 156.706   8
  18 -21  -4 672.941 122.367  11
  21 -18  -4 596.317 127.560  11
   3  18  -4 701.741 143.664   6
  18   3  -4 892.610 138.448   6
  -3  21  -4 598.941 131.753   6
  -3  21  -4 812.981 147.119   8
 -18  21  -4 900.137 159.530   8
  18   3  -5 661.358 127.737   6
  21 -18  -5 663.863 134.157  11
   3  18  -5 705.289 144.388   6
  18   3   5 678.827 105.446   9
  -3  21  -5 587.089 129.661   6
  18 -21  -5 744.085 124.020  11
 -18  21  -5 771.568 143.135   8
  18   3  -6 132.304 107.215   6
   3  18  -6 331.276 123.765   6
  18   3   6 69.5742 88.3527   9
  -3  21  -6 99.7030 109.777   6
  21 -18  -6 83.8650 111.910  11
 -18  21  -6 39.0294 107.929   8
 -18  21  -7 808.812 125.031   8
  -3  21  -7 1117.86 147.758   6
   3  18  -7 1047.80 149.876   6
  18   3   7 995.355 119.729   9
 -18  21  -8 236.301 97.3563   8
   3  18  -8 169.632 113.194   6
   3 -21  -8-35.5295 99.3784  10
  18   3   8 205.884 91.7356   9
  -3  21  -8 164.115 108.453   6
 -18  21  -9 62.1150 81.7736   8
 -21  18  -9 43.4282 89.3329   8
   3  18  -9-11.3205 102.095   6
   3 -21  -9 74.0842 100.902  10
  18   3   9 108.071 83.9208   9
  -3  21  -9 39.9513 98.8895   6
 -18  21 -10 41.2784 82.4327   8
 -21  18 -10 171.561 83.2733   8
   3 -21 -10 37.5042 85.6456  10
  -3  21 -10 84.0867 95.0050   6
   3  18  10 99.4669 71.6879   9
 -18  21 -11 82.5574 80.5954   8
 -21  18 -11 4.13893 73.2252   8
  -3 -18 -11 26.0479 64.3501  10
   3 -21 -11-41.6410 77.0863  10
   3  18  11 25.9838 66.5840   9
 -18  21 -12 36.9560 77.6468   8
 -21  18 -12 24.3158 67.5756   8
  -3 -18 -12 15.4045 51.3226  10
   3 -21 -12 6.77330 69.9995  10
   3  18  12 19.9756 60.6336   9
  -3  21  12-11.7996 61.3320   9
 -21  18 -13 84.0708 63.8316   8
  -3 -18 -13 53.7662 47.1902  10
  18 -21 -13 26.2525 93.4172  10
   3  18  13 97.7419 57.3934   9
  -3  21  13 40.8912 55.6039   9
   3 -21 -13 197.913 76.4298  10
 -18  21 -13 61.7488 71.2106   8
  21 -19   0 567.014 113.069  11
   2  19   0 698.259 134.929   6
  -2  21   0 672.083 130.772   6
  19 -21   0 803.220 123.615  11
  19   2  -1 91.6018 120.701   6
  19 -21  -1 207.708 109.666  11
   2  19   1 229.457 119.924   6
   2  19  -1 254.867 125.913   6
  21 -19   1 94.4578 98.2942  11
  -2  21   1 197.974 119.206   6
  -2  21  -1 217.468 120.303   6
  19 -21   1 228.956 112.335  11
  21 -19  -1 170.925 108.103  11
  19   2  -2 551.696 131.780   6
  19 -21  -2 410.943 111.455  11
   2  19   2 594.926 130.335   6
   2  19  -2 503.130 132.635   6
  -2  21   2 533.917 129.090   6
  -2  21  -2 398.839 124.225   6
  19 -21   2 480.425 121.502  11
  -2  21  -2 740.256 134.770   8
  21 -19  -2 445.678 110.880  11
  19   2  -3 320.140 120.482   6
  19 -21  -3 183.564 109.553  11
  21 -19  -3 260.666 106.294  11
  19 -21   3 252.562 113.665  11
   2  19  -3 230.554 124.054   6
  -2  21  -3 221.593 118.781   6
 -19  21  -3 405.732 156.794   8
   2  19  -4 504.078 132.284   6
  -2  21  -4 444.676 129.045   6
  21 -19  -4 393.512 124.086  11
  19 -21  -4 351.872 111.457  11
 -19  21  -4 592.444 146.299   8
  19 -21  -5 148.203 103.664  11
   2  19  -5 278.235 120.186   6
  21 -19  -5 244.992 111.949  11
  -2  21  -5 248.875 114.855   6
 -19  21  -5 148.609 117.806   8
   2  19  -6 276.643 121.399   6
  -2  21  -6 107.480 110.766   6
  21 -19  -6 12.4332 112.404  11
 -19  21  -6 44.7077 106.811   8
   2  19  -7 217.449 122.433   6
  -2  21  -7 169.011 117.678   6
 -19  21  -7 155.991 107.012   8
 -19  21  -8 228.846 101.362   8
 -21  19  -8 243.137 102.856   8
   2  19  -8 209.665 113.427   6
  -2  21  -8 229.674 111.278   6
 -19  21  -9 139.105 87.0740   8
 -21  19  -9 281.188 93.3802   8
   2  19  -9 112.936 105.253   6
   2 -21  -9-33.3558 84.0935  10
  -2  21  -9 118.462 101.708   6
 -19  21 -10 24.9434 78.4364   8
 -21  19 -10 111.623 76.6182   8
   2 -21 -10 25.1539 81.0062  10
  -2  21 -10 38.8323 96.3123   6
   2  19  10 107.389 72.0700   9
 -19  21 -11 86.7656 76.2862   8
 -21  19 -11 68.6283 74.4720   8
  -2 -19 -11-38.5913 60.5414  10
   2 -21 -11 87.4330 70.5260  10
   2  19  11 18.4043 65.4867   9
  -2  21  11 19.0469 63.7881   9
 -19  21 -12 54.2946 71.5253   8
 -21  19 -12 103.179 68.1749   8
  -2 -19 -12 60.7634 52.2173  10
   2 -21 -12 131.267 70.4530  10
   2  19  12 22.0063 61.9721   9
  -2  21  12-35.1889 60.2267   9
 -21  19 -13 37.4826 63.0670   8
  -2 -19 -13 148.203 55.3131  10
   2 -21 -13 4.91063 66.7143  10
  19 -21 -13-83.4785 93.2264  10
   2  19  13 27.5563 53.6038   9
  -2  21  13 90.5001 54.8954   9
 -19  21 -13 78.7337 70.3845   8
  20 -21   0 74.8162 104.805  11
  21 -20   0 71.5324 98.7484  11
   1  20   0 50.9589 116.975   6
  -1  21   0 35.4296 114.891   6
  20 -21  -1 63.9254 104.457  11
  20 -21   1 24.6989 99.8926  11
  21 -20   1 52.7641 98.7506  11
   1  20   1 74.6650 116.385   6
   1  20  -1 158.447 123.160   6
  -1  21   1 67.5365 116.370   6
  -1  21  -1 114.242 117.267   6
  21 -20  -1-41.1582 99.2542  11
  21 -20  -2 192.003 102.011  11
  20 -21   2 81.7840 102.975  11
   1  20   2 90.1677 112.293   6
  -1  21   2 92.1038 113.857   6
   1  20  -2 43.0603 116.778   6
  21 -20   2 117.004 99.2598  11
  20 -21  -2-12.8199 103.132  11
  -1  21  -2 167.867 116.564   6
  21 -20  -3-25.8067 93.6956  11
   1  20  -3 54.4477 114.121   6
  -1  21  -3 33.0546 111.749   6
  20 -21  -3 60.7175 97.5134  11
  20 -21   3 124.985 99.0105  11
  21 -20  -4 87.6349 98.9689  11
   1  20  -4 151.916 117.633   6
  20 -21  -4 87.9896 101.266  11
  -1  21  -4 209.936 120.573   6
 -20  21  -4 114.343 135.899   8
  20 -21  -5-20.4844 94.8898  11
  21 -20  -5 36.4671 105.520  11
   1  20  -5-86.1282 111.471   6
  -1  21  -5 75.1392 109.499   6
 -20  21  -5 98.5122 118.171   8
   1  20  -6 210.357 119.596   6
  -1  21  -6 28.6401 110.475   6
 -20  21  -6 48.6476 110.121   8
   1  20  -7 13.4940 107.838   6
  -1  21  -7 70.2724 108.611   6
 -20  21  -7 73.1563 99.4027   8
 -21  20  -7-6.57806 102.138   8
 -21  20  -8 173.651 91.8568   8
   1  20  -8-74.7592 106.542   6
  -1  21  -8-36.5116 106.042   6
 -20  21  -8 58.9643 91.3262   8
 -20  21  -9 7.88640 82.1694   8
 -21  20  -9 64.2734 80.3096   8
   1  20  -9 62.9477 99.4320   6
  -1  21  -9-64.1184 100.450   6
 -20  21 -10 101.081 74.7895   8
 -21  20 -10 6.29922 75.7871   8
   1 -21 -10-130.398 76.2910  10
  -1  21 -10-255.533 103.392   6
   1  20  10-50.3122 69.6329   9
 -20  21 -11-24.8259 72.0408   8
 -21  20 -11 72.5551 70.9968   8
  -1 -20 -11-71.3377 59.0549  10
   1 -21 -11 0.76414 65.0631  10
   1  20  11 0.98386 64.5445   9
  -1  21  11 47.8466 65.1430   9
  -1 -20 -12 70.1017 53.8488  10
   1 -21 -12 44.1314 61.0263  10
   1  20  12-45.4577 58.7980   9
  -1  21  12-48.8679 59.4442   9
 -20  21 -12 57.6709 67.3576   8
 -21  20 -12-63.8727 64.6894   8
  20 -21 -13-36.8503 83.6134  10
   1  20  13 11.0779 51.7456   9
  -1  21  13 7.29879 52.0717   9
 -20  21 -13-43.9405 64.6127   8
 -21  20 -13-28.0167 60.0572   8
  21 -21   0-51.1175 105.279  11
   0  21   0 107.177 114.046   6
  21 -21  -1 288.312 106.592  11
  21 -21   1 302.327 105.639  11
   0  21  -1 165.067 117.071   6
   0  21   1 252.936 118.945   6
   0  21   2 357.227 122.459   6
  21 -21   2 219.149 103.561  11
   0  21  -2 401.156 122.475   6
  21 -21  -2 329.767 107.212  11
  21 -21  -3 119.234 94.7919  11
  21 -21   3 49.3514 91.6928  11
   0  21  -3 99.1504 113.087   6
  21 -21  -4 20.1717 99.8327  11
   0  21  -4-65.1261 108.624   6
  21 -21  -5 86.3253 95.7712  11
   0  21  -5 94.1812 108.111   6
   0  21  -6 46.8138 112.236   6
 -21  21  -6 136.603 115.689   8
   0  21  -7 326.567 120.046   6
 -21  21  -7 386.268 109.717   8
   0  21  -8 117.345 105.827   6
 -21  21  -8 16.7629 86.0471   8
   0  21  -9 20.9311 98.5769   6
 -21  21  -9 98.9791 82.6468   8
   0  21 -10 121.658 91.7220   6
   0  21  10 12.7563 66.6230   9
 -21  21 -10-77.0658 76.7204   8
   0  21  11 34.8315 63.7022   9
 -21  21 -11 160.460 73.0636   8
   0 -21 -12-92.8618 56.8506  10
   0  21  12 48.4229 57.2940   9
 -21  21 -12 39.7577 62.5287   8
  11  11   0 8678.84 292.993   6
 -11  22   0 9155.55 293.446   8
  11  11   1 11566.8 328.773   6
  11  11  -1 11249.2 330.675   6
 -11  22   1 11597.1 328.375   8
  11  11   2 7403.78 272.772   6
  11  11  -2 7892.61 286.138   6
 -11  22   2 6490.37 259.831   8
 -11  22  -2 6618.65 269.715   8
  11  11   3 5708.95 248.860   6
  11  11  -3 6196.53 261.507   6
 -11  22  -3 5532.40 242.876   8
  11  11  -4 5576.08 252.772   6
  11  11   4 5128.10 198.016   9
 -11  22  -4 5392.91 242.692   8
  11  11   5 5332.22 200.251   9
 -11  22  -5 5409.80 241.833   8
  11  11   6 4380.41 185.089   9
 -11  22  -6 4375.49 225.923   8
  11  11  -7 2174.01 178.534   6
  11  11   7 2093.43 144.466   9
 -11  22  -7 1708.98 167.267   8
  11  11  -8 2967.20 190.669   6
  11  11   8 3000.55 161.818   9
 -11  22  -8 2981.73 185.749   8
  11  11   9 1876.31 130.767   9
 -11  22  -9 1851.33 152.443   8
 -11  22 -10 951.578 123.544   6
  11  11  10 836.407 99.4820   9
 -11  22 -10 704.411 123.104   8
  11  11  11 603.157 88.9231   9
 -11  22 -11 556.948 117.744   8
 -11 -11 -12 145.072 75.1314  10
  11 -22 -12 15.1695 104.381  10
  11  11  12 273.137 75.2771   9
 -11  22 -12 254.745 93.8343   8
 -11 -11 -13 226.370 68.7819  10
  11 -22 -13 10.6522 95.4890  10
  11  11  13 202.459 69.6931   9
 -11  22 -13 78.5364 88.0282   8
  11 -22 -14 62.7196 86.0176  10
  11  11  14-12.8805 57.5441   9
 -11  22 -14 85.2563 78.6444   8
  12  10   0 858.432 156.150   6
  10  12   0 927.695 155.906   6
 -10  22   0 911.219 162.222   8
 -12  22   0 682.583 157.106   8
  12  10   1 1850.26 185.376   6
  12  10  -1 1631.62 181.089   6
  10  12   1 2154.98 186.978   6
  10  12  -1 2391.46 197.383   6
  12 -22  -1 1169.29 159.233  11
 -10  22   1 1571.69 178.920   8
 -12  22   1 1923.95 193.144   8
 -10  22  -1 1351.59 171.118   8
 -12  22  -1 1804.01 191.849   8
  12  10  -2 1139.85 166.962   6
  10  12  -2 1302.31 170.236   6
  12 -22  -2 1557.20 168.991  11
  12  10   2 1044.43 166.167   6
  10  12   2 1119.90 159.968   6
 -12  22  -2 1178.92 168.137   8
 -12  22   2 704.716 159.477   8
 -10  22  -2 946.523 153.416   8
  12  10   3 987.082 164.927   6
  10  12   3 919.341 159.198   6
  12  10  -3 789.348 156.425   6
  10  12  -3 853.192 157.922   6
 -10  22  -3 818.129 160.682   8
 -12  22  -3 573.041 157.170   8
  12  10  -4 493.666 145.204   6
  10  12  -4 1007.40 162.453   6
  12  10   4 698.544 122.503   9
  10  12   4 764.303 121.793   9
  12  10   4 851.896 163.320   6
 -10  22  -4 560.832 146.670   8
 -12  22  -4 610.727 152.165   8
  12  10  -5 740.552 153.099   6
  10  12  -5 1029.01 165.052   6
  10  12   5 817.144 126.118   9
  12  10   5 696.019 121.738   9
 -10  22  -5 677.038 145.028   8
 -12  22  -5 619.189 138.084   8
  10  12  -6 1340.75 172.691   6
  12  10  -6 1051.68 158.896   6
  12  10   6 959.113 130.209   9
  10  12   6 1100.56 127.973   9
 -10  22  -6 1144.35 158.796   8
 -12  22  -6 1029.34 149.529   8
  12  10  -7 240.392 130.186   6
  10  12  -7 70.5179 127.510   6
  12  10   7 380.567 106.804   9
  10  12   7 256.062 104.488   9
 -10  22  -7 256.712 126.997   8
 -12  22  -7 274.845 121.218   8
  12  10  -8 487.559 133.953   6
  10  12  -8 396.731 133.275   6
  12  10   8 435.577 108.811   9
  10  12   8 424.774 103.294   9
 -10  22  -8 610.256 136.008   6
 -10  22  -8 481.994 138.569   8
 -12  22  -8 373.435 127.190   8
  12  10   9 413.957 97.3008   9
  10  12   9 276.975 92.7224   9
 -10  22  -9 246.920 114.553   6
 -10  22  -9 203.781 114.665   8
 -12  22  -9 113.220 112.647   8
  12  10  10 107.944 78.5321   9
  10  12  10 74.7504 78.0249   9
 -10  22 -10 208.587 102.098   6
 -12  22 -10 32.5122 99.2715   6
 -10  22 -10 154.949 112.165   8
 -12  22 -10 16.6870 102.035   8
  10 -22 -11 13.3385 114.455  10
  12  10  11 31.7507 70.5072   9
  10  12  11 38.2087 71.0945   9
 -10  22 -11 152.573 108.407   8
 -12  22 -11 115.402 99.0909   8
 -12 -10 -12 233.953 84.0933  10
 -10 -12 -12 24.0169 68.3815  10
  10 -22 -12 53.0736 105.139  10
  12 -22 -12-22.2892 103.703  10
  12  10  12 100.826 71.2157   9
  10  12  12 85.6176 68.9976   9
 -10  22 -12 70.3330 90.7916   8
 -12  22 -12-12.2818 93.7834   8
 -10 -12 -13 345.013 69.3882  10
  10 -22 -13 122.433 97.0519  10
  12 -22 -13-9.88215 96.6421  10
  12  10  13 92.8617 66.6648   9
  10  12  13 89.0860 66.1979   9
 -10  22 -13 120.439 87.3125   8
 -12  22 -13 124.700 89.5410   8
  10 -22 -14 73.6466 81.6682  10
  12 -22 -14-4.28064 84.6181  10
  10  12  14 42.0038 56.4546   9
 -10  22 -14-58.7656 75.3673   8
 -12  22 -14 39.0982 77.4307   8
  13   9   0 1942.86 181.660   6
   9  13   0 2086.86 178.957   6
  13 -22   0 2177.97 179.417  11
  -9  22   0 2071.24 178.605   8
 -13  22   0 1990.30 190.824   8
  13   9   1 3685.58 217.258   6
  13   9  -1 3653.57 217.494   6
   9  13   1 4218.80 219.653   6
   9  13  -1 3983.93 223.928   6
  13 -22  -1 3171.56 197.397  11
  -9  22   1 3415.06 201.837   8
 -13  22   1 3016.45 218.371   8
  -9  22  -1 3360.98 202.818   8
 -13  22  -1 4098.50 230.186   8
  13   9   2 2363.81 193.781   6
  13   9  -2 2592.71 194.188   6
   9  13   2 2614.53 188.867   6
   9  13  -2 2353.20 190.382   6
  13 -22  -2 2772.50 198.049  11
  22 -13  -2 2210.23 162.946  11
 -13  22   2 2093.74 188.654   8
  -9  22  -2 2876.24 196.273   8
 -13  22  -2 3010.10 205.945   8
  13   9   3 2159.49 192.511   6
  13   9  -3 1957.12 179.514   6
   9  13   3 2127.26 175.092   6
   9  13  -3 2337.56 192.072   6
  -9  22  -3 2082.18 192.247   8
 -13  22  -3 1838.96 179.199   8
  13   9   4 1757.32 183.270   6
  13   9  -4 1498.29 168.930   6
   9  13  -4 1745.65 183.167   6
  13   9   4 1635.08 134.924   9
   9  13   4 1504.34 132.254   9
  -9  22  -4 1800.66 175.677   8
 -13  22  -4 1348.67 168.218   8
  13   9  -5 1285.53 164.782   6
   9  13  -5 2079.16 187.008   6
  13   9   5 1407.05 133.165   9
   9  13   5 1410.66 131.707   9
  -9  22  -5 1793.38 172.999   8
 -13  22  -5 1805.16 162.456   8
  13   9  -6 1426.38 169.471   6
   9  13  -6 1800.23 180.728   6
  13   9   6 1449.26 138.873   9
   9  13   6 1330.59 130.258   9
  -9  22  -6 1511.43 173.756   8
 -13  22  -6 1568.16 160.196   8
   9  13  -7 673.376 145.961   6
  13   9   7 653.772 112.185   9
   9  13   7 560.233 107.790   9
  -9  22  -7 522.650 135.840   6
  13   9  -7 470.171 140.615   6
  -9  22  -7 583.712 143.528   8
 -13  22  -7 461.222 124.385   8
  13   9  -8 944.798 144.708   6
   9  13  -8 1035.34 147.702   6
  13   9   8 995.836 119.849   9
   9  13   8 999.485 118.168   9
  -9  22  -8 1154.86 149.099   8
 -13  22  -8 1121.24 142.188   8
  -9  22  -8 905.867 142.612   6
  13   9   9 504.820 101.636   9
   9  13   9 446.128 95.8736   9
  -9  22  -9 435.999 118.750   6
  -9  22  -9 688.254 128.602   8
 -13  22  -9 320.588 110.188   8
  13   9  10 201.734 86.2076   9
   9  13  10 230.093 80.8114   9
  -9  22 -10 252.513 107.369   6
 -13  22 -10 337.131 105.801   6
  -9  22 -10 445.081 115.404   8
 -13  22 -10 226.964 102.360   8
 -13  -9 -11 429.098 111.656  10
   9 -22 -11 359.468 123.156  10
  13   9  11 318.174 83.2947   9
   9  13  11 134.360 74.6253   9
  -9  22 -11 401.473 110.579   8
 -13  22 -11 283.567 103.768   8
  -9 -13 -12 200.379 73.6479  10
   9 -22 -12 213.318 112.230  10
  13 -22 -12-11.7378 106.610  10
  13   9  12 217.758 74.0486   9
   9  13  12 128.053 71.9655   9
  -9  22 -12 237.030 101.162   8
 -13  22 -12 88.0774 91.3694   8
  -9 -13 -13 316.513 62.6883  10
   9 -22 -13 239.770 101.593  10
  13 -22 -13-67.8104 99.4860  10
  13   9  13 236.250 70.8533   9
   9  13  13 102.694 66.1733   9
  -9  22 -13 155.319 87.2485   8
 -13  22 -13 195.275 91.6417   8
  -9 -13 -14 34.6747 47.6532  10
   9 -22 -14 163.683 84.0168  10
  13 -22 -14 25.6360 83.9679  10
   9  13  14 43.6724 54.9943   9
  -9  22 -14 142.530 76.4387   8
 -13  22 -14 60.4613 78.5950   8
  14 -22   0 959.555 154.820  11
  14   8   0 796.582 149.424   6
   8  14   0 628.785 138.137   6
  -8  22   0 654.171 141.505   8
 -14  22   0 482.048 148.428   8
  14 -22  -1 286.630 134.464  11
  14   8   1 178.060 131.194   6
  14   8  -1 229.115 133.111   6
  14 -22   1 347.295 142.123  11
   8  14   1 134.691 126.016   6
   8  14  -1 56.1389 126.623   6
  -8  22   1 105.156 122.169   8
 -14  22   1 49.9102 142.483   8
  -8  22  -1-96.7673 123.126   8
 -14  22  -1-155.438 140.706   8
  14 -22  -2 576.414 142.362  11
  22 -14  -2 79.5271 114.215  11
  14   8  -2 467.944 136.397   6
  14 -22   2 579.857 141.885  11
   8  14   2 410.357 134.222   6
   8  14  -2 222.658 134.511   6
 -14  22   2-156.117 145.450   8
  -8  22   2 362.430 132.066   6
  14   8   2 364.335 145.130   6
  -8  22  -2 204.001 131.454   8
 -14  22  -2 205.168 138.106   8
  14 -22  -3 615.781 137.382  11
  14   8   3 598.162 154.404   6
  22 -14  -3 303.835 123.054  11
  14   8  -3 637.631 141.763   6
   8  14   3 423.586 131.501   6
   8  14  -3 442.598 145.467   6
  -8  22  -3 422.031 136.974   8
 -14  22  -3 323.148 136.315   8
  14   8  -4 583.423 140.814   6
  14   8   4 570.409 153.088   6
   8  14  -4 795.629 156.155   6
  14   8   4 449.117 105.557   9
  -8  22  -4 514.255 136.579   8
 -14  22  -4 345.008 127.912   8
  14   8  -5 269.837 128.064   6
   8  14  -5 365.282 142.648   6
  14   8   5 235.843 99.5823   9
  -8  22  -5 117.999 129.683   8
 -14  22  -5 74.4776 124.623   8
   8  14  -6 285.538 138.063   6
  14   8  -6 584.238 136.049   6
  14   8   6 246.134 101.597   9
   8  14   6 363.329 104.297   9
  -8  22  -6 356.748 124.370   6
  -8  22  -6 311.914 127.236   8
 -14  22  -6 187.815 126.253   8
  14   8  -7 128.996 123.606   6
   8  14  -7 227.486 128.498   6
  14   8   7 210.574 97.2897   9
   8  14   7 225.454 98.4253   9
  -8  22  -7 288.340 121.794   6
  -8  22  -7 240.372 124.020   8
 -14  22  -7 105.705 110.496   8
  14   8  -8 160.924 119.839   6
   8  14  -8 172.495 119.754   6
  14   8   8 194.142 94.6855   9
   8  14   8 189.327 93.1832   9
  -8  22  -8 197.200 115.649   6
  -8  22  -8 104.522 125.395   8
 -14  22  -8-35.9771 110.500   8
 -14  22  -9-42.5152 100.349   8
   8  14  -9 152.550 110.214   6
  14   8   9 169.193 87.9883   9
   8  14   9 142.946 84.3170   9
  -8  22  -9 21.9845 104.407   6
  -8  22  -9 43.6799 111.319   8
 -14  22 -10 97.2585 92.7602   8
   8 -22 -10-55.0447 113.017  10
  14   8  10 144.660 80.7209   9
  -8  22 -10 237.844 101.637   6
   8  14  10 4.90094 72.9087   9
  -8  22 -10 42.2776 105.279   8
   8 -22 -11 11.1110 109.143  10
  14   8  11 234.287 80.3818   9
   8  14  11-8.74497 71.5176   9
  -8  22 -11-29.4307 97.8863   8
 -14  22 -11 62.9938 86.8751   8
  -8 -14 -12 194.690 65.4924  10
   8 -22 -12 195.731 105.165  10
  14   8  12 49.8577 68.8844   9
   8  14  12 101.355 67.8083   9
  -8  22 -12 159.993 93.6232   8
 -14  22 -12 70.8610 88.3140   8
  -8 -14 -13 103.605 51.9728  10
   8 -22 -13-62.2636 91.9986  10
  14 -22 -13 96.5573 99.0944  10
   8  14  13 45.8841 62.4594   9
  -8  22 -13-25.7046 81.1127   8
 -14  22 -13-18.9826 85.1923   8
  14 -22 -14-9.37494 83.6653  10
   8  14  14-28.0008 52.8062   9
 -14  22 -14 96.7196 79.6575   8
  15 -22   0 263.948 133.499  11
  15   7   0 2.78777 125.957   6
   7  15   0-3.90384 116.762   6
  -7  22   0 146.542 127.536   8
  -7  22   0 161.007 119.943   6
 -15  22   0 150.219 142.293   8
  15 -22  -1 548.481 134.679  11
  15 -22   1 394.652 137.465  11
  15   7  -1 295.571 129.336   6
  22 -15  -1 348.243 112.578  11
   7  15   1 275.091 125.044   6
   7  15  -1 330.186 128.743   6
  15   7   1 322.540 133.706   6
  -7  22   1 472.149 129.195   6
 -15  22   1 404.661 156.628   8
  -7  22  -1 303.727 134.125   8
  -7  22  -1 300.331 125.418   6
 -15  22  -1 143.525 139.830   8
  15 -22   2 418.634 137.644  11
  15   7   2 198.170 136.658   6
  22 -15  -2 59.4932 109.017  11
  15   7  -2 204.555 125.587   6
   7  15   2 139.834 121.391   6
   7  15  -2 152.611 129.765   6
  -7  22   2-30.9839 118.780   6
 -15  22   2 96.9115 144.819   8
  15 -22  -2 192.601 119.053  11
  -7  22  -2 193.575 123.069   6
  -7  22  -2 235.730 133.017   8
 -15  22  -2 121.990 143.643   8
  15 -22  -3 209.022 115.459  11
  15   7  -3 288.162 126.536   6
   7  15   3 266.642 117.402   6
   7  15  -3 341.633 133.467   6
  22 -15  -3 276.734 111.618  11
  15   7   3 275.655 142.954   6
  15 -22   3 430.646 132.596  11
  -7  22  -3 167.213 122.073   6
  -7  22  -3 163.599 135.999   8
 -15  22  -3 344.425 136.007   8
  15   7   4 198.353 144.881   6
  22 -15  -4 58.1008 122.390  11
  15   7  -4 166.787 123.259   6
   7  15  -4 93.2988 130.294   6
  -7  22  -4 111.240 116.833   6
  -7  22  -4 75.8657 128.797   8
 -15  22  -4 215.721 130.599   8
  22 -15  -5-21.6815 124.773  11
  15   7  -5 173.731 124.747   6
   7  15  -5 187.775 132.353   6
  15   7   5 154.106 96.2297   9
  -7  22  -5 195.383 117.449   6
  -7  22  -5 78.4432 129.503   8
 -15  22  -5 203.089 120.078   8
   7  15  -6 343.063 135.834   6
  15   7   6 290.598 97.9743   9
  -7  22  -6 137.353 114.790   6
  15   7  -6 111.820 118.043   6
  -7  22  -6 257.948 123.495   8
 -15  22  -6 274.840 113.386   8
   7  15  -7 207.623 127.007   6
  15   7  -7 266.340 123.489   6
  15   7   7 115.931 94.0759   9
   7  15   7-6.80780 86.3173   9
  -7  22  -7 249.504 118.655   6
  -7  22  -7 156.763 122.278   8
 -15  22  -7 126.055 107.869   8
  15   7  -8 173.023 113.656   6
   7  15  -8 167.066 114.733   6
  15   7   8 12.6050 84.6813   9
  -7  22  -8 177.934 108.432   6
   7  15   8 61.7474 81.0897   9
  -7  22  -8 35.1194 120.823   8
 -15  22  -8 10.1176 97.7243   8
 -15  22  -9-9.26399 91.6741   8
   7  15  -9 31.7134 102.363   6
  15   7   9 27.8290 78.6348   9
  -7  22  -9 78.1198 99.2522   6
   7  15   9 26.2092 75.4388   9
  -7  22  -9-25.5250 104.750   8
 -15  22 -10-73.0092 84.8412   8
   7 -22 -10 9.01486 104.537  10
  15   7  10-16.6818 76.1621   9
  -7  22 -10 171.333 99.6803   6
   7  15  10 27.6634 72.0316   9
  -7  22 -10 151.301 107.049   8
 -15  22 -11 41.2618 86.6751   8
   7 -22 -11 67.5247 100.333  10
  15   7  11-51.0843 69.2060   9
   7  15  11 26.1555 69.4700   9
  -7  22 -11 191.229 103.428   8
  -7 -15 -12-70.4307 58.7315  10
   7 -22 -12 102.713 94.0689  10
  15   7  12 123.073 67.9273   9
   7  15  12 31.6944 63.4779   9
  -7  22 -12-104.085 92.5893   8
 -15  22 -12 55.8923 80.0274   8
  -7 -15 -13 17.3599 48.1842  10
   7 -22 -13 86.0659 84.8592  10
  15 -22 -13-53.4685 96.3114  10
   7  15  13 48.0558 59.4647   9
 -15  22 -13 38.8947 80.1094   8
  16 -22   0 0.64815 117.918  11
  16   6   0 193.273 126.067   6
   6  16   0 96.8365 118.834   6
  -6  22   0-28.7517 113.643   6
  -6  22   0-23.4648 124.797   8
 -16  22   0-182.995 156.661   8
  16 -22   1 56.5500 122.795  11
  16 -22  -1 112.615 113.136  11
  16   6   1-14.2193 128.662   6
  22 -16  -1 3.45322 101.404  11
   6  16   1 159.166 122.181   6
   6  16  -1 130.660 117.712   6
  16   6  -1 19.7666 119.063   6
  -6  22   1 58.0918 113.061   6
  -6  22  -1 157.135 118.957   6
  -6  22  -1 59.0046 126.412   8
 -16  22   1-108.762 142.498   8
 -16  22  -1-18.1114 150.096   8
  16 -22  -2 214.441 120.315  11
  16   6   2 50.0324 134.157   6
  22 -16  -2 224.209 116.136  11
  16   6  -2 215.045 122.597   6
  16 -22   2 295.908 128.999  11
   6  16   2 146.924 120.709   6
   6  16  -2 101.222 123.272   6
  -6  22   2 154.939 119.746   6
 -16  22   2 4.98213 140.832   8
  -6  22  -2 185.058 122.278   6
  -6  22  -2 175.970 129.502   8
 -16  22  -2 246.644 142.887   8
  16   6   3 289.886 141.566   6
  16 -22   3 156.215 127.095  11
  16 -22  -3 157.676 109.897  11
   6  16   3 36.4500 111.698   6
   6  16  -3 116.844 121.949   6
  -6  22  -3 148.390 118.290   6
  22 -16  -3 86.8450 113.635  11
  16   6  -3 72.3390 116.122   6
  -6  22  -3 71.7746 126.229   8
 -16  22  -3 148.897 129.252   8
  16   6   4 157.975 143.073   6
  22 -16  -4 217.202 120.848  11
  16 -22   4 248.138 118.348  11
   6  16  -4 102.196 131.812   6
  16   6  -4 265.623 122.911   6
  16 -22  -4 157.074 116.282  11
  -6  22  -4 53.1770 113.884   6
  -6  22  -4 164.034 126.729   8
 -16  22  -4 241.474 126.970   8
  22 -16  -5 151.186 124.431  11
  16   6  -5 221.283 121.397   6
   6  16  -5 372.853 135.073   6
  16   6   5 269.882 100.587   9
  -6  22  -5 261.983 121.405   6
  -6  22  -5 134.320 126.290   8
 -16  22  -5 27.8174 115.987   8
  22 -16  -6-72.8132 112.942  11
  16   6  -6 45.9414 111.948   6
   6  16  -6 50.1809 119.923   6
  16   6   6 97.3231 88.8576   9
  -6  22  -6 2.71447 109.412   6
  -6  22  -6-3.60369 121.957   8
 -16  22  -6-59.4611 106.793   8
  16   6  -7 290.812 123.491   6
   6  16  -7 289.172 130.571   6
  16   6   7 418.140 103.598   9
  -6  22  -7 535.488 128.435   6
  -6  22  -7 630.796 137.997   8
 -16  22  -7 385.933 110.953   8
   6  16  -8 9.05860 108.055   6
  16   6   8 52.5288 85.5972   9
  -6  22  -8 32.8851 102.354   6
   6  16   8 15.9529 80.2788   9
  -6  22  -8 14.8169 113.107   8
 -16  22  -8 39.4860 95.2120   8
 -16  22  -9 68.5254 90.2018   8
   6  16  -9-98.7205 101.329   6
   6 -22  -9 9.03317 111.352  10
  16   6   9 12.2342 79.5090   9
  -6  22  -9 101.626 99.7978   6
   6  16   9 27.2740 72.2145   9
  -6  22  -9 96.7741 112.691   8
 -16  22 -10-0.04869 77.2233   8
   6 -22 -10 104.621 102.978  10
  16   6  10-43.3935 74.1504   9
  -6  22 -10-16.9431 93.6080   6
   6  16  10-4.22408 68.5690   9
  -6  22 -10-15.8772 100.908   8
 -16  22 -11-74.1102 85.5507   8
   6 -22 -11 157.884 90.4692  10
  16   6  11 139.174 72.1979   9
   6  16  11 13.8792 67.6257   9
  -6  22 -11 101.839 96.5850   8
  -6 -16 -12 132.421 56.8768  10
   6 -22 -12 211.510 91.4524  10
   6  16  12 14.1315 61.3783   9
  -6  22  12-55.3940 61.0630   9
 -16  22 -12-65.4626 75.6669   8
  -6 -16 -13-50.6896 45.1632  10
   6 -22 -13 97.5946 80.0053  10
  16 -22 -13-120.038 97.7934  10
   6  16  13-52.0137 56.8650   9
 -16  22 -13 124.691 79.8807   8
  17   5   0 352.360 133.329   6
  17 -22   0 610.510 129.528  11
  22 -17   0 488.764 106.718  11
   5  17   0 741.726 137.238   6
  -5  22   0 447.541 125.672   6
 -17  22   0 662.592 172.240   8
  17 -22  -1 1084.47 138.230  11
  17   5  -1 901.790 149.483   6
  17 -22   1 840.667 142.120  11
  22 -17  -1 695.764 116.627  11
   5  17   1 739.766 135.072   6
   5  17  -1 697.753 140.482   6
  17   5   1 908.585 154.285   6
  -5  22   1 840.915 137.339   6
  -5  22  -1 881.883 139.144   6
  -5  22  -1 913.185 148.193   8
 -17  22   1 1069.15 171.147   8
 -17  22  -1 981.748 177.155   8
  -5  22   2 1212.23 143.898   6
  17 -22  -2 1031.35 135.869  11
  22 -17  -2 970.708 131.374  11
  17 -22   2 1097.35 145.145  11
   5  17   2 742.390 132.754   6
   5  17  -2 972.543 153.198   6
  17   5  -2 947.163 146.944   6
  17   5   2 1100.79 164.559   6
  -5  22  -2 930.784 144.244   6
  -5  22  -2 1031.23 157.125   8
 -17  22  -2 983.113 176.680   8
  17   5   3 537.977 147.543   6
  22 -17  -3 381.954 118.528  11
  17 -22  -3 566.930 123.249  11
  17 -22   3 489.909 130.083  11
  17   5  -3 431.102 126.054   6
   5  17   3 394.094 124.615   6
   5  17  -3 562.091 142.468   6
  -5  22  -3 485.320 126.307   6
  -5  22  -3 337.796 131.453   8
 -17  22  -3 394.248 144.705   8
  17   5  -4 606.852 129.299   6
  22 -17  -4 520.422 127.369  11
  17 -22   4 787.819 135.225  11
   5  17  -4 547.049 142.626   6
  17 -22  -4 473.272 125.189  11
  -5  22  -4 405.608 125.451   6
  -5  22  -4 743.070 148.530   8
 -17  22  -4 600.791 142.378   8
  17 -22   5 1051.82 135.643  11
  17   5  -5 813.552 141.487   6
   5  17  -5 928.430 152.158   6
  17   5   5 943.729 111.727   9
  22 -17  -5 764.301 139.764  11
  -5  22  -5 629.392 132.290   6
  -5  22  -5 922.857 151.923   8
 -17  22  -5 708.576 137.877   8
  22 -17  -6 603.468 133.800  11
  17   5  -6 374.499 116.960   6
   5  17  -6 663.478 140.106   6
  17   5   6 488.589 99.9615   9
  -5  22  -6 443.444 121.239   6
  -5  22  -6 531.895 131.783   8
 -17  22  -6 309.885 117.110   8
   5  17  -7 260.372 126.060   6
   5 -22  -7 227.947 124.955  10
  17   5   7 231.489 96.5945   9
  -5  22  -7 334.380 118.123   6
  17   5  -7 215.476 116.658   6
  -5  22  -7 152.950 128.104   8
 -17  22  -7 185.965 109.390   8
   5  17  -8 170.152 110.592   6
   5 -22  -8 223.726 120.733  10
  17   5   8 162.739 88.3747   9
  -5  22  -8 184.665 105.918   6
   5  17   8 86.9621 76.2420   9
  -5  22  -8 183.803 118.483   8
 -17  22  -8 145.828 100.222   8
 -17  22  -9 67.9436 89.1020   8
   5  17  -9 241.634 106.140   6
   5 -22  -9-66.5811 106.431  10
  17   5   9 178.855 84.1801   9
  -5  22  -9 249.615 105.665   6
   5  17   9 99.8320 75.8995   9
  -5  22  -9 340.040 116.251   8
 -17  22 -10 96.7355 85.7232   8
   5 -22 -10 105.925 98.4569  10
  17   5  10 185.937 78.4319   9
  -5  22 -10 100.801 94.1451   6
   5  17  10 106.279 71.9276   9
   5 -22 -11 69.3453 86.7279  10
   5  17  11 35.8891 67.4840   9
 -17  22 -11 67.1256 74.8212   8
 -22  17 -12 110.300 66.2209   8
  -5 -17 -12 15.8960 47.8020  10
   5 -22 -12 134.876 83.6897  10
   5  17  12-44.1574 61.0023   9
  -5  22  12 72.2780 60.2514   9
 -17  22 -12 19.3825 76.4216   8
 -22  17 -13 69.9548 59.5546   8
  -5 -17 -13 27.3132 39.4876  10
   5 -22 -13-42.0220 78.8314  10
  17 -22 -13 31.9350 91.7600  10
   5  17  13 56.6081 56.0971   9
 -17  22 -13-13.5758 70.7417   8
  18   4   0 301.242 132.870   6
  18 -22   0 381.015 121.436  11
  22 -18   0 179.970 95.4010  11
   4  18   0 329.359 124.785   6
  -4  22   0 158.705 117.026   6
 -18  22   0 258.736 165.604   8
  18   4  -1 317.014 134.174   6
  18 -22  -1 131.903 112.885  11
  18 -22   1 325.006 116.971  11
  22 -18  -1 210.172 107.787  11
   4  18   1 535.054 133.119   6
   4  18  -1 377.513 128.388   6
  -4  22   1 208.534 119.181   6
  -4  22  -1 269.894 124.579   6
  -4  22  -1 366.884 137.159   8
  18   4   1 471.203 143.518   6
 -18  22  -1 270.529 165.237   8
  18   4  -2 524.936 130.110   6
  18 -22  -2 349.041 122.391  11
  18 -22   2 620.485 133.042  11
   4  18   2 469.086 125.893   6
   4  18  -2 573.299 137.835   6
  -4  22   2 423.087 120.435   6
  -4  22  -2 398.435 127.882   6
  22 -18  -2 328.880 109.127  11
  -4  22  -2 604.456 137.637   8
 -18  22  -2 561.665 167.085   8
  18 -22  -3 49.2803 99.7462  11
  22 -18  -3 85.1949 111.474  11
  18 -22   3 221.888 117.761  11
   4  18   3 170.358 118.854   6
   4  18  -3 206.188 126.326   6
  -4  22  -3 211.699 116.227   6
  18   4  -3 296.483 117.780   6
  -4  22  -3 221.524 125.872   8
 -18  22  -3-39.3933 142.737   8
  22 -18  -4 124.772 109.959  11
  18 -22   4 179.205 122.049  11
   4  18  -4 119.574 122.732   6
  18   4  -4 170.058 112.912   6
  -4  22  -4 282.841 120.221   6
  18 -22  -4 77.0578 108.096  11
  -4  22  -4 206.354 125.754   8
 -18  22  -4 113.981 134.452   8
  18   4  -5 325.406 118.437   6
  22 -18  -5 338.709 120.874  11
  18 -22   5 382.432 122.449  11
   4  18  -5 326.822 129.861   6
  18   4   5 329.864 95.7285   9
  -4  22  -5 442.018 120.895   6
  -4  22  -5 376.442 131.033   8
 -18  22  -5 218.713 123.586   8
  22 -18  -6 118.151 111.561  11
  18   4  -6 13.3026 107.085   6
  18 -22   6 69.3870 98.6854  11
   4  18  -6 256.265 123.893   6
  18   4   6 227.042 92.7086   9
  -4  22  -6 175.032 110.226   6
  -4  22  -6 239.799 128.867   8
 -18  22  -6 208.456 112.899   8
  18 -22   7 266.557 100.638  11
   4  18  -7 318.861 125.179   6
  18   4   7 425.889 100.337   9
  -4  22  -7 271.919 116.367   6
 -18  22  -7 232.625 103.024   8
   4  18  -8 218.065 111.012   6
   4 -22  -8 227.347 110.285  10
  18   4   8 192.389 88.0087   9
  -4  22  -8 66.4642 102.596   6
 -18  22  -8 77.9967 93.2148   8
   4  18  -9 237.366 108.758   6
   4 -22  -9 92.2157 103.496  10
  18   4   9 176.473 83.1843   9
  -4  22  -9 266.774 105.093   6
   4  18   9 120.409 73.0090   9
 -18  22  -9 31.8066 86.4554   8
   4 -22 -10-66.8965 89.0570  10
  -4  22 -10 115.933 94.5265   6
   4  18  10 0.40111 67.7914   9
 -18  22 -10 40.1038 79.7735   8
 -22  18 -11-53.0219 68.7020   8
   4 -22 -11 2.97702 79.3053  10
   4  18  11 83.0152 66.8098   9
 -18  22 -11 53.5681 74.1557   8
 -22  18 -12-38.7529 64.7817   8
   4 -22 -12 49.2956 75.8237  10
   4  18  12-29.3024 60.5704   9
  -4  22  12-43.9299 59.2042   9
 -18  22 -12-2.39145 73.7631   8
  -4 -18 -13 3.86817 40.1910  10
   4 -22 -13 142.052 76.7974  10
  18 -22 -13 31.2898 89.0068  10
   4  18  13 97.6918 56.5685   9
  -4  22  13 24.2406 52.6847   9
 -18  22 -13 48.3986 69.5456   8
 -22  18 -13 24.5937 56.7593   8
  -3  22   0 1374.18 156.933   6
  19 -22   0 1263.91 144.137  11
  22 -19   0 1135.82 127.571  11
   3  19   0 1187.03 151.715   6
  19   3  -1 1423.69 164.148   6
   3  19   1 1344.77 152.823   6
   3  19  -1 1661.55 166.457   6
  -3  22   1 1503.04 157.229   6
  -3  22  -1 1634.33 163.479   6
  19 -22  -1 1273.99 146.781  11
  19 -22   1 1631.43 150.852  11
  22 -19  -1 1546.42 143.555  11
  22 -19   1 1260.59 134.635  11
 -19  22  -1 2082.81 219.534   8
   3  19   2 1238.13 147.992   6
   3  19  -2 1260.30 156.811   6
  -3  22   2 1394.62 149.745   6
  19   3  -2 1053.33 145.578   6
  22 -19  -2 1266.46 136.080  11
  19 -22   2 1171.61 146.328  11
  19 -22  -2 935.823 135.124  11
  -3  22  -2 1067.67 145.560   6
  -3  22  -2 1403.45 162.975   8
 -19  22  -2 1490.92 197.319   8
  19   3  -3 684.809 132.855   6
  19 -22  -3 693.698 122.423  11
  19 -22   3 682.498 126.527  11
  22 -19  -3 485.949 120.604  11
   3  19  -3 631.479 140.749   6
  -3  22  -3 650.018 134.568   6
  -3  22  -3 965.718 150.379   8
 -19  22  -3 730.122 164.657   8
  19   3  -4 618.704 125.784   6
  19 -22  -4 380.764 114.272  11
  19 -22   4 685.505 129.070  11
  22 -19  -4 680.830 129.656  11
   3  19  -4 508.767 133.440   6
  -3  22  -4 822.767 136.333   6
  -3  22  -4 919.087 144.842   8
 -19  22  -4 723.885 152.016   8
  19 -22   5 582.189 120.499  11
  22 -19  -5 569.178 118.557  11
   3  19  -5 688.037 135.970   6
  -3  22  -5 416.348 121.722   6
 -19  22  -5 413.911 120.812   8
  19 -22   6 699.972 118.198  11
   3  19  -6 636.102 136.540   6
  -3  22  -6 484.449 128.879   6
 -19  22  -6 444.974 120.906   8
   3  19  -7 146.911 114.701   6
  -3  22  -7 311.577 116.449   6
 -19  22  -7 158.423 104.264   8
   3  19  -8 438.616 118.123   6
  -3  22  -8 437.042 119.386   6
 -19  22  -8 379.888 102.218   8
   3  19  -9 198.535 103.826   6
   3 -22  -9 147.917 94.3915  10
  -3  22  -9 158.791 104.255   6
   3  19   9 194.860 74.6479   9
 -19  22  -9 225.447 88.2326   8
 -22  19 -10 218.604 83.4991   8
   3 -22 -10 174.374 84.7333  10
  -3  22 -10 183.235 96.3447   6
   3  19  10 167.493 76.0729   9
 -19  22 -10 114.562 82.7615   8
 -22  19 -11 141.396 71.2828   8
   3 -22 -11-11.8776 73.8592  10
   3  19  11 58.0662 68.9060   9
  -3  22  11 63.1101 63.2945   9
 -19  22 -11 145.945 76.5014   8
   3 -22 -12 37.2216 71.5713  10
   3  19  12 119.161 61.9480   9
  -3  22  12 59.3519 58.7064   9
 -19  22 -12 60.0655 70.0364   8
 -22  19 -12 136.350 66.9304   8
  19 -22 -13-19.9132 84.7295  10
   3  19  13 22.3793 51.9856   9
  -3  22  13 65.5843 51.4843   9
  22 -20   0 596.391 118.542  11
  20 -22   0 607.181 133.592  11
   2  20   0 762.440 143.544   6
  -2  22   0 696.452 140.266   6
  22 -20  -1 345.706 112.008  11
  20 -22   1 288.935 121.918  11
  20 -22  -1 228.403 110.820  11
   2  20   1 320.471 127.224   6
   2  20  -1 187.552 126.394   6
  -2  22   1 336.125 126.781   6
  -2  22  -1 407.914 129.595   6
  22 -20   1 167.794 100.488  11
  20 -22   2 301.844 118.299  11
  22 -20   2 413.297 108.524  11
  20 -22  -2 453.981 112.596  11
   2  20   2 266.050 122.314   6
   2  20  -2 172.629 122.005   6
  -2  22   2 327.805 119.438   6
  -2  22  -2 157.153 117.028   6
  22 -20  -2 204.827 108.993  11
  20 -22  -3 191.269 109.938  11
  22 -20  -3 205.739 114.627  11
  20 -22   3 325.102 118.947  11
   2  20  -3 286.406 133.309   6
  -2  22  -3 263.752 121.859   6
 -20  22  -3 360.657 167.771   8
  20 -22  -4 26.8380 95.4438  11
   2  20  -4 148.437 121.510   6
  20 -22   4 169.944 101.116  11
  -2  22  -4 266.998 118.386   6
  22 -20  -4 120.664 107.429  11
 -20  22  -4 311.155 141.823   8
  22 -20  -5 145.272 105.605  11
  20 -22   5 132.221 100.345  11
   2  20  -5 46.6042 114.585   6
  -2  22  -5 14.8199 105.475   6
  20 -22  -5 91.7346 92.2108  11
 -20  22  -5 0.22520 119.349   8
   2  20  -6 279.928 128.155   6
  -2  22  -6 192.996 118.972   6
 -20  22  -6 314.352 124.719   8
   2  20  -7 325.440 120.807   6
  -2  22  -7 372.868 119.074   6
 -20  22  -7 287.357 103.563   8
   2  20  -8 259.242 115.522   6
  -2  22  -8 231.121 111.923   6
 -20  22  -8 76.8033 91.0662   8
   2  20  -9 172.326 106.049   6
  -2  22  -9 181.904 104.271   6
 -20  22  -9 81.4657 83.7271   8
 -22  20  -9 264.486 87.9764   8
   2 -22 -10 108.881 78.5483  10
  -2  22 -10 28.0783 92.1204   6
   2  20  10 41.6598 69.2772   9
 -20  22 -10 82.5796 77.2402   8
 -22  20 -10 74.2405 72.8804   8
   2 -22 -11 107.037 71.5291  10
   2  20  11 61.4371 65.4491   9
  -2  22  11 60.4783 64.0855   9
 -20  22 -11 46.1745 70.7198   8
 -22  20 -11 51.3301 67.5145   8
   2 -22 -12 1.71820 65.9201  10
   2  20  12 46.4702 59.4666   9
  -2  22  12 99.3979 59.4646   9
 -20  22 -12 169.223 68.9814   8
 -22  20 -12 72.9555 62.8004   8
  21 -22   0 107.521 114.881  11
  22 -21   0 77.2512 105.884  11
   1  21   0 180.876 125.653   6
  -1  22   0 46.4765 119.086   6
  22 -21  -1 105.522 104.331  11
  22 -21   1 183.598 108.282  11
  21 -22  -1 39.2264 102.489  11
   1  21   1 57.8538 119.791   6
   1  21  -1 232.225 126.952   6
  -1  22   1 216.543 123.992   6
  -1  22  -1 68.9596 118.103   6
  21 -22   1 173.272 109.661  11
  21 -22   2 39.5192 108.048  11
  22 -21   2 117.816 101.577  11
  22 -21  -2 24.0626 100.816  11
  21 -22  -2 19.0166 101.944  11
   1  21   2 35.6314 114.454   6
  -1  22   2 71.6410 115.145   6
   1  21  -2 105.494 119.753   6
  -1  22  -2 147.055 119.213   6
  21 -22   3 123.586 110.138  11
  22 -21  -3 136.824 105.727  11
  22 -21   3 305.646 107.210  11
   1  21  -3 215.415 124.622   6
  -1  22  -3 357.453 127.227   6
  21 -22  -3 174.623 103.562  11
  21 -22  -4 123.312 101.171  11
  21 -22   4 116.213 103.235  11
   1  21  -4 139.817 114.473   6
  -1  22  -4 61.8909 109.361   6
  22 -21  -4 58.3039 103.005  11
  22 -21  -5 55.5203 103.538  11
   1  21  -5-1.88755 108.746   6
  -1  22  -5 19.8218 105.254   6
  21 -22   5 101.402 100.916  11
  21 -22  -5-3.69537 91.6860  11
 -21  22  -5 94.7276 124.126   8
   1  21  -6 299.035 123.911   6
  -1  22  -6 436.920 126.561   6
 -21  22  -6 590.701 125.347   8
   1  21  -7 79.4170 110.037   6
  -1  22  -7 218.709 113.086   6
 -21  22  -7 215.039 104.434   8
   1  21  -8 87.4651 107.905   6
  -1  22  -8 148.075 105.572   6
 -21  22  -8 62.0758 86.2511   8
 -22  21  -8 179.791 89.8804   8
   1  21  -9 28.0908 96.6540   6
  -1  22  -9-57.1427 96.6573   6
 -21  22  -9 43.7570 79.1531   8
 -22  21  -9 174.994 80.3451   8
   1  21 -10-89.0722 90.1310   6
  -1  22 -10 33.3561 91.0191   6
   1  21  10 56.2459 68.1565   9
 -21  22 -10 36.6157 71.2610   8
 -22  21 -10 141.045 72.6915   8
   1  21  11 76.0149 62.8787   9
  -1  22  11-61.5177 61.8564   9
 -21  22 -11 135.760 70.0071   8
 -22  21 -11-35.7637 63.3909   8
  21 -22 -12-46.5599 88.6171  10
   1  21  12 93.4169 55.8866   9
  -1  22  12-10.4839 55.5005   9
 -21  22 -12-39.4294 62.2740   8
 -22  21 -12 22.9619 58.7939   8
   0  22   0 2306.23 175.952   6
  22 -22   0 1797.08 155.878  11
   0  22   1 2340.08 178.924   6
   0  22  -1 2030.33 171.410   6
  22 -22  -1 1979.32 152.034  11
  22 -22   1 2417.97 167.629  11
   0  22   2 1574.37 154.503   6
   0  22  -2 1393.91 156.144   6
  22 -22  -2 1276.87 134.813  11
  22 -22   2 1144.49 138.979  11
   0  22  -3 1779.62 166.601   6
  22 -22  -3 1467.25 144.658  11
  22 -22   3 1859.75 150.595  11
  22 -22   4 905.100 120.021  11
  22 -22  -4 897.239 120.196  11
   0  22  -4 746.746 132.649   6
  22 -22   5 416.873 103.386  11
   0  22  -5 459.685 120.581   6
   0  22  -6 925.079 136.824   6
   0  22  -7 977.110 133.307   6
 -22  22  -7 970.971 119.007   8
   0  22  -8 557.526 117.468   6
 -22  22  -8 387.785 92.7274   8
   0  22  -9 142.738 94.8382   6
 -22  22  -9 206.054 77.6595   8
   0  22 -10 152.262 88.2796   6
  22 -22  10 56.3430 56.9066  11
   0  22  10 103.984 64.9649   9
 -22  22 -10 100.586 67.3851   8
   0  22  11 66.8931 59.7673   9
 -22  22 -11 90.7548 63.3409   8
  12  11   0 524.851 143.789   6
  11  12   0 479.566 145.172   6
 -11  23   0 431.186 147.787   8
 -12  23   0 383.872 154.088   8
  12  11   1 341.351 143.875   6
  11  12   1 366.594 138.689   6
  12  11  -1 240.560 143.642   6
  11  12  -1 324.821 142.735   6
 -11  23   1 272.885 151.584   8
 -12  23   1 307.367 156.137   8
 -11  23  -1 333.492 157.339   8
 -12  23  -1 358.983 154.105   8
  12  11   2 389.111 143.521   6
  11  12   2 262.777 131.705   6
  12  11  -2 225.529 138.880   6
  11  12  -2 549.570 144.811   6
 -11  23  -2 281.419 143.571   8
 -12  23  -2 380.114 155.642   8
  12  11   3 255.623 138.609   6
  11  12   3 229.888 133.917   6
  12  11  -3 234.731 135.445   6
  11  12  -3 342.123 140.605   6
 -11  23  -3 142.047 142.935   8
 -12  23  -3 211.602 129.575   8
  12  11   4 141.070 134.725   6
  12  11  -4 316.723 139.640   6
  11  12  -4 101.200 130.977   6
  12  11   4 165.799 103.117   9
  11  12   4 210.485 102.984   9
 -11  23  -4 134.905 136.386   8
 -12  23  -4 199.345 132.484   8
  12  11  -5 306.670 136.039   6
  11  12  -5 51.3311 126.319   6
  12  11   5 95.9794 99.1236   9
  11  12   5 201.408 105.118   9
 -11  23  -5 16.6921 128.727   8
 -12  23  -5 74.0341 118.509   8
  12  11  -6 232.445 132.483   6
  11  12  -6-7.66141 123.331   6
  12  11   6 140.944 98.3757   9
  11  12   6 111.020 98.7717   9
 -11  23  -6 37.8442 122.832   8
 -12  23  -6 147.659 120.099   8
  12  11  -7 59.7511 117.403   6
  11  12  -7 208.772 127.398   6
  12  11   7 33.3953 91.6982   9
  11  12   7 70.5851 92.1462   9
 -11  23  -7 204.425 125.057   8
 -12  23  -7 128.697 111.548   8
  12  11  -8 245.644 117.843   6
  11  12  -8 146.847 114.787   6
  12  11   8-11.4139 83.2026   9
  11  12   8 145.113 86.5582   9
 -11  23  -8 165.408 106.067   6
 -11  23  -8 30.4951 113.431   8
 -12  23  -8-30.3345 108.305   8
  12  11   9 74.6409 76.9068   9
  11  12   9-71.2286 79.3470   9
 -11  23  -9 25.6753 96.8344   6
 -12  23  -9 15.8431 97.9821   6
 -11  23  -9 85.8828 105.209   8
 -12  23  -9 8.92861 92.8489   8
  12  11  10 79.0912 73.0245   9
  11  12  10-17.8066 71.5498   9
 -11  23 -10-97.0052 98.7374   6
 -12  23 -10 72.2713 97.7866   6
 -11  23 -10 88.7240 103.328   8
 -12  23 -10 136.139 97.1456   8
  11 -23 -11-2.54603 103.369  10
  12  11  11 62.6879 68.2851   9
  11  12  11 24.6418 65.5798   9
 -11  23 -11 8.47959 95.8840   8
 -12  23 -11 8.50176 93.6023   8
  11 -23 -12 51.0807 96.7294  10
  12 -23 -12 15.6187 98.1912  10
  12  11  12-35.3835 63.0468   9
  11  12  12-79.0646 65.0242   9
 -11  23 -12-41.3524 88.0587   8
 -12  23 -12 33.6309 87.1268   8
  11 -23 -13 61.9665 87.6164  10
  12 -23 -13-5.57138 86.6477  10
  12  11  13 30.2371 57.1103   9
  11  12  13 18.4654 56.8405   9
 -11  23 -13 68.9318 81.7085   8
 -12  23 -13-52.3863 81.7796   8
  13  10   0 1366.52 164.393   6
  10  13   0 1470.44 163.256   6
  13 -23   0 1085.86 153.601  11
 -10  23   0 1005.13 160.354   8
 -13  23   0 990.607 166.574   8
  13  10   1 2183.93 186.474   6
  13  10  -1 2361.48 190.980   6
  10  13   1 2088.24 175.774   6
  10  13  -1 2550.82 193.312   6
  13 -23  -1 1942.55 171.314  11
  23 -13  -1 2122.36 164.386  11
 -10  23   1 2403.98 182.821   8
 -13  23   1 1682.07 190.389   8
 -10  23  -1 2244.20 186.973   8
 -13  23  -1 2437.90 203.807   8
  13  10   2 1463.50 168.056   6
  13  10  -2 1262.77 162.125   6
  10  13   2 1363.55 161.251   6
  10  13  -2 1339.56 168.304   6
 -10  23  -2 1332.15 171.413   8
 -13  23  -2 1217.90 175.075   8
  13  10   3 1412.52 167.418   6
  13  10  -3 1494.06 166.245   6
  10  13  -3 1301.09 167.142   6
  10  13   3 1202.33 153.669   6
 -10  23  -3 1199.45 161.160   8
 -13  23  -3 1288.14 158.077   8
  13  10  -4 799.765 147.189   6
  10  13  -4 840.574 153.337   6
  13  10   4 849.726 151.222   6
  13  10   4 911.878 119.342   9
  10  13   4 710.158 113.796   9
 -10  23  -4 714.995 148.664   8
 -13  23  -4 1012.28 147.119   8
  13  10  -5 793.841 146.105   6
  10  13  -5 976.753 154.990   6
  13  10   5 848.416 116.998   9
  10  13   5 817.704 116.935   9
 -10  23  -5 902.297 149.081   8
 -13  23  -5 632.255 136.831   8
  13  10  -6 729.152 145.809   6
  10  13  -6 451.530 134.646   6
  13  10   6 511.439 104.385   9
  10  13   6 646.532 108.955   9
 -10  23  -6 704.990 144.019   8
 -13  23  -6 542.585 125.623   8
  13  10  -7 518.856 134.627   6
  10  13  -7 379.130 126.101   6
  13  10   7 498.176 102.052   9
  10  13   7 508.643 101.444   9
 -10  23  -7 501.931 128.190   6
 -10  23  -7 558.185 137.758   8
 -13  23  -7 347.077 115.582   8
  13  10  -8 435.855 122.022   6
  10  13  -8 226.741 114.231   6
  13  10   8 405.621 92.9626   9
  10  13   8 141.371 87.8260   9
 -10  23  -8 348.170 112.309   6
 -10  23  -8 250.391 120.890   8
 -13  23  -8 197.969 107.591   8
  10  13  -9 261.696 106.154   6
  13  10   9 219.148 85.2018   9
  10  13   9 145.377 78.3850   9
 -10  23  -9 251.138 104.122   6
 -13  23  -9 273.564 105.653   6
 -10  23  -9 327.982 117.338   8
 -13  23  -9 146.749 100.541   8
  13  10  10 120.274 75.7795   9
  10  13  10 168.014 74.6450   9
 -10  23 -10 224.302 98.0183   6
 -13  23 -10 274.973 100.975   6
 -10  23 -10 248.310 110.281   8
 -13  23 -10 36.8345 93.6515   8
  10 -23 -11 16.5521 104.202  10
  13  10  11 97.3013 68.5580   9
  10  13  11 127.169 68.6593   9
 -10  23 -11 55.5750 96.4674   8
 -13  23 -11 72.0374 92.9898   8
  10 -23 -12 40.7793 97.0353  10
  13 -23 -12-65.2528 97.6655  10
  13  10  12 97.3724 63.7810   9
  10  13  12 116.824 64.8422   9
 -10  23 -12 65.7474 89.0018   8
 -13  23 -12 36.5774 81.3495   8
  10 -23 -13 88.5802 85.2305  10
  13 -23 -13-66.6745 89.3735  10
  13  10  13 79.4460 58.6473   9
  10  13  13 95.7692 58.8760   9
 -10  23 -13 96.9305 79.0276   8
 -13  23 -13-57.4364 80.6981   8
  14 -23   0 496.080 136.268  11
  14   9   0 174.542 131.715   6
   9  14   0 116.813 124.565   6
  -9  23   0 222.680 130.617   8
 -14  23   0 113.119 153.478   8
  14 -23  -1 670.835 145.326  11
  14 -23   1 730.704 155.479  11
  14   9  -1 234.939 132.992   6
  23 -14  -1 309.777 121.444  11
   9  14   1 608.205 143.775   6
   9  14  -1 586.331 147.903   6
  14   9   1 560.136 148.162   6
  -9  23   1 208.629 131.943   8
 -14  23   1 2.55347 150.657   8
  -9  23  -1 437.177 139.529   8
 -14  23  -1 110.735 141.737   8
  14 -23  -2 513.132 142.783  11
  14   9   2 378.823 141.755   6
  14   9  -2 305.337 135.798   6
   9  14   2 149.081 130.887   6
  23 -14  -2 164.702 120.672  11
   9  14  -2 194.438 133.469   6
  -9  23   2 379.041 132.801   6
  -9  23  -2 162.608 139.334   8
 -14  23  -2 324.963 144.396   8
  14   9   3 330.271 138.628   6
  14   9  -3 304.379 134.145   6
   9  14   3 336.734 129.859   6
   9  14  -3 337.099 140.163   6
   9  14   3 318.453 105.009   9
  -9  23  -3 377.644 139.777   8
 -14  23  -3 121.358 134.647   8
  14   9   4-27.9914 132.384   6
  14   9  -4 144.740 124.430   6
   9  14  -4 232.674 135.320   6
   9  14   4 166.655 98.1548   9
  -9  23  -4 64.9626 129.972   8
 -14  23  -4 185.004 131.027   8
  14   9  -5 153.327 126.773   6
   9  14  -5 263.895 131.061   6
  14   9   5 190.330 98.5929   9
   9  14   5 95.3209 93.8218   9
  -9  23  -5 119.293 115.677   6
  -9  23  -5 123.684 130.360   8
 -14  23  -5 222.919 116.892   8
  14   9  -6 168.897 125.989   6
   9  14  -6 241.862 132.189   6
  14   9   6 194.613 96.0102   9
   9  14   6 218.143 97.1153   9
  -9  23  -6 181.802 122.356   6
  -9  23  -6 106.564 119.709   8
 -14  23  -6 2.18197 113.099   8
  14   9  -7 61.9218 115.368   6
   9  14  -7 291.466 125.891   6
  14   9   7 185.324 92.4390   9
   9  14   7 98.7188 88.6526   9
  -9  23  -7 152.524 111.470   6
  -9  23  -7 290.390 121.737   8
 -14  23  -7 66.7548 103.533   8
   9  14  -8 58.1640 110.877   6
  14   9  -8-76.8285 107.428   6
  14   9   8 73.0481 85.3930   9
   9  14   8 71.8609 79.5377   9
  -9  23  -8 78.3142 108.273   6
  -9  23  -8 67.8662 116.120   8
 -14  23  -8 50.4435 100.761   8
   9  14  -9-67.7724 104.759   6
  14   9   9 72.4068 76.6563   9
   9  14   9 99.9964 74.8044   9
  -9  23  -9-179.469 99.9384   6
  -9  23  -9-49.0320 107.946   8
 -14  23  -9 1.71369 89.3965   8
   9 -23 -10 71.1240 111.925  10
  14   9  10 86.4063 73.3808   9
   9  14  10 143.397 76.1459   9
  -9  23 -10-3.64714 93.4339   6
 -14  23 -10-16.6729 91.2728   6
  -9  23 -10 105.655 106.725   8
 -14  23 -10 74.6029 89.5533   8
   9 -23 -11-111.513 106.067  10
  14   9  11-14.4162 66.9996   9
   9  14  11 83.5634 67.4303   9
  -9  23 -11-44.0466 96.7055   8
 -14  23 -11 125.748 89.3708   8
   9 -23 -12 10.7263 93.6439  10
  14 -23 -12 3.06481 94.8335  10
  14   9  12 65.1196 64.9362   9
   9  14  12-18.2376 61.0999   9
  -9  23 -12 23.9453 86.5149   8
 -14  23 -12 78.4623 80.0983   8
   9 -23 -13-15.8729 81.4416  10
  14 -23 -13 26.6031 86.8770  10
   9  14  13 22.9643 56.9351   9
  -9  23 -13 14.5776 75.3491   8
 -14  23 -13 2.25086 78.7168   8
   8  15   0 1064.65 147.176   6
  -8  23   0 682.157 138.351   8
  15   8   0 932.747 148.442   6
  -8  23   0 1019.90 141.932   6
 -15  23   0 1004.01 169.934   8
  15   8   1 1218.78 162.653   6
  15   8  -1 1303.57 156.863   6
   8  15   1 1255.44 150.782   6
   8  15  -1 1423.11 160.834   6
  -8  23   1 1268.45 150.015   6
  -8  23  -1 1368.71 154.797   6
  15 -23   1 1989.32 180.726  11
  23 -15  -1 1379.66 141.841  11
  15 -23  -1 1580.03 162.913  11
 -15  23  -1 1678.19 183.779   8
 -15  23   1 1481.72 184.640   8
  -8  23  -1 1141.37 157.608   8
  15 -23  -2 1252.26 156.017  11
  23 -15  -2 912.701 130.742  11
   8  15   2 940.715 145.116   6
   8  15  -2 1068.96 154.912   6
  -8  23  -2 1008.72 154.701   8
  -8  23   2 1157.94 144.434   6
  15   8  -2 783.214 143.250   6
  -8  23  -2 868.026 140.530   6
  15   8   2 749.253 147.611   6
 -15  23  -2 919.439 164.859   8
  15   8  -3 1164.37 154.466   6
   8  15   3 1331.40 151.822   6
   8  15  -3 1448.92 165.267   6
  -8  23  -3 1258.88 153.624   6
  15 -23  -3 1316.97 150.684  11
  23 -15  -3 1469.14 145.811  11
  15   8   3 1207.61 159.239   6
  -8  23  -3 1206.64 162.059   8
 -15  23  -3 1063.32 153.896   8
  15   8   4 1108.34 156.472   6
  23 -15  -4 905.499 137.556  11
   8  15  -4 1059.51 155.995   6
  15   8  -4 828.565 141.922   6
  -8  23  -4 911.129 141.604   6
  -8  23  -4 1013.02 151.337   8
 -15  23  -4 657.045 134.799   8
   8  15  -5 591.781 141.898   6
  15   8   5 649.217 105.727   9
  15   8  -5 771.907 139.008   6
   8  15   5 574.763 101.335   9
  -8  23  -5 630.808 131.115   6
  -8  23  -5 510.328 130.519   8
 -15  23  -5 591.784 129.562   8
  15   8  -6 792.487 138.625   6
   8  15  -6 777.487 142.663   6
  15   8   6 738.880 106.103   9
   8  15   6 592.470 102.460   9
  -8  23  -6 679.898 132.192   6
  -8  23  -6 643.045 139.431   8
 -15  23  -6 553.292 125.241   8
  15   8  -7 305.089 119.880   6
   8  15  -7 571.587 131.016   6
  15   8   7 296.959 95.1749   9
   8  15   7 358.162 92.1672   9
  -8  23  -7 399.547 119.792   6
  -8  23  -7 421.548 134.003   8
 -15  23  -7 172.067 108.357   8
  15   8  -8 232.340 114.182   6
   8  15  -8 265.062 112.269   6
  15   8   8 315.815 90.4170   9
   8  15   8 255.684 84.3511   9
  -8  23  -8 273.834 105.089   6
  -8  23  -8 391.749 123.896   8
 -15  23  -8 273.663 99.5131   8
   8  15  -9 234.532 106.442   6
   8 -23  -9-63.3917 111.929  10
  15   8   9 248.458 83.4001   9
  -8  23  -9 156.522 98.2244   6
   8  15   9 63.2797 72.6172   9
  -8  23  -9 250.584 108.077   8
 -15  23  -9 129.918 91.4080   8
   8 -23 -10 293.386 117.215  10
  15   8  10 147.625 73.6962   9
  -8  23 -10 116.296 92.0500   6
   8  15  10 172.884 72.0315   9
 -15  23 -10 177.109 93.1859   6
  -8  23 -10 189.147 109.598   8
 -15  23 -10 88.8196 84.4621   8
   8 -23 -11 87.9209 103.589  10
  15   8  11 101.673 67.7229   9
   8  15  11 69.5253 65.5528   9
  -8  23 -11 216.541 99.8232   8
 -15  23 -11 179.934 84.2767   8
   8 -23 -12 9.97266 88.0883  10
  15 -23 -12-107.974 100.528  10
  15   8  12 21.7405 60.2561   9
   8  15  12 54.7546 61.7522   9
  -8  23 -12-8.47958 86.2121   8
 -15  23 -12 33.9881 83.5322   8
   8 -23 -13 105.259 79.1252  10
  15 -23 -13 108.365 87.9695  10
   8  15  13 47.2900 55.1345   9
 -15  23 -13-32.6097 77.9570   8
  16 -23   0 147.318 127.298  11
  16   7   0 98.5541 118.020   6
   7  16   0 88.8489 114.867   6
  -7  23   0 173.898 116.269   6
  -7  23   0 25.5319 111.625   8
 -16  23   0 93.3078 147.677   8
  16 -23  -1 94.3241 117.643  11
  16   7   1 201.309 126.892   6
  16 -23   1 291.735 130.554  11
  23 -16  -1 258.901 104.464  11
   7  16   1 266.069 119.682   6
   7  16  -1 319.195 124.913   6
  -7  23   1 391.801 124.035   6
  16   7  -1 342.594 126.172   6
  -7  23  -1 206.549 119.054   6
 -16  23   1 113.260 143.632   8
  -7  23  -1 193.028 119.896   8
 -16  23  -1 149.509 137.481   8
  16 -23  -2 160.423 119.456  11
  23 -16  -2 32.7664 106.229  11
  16   7  -2 108.296 112.779   6
  16 -23   2 144.295 126.064  11
   7  16   2 233.923 119.511   6
   7  16  -2 219.898 125.385   6
  -7  23   2-9.84043 110.684   6
  -7  23  -2 153.779 113.342   6
  16   7   2 79.0337 125.803   6
  -7  23  -2 177.444 129.098   8
 -16  23  -2 94.0789 139.664   8
  16 -23  -3 86.3716 109.026  11
  23 -16  -3 62.7792 109.960  11
  16 -23   3 196.994 129.167  11
  16   7   3 284.605 136.138   6
   7  16   3 157.414 116.801   6
   7  16  -3 102.169 124.175   6
  16   7  -3-39.0129 112.762   6
  -7  23  -3 174.578 120.322   6
  -7  23  -3 62.6590 126.632   8
 -16  23  -3 151.481 125.491   8
  16   7   4 139.494 128.025   6
  16   7  -4 96.8655 113.987   6
  23 -16  -4 91.9412 115.561  11
   7  16  -4 81.1514 120.365   6
  -7  23  -4 22.5487 108.836   6
  -7  23  -4 126.025 119.105   8
 -16  23  -4-81.2010 114.213   8
  23 -16  -5 182.461 115.638  11
  16   7  -5 135.843 114.899   6
   7  16  -5-6.91998 121.973   6
  16   7   5 91.5507 89.6739   9
  -7  23  -5 116.319 107.931   6
  -7  23  -5 173.320 121.371   8
 -16  23  -5 54.2002 117.696   8
  16   7  -6 241.985 118.020   6
   7  16  -6 130.372 121.792   6
  16   7   6 123.177 88.6170   9
   7  16   6 172.317 86.3820   9
  -7  23  -6 219.859 111.707   6
  -7  23  -6 132.316 126.365   8
 -16  23  -6 40.8363 104.738   8
  16   7  -7 24.9306 110.799   6
   7  16  -7 59.3042 109.596   6
  16   7   7 152.990 87.8394   9
  -7  23  -7 84.3373 108.471   6
   7  16   7 119.209 85.7468   9
  -7  23  -7 22.8389 112.601   8
 -16  23  -7 71.6247 102.911   8
  16   7  -8 58.1258 103.903   6
   7  16  -8-8.32832 103.221   6
  16   7   8 108.793 80.9411   9
  -7  23  -8 63.4658 101.685   6
   7  16   8 145.923 78.4072   9
  -7  23  -8 186.089 116.527   8
 -16  23  -8 141.700 88.7520   8
   7  16  -9 80.6585 99.5931   6
   7 -23  -9 44.5376 104.674  10
  16   7   9 41.8058 73.7014   9
  -7  23  -9 0.96697 94.7683   6
   7  16   9 56.1432 72.4300   9
  -7  23  -9 30.4723 108.676   8
 -16  23  -9 101.053 84.9247   8
   7 -23 -10-65.5623 105.852  10
  16   7  10-23.3706 68.1039   9
  -7  23 -10 118.180 91.8643   6
   7  16  10 62.1974 68.8803   9
  -7  23 -10 18.0684 98.1072   8
 -16  23 -10 20.2236 77.4805   8
   7 -23 -11 75.8511 98.8274  10
  16   7  11 32.4780 64.1335   9
   7  16  11 44.5994 64.0316   9
  -7  23 -11 1.03313 92.4824   8
 -16  23 -11 25.4379 79.3888   8
   7 -23 -12 70.5005 88.2489  10
  16 -23 -12 84.0052 98.4904  10
   7  16  12-9.33028 59.3192   9
  -7  23  12 5.88272 56.4241   9
 -16  23 -12 36.6490 79.5147   8
   7 -23 -13-75.8793 74.1709  10
  16 -23 -13-37.8420 85.7457  10
   7  16  13 31.7967 54.2278   9
 -16  23 -13 79.3188 74.2644   8
  17 -23   0 451.665 126.144  11
  23 -17   0 298.551 102.014  11
   6  17   0 502.258 125.568   6
  17   6   0 301.440 124.717   6
  -6  23   0 370.427 118.092   6
 -17  23   0 445.644 160.541   8
  17 -23  -1 450.411 120.488  11
  17 -23   1 446.461 132.687  11
  23 -17  -1 617.489 117.227  11
  17   6  -1 416.441 125.142   6
   6  17   1 373.046 119.211   6
   6  17  -1 446.161 131.577   6
  17   6   1 530.473 134.287   6
  -6  23   1 551.453 124.318   6
  -6  23  -1 483.387 120.922   6
  -6  23  -1 604.334 132.551   8
 -17  23   1 637.982 167.399   8
 -17  23  -1 368.606 155.309   8
  17   6   2 402.657 134.374   6
  17   6  -2 309.253 117.687   6
  17 -23  -2 405.395 120.594  11
   6  17   2 406.287 118.417   6
   6  17  -2 457.744 131.050   6
  17 -23   2 643.975 134.315  11
  -6  23   2 473.326 122.547   6
  -6  23  -2 317.459 120.155   6
  23 -17  -2 359.738 111.280  11
  -6  23  -2 363.877 129.378   8
 -17  23  -2 626.583 153.028   8
  17   6   3 482.920 137.900   6
  17 -23  -3 374.400 117.247  11
  23 -17  -3 411.553 112.854  11
  17 -23   3 667.095 138.478  11
   6  17   3 170.740 114.481   6
  17   6  -3 403.340 121.456   6
   6  17  -3 450.999 133.220   6
  -6  23  -3 326.682 121.752   6
  -6  23  -3 309.247 131.379   8
 -17  23  -3 471.498 144.714   8
  17   6  -4 206.705 116.086   6
  17 -23   4 64.2144 108.085  11
  23 -17  -4 214.948 110.208  11
   6  17  -4 337.095 128.837   6
  -6  23  -4 196.863 116.411   6
  -6  23  -4 244.129 126.723   8
 -17  23  -4 85.6990 124.028   8
  23 -17  -5 211.835 110.120  11
   6  17  -5 139.663 121.378   6
  17   6   5 273.706 91.8585   9
  -6  23  -5 245.634 110.718   6
  17   6  -5 412.984 122.692   6
  -6  23  -5 268.443 130.602   8
 -17  23  -5 302.020 115.000   8
  17   6  -6 203.672 110.317   6
   6  17  -6 311.796 125.955   6
  23 -17  -6 169.786 108.026  11
  17   6   6 362.962 94.2442   9
  -6  23  -6 338.455 115.609   6
  -6  23  -6 195.773 122.512   8
 -17  23  -6 7.35245 95.4172   8
   6  17  -7 156.730 114.687   6
  17   6   7 264.793 90.0324   9
  17   6  -7 202.488 112.037   6
  -6  23  -7 144.190 106.179   6
   6  17   7 215.620 82.5928   9
  -6  23  -7 102.304 120.908   8
 -17  23  -7 89.2147 95.5578   8
   6  17  -8-21.9381 100.314   6
   6 -23  -8-16.2878 105.514  10
  17   6   8 99.4291 81.1124   9
  -6  23  -8 45.4531 99.4079   6
   6  17   8 24.0413 72.7882   9
  -6  23  -8 37.0652 110.548   8
 -17  23  -8-24.9388 87.3116   8
   6  17  -9 56.9142 96.4433   6
   6 -23  -9 4.04003 98.3592  10
  17   6   9 75.6822 75.1074   9
  -6  23  -9 24.3674 96.9121   6
   6  17   9 115.340 72.3242   9
  -6  23  -9 15.3577 106.746   8
 -17  23  -9 121.380 86.9735   8
   6 -23 -10-180.755 96.0064  10
  17   6  10 47.4078 69.7919   9
  -6  23 -10-100.483 94.6004   6
   6  17  10 11.4382 66.5157   9
  -6  23 -10-0.81923 99.3356   8
 -17  23 -10 77.0326 83.6315   8
   6 -23 -11 77.0641 89.4900  10
   6  17  11 168.807 67.5528   9
 -17  23 -11 87.3034 75.9816   8
   6 -23 -12-20.1605 83.0978  10
   6  17  12-0.34533 59.3037   9
  -6  23  12 16.9691 56.1589   9
 -17  23 -12 29.6135 77.0848   8
   6  17  13 76.4596 54.0217   9
 -17  23 -13 60.1528 74.3325   8
  18 -23   0-29.5244 102.712  11
  23 -18   0 11.3597 90.2164  11
   5  18   0 68.8015 113.471   6
  18   5   0 150.296 117.129   6
  -5  23   0 24.2003 106.203   6
 -18  23   0 20.5855 157.074   8
  18   5   1 9.82801 118.857   6
  18   5  -1 159.862 117.586   6
  18 -23  -1 105.434 108.628  11
  18 -23   1 200.318 114.011  11
  23 -18  -1 39.5372 98.2078  11
   5  18   1 256.996 115.951   6
   5  18  -1 34.0877 114.965   6
  -5  23   1 139.122 111.873   6
  -5  23  -1 137.733 111.540   6
 -18  23   1 170.931 143.728   8
 -18  23  -1 212.511 156.979   8
  18   5   2 46.8110 121.318   6
  18 -23   2-14.6530 115.237  11
  18   5  -2 0.06939 108.026   6
   5  18   2 118.016 109.917   6
   5  18  -2 206.643 121.798   6
  23 -18  -2 43.8639 100.826  11
  18 -23  -2-55.7400 106.087  11
  -5  23   2 61.0328 111.086   6
  -5  23  -2-60.6064 109.811   6
  -5  23  -2 49.3517 123.737   8
 -18  23  -2-28.2056 141.581   8
  18 -23  -3 101.343 106.203  11
  18   5  -3 133.172 109.649   6
  23 -18  -3 128.954 108.850  11
  18 -23   3 101.099 117.747  11
   5  18   3-184.306 116.804   6
   5  18  -3 202.229 124.620   6
  -5  23  -3 135.654 112.310   6
  -5  23  -3 121.020 125.673   8
 -18  23  -3-40.3652 140.572   8
  18   5  -4 143.433 109.979   6
  18 -23   4 146.694 115.002  11
   5  18  -4 7.45503 114.602   6
  18 -23  -4-4.95015 92.1134  11
  -5  23  -4 64.7569 105.919   6
  23 -18  -4 51.1284 111.721  11
  -5  23  -4 205.972 122.751   8
 -18  23  -4 18.4771 120.080   8
  18   5  -5 37.9878 105.513   6
  23 -18  -5 97.6126 110.640  11
  18 -23   5-36.7334 105.209  11
   5  18  -5 16.2529 111.759   6
  18   5   5 76.7346 88.1734   9
  -5  23  -5 167.545 108.882   6
  -5  23  -5 26.5743 121.574   8
 -18  23  -5 63.0757 114.998   8
  18   5  -6 64.9358 106.025   6
  18 -23   6 130.198 97.3399  11
   5  18  -6 22.6832 113.405   6
  18   5   6 46.4527 84.0536   9
  -5  23  -6 39.7754 106.825   6
  -5  23  -6 79.6308 122.693   8
 -18  23  -6 105.519 104.578   8
   5  18  -7 59.1497 110.141   6
  18   5   7 56.1487 82.5931   9
  -5  23  -7-49.7646 100.941   6
  -5  23  -7-7.60940 119.051   8
 -18  23  -7 67.4892 97.2696   8
   5  18  -8 88.0939 104.814   6
   5 -23  -8-18.8323 101.335  10
  18   5   8 97.7554 80.0926   9
  -5  23  -8-62.2278 101.500   6
   5  18   8-75.2017 74.9737   9
  -5  23  -8 46.4102 108.173   8
 -18  23  -8 16.5383 80.2536   8
   5  18  -9 6.62825 94.6667   6
   5 -23  -9-60.0222 95.2168  10
  -5  23  -9-31.7317 95.8392   6
   5  18   9 12.8507 68.0508   9
 -18  23  -9 12.8442 79.3919   8
   5 -23 -10-13.5755 84.2807  10
  -5  23 -10-19.5621 88.8874   6
   5  18  10-2.07474 67.3930   9
 -18  23 -10 40.7758 74.6956   8
   5 -23 -11-60.2354 80.9276  10
   5  18  11 49.1091 65.2396   9
 -18  23 -11-18.5460 75.5788   8
   5 -23 -12 79.6369 80.4229  10
   5  18  12 64.3236 58.1308   9
  -5  23  12 13.0710 55.4673   9
 -18  23 -12-12.2010 73.3881   8
  19   4   0 78.8369 121.244   6
  19 -23   0 151.266 113.526  11
  23 -19   0 151.303 94.0003  11
   4  19   0 76.8773 113.359   6
  -4  23   0 275.858 118.915   6
 -19  23   0 13.3764 162.716   8
  19   4  -1 378.562 124.699   6
  19 -23  -1 361.714 112.506  11
  19 -23   1 418.247 121.236  11
  23 -19  -1 474.420 113.191  11
  23 -19   1 489.371 109.636  11
   4  19   1 547.364 127.799   6
   4  19  -1 361.599 126.162   6
  -4  23   1 451.112 124.103   6
  -4  23  -1 624.515 132.483   6
 -19  23  -1 584.833 167.968   8
  19   4  -2 148.763 114.986   6
  19 -23  -2 36.2055 104.790  11
  19 -23   2 97.0537 114.128  11
   4  19   2 83.9508 111.775   6
   4  19  -2 138.324 116.798   6
  -4  23   2 195.409 115.031   6
  23 -19  -2 130.537 100.406  11
  -4  23  -2 32.8823 109.565   6
 -19  23  -2 379.429 170.568   8
  19   4  -3 357.952 118.816   6
  23 -19  -3 103.674 102.298  11
   4  19   3 142.181 110.956   6
   4  19  -3 196.449 123.329   6
  19 -23  -3 215.992 111.570  11
  -4  23  -3 126.058 115.428   6
  19 -23   3 350.399 123.076  11
  -4  23  -3 503.588 136.524   8
 -19  23  -3 410.162 149.958   8
  19   4  -4 55.3601 108.810   6
  19 -23   4 177.409 103.782  11
   4  19  -4 159.328 120.372   6
  -4  23  -4 94.0628 107.316   6
  23 -19  -4 112.279 110.202  11
  19 -23  -4 167.301 99.4709  11
  -4  23  -4 227.840 127.863   8
 -19  23  -4 217.664 132.925   8
  19 -23   5 40.9320 100.533  11
  23 -19  -5 123.408 110.609  11
   4  19  -5 215.371 119.390   6
  -4  23  -5 90.3578 104.912   6
  -4  23  -5 116.731 113.922   8
 -19  23  -5 89.7969 111.202   8
  19 -23   6 454.436 103.993  11
   4  19  -6 335.501 123.475   6
  -4  23  -6 290.318 117.555   6
 -19  23  -6 218.185 109.579   8
  19 -23   7 83.6474 86.8780  11
   4  19  -7 42.5534 108.535   6
  -4  23  -7 127.080 103.771   6
 -19  23  -7 71.9219 93.7571   8
   4  19  -8 110.887 104.397   6
  -4  23  -8 160.213 105.161   6
   4  19   8 105.407 73.8300   9
 -19  23  -8 137.406 85.1532   8
   4  19  -9 98.5944 98.7161   6
   4 -23  -9 1.55083 87.7384  10
  -4  23  -9 166.697 99.5943   6
   4  19   9 92.2551 72.8914   9
 -19  23  -9 80.9836 81.3538   8
   4 -23 -10 46.2203 79.7956  10
  -4  23 -10 150.690 91.9549   6
   4  19  10 79.4669 68.0113   9
 -19  23 -10 181.829 79.9779   8
   4 -23 -11 91.6841 77.2972  10
   4  19  11 146.738 66.0665   9
  -4  23  11 61.3220 61.3882   9
 -19  23 -11-14.3791 69.5231   8
   4 -23 -12 299.903 81.8949  10
  19 -23 -12 202.257 95.1344  10
   4  19  12 17.2806 56.5377   9
  -4  23  12 154.592 58.7833   9
 -19  23 -12 83.3865 68.3193   8
  23 -20   0 123.347 99.8879  11
  20 -23   0 174.413 112.553  11
   3  20   0 4.13474 117.770   6
  -3  23   0 117.776 118.357   6
  20 -23  -1 22.8034 104.367  11
  23 -20  -1-41.2787 95.7513  11
  23 -20   1 94.9276 95.1010  11
   3  20   1 12.7228 114.878   6
   3  20  -1 113.714 118.897   6
  -3  23   1 222.456 117.319   6
  -3  23  -1 151.880 115.720   6
  20 -23   1 55.8650 104.656  11
  23 -20  -2-77.8080 104.434  11
  20 -23   2 30.8546 113.403  11
  20 -23  -2 27.0050 97.9088  11
  23 -20   2-58.4417 92.7330  11
   3  20   2 86.2968 112.767   6
   3  20  -2-80.1530 117.606   6
  -3  23   2 69.2832 111.191   6
  -3  23  -2-25.3692 110.600   6
 -20  23  -2 209.288 164.319   8
  20 -23  -3 3.13359 96.9288  11
  23 -20  -3 68.6590 104.484  11
  20 -23   3 154.723 115.181  11
   3  20  -3 113.002 118.906   6
  -3  23  -3 51.8461 109.553   6
 -20  23  -3 180.511 152.385   8
  23 -20  -4 38.3527 104.975  11
  20 -23   4 169.669 106.051  11
   3  20  -4-30.7124 113.028   6
  -3  23  -4-92.6139 106.394   6
  20 -23  -4-83.2863 99.8404  11
 -20  23  -4-52.6008 130.863   8
  23 -20  -5-24.6475 101.167  11
  20 -23   5-78.1183 101.846  11
   3  20  -5 67.7201 112.261   6
  -3  23  -5-0.73911 104.856   6
 -20  23  -5 192.167 121.241   8
  20 -23   6 305.595 102.667  11
   3  20  -6 91.2634 113.660   6
  -3  23  -6 180.363 110.047   6
 -20  23  -6 114.918 108.442   8
  20 -23   7 17.2284 84.3810  11
   3  20  -7 26.4228 106.161   6
  -3  23  -7 31.4526 101.283   6
 -20  23  -7-50.5917 92.2251   8
  20 -23   8-58.0734 75.3648  11
   3  20  -8-8.48050 103.052   6
  -3  23  -8 169.476 102.028   6
 -20  23  -8-39.2159 86.5612   8
   3  20  -9 10.4276 93.8588   6
  -3  23  -9 47.9441 92.4871   6
   3  20   9 82.3532 68.1737   9
 -20  23  -9-12.0906 75.4836   8
  -3  23 -10 81.2295 90.0670   6
   3  20  10 58.4257 65.9729   9
 -20  23 -10-18.1354 71.4830   8
   3 -23 -11 39.5323 68.4517  10
   3  20  11-16.5603 61.2654   9
  -3  23  11-78.7784 61.6574   9
 -20  23 -11 17.2748 67.0950   8
  20 -23 -12-20.7969 86.9796  10
   3  20  12 55.6655 55.6983   9
  -3  23  12 61.6215 53.7691   9
 -20  23 -12 9.30149 63.2806   8
  21 -23   0 52.6684 110.358  11
  23 -21   0 110.567 105.425  11
   2  21   0 189.857 123.478   6
  -2  23   0-6.20232 116.093   6
  23 -21   1 111.160 93.4943  11
   2  21   1-6.92254 115.281   6
   2  21  -1 195.487 119.265   6
  21 -23  -1 68.2864 106.364  11
  -2  23   1 104.054 114.185   6
  -2  23  -1 207.552 119.476   6
  23 -21  -1 62.1423 96.8765  11
  21 -23   1 139.554 111.172  11
  23 -21  -2 72.0404 100.215  11
  21 -23  -2 209.555 108.425  11
  23 -21   2 38.4802 95.0906  11
   2  21   2-13.1972 115.050   6
   2  21  -2 163.475 119.760   6
  -2  23   2 249.966 120.687   6
  21 -23   2 126.629 103.713  11
  -2  23  -2 2.92067 112.388   6
  23 -21  -3 114.339 94.9695  11
  21 -23  -3 33.2947 99.7471  11
  21 -23   3 122.625 103.750  11
  23 -21   3 72.1104 88.2588  11
   2  21  -3 18.6492 113.310   6
  -2  23  -3 97.5614 110.489   6
  21 -23  -4 68.8810 89.7811  11
  23 -21  -4 132.115 96.4765  11
  21 -23   4 35.4870 101.333  11
   2  21  -4 49.6551 107.059   6
  -2  23  -4-68.0739 107.876   6
 -21  23  -4 135.314 137.215   8
  21 -23   5 169.092 99.3953  11
   2  21  -5 160.024 110.845   6
  -2  23  -5 113.794 105.649   6
  23 -21  -5 6.82068 101.406  11
 -21  23  -5 30.5087 117.914   8
  21 -23   6 116.288 93.5570  11
   2  21  -6 183.489 114.997   6
  -2  23  -6 203.836 110.142   6
 -21  23  -6-20.1251 105.585   8
  21 -23   7 107.298 81.3197  11
   2  21  -7-18.9376 105.232   6
  -2  23  -7 166.240 105.412   6
 -21  23  -7 259.818 95.9371   8
  21 -23   8 28.1993 71.1451  11
   2  21  -8 91.9120 99.5790   6
  -2  23  -8 112.007 100.644   6
 -21  23  -8 46.7020 80.9449   8
   2  21  -9 72.3693 91.7335   6
  -2  23  -9 109.794 92.9426   6
   2  21   9 61.1615 66.4599   9
 -21  23  -9 18.1829 71.0146   8
  -2  23 -10 137.404 86.3788   6
   2  21  10-51.9387 64.9375   9
 -21  23 -10 73.9291 69.1432   8
  23 -21  11-40.0020 52.6994  11
   2  21  11 7.22558 58.1693   9
  -2  23  11 54.2690 59.2763   9
 -21  23 -11 46.0933 66.5853   8
  22 -23   0 475.696 122.773  11
  23 -22   0 394.410 110.409  11
   1  22   0 503.522 133.933   6
  -1  23   0 577.594 133.183   6
  22 -23  -1 266.952 115.716  11
  23 -22  -1 195.697 108.180  11
  22 -23   1 306.148 116.770  11
   1  22   1 144.013 122.097   6
   1  22  -1 220.001 124.903   6
  -1  23   1 363.463 129.415   6
  -1  23  -1 374.152 128.563   6
  23 -22   1 240.349 104.295  11
  22 -23  -2 198.964 108.705  11
  23 -22  -2 148.514 106.202  11
  22 -23   2 207.454 104.103  11
  23 -22   2 211.503 101.677  11
   1  22   2 326.329 123.992   6
  -1  23   2 275.746 121.037   6
   1  22  -2 168.716 119.420   6
  -1  23  -2 365.562 123.917   6
  22 -23  -3 246.294 105.026  11
  23 -22  -3 250.390 105.959  11
  22 -23   3 363.629 107.470  11
  23 -22   3 470.749 107.433  11
   1  22  -3 153.402 118.164   6
  -1  23  -3 331.804 120.950   6
  22 -23  -4 224.875 95.3823  11
  23 -22  -4 206.797 105.192  11
  22 -23   4 322.582 108.744  11
  23 -22   4 166.058 99.8798  11
   1  22  -4 137.180 109.432   6
  -1  23  -4 50.3032 104.695   6
  22 -23   5 215.261 99.9407  11
  23 -22   5 138.575 97.7922  11
   1  22  -5 57.8712 105.539   6
  -1  23  -5 199.137 107.238   6
  22 -23   6 154.908 95.6702  11
  23 -22   6 131.863 89.0428  11
   1  22  -6-10.3258 103.187   6
  -1  23  -6 249.865 110.675   6
 -22  23  -6 72.8175 109.685   8
  22 -23   7 217.220 86.9362  11
   1  22  -7 93.3418 103.058   6
  -1  23  -7 344.210 111.682   6
 -22  23  -7 190.439 92.6449   8
  22 -23   8 157.064 75.2865  11
   1  22  -8 198.886 101.022   6
  -1  23  -8 92.5574 98.7786   6
 -22  23  -8 14.7945 78.7832   8
  22 -23   9 49.1127 58.1445  11
   1  22  -9-80.8229 90.9785   6
  -1  23  -9 143.994 92.5716   6
   1  22   9 91.0061 65.8783   9
  23 -22   9-25.6097 67.4552  11
 -22  23  -9 65.3328 70.8759   8
  -1  23 -10-150.956 84.8659   6
  23 -22  10-19.0099 56.2820  11
   1  22  10 13.8505 60.5393   9
  -1  23  10 12.0322 59.8766   9
 -22  23 -10 165.661 67.6350   8
 -23  22 -10 135.055 66.1962   8
   1  22  11-54.5911 56.6310   9
  -1  23  11 86.8092 56.0095   9
 -23  22 -11-7.82382 55.5281   8
 -22  23 -11 73.0759 58.9216   8
  23 -23   0 120.001 103.258  11
   0  23   0 180.042 119.948   6
  23 -23  -1 4.92551 90.4302  11
  23 -23   1 73.7183 101.307  11
   0  23   1 252.776 118.792   6
   0  23  -1 79.6299 112.996   6
  23 -23   2 85.4728 98.2103  11
  23 -23  -2 79.2943 95.4038  11
   0  23   2 31.6739 112.377   6
   0  23  -2 2.52894 108.487   6
  23 -23  -3-31.2090 86.1515  11
  23 -23   3 123.448 98.9133  11
   0  23  -3 74.9325 107.379   6
  23 -23  -4 72.4604 92.0880  11
  23 -23   4 153.559 90.3735  11
   0  23  -4 185.732 109.386   6
  23 -23   5-6.21098 89.7801  11
   0  23  -5 109.958 101.248   6
  23 -23   6 103.371 84.0351  11
   0  23  -6-130.805 102.224   6
  23 -23   7-21.2262 77.6954  11
   0  23  -7-38.2036 99.4402   6
  23 -23   8 45.5463 65.2457  11
   0  23  -8 74.0569 93.7833   6
  23 -23   9 47.3054 57.9516  11
   0  23  -9 25.7423 84.2748   6
   0  23   9 54.9569 60.8019   9
 -23  23  -9 51.8584 65.6525   8
  23 -23  10-15.3992 48.6134  11
   0  23  10 4.61463 57.6300   9
 -23  23 -10 50.2729 60.1642   8
  12  12   0 2644.68 195.189   6
 -12  24   0 1918.85 189.887   8
  12  12   1 2315.44 182.075   6
  12  12  -1 2151.39 182.937   6
 -12  24   1 1870.95 177.254   8
 -12  24  -1 2240.59 191.085   8
  12  12   2 2378.50 184.006   6
  12  12  -2 1907.66 181.819   6
 -12  24  -2 2494.15 194.546   8
  12  12   3 2133.00 179.603   6
  12  12  -3 2148.64 185.237   6
 -12  24  -3 1701.05 178.112   8
  12  12   4 1638.83 166.464   6
  12  12  -4 1397.94 170.127   6
  12  12   4 1895.83 143.277   9
 -12  24  -4 1889.05 166.062   8
  12  12  -5 1806.09 177.251   6
  12  12   5 1679.16 135.878   9
 -12  24  -5 1632.04 162.962   8
  12  12  -6 1407.71 161.753   6
  12  12   6 1341.07 123.936   9
 -12  24  -6 1241.53 152.948   8
  12  12  -7 602.058 135.605   6
  12  12   7 682.842 103.719   9
 -12  24  -7 547.988 128.666   8
  12  12  -8 605.030 123.376   6
  12  12   8 460.009 89.3290   9
 -12  24  -8 461.078 114.847   6
 -12  24  -8 339.032 110.033   8
  12  12   9 160.931 79.7627   9
 -12  24  -9 231.909 103.829   6
 -12  24  -9 227.427 107.041   8
  12  12  10 153.066 74.7954   9
 -12  24 -10 356.968 101.453   6
 -12  24 -10 199.651 103.025   8
  12 -24 -11 65.1236 102.145  10
  12  12  11 105.976 63.9450   9
 -12  24 -11 110.819 90.5692   8
  12 -24 -12 96.7008 91.8510  10
  12  12  12 21.9729 58.5191   9
 -12  24 -12 73.7546 80.2697   8
  13  11   0 4342.85 225.579   6
  11  13   0 4231.95 220.103   6
 -11  24   0 3779.33 216.392   8
 -13  24   0 3904.23 233.125   8
  13  11   1 2147.67 177.778   6
  13  11  -1 2525.12 186.315   6
  11  13   1 2429.71 184.361   6
  11  13  -1 2980.91 198.049   6
 -13  24   1 1978.90 183.479   8
 -11  24  -1 2439.68 188.891   8
 -13  24  -1 2669.92 201.207   8
  13  11   2 3707.11 210.709   6
  11  13   2 3642.99 205.922   6
  13  11  -2 3585.35 213.113   6
  11  13  -2 3744.12 218.048   6
 -11  24  -2 3367.37 206.416   8
 -13  24  -2 3588.26 218.152   8
  11  13   3 2917.88 190.382   6
  13  11  -3 2902.01 199.955   6
  11  13  -3 3117.93 205.974   6
 -11  24  -3 3291.15 201.238   8
 -13  24  -3 2954.16 202.461   8
  13  11   4 1998.89 172.793   6
  13  11  -4 1658.51 176.387   6
  11  13  -4 1872.39 176.941   6
  11  13   4 1935.57 141.426   9
 -11  24  -4 1492.96 164.753   8
 -13  24  -4 1715.41 170.173   8
  13  11  -5 1786.35 172.348   6
  11  13  -5 1514.46 171.139   6
  13  11   5 1515.76 132.506   9
  11  13   5 1583.09 132.931   9
 -11  24  -5 1432.31 163.103   8
 -13  24  -5 1283.40 153.273   8
  13  11  -6 1408.10 160.318   6
  11  13  -6 1422.90 162.816   6
  13  11   6 1491.05 125.019   9
  11  13   6 1233.42 121.064   9
 -11  24  -6 1369.73 148.633   8
 -13  24  -6 1343.69 144.392   8
  13  11  -7 1017.59 144.857   6
  11  13  -7 1079.34 146.124   6
  13  11   7 929.397 108.956   9
  11  13   7 832.682 108.997   9
 -13  24  -7 1236.42 136.395   8
 -11  24  -7 872.018 131.090   6
 -11  24  -7 1008.29 139.295   8
  13  11  -8 576.803 120.388   6
  11  13  -8 380.186 115.417   6
  13  11   8 550.851 94.2629   9
  11  13   8 392.909 88.4286   9
 -11  24  -8 448.176 111.244   6
 -11  24  -8 419.392 111.905   8
 -13  24  -8 398.970 107.680   8
  11  13  -9 494.993 112.482   6
  13  11   9 574.665 88.8640   9
  11  13   9 514.821 84.6372   9
 -11  24  -9 536.558 109.909   6
 -13  24  -9 535.955 109.623   6
 -11  24  -9 413.521 116.274   8
 -13  24  -9 329.071 102.526   8
  13  11  10 442.931 81.1819   9
  11  13  10 414.592 80.0619   9
 -11  24 -10 447.278 100.800   6
 -13  24 -10 546.511 103.697   6
 -11  24 -10 239.317 105.449   8
 -13  24 -10 589.059 110.992   8
  11 -24 -11 140.299 101.593  10
  13 -24 -11-129.532 100.798  10
  13  11  11 184.062 67.2690   9
  11  13  11 184.131 66.4122   9
 -11  24 -11 192.495 93.8658   8
 -13  24 -11 156.927 91.2734   8
  11 -24 -12 11.2693 88.7739  10
  13 -24 -12-66.0854 92.2000  10
  13  11  12 177.759 61.8680   9
  11  13  12 118.536 59.8306   9
 -11  24 -12 146.619 87.8978   8
 -13  24 -12 141.893 86.4165   8
  10  14   0 1539.00 163.909   6
  14 -24   0 1136.10 154.557  11
  14  10   0 1149.81 153.616   6
 -10  24   0 938.922 157.272   8
 -14  24   0 1278.03 171.735   8
  14 -24  -1 499.587 140.215  11
  14  10   1 356.748 130.894   6
  24 -14  -1 334.517 116.070  11
  14  10  -1 296.183 131.553   6
  10  14   1 390.476 131.433   6
  10  14  -1 637.007 141.199   6
 -14  24   1 159.540 146.308   8
 -10  24  -1 228.413 135.110   8
 -14  24  -1 318.514 145.422   8
 -10  24   1 496.305 132.666   6
  14  10  -2 1174.00 158.505   6
  10  14   2 1325.13 156.469   6
  10  14  -2 1682.75 173.803   6
 -10  24   2 1110.10 150.742   6
  14  10   2 1006.61 152.623   6
  24 -14  -2 1064.58 138.285  11
 -10  24  -2 1103.19 155.070   8
 -14  24  -2 1100.03 160.035   8
  14  10   3 491.770 137.209   6
  14  10  -3 810.078 147.750   6
  10  14   3 749.997 139.480   6
  10  14  -3 1021.67 156.521   6
 -10  24  -3 678.378 140.638   8
 -14  24  -3 785.156 153.168   8
  14  10   4 295.730 131.089   6
  14  10  -4 380.779 132.199   6
  10  14  -4 709.501 147.035   6
  10  14   4 418.085 105.669   9
 -10  24  -4 269.502 134.283   8
 -14  24  -4 334.752 124.090   8
  14  10  -5 447.487 134.247   6
  10  14  -5 561.834 140.019   6
  14  10   5 387.895 101.478   9
  10  14   5 384.251 103.794   9
 -10  24  -5 316.204 116.725   6
 -10  24  -5 374.678 133.796   8
 -14  24  -5 300.694 124.867   8
  14  10  -6 341.674 126.235   6
  10  14  -6 341.972 129.424   6
  14  10   6 341.427 97.4623   9
  10  14   6 458.179 100.550   9
 -10  24  -6 204.676 112.597   6
 -10  24  -6 226.132 116.721   8
 -14  24  -6 207.771 110.075   8
  14  10  -7 293.616 124.971   6
  10  14  -7 283.601 120.714   6
  14  10   7 362.091 94.8278   9
  10  14   7 360.387 92.1519   9
 -10  24  -7 373.410 115.475   6
 -10  24  -7 398.763 123.883   8
 -14  24  -7 178.791 104.475   8
  10  14  -8 267.887 107.805   6
  14  10   8 175.674 81.3381   9
  10  14   8 126.921 79.1589   9
 -10  24  -8 161.602 103.537   6
  14  10  -8 105.404 106.236   6
 -10  24  -8 124.789 108.306   8
 -14  24  -8 101.028 96.2170   8
  10  14  -9 79.0683 100.445   6
  14  10   9 83.6547 75.6006   9
  10  14   9 157.491 74.1780   9
 -10  24  -9 139.120 96.3513   6
 -14  24  -9-47.5939 93.1311   6
 -10  24  -9 233.212 112.289   8
 -14  24  -9 48.2346 88.2850   8
  10 -24 -10 173.430 110.036  10
  14  10  10 191.994 73.3713   9
  10  14  10 124.001 69.3227   9
 -10  24 -10 141.139 90.1925   6
 -14  24 -10 189.957 90.8626   6
 -10  24 -10 244.513 103.171   8
 -14  24 -10 84.5074 91.2943   8
  10 -24 -11-97.8063 99.4463  10
  14  10  11 61.0846 61.2329   9
  10  14  11 4.30064 62.2909   9
 -10  24 -11-56.5998 94.5648   8
 -14  24 -11 17.5788 82.9791   8
  10 -24 -12 2.37444 85.1712  10
  14 -24 -12-13.5664 91.4410  10
  14  10  12 89.3918 57.3653   9
  10  14  12-25.6537 58.2876   9
 -10  24 -12 25.2997 81.3648   8
 -14  24 -12 76.7623 81.4683   8
  15 -24   0 912.025 157.245  11
  15   9   0 227.924 125.479   6
   9  15   0 597.845 138.072   6
  -9  24   0 559.530 141.923   8
  -9  24   0 542.211 132.996   6
 -15  24   0 420.954 153.604   8
  15 -24  -1 579.324 140.337  11
  15 -24   1 934.806 148.385  11
  15   9   1 315.942 125.365   6
  15   9  -1 227.435 122.672   6
  24 -15  -1 258.311 111.160  11
   9  15   1 407.823 126.321   6
   9  15  -1 349.222 127.397   6
 -15  24   1 334.110 150.128   8
  -9  24   1 500.312 126.551   6
  -9  24  -1 290.780 130.637   8
  -9  24  -1 325.997 123.098   6
 -15  24  -1 469.786 154.536   8
   9  15   2 973.510 143.747   6
  15   9   2 850.550 144.374   6
  24 -15  -2 615.334 126.727  11
  15   9  -2 730.456 139.993   6
   9  15  -2 764.091 148.458   6
  -9  24   2 778.891 135.683   6
  15 -24  -2 734.796 146.288  11
  -9  24  -2 941.452 145.027   8
  -9  24  -2 819.133 140.635   6
 -15  24  -2 846.591 162.102   8
  15   9   3 347.596 130.605   6
  24 -15  -3 350.285 117.740  11
  15   9  -3 212.958 121.922   6
   9  15   3 451.043 124.080   6
   9  15  -3 187.742 130.835   6
  -9  24  -3 352.587 123.233   6
  -9  24  -3 343.103 129.209   8
 -15  24  -3 260.598 127.651   8
  15   9   4 451.018 133.337   6
  15   9  -4 528.608 133.785   6
   9  15  -4 417.662 132.984   6
   9  15   4 402.586 100.710   9
  -9  24  -4 244.745 115.667   6
  -9  24  -4 295.778 130.420   8
 -15  24  -4 202.103 123.737   8
  15   9  -5 239.953 121.492   6
   9  15  -5 231.710 126.778   6
  15   9   5 214.820 93.2617   9
   9  15   5 290.137 95.5190   9
  -9  24  -5 180.999 114.256   6
  -9  24  -5 328.506 125.689   8
 -15  24  -5 153.864 112.817   8
  15   9  -6 170.644 115.269   6
   9  15  -6 158.089 118.758   6
  15   9   6 175.944 90.0040   9
   9  15   6 174.456 87.4136   9
  -9  24  -6-59.2859 104.424   6
  -9  24  -6 151.077 120.779   8
 -15  24  -6 111.603 109.887   8
  15   9  -7 228.140 113.720   6
   9  15  -7 461.908 123.584   6
  15   9   7 130.437 82.6176   9
   9  15   7 176.296 84.4708   9
  -9  24  -7 241.946 109.358   6
  -9  24  -7 193.073 117.240   8
 -15  24  -7 179.466 104.565   8
   9  15  -8 152.358 106.348   6
  15   9   8 157.674 78.7831   9
   9  15   8 70.3615 75.1161   9
  -9  24  -8 65.4245 96.4397   6
  15   9  -8 160.398 105.124   6
  -9  24  -8 114.686 110.560   8
 -15  24  -8 109.824 90.6238   8
   9  15  -9 141.716 100.078   6
   9 -24  -9-50.0468 113.777  10
  15   9   9 112.983 74.5539   9
   9  15   9 88.8018 71.1046   9
  -9  24  -9 252.131 98.4927   6
  -9  24  -9 40.6725 106.844   8
 -15  24  -9 131.524 87.5234   8
   9 -24 -10 65.6094 107.227  10
  15   9  10 135.046 69.0075   9
  -9  24 -10 94.1455 88.5772   6
   9  15  10 53.5462 65.8570   9
 -15  24 -10 66.1325 85.5884   6
  -9  24 -10 72.9312 96.3298   8
 -15  24 -10-24.1984 86.1630   8
   9 -24 -11-15.4220 96.6082  10
  15   9  11 52.9035 62.4876   9
   9  15  11 0.19416 60.4630   9
  -9  24 -11 135.356 93.2715   8
 -15  24 -11-9.20783 82.8414   8
   9 -24 -12 33.6551 84.2193  10
  15 -24 -12-2.27697 87.8852  10
   9  15  12 77.0078 57.7343   9
  -9  24 -12 67.7540 80.1874   8
 -15  24 -12-36.2381 79.6776   8
  16   8   0 237.427 117.445   6
  24 -16   0 150.806 100.210  11
   8  16   0 117.438 113.085   6
  16 -24   0 18.3476 115.089  11
  -8  24   0-21.8293 109.068   6
 -16  24   0 84.4364 131.594   8
  16 -24  -1 42.3076 115.483  11
  16   8   1-4.94540 115.292   6
  16 -24   1 57.2441 124.179  11
  16   8  -1 167.993 115.748   6
   8  16   1 132.757 112.267   6
   8  16  -1 157.470 117.217   6
  24 -16  -1 134.125 99.8958  11
  -8  24   1 19.2923 108.035   6
  -8  24  -1-33.6186 108.254   6
 -16  24   1-30.9534 136.037   8
  -8  24  -1 38.4563 110.526   8
 -16  24  -1 93.8183 139.096   8
  16 -24  -2 83.6601 108.762  11
  16   8   2 95.0563 118.215   6
  16 -24   2 206.876 127.478  11
  16   8  -2 280.208 121.249   6
  24 -16  -2 156.778 104.387  11
   8  16   2 52.6010 108.473   6
   8  16  -2 171.158 121.057   6
  -8  24   2 140.503 111.018   6
  -8  24  -2 96.2902 109.145   6
  -8  24  -2 240.510 128.599   8
 -16  24  -2 241.804 140.125   8
  16   8   3-3.08920 116.260   6
  16   8  -3 44.0756 109.703   6
  24 -16  -3 39.2720 106.986  11
   8  16   3 12.6835 106.121   6
   8  16  -3 8.36589 115.509   6
   8  16   3 47.9940 87.5999   9
  -8  24  -3 83.6863 111.122   6
  -8  24  -3 49.8551 117.176   8
 -16  24  -3-154.905 121.256   8
  16   8   4 28.1672 118.735   6
  24 -16  -4 0.28222 101.808  11
  16   8  -4 72.0637 111.111   6
   8  16  -4 3.07583 115.994   6
   8  16   4 57.5076 87.5283   9
  -8  24  -4-39.7973 105.743   6
  -8  24  -4 107.971 123.381   8
 -16  24  -4-35.2512 116.726   8
  16   8  -5 119.222 112.362   6
   8  16  -5-58.5421 118.463   6
  16   8   5 82.5155 86.4398   9
   8  16   5 82.4832 87.2475   9
  -8  24  -5-89.2598 105.020   6
  -8  24  -5 175.746 126.903   8
 -16  24  -5-67.1698 103.435   8
  16   8  -6 168.711 114.215   6
   8  16  -6 10.9969 111.575   6
  16   8   6 66.2001 83.7752   9
   8  16   6-24.9065 81.3084   9
  -8  24  -6 30.9472 100.681   6
  -8  24  -6-4.97330 118.196   8
 -16  24  -6-0.77114 101.798   8
  16   8  -7 15.1269 105.822   6
   8  16  -7-25.0499 107.189   6
  16   8   7 78.6864 80.8453   9
   8  16   7 70.0357 77.7319   9
  -8  24  -7-60.5188 99.2881   6
  -8  24  -7-13.2844 114.551   8
 -16  24  -7 118.079 96.0250   8
   8  16  -8 71.0535 102.803   6
  16   8   8-67.1632 73.9980   9
  -8  24  -8 7.04914 93.1739   6
   8  16   8 9.67598 73.5862   9
  16   8  -8 12.6993 99.2869   6
  -8  24  -8 22.4308 109.073   8
 -16  24  -8-12.2192 82.2024   8
   8  16  -9 11.6839 92.4413   6
   8 -24  -9-66.8878 105.866  10
  16   8   9-33.3577 71.0414   9
  -8  24  -9 89.7721 93.3562   6
   8  16   9 1.27109 70.0526   9
  -8  24  -9 31.7607 108.104   8
 -16  24  -9-75.5996 83.7551   8
   8 -24 -10-55.0504 99.5238  10
  16   8  10 71.3668 66.7973   9
  -8  24 -10 113.121 88.7629   6
   8  16  10 147.465 68.4605   9
 -16  24 -10 76.1455 82.8106   6
  -8  24 -10-80.1298 98.9458   8
 -16  24 -10 28.8315 80.6216   8
   8 -24 -11 29.8953 94.6041  10
  16   8  11 65.4662 63.5853   9
   8  16  11 61.5312 62.4752   9
  -8  24 -11 37.3239 89.3678   8
 -16  24 -11 50.0941 78.7030   8
   8 -24 -12 0.78569 80.1439  10
  16 -24 -12-24.6025 86.0516  10
   8  16  12 9.17111 55.3606   9
 -16  24 -12-70.1172 74.9250   8
  17   7   0 70.7653 111.629   6
  17 -24   0 100.699 117.600  11
  24 -17   0 182.737 95.7268  11
   7  17   0 135.609 108.695   6
  -7  24   0 40.8848 106.346   6
 -17  24   0 261.763 148.648   8
  17 -24   1 59.6330 111.212  11
  17   7   1 27.2667 113.208   6
  17   7  -1-54.8540 108.307   6
  24 -17  -1-33.6568 93.7487  11
   7  17   1 98.6312 106.620   6
   7  17  -1-110.191 112.211   6
  -7  24   1 153.593 111.013   6
  -7  24  -1 48.6912 106.165   6
  17 -24  -1-18.4872 112.698  11
  -7  24  -1 90.2784 116.208   8
 -17  24   1-55.1166 146.105   8
 -17  24  -1 10.7898 127.924   8
  17 -24  -2-40.9044 102.141  11
  17   7  -2 132.367 111.621   6
  17 -24   2 153.308 111.702  11
  24 -17  -2 220.004 101.537  11
   7  17   2-128.849 109.808   6
   7  17  -2-69.2352 116.507   6
  17   7   2-163.305 124.870   6
  -7  24   2 111.759 105.298   6
  -7  24  -2-128.431 108.059   6
  -7  24  -2 118.649 124.816   8
 -17  24  -2 23.3219 123.172   8
  17   7   3 105.448 116.578   6
  17 -24  -3 45.7657 104.337  11
  17   7  -3-41.6321 109.017   6
  24 -17  -3 0.68664 98.8842  11
  17 -24   3 150.743 121.038  11
   7  17   3 1.35728 104.706   6
   7  17  -3 127.194 117.160   6
  -7  24  -3 214.413 108.148   6
  -7  24  -3 24.0749 117.625   8
 -17  24  -3 10.7189 127.804   8
  24 -17  -4-161.173 105.555  11
  17   7  -4 126.282 110.740   6
   7  17  -4 87.1104 115.812   6
  -7  24  -4-53.5381 102.931   6
  -7  24  -4-12.1587 120.992   8
 -17  24  -4-11.9617 114.268   8
  17   7  -5-12.0646 107.134   6
  24 -17  -5 36.8227 106.407  11
   7  17  -5 144.777 113.560   6
  17   7   5 156.002 85.1633   9
  -7  24  -5 75.7538 100.442   6
   7  17   5-60.5330 83.8119   9
  -7  24  -5-92.9843 119.527   8
 -17  24  -5 81.4579 104.178   8
  17   7  -6 75.6103 106.084   6
   7  17  -6 13.3065 109.163   6
  17   7   6-44.4412 81.5861   9
  -7  24  -6 109.252 102.910   6
   7  17   6 87.7084 81.0794   9
  -7  24  -6 8.48671 118.487   8
 -17  24  -6-27.0622 99.0206   8
  17   7  -7 99.5191 103.235   6
   7  17  -7 53.3438 107.505   6
   7 -24  -7-22.1605 114.757  10
  17   7   7-27.1214 77.4224   9
  -7  24  -7-72.0520 100.505   6
   7  17   7-63.4592 78.9814   9
  -7  24  -7-17.1652 111.134   8
 -17  24  -7 154.179 97.5823   8
   7  17  -8 116.289 98.7753   6
   7 -24  -8-87.8970 108.071  10
  17   7   8-65.8890 75.7517   9
  -7  24  -8 154.033 97.2721   6
   7  17   8-10.5610 69.9778   9
  -7  24  -8-2.44607 110.436   8
 -17  24  -8 5.17703 79.9940   8
   7  17  -9 29.2025 89.8095   6
   7 -24  -9-8.16404 96.2800  10
  17   7   9 41.9666 70.3163   9
  -7  24  -9 119.756 91.4182   6
   7  17   9 12.8852 66.9354   9
  -7  24  -9 87.8928 104.561   8
 -17  24  -9-70.8647 82.1701   8
   7 -24 -10 23.1673 89.5256  10
  17   7  10-84.6926 69.3684   9
  -7  24 -10-72.6485 83.5527   6
   7  17  10 27.8687 62.8879   9
 -17  24 -10 42.2153 83.7558   6
  -7  24 -10 58.4228 95.3265   8
 -17  24 -10 92.3885 78.4159   8
   7 -24 -11 162.124 92.2691  10
   7  17  11-47.8380 62.4689   9
 -17  24 -11 36.2958 76.7719   8
   7 -24 -12 127.809 79.2246  10
  17 -24 -12-7.70147 88.3263  10
   7  17  12-27.8052 54.6061   9
  -7  24  12-46.5824 53.5362   9
 -17  24 -12 106.820 76.3600   8
  18   6   0 34.2010 107.339   6
  18 -24   0-22.4935 110.031  11
  24 -18   0-97.6486 85.9495  11
   6  18   0 46.2848 105.328   6
  -6  24   0 30.4812 103.600   6
 -18  24   0-59.3567 150.123   8
  18   6   1 71.7135 112.450   6
  18   6  -1-86.4151 108.996   6
  18 -24  -1 40.2998 105.626  11
  18 -24   1 54.5940 115.110  11
  24 -18  -1-21.1982 92.0844  11
  24 -18   1-12.4195 82.9861  11
   6  18   1-5.26182 106.722   6
   6  18  -1 149.887 114.725   6
  -6  24   1 135.694 106.202   6
  -6  24  -1 1.10020 103.523   6
 -18  24   1-151.848 154.245   8
 -18  24  -1-35.8942 136.734   8
  18   6   2 4.03998 115.512   6
  18 -24   2 87.1605 112.045  11
  24 -18  -2-53.3738 99.3014  11
  18 -24  -2 92.8696 104.874  11
   6  18   2 12.4930 107.392   6
   6  18  -2 2.65982 110.999   6
  -6  24   2 14.4390 104.538   6
  -6  24  -2 112.678 107.096   6
  -6  24  -2 43.2900 114.628   8
  18   6  -2 65.1938 104.233   6
 -18  24  -2 60.0591 137.209   8
  18   6  -3-220.167 112.410   6
  24 -18  -3-38.6447 104.816  11
  18 -24   3 92.3203 116.575  11
   6  18   3-164.027 112.410   6
   6  18  -3 28.8014 115.070   6
  18 -24  -3-5.96573 94.7529  11
  -6  24  -3-42.7160 105.582   6
  -6  24  -3 270.414 126.865   8
 -18  24  -3 118.661 127.309   8
  18   6  -4 168.976 107.859   6
  24 -18  -4 33.2060 105.616  11
  18 -24   4 35.7223 108.699  11
   6  18  -4 22.5549 114.669   6
  -6  24  -4 75.1035 102.761   6
  -6  24  -4 134.686 111.283   8
 -18  24  -4 50.5176 113.455   8
  18   6  -5 129.678 109.181   6
  24 -18  -5 49.8623 105.911  11
  18 -24   5 23.4908 95.2623  11
   6  18  -5 5.68497 110.789   6
  18   6   5 56.6268 84.2009   9
  -6  24  -5 114.546 102.676   6
  -6  24  -5 11.9386 118.818   8
 -18  24  -5-85.4298 105.667   8
  18   6  -6 33.9889 103.481   6
   6  18  -6 16.7709 111.204   6
  18   6   6 73.9636 84.2439   9
  -6  24  -6-62.7796 99.2445   6
   6  18   6-30.9127 78.9560   9
  -6  24  -6 44.2906 118.947   8
 -18  24  -6 6.38701 94.1111   8
   6  18  -7 32.6560 105.452   6
  18   6   7 27.8078 78.9686   9
  -6  24  -7 19.0756 97.9008   6
   6  18   7 143.112 77.8532   9
  -6  24  -7 95.4889 115.861   8
 -18  24  -7-4.36714 83.4811   8
   6  18  -8-80.4545 98.7744   6
   6 -24  -8 210.979 108.812  10
  18   6   8 103.232 76.9455   9
  -6  24  -8-82.2136 96.2981   6
   6  18   8 31.0902 71.2544   9
  -6  24  -8 174.822 112.613   8
 -18  24  -8-37.7839 84.1205   8
   6  18  -9 143.450 93.8017   6
   6 -24  -9 86.9028 93.4081  10
  -6  24  -9 25.2655 89.0726   6
   6  18   9-7.85670 66.9543   9
  -6  24  -9-86.0792 104.872   8
 -18  24  -9-0.08244 74.0882   8
   6 -24 -10-86.8296 88.3680  10
  -6  24 -10-9.22326 83.3408   6
   6  18  10-4.37651 63.2041   9
 -18  24 -10-0.30530 71.0357   8
   6 -24 -11-74.5308 82.2052  10
   6  18  11 12.1973 60.6450   9
 -18  24 -11 39.7563 71.0163   8
  18 -24 -12-75.1454 87.8753  10
   6  18  12-27.0532 54.7938   9
  -6  24  12 16.7367 52.1555   9
 -18  24 -12-4.93774 70.2327   8
  19   5   0 16.9182 109.775   6
  19 -24   0 18.9547 111.892  11
  24 -19   0 205.967 103.292  11
   5  19   0 99.8411 111.890   6
  -5  24   0-39.6524 108.702   6
 -19  24   0-53.4290 151.282   8
  19   5  -1 45.3681 109.049   6
  19 -24   1-80.6856 113.674  11
  19 -24  -1 82.9204 109.886  11
  24 -19  -1 50.6603 92.5099  11
  24 -19   1 75.3120 83.4083  11
   5  19   1 209.407 109.838   6
   5  19  -1 84.5669 111.212   6
  -5  24   1-30.1304 107.039   6
  -5  24  -1 1.15938 105.611   6
 -19  24  -1 45.8642 152.492   8
  19   5  -2 77.3072 109.583   6
  19 -24  -2 111.699 100.581  11
  19 -24   2 116.137 119.678  11
  24 -19  -2 222.671 107.239  11
   5  19   2 158.530 114.707   6
   5  19  -2-44.0683 113.476   6
  -5  24   2 143.171 112.927   6
  -5  24  -2 22.0844 106.533   6
 -19  24  -2 43.0394 137.825   8
  19   5  -3 18.6058 103.347   6
  19 -24  -3-37.1915 101.005  11
  24 -19  -3 127.639 106.508  11
  19 -24   3 222.493 115.530  11
   5  19   3-3.83173 108.061   6
   5  19  -3-67.2095 113.988   6
  -5  24  -3 211.094 110.481   6
  -5  24  -3 20.5598 110.728   8
 -19  24  -3-41.8357 138.307   8
  19   5  -4 69.6363 106.770   6
  19 -24   4 70.7944 106.524  11
   5  19  -4 24.6138 112.207   6
  24 -19  -4-9.04264 98.1672  11
  -5  24  -4 33.8073 101.667   6
  -5  24  -4 195.020 117.056   8
 -19  24  -4 81.9625 122.342   8
  19 -24   5 25.2313 102.305  11
   5  19  -5-70.9885 111.433   6
  -5  24  -5-29.8225 98.6659   6
  24 -19  -5 87.9292 99.2057  11
  -5  24  -5-8.65571 123.908   8
 -19  24  -5 277.079 111.416   8
  19 -24   6 175.167 99.6393  11
   5  19  -6 10.1041 108.176   6
  -5  24  -6-32.6534 100.031   6
  -5  24  -6-97.8364 119.972   8
 -19  24  -6 262.724 102.039   8
   5  19  -7 108.281 103.567   6
  -5  24  -7 9.95837 97.4414   6
   5  19   7 74.7938 74.6028   9
  -5  24  -7 75.0973 116.475   8
 -19  24  -7 64.4102 83.6652   8
   5  19  -8 119.637 101.093   6
  -5  24  -8 96.7010 97.8336   6
   5  19   8 57.8847 73.2963   9
 -19  24  -8 61.1837 85.0313   8
   5  19  -9 63.9578 89.2186   6
  -5  24  -9 64.6094 90.7638   6
   5  19   9 70.9700 70.6809   9
 -19  24  -9 5.51943 73.7493   8
   5 -24 -10-31.1518 79.7802  10
  -5  24 -10 54.8844 85.1881   6
   5  19  10-13.5400 65.4596   9
 -19  24 -10 42.1285 71.3700   8
   5 -24 -11-51.3901 74.3588  10
   5  19  11 85.7503 61.7938   9
  -5  24  11 10.6814 56.7239   9
 -19  24 -11 55.8648 71.1948   8
  20 -24   0 267.484 120.749  11
  24 -20   0 98.8623 99.9041  11
   4  20   0 269.838 121.488   6
  -4  24   0 154.728 117.269   6
  20 -24  -1 102.777 111.320  11
  20 -24   1 126.225 114.557  11
  24 -20  -1 239.068 102.998  11
  24 -20   1 94.1274 86.8098  11
   4  20   1 153.064 112.560   6
   4  20  -1 224.495 120.187   6
  -4  24   1 75.1989 111.418   6
  -4  24  -1 219.202 115.862   6
 -20  24  -1 98.1444 166.233   8
  20 -24  -2 39.5762 100.449  11
  24 -20  -2 94.0757 104.465  11
  20 -24   2 141.245 120.988  11
  24 -20   2 123.170 84.5289  11
   4  20   2-8.01935 112.386   6
   4  20  -2 122.580 118.430   6
  -4  24   2 260.221 117.956   6
  -4  24  -2 69.9316 109.547   6
 -20  24  -2 156.682 155.761   8
  24 -20  -3 81.1769 105.416  11
  20 -24   3-22.5335 108.912  11
   4  20  -3 51.4920 114.182   6
  -4  24  -3 103.211 108.130   6
  20 -24  -3 114.278 101.390  11
 -20  24  -3 306.400 136.366   8
  24 -20  -4 3.33683 98.3865  11
  20 -24   4 221.911 115.022  11
   4  20  -4 16.7182 108.343   6
  -4  24  -4 121.894 106.180   6
  -4  24  -4 81.4170 121.124   8
 -20  24  -4 13.4814 121.333   8
  24 -20  -5 37.6700 105.278  11
   4  20  -5 158.545 112.614   6
  -4  24  -5 68.1066 100.354   6
  -4  24  -5 214.974 120.342   8
  20 -24   5 222.937 102.167  11
 -20  24  -5 115.784 112.025   8
  20 -24   6 144.713 94.7100  11
   4  20  -6 65.5986 110.504   6
  -4  24  -6 184.851 105.779   6
 -20  24  -6 91.7220 102.424   8
  20 -24   7 44.7597 76.7357  11
   4  20  -7 11.6753 102.668   6
  -4  24  -7 1.21173 95.9944   6
 -20  24  -7 27.0671 89.3115   8
   4  20  -8-56.5017 96.7177   6
  -4  24  -8 132.086 98.7326   6
   4  20   8-8.82753 69.2145   9
 -20  24  -8 102.781 79.9449   8
   4  20  -9 19.9214 88.4897   6
  -4  24  -9 68.5065 90.0582   6
   4  20   9 53.9968 66.8713   9
 -20  24  -9 63.9605 76.7008   8
  -4  24 -10 4.63521 85.0411   6
   4  20  10 32.0756 63.6994   9
 -20  24 -10 64.1068 71.9616   8
   4  20  11-26.8177 59.6405   9
  -4  24  11 172.758 59.7046   9
 -20  24 -11 60.9897 65.6696   8
  21 -24   0 221.059 114.841  11
  24 -21   0 223.214 101.847  11
   3  21   0 516.804 131.854   6
  -3  24   0 366.402 125.005   6
  21 -24  -1 249.540 108.135  11
  21 -24   1 328.251 110.510  11
  24 -21  -1 190.212 100.878  11
   3  21   1 271.793 120.383   6
   3  21  -1 308.571 122.998   6
  -3  24   1 218.207 113.516   6
  -3  24  -1 226.057 115.588   6
  24 -21   1 187.586 95.3470  11
  21 -24  -2 113.623 106.774  11
  24 -21  -2 164.464 105.017  11
  21 -24   2 301.662 114.556  11
  24 -21   2 12.3152 91.8019  11
   3  21   2 384.971 120.674   6
   3  21  -2 160.780 119.228   6
  -3  24   2 246.090 119.741   6
  -3  24  -2 150.870 111.378   6
  24 -21  -3 265.072 100.859  11
  24 -21   3 253.704 92.4222  11
  21 -24  -3 132.535 97.8731  11
   3  21  -3 341.445 121.529   6
  -3  24  -3 280.804 110.954   6
  21 -24   3 161.005 106.590  11
 -21  24  -3 303.333 151.594   8
  24 -21  -4 131.342 97.1083  11
  21 -24   4 199.977 102.078  11
  24 -21   4 282.517 95.3085  11
   3  21  -4 234.491 113.592   6
  -3  24  -4 156.114 104.820   6
 -21  24  -4 39.1082 120.486   8
  24 -21  -5-4.89421 101.185  11
  21 -24   5 141.546 99.7313  11
   3  21  -5 55.4405 104.598   6
  -3  24  -5 194.977 105.656   6
 -21  24  -5 177.516 116.930   8
  21 -24   6 162.865 93.7557  11
   3  21  -6 233.731 110.607   6
  -3  24  -6 213.358 106.839   6
 -21  24  -6 115.980 104.610   8
  21 -24   7 98.0823 80.8819  11
   3  21  -7 28.6580 102.569   6
  -3  24  -7 59.6217 99.6261   6
 -21  24  -7 121.215 89.4010   8
   3  21  -8-50.5263 94.8644   6
  -3  24  -8 54.1687 97.6342   6
   3  21   8 134.818 73.2848   9
 -21  24  -8 9.16213 74.5363   8
   3  21  -9-86.9916 87.8436   6
  -3  24  -9 110.550 91.4245   6
   3  21   9 38.9590 65.7326   9
 -21  24  -9 85.1082 75.3140   8
   3  21  10 129.233 65.7594   9
  -3  24  10-10.0136 60.2431   9
 -21  24 -10-26.2041 64.4180   8
  24 -21  11-13.1644 52.4971  11
   3  21  11 74.9621 57.6518   9
  -3  24  11-35.7110 54.6452   9
 -21  24 -11 18.0047 62.8777   8
  -2  24   0 1272.42 148.904   6
  22 -24   0 1203.79 141.083  11
  24 -22   0 1097.08 126.948  11
   2  22   0 953.062 143.783   6
  22 -24  -1 594.851 119.864  11
  24 -22  -1 639.228 114.432  11
  22 -24   1 683.261 122.086  11
  24 -22   1 489.515 108.794  11
   2  22   1 746.330 133.279   6
   2  22  -1 619.636 131.457   6
  -2  24   1 785.348 133.319   6
  -2  24  -1 659.081 129.665   6
  24 -22  -2 485.380 109.575  11
  22 -24   2 587.535 123.003  11
  24 -22   2 304.593 96.0569  11
  22 -24  -2 464.664 109.963  11
   2  22   2 602.623 125.316   6
   2  22  -2 582.751 128.385   6
  -2  24   2 706.671 131.871   6
  -2  24  -2 451.300 123.636   6
  22 -24  -3 548.365 106.239  11
  22 -24   3 476.376 115.709  11
  24 -22  -3 555.043 114.233  11
  24 -22   3 553.254 99.8792  11
   2  22  -3 656.618 128.018   6
  -2  24  -3 486.069 119.273   6
  22 -24   4 400.771 112.414  11
  24 -22   4 315.113 99.2524  11
  24 -22  -4 243.243 102.591  11
   2  22  -4 241.141 112.918   6
  -2  24  -4 640.777 120.973   6
  22 -24   5 422.346 101.663  11
  24 -22   5 401.428 99.8037  11
   2  22  -5 350.522 114.138   6
  -2  24  -5 381.233 113.325   6
 -22  24  -5 557.863 124.781   8
  24 -22   6 382.886 94.4451  11
   2  22  -6 549.532 121.190   6
  -2  24  -6 399.264 110.890   6
  22 -24   6 447.758 95.9493  11
 -22  24  -6 461.264 109.387   8
  22 -24   7 430.561 83.3262  11
  24 -22   7 318.465 87.6959  11
   2  22  -7 295.732 105.733   6
  -2  24  -7 286.460 103.399   6
 -22  24  -7 281.727 87.5148   8
  22 -24   8 98.0655 63.4030  11
  24 -22   8 138.400 74.1194  11
   2  22  -8 188.569 95.9378   6
  -2  24  -8 105.130 94.0683   6
   2  22   8 160.983 68.3153   9
 -22  24  -8 92.0277 75.2672   8
  24 -22   9 156.037 66.0217  11
   2  22  -9 177.916 88.8879   6
  -2  24  -9 203.403 89.1550   6
   2  22   9 1.97568 63.0150   9
 -22  24  -9 260.495 73.2569   8
  24 -22  10 51.2996 55.5946  11
  -2  24 -10 166.176 80.1787   6
   2  22  10 76.7004 59.9665   9
  -2  24  10 103.383 60.2321   9
 -22  24 -10 82.1077 62.9119   8
  23 -24   0 585.968 116.610  11
  24 -23   0 557.356 106.512  11
   1  23   0 627.467 126.252   6
  -1  24   0 595.618 126.441   6
  24 -23  -1 285.540 99.1252  11
  23 -24  -1 288.307 101.711  11
  23 -24   1 394.320 104.347  11
  24 -23   1 359.381 98.7288  11
   1  23   1 484.026 120.963   6
   1  23  -1 397.181 117.465   6
  -1  24   1 390.350 115.883   6
  -1  24  -1 546.883 124.449   6
  23 -24  -2 415.198 102.184  11
  24 -23  -2 341.215 101.640  11
  24 -23   2 568.504 101.874  11
   1  23   2 599.338 124.083   6
  -1  24   2 667.906 120.816   6
   1  23  -2 565.903 122.373   6
  -1  24  -2 531.968 119.571   6
  23 -24   2 530.168 115.439  11
  23 -24  -3 220.935 92.6954  11
  24 -23  -3 300.334 100.131  11
  23 -24   3 387.871 98.2366  11
  24 -23   3 426.304 96.6170  11
   1  23  -3 349.064 112.741   6
  -1  24  -3 316.053 111.419   6
  24 -23  -4 340.933 97.3633  11
  23 -24   4 451.415 104.300  11
  24 -23   4 277.203 93.8604  11
   1  23  -4 264.314 104.976   6
  -1  24  -4 336.703 105.387   6
  23 -24   5 362.750 96.9654  11
  24 -23   5 302.569 87.0788  11
   1  23  -5 242.726 107.425   6
  -1  24  -5 400.327 109.277   6
  24 -23   6 220.262 81.3462  11
   1  23  -6 115.662 99.9549   6
  -1  24  -6 246.302 102.425   6
  23 -24   6 244.708 87.4657  11
  23 -24   7 222.309 77.6186  11
  24 -23   7 194.632 77.8448  11
   1  23  -7 158.948 96.7654   6
  -1  24  -7 195.554 98.3516   6
  23 -24   8 34.0846 61.2282  11
  24 -23   8 89.1539 65.1427  11
   1  23  -8 91.3124 87.5394   6
  -1  24  -8 232.565 94.2395   6
   1  23   8 54.0360 62.9342   9
 -23  24  -8 122.349 73.4650   8
  23 -24   9-24.9954 52.6136  11
  24 -23   9 19.0343 57.6620  11
   1  23  -9 142.817 82.7902   6
  -1  24  -9 206.634 85.3304   6
   1  23   9 91.8191 62.2903   9
  -1  24   9 14.6404 58.8380   9
 -23  24  -9 61.5524 64.5144   8
  24 -23  10 6.64601 48.5157  11
   1  23  10 40.2080 55.7447   9
  -1  24  10 49.3228 56.2839   9
 -23  24 -10 46.4323 56.9719   8
  24 -24   0 625.437 105.341  11
   0  24   0 836.698 129.868   6
  24 -24  -1 353.442 94.3391  11
  24 -24   1 316.996 96.3144  11
   0  24  -1 549.585 119.826   6
  24 -24  -2 298.728 88.6684  11
  24 -24   2 421.291 98.3904  11
   0  24  -2 528.363 116.114   6
  24 -24   3 392.942 98.9082  11
   0  24  -3 451.822 110.669   6
  24 -24  -3 378.401 89.6339  11
  24 -24   4 355.830 97.0987  11
   0  24  -4 480.335 111.272   6
  24 -24   5 372.691 93.2320  11
   0  24  -5 329.038 104.034   6
  24 -24   6 233.833 77.7554  11
   0  24  -6 283.759 100.818   6
  24 -24   7 121.087 69.3661  11
   0  24  -7 257.511 96.7885   6
  24 -24   8 143.377 61.7753  11
   0  24  -8 266.486 89.3891   6
   0  24   8 212.193 64.7378   9
  24 -24   9 91.9353 52.5308  11
   0  24  -9 96.7176 78.3317   6
   0  24   9 157.033 61.0125   9
  25 -13   0 228.256 106.659  11
  13  12   0 249.746 122.955   6
  12  13   0-53.8539 119.119   6
 -12  25   0 215.559 134.916   8
 -13  25   0 66.3148 131.993   8
  13  12   1 122.941 116.642   6
  12  13   1 74.2129 112.278   6
  13  12  -1 57.4952 112.953   6
  12  13  -1-37.1885 113.756   6
 -12  25  -1 12.2727 125.027   8
 -13  25  -1-64.6762 131.183   8
  13  12   2 111.589 117.950   6
  12  13   2 64.4491 115.645   6
  13  12  -2 142.031 116.753   6
  12  13  -2 276.409 122.855   6
 -12  25  -2-4.02280 118.272   8
 -13  25  -2 192.656 121.871   8
 -12  25   2 221.210 119.997   6
  12  13   3 0.94971 109.702   6
  12  13  -3 180.434 120.583   6
  13  12   3 70.8138 114.517   6
 -12  25  -3 146.008 119.342   8
 -13  25  -3-58.5143 113.120   8
  13  12   4 67.6425 118.665   6
  12  13   4 45.9279 114.375   6
  13  12  -4 11.0600 116.129   6
  12  13  -4 12.8014 121.427   6
 -12  25  -4 231.452 118.671   8
 -13  25  -4-83.3196 121.610   8
  13  12  -5-21.0758 116.714   6
  12  13  -5 69.5972 117.228   6
  13  12   5 119.450 91.0714   9
  12  13   5 220.949 99.0745   9
 -12  25  -5 118.197 109.443   8
 -13  25  -5-83.5230 114.913   8
  13  12  -6 231.160 121.288   6
  12  13  -6-22.8884 109.744   6
  13  12   6 16.6714 81.2346   9
  12  13   6 37.5239 81.7899   9
 -12  25  -6-9.03131 101.207   6
 -12  25  -6-63.8892 107.962   8
 -13  25  -6-72.7085 101.870   8
  13  12  -7 46.5856 106.753   6
  12  13  -7 43.6034 102.700   6
  13  12   7 69.3925 76.7953   9
  12  13   7-63.4486 77.9900   9
 -12  25  -7 148.344 99.2398   6
 -13  25  -7 73.8842 98.0506   6
 -12  25  -7 71.9033 97.1557   8
 -13  25  -7-77.9159 101.236   8
  12  13  -8-9.35578 97.8852   6
  13  12   8 12.7994 74.3956   9
  12  13   8-13.1985 71.2807   9
 -12  25  -8-67.9450 95.1908   6
 -13  25  -8-19.2973 91.9353   6
  13  12  -8-6.67454 98.5469   6
 -12  25  -8-67.6266 97.0276   8
 -13  25  -8 35.0345 94.8161   8
  13  12   9 35.3573 66.9910   9
  12  13   9 65.7230 69.0008   9
 -12  25  -9-92.2369 92.3247   6
 -13  25  -9-75.1137 89.2209   6
 -12  25  -9-10.0723 97.3340   8
 -13  25  -9 56.0909 88.6120   8
  12 -25 -10-20.4344 100.278  10
  13  12  10-40.4847 61.6820   9
  12  13  10-14.7773 62.5815   9
 -12  25 -10 76.5170 80.0831   6
 -13  25 -10-62.9736 80.2560   6
 -12  25 -10-6.27457 85.4283   8
 -13  25 -10 94.4117 90.3734   8
  12 -25 -11 26.1299 90.0259  10
  13 -25 -11 25.3553 90.0932  10
  13  12  11-30.6108 58.1215   9
  12  13  11-58.4968 60.1375   9
 -12  25 -11 105.793 85.2169   8
 -13  25 -11 23.1939 83.3037   8
  12 -25 -12-78.6072 82.2693  10
  13 -25 -12-55.1303 81.1952  10
  13  12  12-65.9018 54.2353   9
  12  13  12-51.5885 53.7914   9
 -12  25 -12 26.0222 76.0070   8
 -13  25 -12 23.3223 77.3660   8
  14  11   0 310.994 127.080   6
  25 -14   0 351.763 110.669  11
  11  14   0 440.796 128.176   6
 -11  25   0 410.549 129.945   8
 -14  25   0 567.893 147.333   8
 -11  25   0 487.326 130.660   6
  14  11   1 156.873 116.305   6
  25 -14  -1 205.950 103.434  11
  11  14   1 222.668 116.080   6
  11  14  -1 168.136 120.145   6
  14  11  -1 196.156 118.470   6
 -11  25  -1 296.548 120.997   8
 -14  25  -1 183.015 130.552   8
 -11  25   1 321.502 118.466   6
  14  11   2 382.048 122.536   6
  14  11  -2 342.827 126.022   6
  11  14   2 364.445 121.516   6
  11  14  -2 361.581 125.083   6
 -11  25   2 424.261 120.161   6
 -11  25  -2 278.524 123.231   8
 -14  25  -2 311.866 128.221   8
  14  11   3 374.000 124.461   6
  14  11  -3 291.099 122.857   6
  11  14  -3 395.280 126.579   6
  11  14   3 234.777 117.199   6
 -11  25  -3 527.365 129.126   8
 -14  25  -3 229.339 116.539   8
  14  11   4 501.759 127.993   6
  14  11  -4 451.067 131.337   6
  11  14  -4 368.921 129.953   6
  11  14   4 305.025 99.0896   9
 -11  25  -4 468.181 121.383   6
 -11  25  -4 362.503 132.796   8
 -14  25  -4 329.625 125.602   8
  14  11  -5 248.816 122.635   6
  11  14  -5 287.772 126.165   6
  14  11   5 331.381 97.1309   9
  11  14   5 292.012 96.4019   9
 -11  25  -5 347.721 114.215   6
 -11  25  -5 310.064 124.737   8
 -14  25  -5 169.413 111.155   8
  14  11  -6 248.326 117.608   6
  11  14  -6 98.3494 113.570   6
  14  11   6 339.656 91.8312   9
  11  14   6 168.375 86.4107   9
 -11  25  -6 121.910 101.552   6
 -11  25  -6 16.7345 116.908   8
 -14  25  -6 102.886 98.4006   8
  14  11  -7 104.823 106.683   6
  11  14  -7 277.393 113.228   6
  14  11   7 191.133 80.5037   9
  11  14   7 113.940 76.6734   9
 -11  25  -7 182.868 101.366   6
 -11  25  -7 88.5043 106.210   8
 -14  25  -7 75.6809 94.1513   8
  14  11  -8-47.5893 99.7877   6
  11  14  -8 64.7234 102.748   6
  14  11   8 171.175 78.9825   9
  11  14   8 96.3513 74.2957   9
 -11  25  -8 248.627 100.057   6
 -14  25  -8 20.1655 94.8124   6
 -11  25  -8 151.314 105.199   8
 -14  25  -8-17.7877 87.3237   8
  11  14  -9 129.847 93.7077   6
  14  11   9 98.3728 71.2363   9
  11  14   9 6.38075 67.5847   9
 -11  25  -9-92.8315 90.9471   6
 -14  25  -9 36.1680 86.2037   6
 -11  25  -9-81.1686 103.242   8
 -14  25  -9 15.5812 89.8646   8
  11 -25 -10 1.74930 101.655  10
  14  11  10 8.54220 62.4042   9
  11  14  10 66.5523 63.0381   9
 -11  25 -10 11.3261 79.8343   6
 -14  25 -10-40.9519 80.2360   6
 -11  25 -10-99.4806 93.7516   8
 -14  25 -10 105.439 83.3599   8
  11 -25 -11 242.818 95.6392  10
  14 -25 -11 43.2567 89.7733  10
  14  11  11 105.581 59.2028   9
  11  14  11 93.7969 59.5674   9
 -11  25 -11-39.1686 83.7725   8
 -14  25 -11 30.0173 83.7470   8
  14  11  12 4.70511 52.3021   9
  11  14  12 107.703 55.3028   9
 -11  25 -12 15.3659 77.1545   8
 -14  25 -12 62.5334 78.1517   8
  15  10   0 284.516 120.873   6
  25 -15   0 158.937 98.9591  11
  10  15   0 156.040 115.174   6
  15 -25   0 366.090 132.868  11
 -15  25   0 213.849 142.530   8
 -10  25   0 109.665 112.651   6
  15  10   1 124.787 114.446   6
  15  10  -1 90.5220 113.910   6
  25 -15  -1 141.324 101.676  11
  10  15   1 224.488 113.329   6
  10  15  -1 265.806 121.891   6
 -10  25   1 178.734 112.336   6
 -10  25  -1 194.259 114.203   8
 -10  25  -1 200.203 113.931   6
 -15  25  -1 220.761 134.820   8
  25 -15  -2 26.2895 100.550  11
  15  10  -2 241.246 117.001   6
  10  15   2 244.795 118.065   6
  10  15  -2 206.861 121.287   6
  15  10   2 63.8606 111.979   6
 -10  25   2 103.943 113.060   6
 -10  25  -2 133.504 119.444   8
 -10  25  -2 113.540 112.686   6
 -15  25  -2 98.4836 128.232   8
  15  10   3 162.101 116.696   6
  15  10  -3 94.0734 113.313   6
  10  15   3-28.6129 114.463   6
  10  15  -3 102.731 115.110   6
 -10  25  -3 49.1953 105.331   6
 -10  25  -3 221.611 117.393   8
 -15  25  -3 24.0289 120.691   8
  15  10   4 255.086 122.055   6
  15  10  -4 235.117 119.389   6
  10  15  -4 217.352 122.087   6
  10  15   4 162.384 94.9229   9
 -10  25  -4 137.485 109.588   6
 -10  25  -4 84.5481 123.700   8
 -15  25  -4 90.8820 110.727   8
  15  10  -5 194.450 117.518   6
  10  15  -5 144.986 119.875   6
  15  10   5 139.948 91.1153   9
  10  15   5 176.866 93.2833   9
 -10  25  -5 194.242 105.290   6
 -10  25  -5 134.673 116.728   8
 -15  25  -5 131.143 105.296   8
  15  10  -6-20.4053 109.016   6
  10  15  -6 260.548 118.375   6
  15  10   6 184.281 87.5832   9
  10  15   6 119.533 85.1950   9
 -10  25  -6 59.8442 99.3429   6
 -10  25  -6-7.60751 113.961   8
 -15  25  -6 49.4281 101.124   8
  15  10  -7 21.8952 103.142   6
  10  15  -7 18.4338 105.590   6
  15  10   7 113.948 78.6577   9
  10  15   7 130.454 80.5071   9
 -10  25  -7 287.310 105.196   6
 -10  25  -7 189.117 110.095   8
 -15  25  -7 6.89031 91.0268   8
  15  10  -8 192.901 106.034   6
  10  15  -8 137.429 102.490   6
  15  10   8 84.4296 76.1340   9
  10  15   8 43.4047 73.4844   9
 -10  25  -8 81.0884 95.2154   6
 -10  25  -8 61.6845 109.297   8
 -15  25  -8 40.7952 89.8902   8
  10  15  -9 175.609 95.3940   6
  10 -25  -9 124.370 113.348  10
  15  10   9 121.277 71.8451   9
  10  15   9 105.491 71.3760   9
 -10  25  -9 39.6050 89.5193   6
 -15  25  -9-0.50940 86.7656   6
 -10  25  -9 68.1409 100.501   8
 -15  25  -9 58.7893 81.9586   8
  10 -25 -10 229.764 105.477  10
  15  10  10 83.5249 65.3632   9
 -10  25 -10-59.2033 82.1143   6
  10  15  10 20.9254 61.8645   9
 -15  25 -10-78.8493 81.5333   6
 -10  25 -10 34.9851 94.0702   8
 -15  25 -10 27.2389 82.6214   8
  10 -25 -11 173.185 92.6804  10
  15 -25 -11 12.9041 90.6816  10
  15  10  11 88.7109 60.4934   9
  10  15  11 56.4826 58.3107   9
 -10  25 -11-86.3332 87.1201   8
 -15  25 -11-9.19500 80.4660   8
  10  15  12 59.0586 53.3829   9
 -10  25 -12 50.6324 73.8069   8
 -15  25 -12-37.7879 74.3694   8
  16 -25   0 304.315 134.672  11
  16   9   0 245.471 118.130   6
  25 -16   0 2.03329 90.1949  11
   9  16   0 21.8615 108.543   6
  -9  25   0 200.488 113.800   6
 -16  25   0 114.507 138.575   8
  16 -25   1 204.394 124.995  11
  16   9   1 64.0107 115.163   6
  16   9  -1-2.62728 110.705   6
  16 -25  -1 270.660 120.278  11
  25 -16  -1 103.042 95.6576  11
   9  16   1 135.817 111.274   6
   9  16  -1 141.548 114.968   6
  -9  25   1 43.7138 107.446   6
  -9  25  -1 196.127 112.448   6
  -9  25  -1 321.042 119.807   8
 -16  25  -1 115.070 131.894   8
  16   9   2 85.6366 110.309   6
  16   9  -2 170.995 114.398   6
  25 -16  -2 42.1660 102.371  11
   9  16   2 200.232 112.928   6
   9  16  -2 149.751 118.879   6
  -9  25   2 230.371 115.311   6
  -9  25  -2 105.067 110.728   6
  -9  25  -2 87.1986 114.321   8
 -16  25  -2-85.3558 128.443   8
  16   9   3 130.876 113.548   6
  16   9  -3 36.5700 111.303   6
   9  16   3 172.661 111.873   6
   9  16  -3 211.301 116.562   6
  25 -16  -3 28.5679 103.741  11
  -9  25  -3 188.650 109.651   6
  -9  25  -3-83.6938 119.711   8
 -16  25  -3 116.707 120.211   8
  16   9  -4 149.780 116.901   6
   9  16  -4 49.3448 114.346   6
   9  16   4 243.431 96.8718   9
  -9  25  -4 94.0107 106.117   6
  -9  25  -4 129.952 112.610   8
 -16  25  -4 57.9861 115.105   8
   9  16  -5 208.584 118.347   6
  16   9  -5 189.440 116.046   6
  16   9   5 175.250 88.6393   9
   9  16   5-37.9006 85.2351   9
  -9  25  -5 116.742 102.883   6
  -9  25  -5 161.889 120.936   8
 -16  25  -5-64.3154 107.217   8
  16   9  -6 221.060 116.217   6
   9  16  -6 155.433 111.811   6
  16   9   6 223.159 87.3517   9
   9  16   6 190.210 88.8266   9
  -9  25  -6 187.758 104.872   6
  -9  25  -6 133.604 118.659   8
 -16  25  -6 167.965 98.4883   8
  16   9  -7 8.30507 103.422   6
   9  16  -7 25.6641 106.121   6
  16   9   7 18.9021 77.7383   9
   9  16   7 79.4189 79.6602   9
  -9  25  -7-34.4703 93.3946   6
  -9  25  -7 83.9164 108.249   8
 -16  25  -7 41.1624 89.8484   8
  16   9  -8 45.0566 97.2255   6
   9  16  -8 122.993 100.628   6
   9 -25  -8 129.235 120.468  10
  16   9   8 126.675 77.9436   9
   9  16   8 146.113 75.9309   9
  -9  25  -8 43.3825 98.1150   6
  -9  25  -8 80.5928 102.637   8
 -16  25  -8 138.194 83.0823   8
   9  16  -9-2.93349 91.6048   6
   9 -25  -9 128.970 105.269  10
  16   9   9 188.371 71.2094   9
  -9  25  -9 83.0255 90.5527   6
   9  16   9 36.4876 67.4557   9
 -16  25  -9 17.6632 86.0750   6
  -9  25  -9 108.157 100.237   8
 -16  25  -9 89.2787 85.7327   8
   9 -25 -10 280.402 100.974  10
  16   9  10 12.1194 62.2571   9
  -9  25 -10 191.322 86.8746   6
   9  16  10 6.13818 62.5774   9
 -16  25 -10 92.1657 81.7632   6
  -9  25 -10-27.6944 93.0370   8
 -16  25 -10 88.1724 80.5785   8
   9 -25 -11 90.6283 86.1378  10
   9  16  11 137.422 60.1516   9
  -9  25 -11 46.1095 84.0347   8
 -16  25 -11 87.4549 76.1886   8
  17   8   0 87.6758 110.879   6
  25 -17   0 57.6972 83.5993  11
  17 -25   0 279.968 122.652  11
   8  17   0 206.799 109.145   6
  -8  25   0 255.421 109.901   6
 -17  25   0 43.0868 132.093   8
  17 -25  -1 356.266 131.608  11
  17   8   1 358.234 120.515   6
  17 -25   1 456.548 137.003  11
  17   8  -1 354.850 121.057   6
  25 -17  -1 342.728 107.599  11
  25 -17   1 184.868 87.6783  11
   8  17   1 430.932 120.854   6
   8  17  -1 310.116 121.287   6
  -8  25   1 277.099 116.533   6
  -8  25  -1 257.380 113.279   6
 -17  25  -1 530.981 152.313   8
  17 -25  -2 287.719 117.932  11
  17 -25   2 425.139 125.844  11
  17   8  -2 396.352 118.816   6
  17   8   2 488.506 124.815   6
  25 -17  -2 288.399 110.519  11
   8  17   2 344.316 115.964   6
   8  17  -2 329.741 125.210   6
  -8  25   2 348.091 114.467   6
  -8  25  -2 363.289 116.253   6
  -8  25  -2 289.164 127.550   8
 -17  25  -2 299.513 139.110   8
  17   8   3 215.233 118.043   6
  17   8  -3 135.308 110.341   6
  25 -17  -3 201.627 106.195  11
   8  17   3 157.232 109.309   6
   8  17  -3 169.773 116.737   6
  -8  25  -3 221.652 108.712   6
  -8  25  -3 117.856 112.391   8
 -17  25  -3 409.027 133.203   8
  25 -17  -4 165.630 111.455  11
  17   8  -4 232.659 116.161   6
   8  17  -4 128.995 113.388   6
   8  17   4 318.950 94.2447   9
  -8  25  -4 420.223 115.608   6
  -8  25  -4 236.206 121.365   8
 -17  25  -4 232.575 117.228   8
  17   8  -5 63.8181 108.295   6
   8  17  -5 227.850 118.346   6
   8  17   5 67.0690 83.8979   9
  -8  25  -5 132.232 98.7927   6
  -8  25  -5 9.77823 118.600   8
 -17  25  -5 63.8724 101.704   8
  17   8  -6 100.898 108.624   6
   8  17  -6 64.0718 108.025   6
  17   8   6 157.244 85.2915   9
  -8  25  -6 123.819 100.580   6
   8  17   6 102.640 81.3848   9
  -8  25  -6-16.2282 117.593   8
 -17  25  -6 146.571 97.4557   8
  17   8  -7 168.825 105.559   6
   8  17  -7 163.893 110.400   6
   8 -25  -7-60.9119 124.682  10
  17   8   7 126.319 78.8889   9
  -8  25  -7 68.4683 97.1127   6
   8  17   7 175.253 80.3670   9
  -8  25  -7 192.189 112.557   8
 -17  25  -7 141.258 90.5483   8
   8  17  -8 96.1933 97.9051   6
   8 -25  -8 36.2109 107.903  10
  17   8   8 102.660 75.5860   9
  -8  25  -8 96.7488 95.5241   6
   8  17   8 116.514 75.9739   9
  -8  25  -8 221.615 110.802   8
 -17  25  -8 56.3646 78.8405   8
   8  17  -9 140.063 91.4017   6
  17   8   9 54.1225 68.6091   9
  -8  25  -9 117.153 87.6676   6
   8  17   9 151.143 70.0368   9
  -8  25  -9-71.1985 102.289   8
 -17  25  -9 58.9347 80.3480   8
   8 -25 -10-38.8719 87.2851  10
  -8  25 -10 52.0025 80.5523   6
   8  17  10 22.2616 60.1034   9
 -17  25 -10 92.9552 78.0510   6
  -8  25 -10 127.635 93.7905   8
 -17  25 -10 106.690 79.1968   8
   8  17  11-55.0250 57.4296   9
 -17  25 -11 49.5666 75.2758   8
  18   7   0 232.120 109.082   6
  18 -25   0 210.882 113.213  11
  25 -18   0 88.3670 86.6182  11
   7  18   0 211.889 110.145   6
  -7  25   0 191.359 109.950   6
 -18  25   0 193.831 149.703   8
  18   7   1 187.251 112.469   6
  18 -25   1 247.318 126.538  11
  25 -18  -1 203.775 100.196  11
  25 -18   1 239.154 92.8262  11
  18   7  -1 45.5667 105.220   6
  18 -25  -1 74.6132 115.156  11
   7  18   1 281.140 114.112   6
   7  18  -1 103.546 110.771   6
  -7  25   1 380.273 117.029   6
  -7  25  -1 125.886 111.004   6
 -18  25  -1 178.150 146.715   8
  18 -25  -2 180.603 108.483  11
  18   7  -2 140.270 109.249   6
  18 -25   2 195.875 123.824  11
  25 -18  -2 247.819 106.482  11
   7  18   2 179.172 111.049   6
   7  18  -2 76.1682 111.857   6
  -7  25   2 319.472 116.226   6
  -7  25  -2 56.2126 106.080   6
  -7  25  -2 179.430 123.094   8
 -18  25  -2 236.890 140.718   8
  18   7  -3 218.576 113.325   6
  25 -18  -3 248.479 109.846  11
  18 -25   3 217.466 123.290  11
   7  18   3 178.138 111.670   6
   7  18  -3 241.061 118.957   6
  -7  25  -3 316.077 113.887   6
   7  18   3 248.137 93.9438   9
  -7  25  -3 163.952 119.172   8
 -18  25  -3 219.486 126.562   8
  25 -18  -4 75.2159 105.618  11
   7  18  -4 149.337 116.545   6
  18   7  -4 187.378 113.048   6
  -7  25  -4 225.537 108.276   6
   7  18   4 102.387 85.4983   9
  -7  25  -4 306.066 124.131   8
 -18  25  -4 346.690 124.136   8
  18   7  -5 57.7201 103.102   6
  25 -18  -5 17.2494 96.9836  11
   7  18  -5 137.079 111.907   6
  -7  25  -5 80.0183 99.4717   6
   7  18   5 74.4374 79.8337   9
  -7  25  -5 22.9862 119.205   8
 -18  25  -5 148.623 104.174   8
  18   7  -6 124.849 104.398   6
   7  18  -6 131.392 108.923   6
  18   7   6 60.7324 82.1320   9
  -7  25  -6 103.983 98.1982   6
   7  18   6 140.926 82.4666   9
  -7  25  -6 57.3970 114.487   8
 -18  25  -6 103.876 97.6816   8
   7  18  -7 182.216 105.695   6
  18   7   7 147.538 79.2901   9
  -7  25  -7-49.0112 95.5335   6
   7  18   7-93.0090 77.2975   9
  -7  25  -7-13.7623 114.744   8
 -18  25  -7-19.0080 87.2123   8
   7  18  -8 142.087 96.4727   6
  18   7   8 178.769 75.2754   9
  -7  25  -8-31.4345 92.0831   6
   7  18   8 69.6439 70.4463   9
  -7  25  -8 133.676 108.376   8
 -18  25  -8 78.0713 83.7682   8
   7  18  -9 48.0007 87.1094   6
   7 -25  -9 95.7103 88.7772  10
  -7  25  -9-28.4849 88.2851   6
   7  18   9 0.24206 65.8928   9
  -7  25  -9-26.6423 96.3720   8
 -18  25  -9 69.3998 73.4164   8
   7 -25 -10 39.0461 80.7869  10
  -7  25 -10-95.6188 81.2956   6
   7  18  10-36.2783 61.2798   9
 -18  25 -10 8.62884 75.5763   6
 -18  25 -10 140.440 76.4472   8
   7 -25 -11 75.4274 76.6446  10
   7  18  11 18.0127 56.4648   9
  -7  25  11 12.6361 53.2671   9
 -18  25 -11 52.9229 72.9966   8
  19   6   0 252.588 116.604   6
  19 -25   0 578.223 129.929  11
  25 -19   0 448.409 106.577  11
   6  19   0 433.859 124.402   6
  -6  25   0 411.618 118.520   6
 -19  25   0 552.240 164.189   8
  19   6  -1 523.808 121.545   6
  19 -25  -1 695.883 128.170  11
  19 -25   1 675.722 129.235  11
  25 -19  -1 445.087 110.951  11
  25 -19   1 361.535 94.8066  11
   6  19   1 678.619 125.467   6
   6  19  -1 586.604 129.336   6
  -6  25   1 428.164 117.638   6
  -6  25  -1 511.539 122.321   6
 -19  25  -1 628.412 164.590   8
  19   6  -2 328.234 112.240   6
  19 -25  -2 449.754 120.752  11
  19 -25   2 510.285 123.789  11
  25 -19  -2 458.269 110.004  11
  25 -19   2 268.976 90.3316  11
   6  19   2 484.612 116.521   6
   6  19  -2 353.307 123.015   6
  -6  25   2 566.990 122.542   6
  -6  25  -2 284.367 112.409   6
 -19  25  -2 445.566 152.244   8
  19   6  -3 420.046 118.587   6
  25 -19  -3 345.877 112.768  11
  19 -25   3 549.717 131.221  11
   6  19   3 479.199 119.668   6
   6  19  -3 405.470 126.819   6
  -6  25  -3 438.339 118.498   6
  -6  25  -3 463.064 136.289   8
 -19  25  -3 627.688 143.999   8
  19   6  -4 392.884 117.843   6
  25 -19  -4 432.432 110.539  11
  19 -25   4 479.972 119.239  11
   6  19  -4 315.410 123.095   6
  -6  25  -4 329.981 109.207   6
  -6  25  -4 371.836 125.117   8
 -19  25  -4 316.201 123.340   8
  25 -19  -5 7.25993 99.4132  11
  19 -25   5 46.4740 94.1940  11
   6  19  -5 278.690 115.440   6
  -6  25  -5 147.508 99.6687   6
   6  19   5 177.920 83.4475   9
  -6  25  -5 159.074 120.048   8
 -19  25  -5 270.188 106.058   8
   6  19  -6 148.852 110.782   6
  -6  25  -6 147.569 100.805   6
   6  19   6 163.753 81.1515   9
  -6  25  -6 257.395 114.684   8
 -19  25  -6 125.201 97.3380   8
   6  19  -7 237.638 108.907   6
  -6  25  -7 112.252 98.3422   6
   6  19   7 100.526 77.1185   9
  -6  25  -7 358.154 118.911   8
 -19  25  -7 168.819 92.7300   8
   6  19  -8 135.096 96.6689   6
  -6  25  -8 113.505 94.3131   6
   6  19   8 152.200 71.8864   9
  -6  25  -8 202.556 108.937   8
 -19  25  -8 202.284 84.2141   8
   6  19  -9 162.769 88.8448   6
  -6  25  -9 107.188 86.6832   6
   6  19   9 40.9304 65.6581   9
 -19  25  -9-17.7435 72.3698   8
   6 -25 -10-7.38008 75.7907  10
  -6  25 -10-43.8985 79.6613   6
   6  19  10 22.7185 61.1810   9
 -19  25 -10 90.4091 74.9350   6
 -19  25 -10 45.7237 73.3377   8
   6  19  11 124.703 57.8150   9
  -6  25  11 46.7617 55.6086   9
 -19  25 -11 182.376 74.2053   8
  25 -20   0 21.6180 84.2941  11
   5  20   0-34.8311 112.036   6
  -5  25   0-35.7050 109.141   6
  20 -25   0 25.6320 108.214  11
  20 -25   1 124.168 117.846  11
  20 -25  -1 104.420 103.068  11
  25 -20  -1 234.935 94.1418  11
  25 -20   1 64.6123 87.5152  11
   5  20   1 122.032 110.190   6
   5  20  -1 252.033 116.084   6
  -5  25   1 187.011 107.790   6
  -5  25  -1 88.3597 106.999   6
 -20  25  -1 127.315 156.947   8
  20 -25  -2 131.544 102.180  11
  20 -25   2 63.9779 116.376  11
  25 -20  -2 43.8230 99.3646  11
  25 -20   2 28.6894 81.8592  11
   5  20   2 3.43274 106.649   6
   5  20  -2 183.341 114.473   6
  -5  25   2 133.124 113.260   6
  -5  25  -2 215.273 111.279   6
 -20  25  -2 216.837 147.232   8
  20 -25  -3-59.7076 92.4801  11
  20 -25   3 79.4341 111.925  11
  25 -20   3 85.5769 83.3864  11
   5  20  -3 195.903 115.599   6
  -5  25  -3 19.7299 101.977   6
  25 -20  -3-44.3238 102.692  11
 -20  25  -3 111.398 133.074   8
  25 -20  -4 41.5695 98.5642  11
  20 -25   4 86.3492 106.898  11
   5  20  -4 115.980 106.333   6
  -5  25  -4 51.4508 98.0355   6
 -20  25  -4-3.65638 117.057   8
  25 -20  -5-8.21697 99.5200  11
  20 -25   5 94.1327 93.0297  11
   5  20  -5 35.0135 103.411   6
  -5  25  -5 34.1860 95.2489   6
  -5  25  -5 62.4630 110.389   8
 -20  25  -5 77.1685 107.821   8
   5  20  -6 116.029 106.218   6
  -5  25  -6 33.2401 94.8187   6
   5  20   6 100.560 79.3741   9
  -5  25  -6-46.2858 112.602   8
 -20  25  -6-73.6298 93.2316   8
   5  20  -7 283.082 107.262   6
  -5  25  -7 37.2870 93.3477   6
   5  20   7 224.679 77.9209   9
 -20  25  -7 93.1627 82.8155   8
   5  20  -8-161.449 96.5950   6
  -5  25  -8 53.9928 90.1585   6
   5  20   8-14.3008 67.8263   9
 -20  25  -8 25.8143 78.8492   8
   5  20  -9 121.679 87.3083   6
  -5  25  -9-8.55529 84.5815   6
   5  20   9 53.2786 65.0789   9
 -20  25  -9 78.0237 73.0414   8
  -5  25 -10-9.94589 79.5807   6
   5  20  10 41.1522 59.9995   9
 -20  25 -10 87.9386 70.3705   8
  21 -25   0 98.6137 110.270  11
  25 -21   0 7.50249 83.5178  11
   4  21   0 34.4936 108.034   6
  -4  25   0 71.2408 112.033   6
  21 -25  -1 67.5834 101.905  11
  21 -25   1 117.628 107.429  11
  25 -21  -1-20.7066 90.2010  11
  25 -21   1 18.9075 83.6100  11
   4  21   1 33.7946 108.609   6
   4  21  -1 138.129 109.003   6
  -4  25   1 81.3769 106.928   6
  -4  25  -1 216.046 109.393   6
  21 -25  -2 162.099 100.880  11
  25 -21  -2 50.4240 91.8262  11
  21 -25   2 174.630 106.425  11
  25 -21   2 17.7204 75.5667  11
   4  21   2 44.9656 105.797   6
   4  21  -2 78.9657 107.620   6
  -4  25   2-98.4844 112.413   6
  -4  25  -2-79.2087 104.334   6
 -21  25  -2-172.810 158.239   8
  21 -25  -3 167.583 93.8434  11
  25 -21  -3-22.4982 97.0319  11
  21 -25   3 44.1051 106.677  11
  25 -21   3 13.2430 78.2164  11
   4  21  -3 286.242 112.179   6
  -4  25  -3-33.9939 99.0561   6
 -21  25  -3 127.200 133.003   8
  25 -21  -4 95.1021 98.9865  11
  21 -25   4 140.947 102.394  11
  25 -21   4-25.1606 73.8143  11
   4  21  -4 156.168 107.274   6
  -4  25  -4-79.3117 95.2720   6
 -21  25  -4 169.220 119.526   8
  21 -25   5 102.055 93.5622  11
  25 -21   5 32.4611 72.5389  11
   4  21  -5-58.7618 100.169   6
  -4  25  -5 96.5389 96.3701   6
 -21  25  -5-30.7432 106.263   8
  21 -25   6 115.454 83.3164  11
   4  21  -6 78.1288 99.5366   6
  -4  25  -6-14.4329 93.7229   6
   4  21   6 69.5236 76.0814   9
 -21  25  -6 51.3374 92.5509   8
   4  21  -7 129.361 99.9357   6
  -4  25  -7 75.4897 95.8140   6
   4  21   7 127.932 72.3118   9
 -21  25  -7 1.17072 81.2768   8
   4  21  -8 50.8309 88.4740   6
  -4  25  -8 5.62717 88.5573   6
   4  21   8 54.3223 66.2907   9
 -21  25  -8 104.676 76.4696   8
   4  21  -9-25.9133 80.8600   6
  -4  25  -9 173.256 88.6422   6
   4  21   9-1.35439 62.3956   9
 -21  25  -9 64.9336 69.4832   8
  25 -21  10-60.3516 60.9708  11
  -4  25 -10 82.1010 77.8388   6
   4  21  10 74.7534 58.8370   9
  -4  25  10 22.8328 57.0580   9
 -21  25 -10 148.146 67.0601   8
  22 -25   0 17.9467 96.9138  11
  25 -22   0 28.5724 82.1805  11
   3  22   0-70.2475 108.097   6
  -3  25   0 27.9603 106.512   6
  22 -25   1-61.1038 105.454  11
  25 -22   1-30.5632 77.1182  11
   3  22   1 64.2782 104.306   6
   3  22  -1 142.077 108.032   6
  -3  25   1 74.7232 106.025   6
  -3  25  -1 47.4592 101.253   6
  25 -22  -1-4.18907 88.5570  11
  22 -25  -1-33.3657 91.7744  11
  22 -25  -2-18.4400 88.8608  11
  25 -22  -2 121.762 94.0338  11
  22 -25   2 57.1847 100.811  11
  25 -22   2-51.8909 81.7307  11
   3  22   2-29.7795 105.166   6
   3  22  -2-29.5727 100.776   6
  -3  25   2 69.3165 105.992   6
  -3  25  -2-23.1593 100.701   6
  25 -22  -3-9.74824 85.8305  11
  22 -25  -3 32.3022 81.0247  11
  25 -22   3-89.3695 81.9045  11
   3  22  -3 29.2024 99.0901   6
  -3  25  -3 14.6453 96.6184   6
  22 -25   3 39.0022 94.2986  11
  25 -22  -4 81.5458 87.7152  11
  22 -25   4 15.2292 86.6496  11
  25 -22   4 45.4492 75.6425  11
   3  22  -4-76.9026 97.9420   6
  -3  25  -4-98.8564 95.1491   6
 -22  25  -4-113.077 117.538   8
  22 -25   5 60.7971 87.3572  11
  25 -22   5 38.3822 74.1994  11
   3  22  -5-40.2791 101.228   6
  -3  25  -5-115.537 95.0403   6
 -22  25  -5-62.2335 102.048   8
  22 -25   6 45.9539 77.0560  11
  25 -22   6 88.4689 78.5511  11
   3  22  -6 65.8935 95.7567   6
  -3  25  -6-18.5208 91.6042   6
 -22  25  -6-43.2776 88.1668   8
  22 -25   7-24.0976 65.8377  11
  25 -22   7 75.7957 72.6410  11
   3  22  -7 114.006 93.7118   6
  -3  25  -7 41.3659 90.7390   6
   3  22   7-37.0623 70.2850   9
 -22  25  -7 18.1712 77.0933   8
  25 -22   8-89.4049 70.9744  11
   3  22  -8 18.3672 85.1066   6
  -3  25  -8-106.027 86.7262   6
   3  22   8 59.4778 64.2418   9
 -22  25  -8 43.7027 68.4885   8
  25 -22   9-20.5646 63.2734  11
   3  22  -9 92.8554 78.0894   6
  -3  25  -9-12.8086 79.9989   6
   3  22   9-35.5256 61.0488   9
 -22  25  -9-70.0915 64.4751   8
  25 -22  10-32.1401 54.8767  11
   3  22  10-17.5983 54.5994   9
  -3  25  10-9.84308 52.5988   9
  23 -25   0 132.989 94.3977  11
  25 -23   0 91.0872 83.9819  11
   2  23   0 166.425 105.061   6
  -2  25   0 63.5830 101.413   6
  23 -25  -1 12.2687 86.6047  11
  25 -23  -1 85.1468 82.7517  11
  25 -23   1-9.51402 84.0130  11
   2  23   1-7.64463 101.184   6
   2  23  -1 109.728 101.082   6
  23 -25   1 2.80097 97.1659  11
  -2  25   1 157.509 108.264   6
  -2  25  -1 138.694 106.536   6
  23 -25  -2 4.42930 84.7356  11
  25 -23  -2-69.3621 91.3234  11
  23 -25   2 248.037 102.331  11
  25 -23   2 114.253 80.1718  11
   2  23   2 67.1344 103.304   6
   2  23  -2-36.8198 100.322   6
  -2  25   2 32.2195 103.260   6
  -2  25  -2 78.7942 99.9253   6
  25 -23  -3 71.1710 81.1361  11
  23 -25  -3 69.9673 74.9048  11
  23 -25   3 92.6081 92.7991  11
   2  23  -3 18.6399 95.3188   6
  -2  25  -3 120.221 95.6774   6
  25 -23   3 86.1372 78.8325  11
  25 -23  -4 42.5994 85.5762  11
  25 -23   4 48.6870 75.0106  11
   2  23  -4 118.908 97.2922   6
  -2  25  -4-63.3689 92.3148   6
  23 -25   4 152.832 89.8825  11
  23 -25   5 122.463 85.2694  11
  25 -23   5 40.2942 78.2216  11
   2  23  -5-79.1375 94.4628   6
  -2  25  -5 1.28829 89.4682   6
  23 -25   6-56.1138 73.8855  11
  25 -23   6 36.2260 72.8623  11
   2  23  -6 41.2504 90.4743   6
  -2  25  -6 96.8174 92.2463   6
  23 -25   7-3.77361 64.5789  11
  25 -23   7 4.71132 68.5412  11
   2  23  -7-36.2908 87.9971   6
  -2  25  -7 143.858 90.6405   6
   2  23   7 160.574 68.1208   9
 -23  25  -7 92.3296 73.2542   8
  23 -25   8-10.5556 54.0501  11
  25 -23   8 11.0661 63.5507  11
   2  23  -8-53.3723 81.4840   6
  -2  25  -8 50.6376 81.9058   6
   2  23   8-21.2804 60.5150   9
 -23  25  -8 95.6819 65.0301   8
  25 -23   9 5.17058 56.1269  11
   2  23  -9 34.7260 72.6475   6
  -2  25  -9-14.2065 73.4765   6
   2  23   9-62.8209 59.3867   9
  -2  25   9-49.0189 57.7971   9
 -23  25  -9-26.1650 58.3104   8
  24 -25   0 50.2736 85.0122  11
  25 -24   0 267.193 82.9179  11
   1  24   0 312.277 107.546   6
  -1  25   0 206.532 106.559   6
  25 -24  -1 179.645 84.1388  11
  24 -25   1 147.104 90.5458  11
  25 -24   1 182.926 86.2117  11
  24 -25  -1 193.770 87.9449  11
   1  24   1 254.555 106.353   6
   1  24  -1 232.968 103.451   6
  -1  25   1 221.325 105.573   6
  -1  25  -1 210.530 105.926   6
  24 -25  -2 106.654 84.0351  11
  25 -24  -2 82.5845 79.8624  11
  24 -25   2 53.5577 86.9889  11
  25 -24   2 160.638 81.6353  11
   1  24   2 100.864 98.4006   6
  -1  25   2 217.881 103.110   6
   1  24  -2 199.866 102.309   6
  -1  25  -2 94.0654 98.2856   6
  24 -25  -3 86.3165 78.8396  11
  25 -24  -3 78.1766 77.8246  11
  24 -25   3 276.928 90.4100  11
  25 -24   3 86.4415 83.7825  11
   1  24  -3 228.248 99.0308   6
  -1  25  -3 229.768 99.7391   6
  24 -25   4 94.9772 85.9887  11
  25 -24   4 171.111 83.2083  11
   1  24  -4 111.010 96.0176   6
  -1  25  -4 47.9701 92.0105   6
  24 -25   5 47.4161 75.3713  11
  25 -24   5 58.1054 77.3987  11
   1  24  -5 130.382 92.5319   6
  -1  25  -5 176.893 96.1167   6
  24 -25   6 121.536 72.4874  11
  25 -24   6 62.7140 70.8800  11
   1  24  -6 88.5008 88.3941   6
  -1  25  -6-29.8212 87.4359   6
  24 -25   7 58.3000 62.6025  11
  25 -24   7 127.660 68.6207  11
   1  24  -7 66.5138 83.6739   6
  -1  25  -7 76.0210 84.8848   6
   1  24   7 151.888 65.2456   9
  24 -25   8 59.7352 53.7315  11
  25 -24   8 44.4819 58.3548  11
   1  24  -8-108.985 80.9760   6
  -1  25  -8 174.097 82.3620   6
   1  24   8 12.6288 58.6369   9
  -1  25   8 99.2409 60.2086   9
  25 -25   0 226.451 80.6153  11
   0  25   0 326.056 102.297   6
  25 -25  -1 123.123 76.3747  11
  25 -25   1 189.577 85.8240  11
   0  25   1 308.410 103.445   6
   0  25  -1 382.486 102.996   6
  25 -25  -2 112.428 80.4189  11
  25 -25   2 176.096 84.8026  11
   0  25  -2 246.911 99.0063   6
  25 -25   3 185.583 79.5850  11
   0  25  -3 183.192 95.5308   6
  25 -25   4 181.404 80.3625  11
   0  25  -4 109.318 90.5951   6
  25 -25   5 74.0124 71.9840  11
   0  25  -5 77.9365 86.7216   6
  25 -25   6 45.0532 68.5999  11
   0  25  -6 63.1226 85.0133   6
  25 -25   7 87.5902 62.3034  11
   0  25  -7 201.213 84.7517   6
   0  25   7 129.544 63.4473   9
  25 -25   8-41.3938 53.3211  11
   0  25  -8 62.4881 73.0611   6
   0  25   8 81.3290 57.3693   9
  13  13   0-13.9695 105.374   6
  13  13   1 43.3128 108.509   6
  13  13  -1 273.241 115.641   6
 -13  26  -1-4.35908 115.373   8
  13  13   2 6.99509 105.706   6
  13  13  -2 205.117 116.707   6
 -13  26  -2 51.4416 116.230   8
 -13  26   2 93.8856 109.007   6
  13  13   3 82.6122 103.710   6
  13  13  -3 27.6282 104.576   6
 -13  26  -3 44.1906 106.345   8
  13  13   4 97.8882 106.972   6
  13  13  -4 202.025 114.964   6
 -13  26  -4 81.1050 108.678   8
  13  13  -5-73.0498 112.070   6
  13  13   5 149.773 86.2105   9
 -13  26  -5 39.3183 93.9631   6
 -13  26  -5 57.7426 104.566   8
  13  13  -6 108.723 106.625   6
  13  13   6 24.3997 78.1079   9
 -13  26  -6-77.0093 92.9340   6
 -13  26  -6 101.608 100.724   8
  13  13  -7 63.9226 100.161   6
  13  13   7 47.0185 72.1570   9
 -13  26  -7 103.207 91.3231   6
 -13  26  -7 36.6056 88.2857   8
  13  13  -8 247.269 98.7808   6
  13  13   8 131.803 72.4127   9
 -13  26  -8 71.7109 86.0260   6
 -13  26  -8-10.3615 90.5898   8
  13  13   9 106.757 65.8420   9
 -13  26  -9 66.8731 82.7212   6
 -13  26  -9-9.44770 85.7351   8
  13 -26 -10-10.1897 91.9683  10
  13  13  10 48.8230 58.9799   9
 -13  26 -10-39.7236 74.1462   6
 -13  26 -10 89.6859 85.2108   8
  13 -26 -11-31.7933 82.5283  10
  13  13  11 65.9077 54.7150   9
 -13  26 -11 36.2693 79.2035   8
  14  12   0 365.574 117.457   6
  26 -14   0 173.691 91.6385  11
  12  14   0 401.456 118.564   6
 -14  26   0 247.246 125.956   8
 -12  26   0 254.623 115.330   6
  14  12   1 548.774 123.721   6
  14  12  -1 500.715 124.350   6
  12  14   1 488.210 119.445   6
  12  14  -1 597.175 128.906   6
 -12  26  -1 473.530 122.467   8
 -14  26  -1 421.258 124.945   8
 -12  26   1 543.998 122.857   6
 -12  26  -1 479.714 120.435   6
  14  12   2 541.208 120.539   6
  12  14   2 725.935 125.284   6
  14  12  -2 517.452 125.988   6
  12  14  -2 657.343 128.810   6
 -12  26   2 720.616 125.235   6
 -12  26  -2 423.601 123.227   8
 -14  26  -2 451.313 130.184   8
 -12  26  -2 480.742 118.744   6
  12  14   3 394.205 114.004   6
  14  12  -3 322.131 115.576   6
  12  14  -3 186.642 114.198   6
  14  12   3 327.360 114.959   6
 -12  26  -3 418.639 116.908   8
 -14  26  -3 166.350 112.451   8
 -12  26  -3 179.078 108.281   6
  14  12   4 411.219 115.546   6
  14  12  -4 433.428 122.725   6
  12  14  -4 502.265 125.237   6
 -12  26  -4 404.078 111.632   6
 -12  26  -4 299.724 112.598   8
 -14  26  -4 228.988 113.604   8
  14  12  -5 173.080 115.226   6
  12  14  -5 321.116 119.865   6
  14  12   5 201.472 86.2959   9
  12  14   5 346.816 91.1112   9
 -12  26  -5 188.075 99.2728   6
 -12  26  -5 207.285 108.485   8
 -14  26  -5 263.293 108.879   8
  14  12  -6 125.088 108.423   6
  12  14  -6 12.5785 105.558   6
  14  12   6 296.446 86.6322   9
  12  14   6 204.563 82.8003   9
 -12  26  -6 29.9233 89.2916   6
 -12  26  -6 74.8074 100.058   8
 -14  26  -6 152.084 98.9594   8
  14  12  -7 212.527 104.669   6
  12  14  -7 103.378 102.017   6
  14  12   7 120.448 74.7985   9
  12  14   7 120.795 74.6803   9
 -12  26  -7 19.9440 89.7444   6
 -14  26  -7 7.26833 90.9788   6
 -12  26  -7 115.671 101.001   8
 -14  26  -7 2.37936 89.9156   8
  14  12  -8 83.4075 92.1533   6
  12  14  -8 83.8332 93.6188   6
  14  12   8 83.5932 70.5886   9
  12  14   8 71.4708 69.2313   9
 -12  26  -8 131.865 92.2925   6
 -14  26  -8 136.558 89.5394   6
 -12  26  -8 201.451 99.7175   8
 -14  26  -8 43.9438 88.6634   8
  12  14  -9 8.99870 86.1445   6
  12 -26  -9 49.6738 104.676  10
  14  12   9 113.842 65.3599   9
  12  14   9 178.920 66.2336   9
 -12  26  -9 131.165 84.6561   6
 -14  26  -9 122.100 83.5140   6
 -12  26  -9 94.9818 91.7752   8
 -14  26  -9 134.658 90.5412   8
  12 -26 -10 80.6242 94.6839  10
  14 -26 -10 84.8992 90.4613  10
  14  12  10 49.0855 56.9183   9
  12  14  10 63.1940 59.3195   9
 -12  26 -10 0.13462 73.3416   6
 -14  26 -10 16.0806 73.0358   6
 -12  26 -10 30.1087 87.8906   8
 -14  26 -10 2.76794 83.3426   8
  12 -26 -11-29.3498 80.9829  10
  14 -26 -11-92.1797 83.1018  10
  14  12  11 125.396 54.4061   9
  12  14  11-8.99894 52.3135   9
 -12  26 -11 65.3903 77.9845   8
 -14  26 -11-56.9193 75.8947   8
  15  11   0 99.9029 106.384   6
  26 -15   0 22.4366 86.4081  11
  11  15   0 123.890 110.215   6
 -15  26   0 56.3749 124.997   8
 -11  26   0 130.948 108.720   6
  15  11   1-65.6147 107.397   6
  15  11  -1 96.5551 112.531   6
  26 -15  -1 42.4600 92.0439  11
  26 -15   1 17.8056 89.7856  11
  11  15   1 87.6165 108.102   6
  11  15  -1 78.6366 111.070   6
 -11  26   1-3.58146 108.078   6
 -11  26  -1 143.627 118.170   8
 -15  26  -1 108.531 123.493   8
 -11  26  -1 6.74629 107.998   6
  15  11   2 50.1071 109.306   6
  15  11  -2 124.914 110.738   6
  11  15   2 196.468 113.266   6
  11  15  -2 130.926 109.863   6
 -11  26   2 267.537 113.905   6
 -11  26  -2 77.7416 114.406   8
 -11  26  -2 174.293 109.421   6
 -15  26  -2 24.5837 109.516   8
  15  11   3 81.8447 109.458   6
  15  11  -3 20.4360 105.972   6
  11  15   3 91.6329 109.626   6
  11  15  -3 207.477 115.326   6
 -11  26  -3 91.9287 104.770   6
 -11  26  -3 14.2424 106.763   8
 -15  26  -3 64.1958 106.945   8
  15  11   4-106.598 109.563   6
  15  11  -4 167.591 114.435   6
  11  15  -4 195.214 114.872   6
 -11  26  -4-6.42597 97.3724   6
 -11  26  -4 66.8981 112.280   8
 -15  26  -4 45.2056 105.979   8
  15  11  -5-50.5682 108.052   6
  11  15  -5 156.611 112.922   6
  11  15   5-25.4059 84.5846   9
 -11  26  -5 60.6488 96.0359   6
 -11  26  -5-65.3876 108.799   8
 -15  26  -5 73.6374 101.036   8
  15  11  -6 58.2351 104.910   6
  11  15  -6 14.5267 102.742   6
  15  11   6 73.0001 79.5917   9
  11  15   6 97.0973 82.0626   9
 -11  26  -6 114.481 96.8916   6
 -11  26  -6 86.4742 101.920   8
 -15  26  -6-32.5242 93.5247   8
  15  11  -7 112.334 100.946   6
  11  15  -7 156.228 102.724   6
  15  11   7 58.2889 73.2639   9
  11  15   7 71.4870 76.0093   9
 -11  26  -7 10.0925 89.3970   6
 -11  26  -7 65.0750 103.531   8
 -15  26  -7 102.399 85.5663   8
  15  11  -8-23.7359 91.0466   6
  11  15  -8-24.9445 92.4240   6
  15  11   8-6.58955 68.8811   9
  11  15   8 52.9667 69.7078   9
 -11  26  -8 64.2791 88.8377   6
 -15  26  -8 82.9814 87.2273   6
 -11  26  -8 109.696 96.6292   8
 -15  26  -8-28.3480 81.9755   8
  11  15  -9 73.5412 84.4209   6
  11 -26  -9 74.2157 105.272  10
  15  11   9 54.7262 64.8935   9
  11  15   9 1.99822 62.1105   9
 -11  26  -9 10.0823 80.3670   6
 -15  26  -9 195.194 85.1471   6
 -11  26  -9 177.119 97.0515   8
 -15  26  -9 35.5038 84.5074   8
  11 -26 -10 23.2298 91.1432  10
  15  11  10 110.708 59.8475   9
 -11  26 -10-1.71549 75.0854   6
  11  15  10-26.7091 59.7898   9
 -15  26 -10 84.3214 72.5626   6
 -11  26 -10 81.2449 90.1844   8
 -15  26 -10 80.2423 81.8136   8
  11 -26 -11-74.0259 81.0087  10
  15 -26 -11 114.357 82.5977  10
  11  15  11 15.5257 51.9339   9
 -11  26 -11 116.792 80.2612   8
 -15  26 -11-0.26736 72.8639   8
  26 -16   0 209.956 94.9279  11
  10  16   0 248.346 111.677   6
  16  10   0 156.201 107.419   6
 -10  26   0 160.727 108.453   6
 -16  26   0 42.0642 127.454   8
  16  10   1 376.221 120.342   6
  16  10  -1 380.580 120.370   6
  26 -16  -1 430.275 104.072  11
  26 -16   1 309.673 92.1439  11
  10  16   1 519.947 121.949   6
  10  16  -1 557.886 128.255   6
 -10  26   1 410.378 117.686   6
 -10  26  -1 402.557 118.382   6
 -16  26  -1 357.805 133.581   8
  16  10   2 574.887 124.091   6
  26 -16  -2 500.882 114.801  11
  16  10  -2 552.430 125.927   6
  10  16   2 633.980 123.543   6
  10  16  -2 494.609 126.180   6
 -10  26   2 650.343 124.504   6
 -10  26  -2 369.193 119.020   6
 -10  26  -2 425.940 129.837   8
 -16  26  -2 395.076 134.676   8
  16  10   3 288.767 114.569   6
  16  10  -3 190.722 114.468   6
  10  16   3 477.569 120.744   6
  10  16  -3 343.202 120.283   6
 -10  26  -3 335.801 112.938   6
 -10  26  -3 404.970 118.686   8
 -16  26  -3 329.666 118.415   8
  16  10  -4 274.827 116.862   6
  10  16  -4 125.753 112.230   6
  10  16   4 286.708 92.9115   9
 -10  26  -4 307.833 110.541   6
 -10  26  -4 182.787 113.070   8
 -16  26  -4 248.297 113.621   8
  10  16  -5 182.684 112.063   6
  10  16   5 176.178 85.4955   9
 -10  26  -5 225.557 100.563   6
  16  10  -5 51.3267 108.534   6
 -10  26  -5 181.730 118.182   8
 -16  26  -5 131.247 104.103   8
  16  10  -6 261.886 114.536   6
  10  16  -6 233.329 112.549   6
  16  10   6 294.958 85.9260   9
  10  16   6 225.254 85.3995   9
 -10  26  -6 224.233 100.787   6
 -10  26  -6 188.298 114.148   8
 -16  26  -6 189.341 94.2168   8
  16  10  -7 198.665 104.872   6
  10  16  -7 28.8902 98.3856   6
  16  10   7 60.5698 75.5207   9
  10  16   7 99.4891 76.3112   9
 -10  26  -7 32.7818 91.9348   6
 -10  26  -7 5.96640 108.163   8
 -16  26  -7 91.1362 89.4649   8
  16  10  -8 200.252 94.4128   6
  10  16  -8 168.895 98.2911   6
  10 -26  -8-20.5481 111.110  10
  16  10   8 147.409 72.4263   9
  10  16   8 107.252 70.9922   9
 -10  26  -8 211.405 90.4583   6
 -16  26  -8 95.0474 90.6744   6
 -10  26  -8 18.2340 104.910   8
 -16  26  -8 60.7393 86.5697   8
  10  16  -9 127.924 85.2330   6
  10 -26  -9-87.7832 100.805  10
  16  10   9 98.6968 65.6034   9
 -10  26  -9 96.3917 84.6830   6
  10  16   9 129.403 65.6108   9
 -16  26  -9 275.119 88.5449   6
 -10  26  -9 167.492 96.7481   8
 -16  26  -9 134.910 81.8077   8
  10 -26 -10-2.79423 88.9579  10
  16  10  10 166.229 62.2376   9
 -10  26 -10 141.240 78.2456   6
  10  16  10 91.2300 59.1448   9
 -16  26 -10 177.494 75.7368   6
 -10  26 -10 42.0909 87.0704   8
 -16  26 -10-26.2530 80.3315   8
  10  16  11 8.61751 52.5351   9
 -10  26 -11-3.32094 76.2124   8
 -16  26 -11 49.7138 74.0009   8
  17 -26   0 180.525 116.671  11
  17   9   0 71.9075 106.077   6
  26 -17   0 94.2215 89.5600  11
   9  17   0 138.846 109.481   6
  -9  26   0 148.691 107.937   6
 -17  26   0 117.348 137.146   8
  17 -26   1 122.677 117.171  11
  17   9   1 154.814 110.856   6
  17   9  -1 69.3414 107.143   6
  26 -17  -1 71.5675 97.2767  11
  26 -17   1 58.5848 85.6483  11
   9  17   1-30.6360 103.348   6
   9  17  -1 186.065 113.375   6
  -9  26   1 105.156 111.458   6
  -9  26  -1 130.450 107.324   6
 -17  26  -1 6.17840 133.383   8
  17   9   2 16.7474 106.534   6
  17   9  -2-90.1214 106.298   6
  26 -17  -2 129.174 104.843  11
   9  17   2-45.2714 106.099   6
   9  17  -2 270.548 117.529   6
  -9  26   2 96.5807 107.221   6
  -9  26  -2-57.0254 104.626   6
  -9  26  -2 194.784 114.176   8
 -17  26  -2 90.8439 122.192   8
  26 -17  -3 185.533 102.687  11
  17   9  -3 92.8916 110.230   6
   9  17   3 182.329 109.499   6
   9  17  -3 136.857 109.946   6
  -9  26  -3-47.4082 100.748   6
  -9  26  -3 112.295 122.308   8
 -17  26  -3-58.1152 115.830   8
   9  17  -4 89.0564 109.980   6
   9  17   4 53.6264 85.6603   9
  -9  26  -4-71.4869 98.6119   6
  17   9  -4-19.4490 107.361   6
  -9  26  -4 15.1314 119.715   8
 -17  26  -4-6.45938 109.694   8
  17   9  -5 104.013 108.528   6
   9  17  -5 128.626 110.467   6
   9  17   5 42.0876 82.8073   9
  -9  26  -5-128.657 98.1941   6
  -9  26  -5 15.3291 114.129   8
 -17  26  -5 79.4189 101.336   8
  17   9  -6 135.678 106.250   6
   9  17  -6 125.760 108.675   6
  17   9   6 126.205 79.9375   9
   9  17   6 59.1972 82.5456   9
  -9  26  -6-0.40636 91.5870   6
  -9  26  -6 25.5921 115.298   8
 -17  26  -6 90.3965 89.2653   8
  17   9  -7 92.8443 101.005   6
   9  17  -7 100.501 100.357   6
  17   9   7-49.8403 72.8005   9
  -9  26  -7-85.2188 95.5497   6
   9  17   7 16.2712 73.5470   9
  -9  26  -7 53.5870 106.673   8
 -17  26  -7 24.0609 86.2245   8
   9  17  -8-20.9793 91.2683   6
   9 -26  -8 2.90069 103.483  10
  17   9   8 22.9476 67.8526   9
  -9  26  -8 71.3597 89.2363   6
   9  17   8 76.2716 69.0484   9
  -9  26  -8-22.5507 102.257   8
 -17  26  -8 56.0681 83.1276   8
   9  17  -9 72.0409 83.1246   6
   9 -26  -9 63.8361 92.7904  10
  17   9   9 90.8433 63.5434   9
  -9  26  -9 46.7109 81.3468   6
   9  17   9 15.5867 61.3509   9
 -17  26  -9 13.6671 80.4585   6
  -9  26  -9 20.4391 94.9492   8
 -17  26  -9 23.9362 74.4517   8
   9 -26 -10 53.5881 85.8198  10
  -9  26 -10 87.6338 76.5666   6
   9  17  10 28.1320 56.8208   9
 -17  26 -10-49.1837 70.4666   6
  -9  26 -10 17.7020 84.0186   8
 -17  26 -10-39.5605 76.8726   8
  18   8   0-19.6179 101.878   6
  18 -26   0 116.547 118.756  11
  26 -18   0 18.5882 88.5262  11
   8  18   0 17.0700 102.368   6
  -8  26   0 156.062 107.708   6
  18   8   1-49.6851 106.950   6
  18 -26  -1 115.691 106.925  11
  18 -26   1 215.419 124.646  11
  26 -18  -1 95.8033 90.4431  11
  26 -18   1 78.0780 85.4187  11
  18   8  -1 38.2358 102.637   6
   8  18   1 156.159 106.785   6
   8  18  -1 117.600 111.867   6
  -8  26   1 234.316 109.458   6
  -8  26  -1-1.89775 103.130   6
 -18  26  -1-133.762 132.863   8
  18   8  -2 80.8136 102.661   6
  18 -26   2 194.949 111.796  11
  26 -18  -2 54.0658 92.0269  11
  26 -18   2 102.737 85.1073  11
   8  18   2 179.607 105.351   6
   8  18  -2 112.371 110.031   6
  -8  26   2 249.261 112.183   6
  -8  26  -2 136.768 104.285   6
 -18  26  -2 75.4546 131.536   8
  18   8  -3-32.6371 105.886   6
  26 -18  -3 85.1970 103.646  11
   8  18   3 100.566 107.315   6
   8  18  -3 160.627 109.805   6
  -8  26  -3 87.1064 102.516   6
  -8  26  -3 120.527 119.337   8
 -18  26  -3 100.227 119.629   8
  18   8  -4-153.949 108.853   6
  26 -18  -4 41.7252 102.259  11
   8  18  -4 251.661 114.084   6
  -8  26  -4 157.611 102.449   6
   8  18   4 76.0191 86.2968   9
  -8  26  -4-12.5948 118.311   8
 -18  26  -4 96.6866 110.645   8
  18   8  -5-18.1351 104.100   6
   8  18  -5 159.667 106.919   6
  -8  26  -5-10.8797 92.3777   6
   8  18   5 103.365 83.3238   9
  -8  26  -5 158.049 120.273   8
 -18  26  -5 53.8559 100.567   8
  18   8  -6 135.126 105.633   6
   8  18  -6 39.8730 102.457   6
  18   8   6 67.2558 79.4111   9
  -8  26  -6 154.462 97.2640   6
   8  18   6 34.8854 77.6582   9
  -8  26  -6 45.7086 115.904   8
 -18  26  -6-24.3628 93.6117   8
   8  18  -7 97.3555 102.035   6
  18   8   7 66.0980 73.5532   9
  -8  26  -7 53.0919 91.9976   6
   8  18   7-74.7903 74.7767   9
  -8  26  -7-12.9179 109.870   8
 -18  26  -7 67.0214 85.6200   8
   8  18  -8-15.7725 88.3652   6
  -8  26  -8 49.9094 87.2094   6
   8  18   8 40.3779 67.1850   9
  -8  26  -8 145.758 101.729   8
 -18  26  -8 22.8512 79.2056   8
   8  18  -9 31.4018 81.7573   6
   8 -26  -9-96.3633 88.0138  10
  -8  26  -9 31.9246 81.2014   6
   8  18   9 26.8368 61.1275   9
  -8  26  -9 86.4304 91.9604   8
 -18  26  -9 135.683 81.7164   6
 -18  26  -9 20.7316 76.6121   8
   8 -26 -10 148.126 80.5555  10
  -8  26 -10-25.8097 73.5383   6
   8  18  10 3.54369 55.5329   9
 -18  26 -10-113.635 72.6941   6
 -18  26 -10-21.9555 69.7809   8
  19 -26   0 378.355 125.052  11
  26 -19   0 263.303 95.4109  11
   7  19   0 338.345 114.742   6
  -7  26   0 197.280 111.974   6
  19   7  -1 181.556 105.740   6
  19 -26  -1 299.503 119.690  11
  19 -26   1 192.563 118.383  11
  26 -19  -1 98.5362 93.1243  11
  26 -19   1 174.744 87.6300  11
   7  19   1 235.834 113.064   6
   7  19  -1 233.400 115.888   6
  -7  26   1 235.475 111.895   6
  -7  26  -1 211.891 107.348   6
 -19  26  -1 373.625 148.610   8
  19   7  -2 117.935 101.204   6
  19 -26   2 170.847 113.813  11
  26 -19  -2 59.8380 96.3771  11
  26 -19   2 75.2429 78.8179  11
   7  19   2 257.936 108.775   6
   7  19  -2 31.5038 104.707   6
  -7  26   2 168.376 107.288   6
  -7  26  -2 160.828 103.394   6
 -19  26  -2 299.574 139.344   8
  19   7  -3 118.559 103.572   6
  19 -26   3 277.333 114.059  11
  26 -19  -3 224.781 103.389  11
  26 -19   3 187.180 85.1933  11
   7  19   3 462.806 118.132   6
   7  19  -3 141.406 109.870   6
  -7  26  -3 90.1006 101.637   6
 -19  26  -3 76.8385 120.219   8
  19   7  -4 277.551 109.645   6
  26 -19  -4 178.069 104.243  11
   7  19  -4 166.927 106.253   6
  -7  26  -4 105.965 96.7382   6
   7  19   4 167.111 87.6052   9
  -7  26  -4 141.191 116.040   8
 -19  26  -4 101.883 114.553   8
   7  19  -5 146.988 106.499   6
  -7  26  -5 103.075 93.1148   6
   7  19   5 45.4774 80.2549   9
  -7  26  -5 170.999 112.293   8
 -19  26  -5 60.5134 102.128   8
   7  19  -6 82.8622 104.186   6
  -7  26  -6 123.643 94.1792   6
   7  19   6 83.7199 78.9436   9
  -7  26  -6 176.016 115.680   8
 -19  26  -6 78.6201 87.4167   8
   7  19  -7 78.1519 99.2076   6
  -7  26  -7 46.4664 91.7249   6
   7  19   7 94.2941 74.0094   9
  -7  26  -7 4.07663 105.940   8
 -19  26  -7 41.2131 84.4404   8
   7  19  -8 183.529 92.7392   6
  -7  26  -8 109.977 89.4484   6
   7  19   8 112.917 69.1724   9
  -7  26  -8 7.38763 98.1461   8
 -19  26  -8 62.0915 78.7767   8
   7  19  -9 85.2759 82.5151   6
  -7  26  -9-27.3660 79.2128   6
   7  19   9-5.50132 60.9155   9
 -19  26  -9 75.5353 79.1893   6
 -19  26  -9-44.4674 71.8162   8
  -7  26 -10 167.350 76.1479   6
   7  19  10 87.5695 57.8504   9
 -19  26 -10 13.0466 68.3415   8
  20 -26   0 140.895 112.807  11
  26 -20   0 34.1685 84.9187  11
   6  20   0 208.607 108.268   6
  -6  26   0 77.8959 102.863   6
  26 -20  -1-4.01416 88.4171  11
  20 -26   1 41.8973 108.470  11
  26 -20   1-41.0081 84.1184  11
   6  20   1 113.901 106.929   6
   6  20  -1 45.1772 107.903   6
  -6  26   1 200.139 111.158   6
  -6  26  -1 83.4800 106.260   6
  20 -26  -1 55.5690 102.942  11
 -20  26  -1-286.496 147.924   8
  20 -26  -2 28.4011 92.9695  11
  20 -26   2 79.2476 113.066  11
  26 -20  -2-24.3871 96.1005  11
  26 -20   2 68.1033 76.7590  11
   6  20   2 91.2275 103.495   6
   6  20  -2 15.5009 102.402   6
  -6  26   2-66.3886 102.526   6
  -6  26  -2 34.0599 99.9206   6
 -20  26  -2-18.8490 126.341   8
  26 -20  -3 73.8102 98.7490  11
  20 -26   3 43.7337 106.679  11
  26 -20   3 40.8647 78.5743  11
   6  20  -3 140.723 104.579   6
  -6  26  -3 69.5855 94.9756   6
   6  20   3 61.5103 84.1051   9
 -20  26  -3 13.2964 121.465   8
  26 -20  -4 46.7743 94.0070  11
  20 -26   4 59.1420 96.7591  11
  26 -20   4 78.4957 73.8732  11
   6  20  -4-47.6852 99.0297   6
  -6  26  -4 87.8227 94.1480   6
   6  20   4 3.34854 80.3551   9
 -20  26  -4 5.70882 105.059   8
   6  20  -5 67.7363 100.807   6
  -6  26  -5 50.1586 92.2812   6
   6  20   5 157.825 82.9956   9
 -20  26  -5-53.7418 99.6760   8
   6  20  -6 39.0449 98.2747   6
  -6  26  -6 0.43437 90.2578   6
   6  20   6 16.7853 73.7995   9
 -20  26  -6 13.5032 89.5532   8
   6  20  -7 145.868 96.2274   6
  -6  26  -7-9.66186 89.2278   6
   6  20   7 121.063 72.0354   9
 -20  26  -7 43.1670 81.1530   8
   6  20  -8-41.4164 84.5639   6
  -6  26  -8 120.581 88.5655   6
   6  20   8 178.261 68.4330   9
 -20  26  -8 22.8080 74.4714   8
   6  20  -9-58.2341 78.2104   6
  -6  26  -9 60.2178 79.1292   6
   6  20   9 37.2727 61.7218   9
 -20  26  -9 49.2139 69.4443   8
  -6  26 -10 31.7533 72.3590   6
   6  20  10-8.30007 53.3330   9
 -20  26 -10-32.7890 66.5453   8
  21 -26   0 306.709 113.549  11
  26 -21   0 273.827 91.7264  11
   5  21   0 217.201 107.420   6
  -5  26   0 361.372 109.316   6
  21 -26  -1 289.115 103.134  11
  21 -26   1 213.968 104.510  11
  26 -21  -1 94.7620 90.6736  11
  26 -21   1 153.794 85.4796  11
   5  21   1 341.587 107.987   6
   5  21  -1 194.294 105.378   6
  -5  26   1 317.697 109.398   6
  -5  26  -1 267.003 106.710   6
  21 -26  -2 137.961 91.2853  11
  21 -26   2 250.615 111.425  11
  26 -21  -2 157.826 94.4244  11
  26 -21   2-9.61254 76.1396  11
   5  21   2 286.814 110.249   6
   5  21  -2 259.664 108.089   6
  -5  26   2 326.349 109.700   6
  -5  26  -2 107.252 99.7985   6
 -21  26  -2 300.290 134.728   8
  26 -21  -3 207.116 101.166  11
  21 -26   3 328.720 106.174  11
  26 -21   3 123.032 76.6970  11
   5  21  -3 186.879 103.451   6
  -5  26  -3 98.1066 95.9616   6
 -21  26  -3 42.8921 122.474   8
  26 -21  -4 262.846 96.1134  11
  21 -26   4 265.149 101.076  11
  26 -21   4 153.073 72.0010  11
   5  21  -4 210.521 103.289   6
  -5  26  -4 275.443 99.2140   6
   5  21   4 328.945 84.9103   9
 -21  26  -4 322.660 114.267   8
  21 -26   5 158.589 85.6667  11
  26 -21   5 136.632 72.2864  11
   5  21  -5 146.317 102.285   6
  -5  26  -5 208.063 92.6891   6
   5  21   5 129.225 78.2694   9
 -21  26  -5 104.548 97.6669   8
  26 -21   6 118.861 74.6478  11
   5  21  -6 137.301 95.9531   6
  -5  26  -6 172.311 93.7198   6
   5  21   6 164.380 74.0027   9
 -21  26  -6 247.337 88.5775   8
  26 -21   7 97.1048 66.8081  11
   5  21  -7 112.652 91.6932   6
  -5  26  -7 115.887 89.3820   6
   5  21   7 119.556 70.3845   9
 -21  26  -7 162.027 81.5307   8
  26 -21   8 118.195 70.2525  11
   5  21  -8 70.7411 84.2017   6
  -5  26  -8 119.677 85.7404   6
   5  21   8 187.066 67.9165   9
 -21  26  -8 177.992 73.3444   8
  26 -21   9-42.9182 66.8850  11
   5  21  -9-27.0318 75.0228   6
  -5  26  -9-28.5705 77.5476   6
   5  21   9 31.8949 58.4202   9
 -21  26  -9 50.4005 66.3379   8
  22 -26   0 148.981 103.627  11
  26 -22   0 126.995 83.5476  11
   4  22   0 106.217 102.770   6
  -4  26   0 179.008 104.463   6
  22 -26   1 88.9104 101.169  11
  22 -26  -1-8.06672 93.5405  11
  26 -22  -1 22.4307 83.6661  11
  26 -22   1 23.4185 77.9057  11
   4  22   1 244.158 105.524   6
   4  22  -1 85.6886 102.954   6
  -4  26   1 150.920 105.104   6
  -4  26  -1 80.8503 98.0792   6
  22 -26  -2 1.70492 87.5561  11
  26 -22  -2 46.7420 86.1105  11
  22 -26   2 44.4082 98.1240  11
  26 -22   2 36.4851 71.7346  11
   4  22   2 99.0079 99.4910   6
   4  22  -2 34.9053 98.4153   6
  -4  26   2 39.8784 101.233   6
  -4  26  -2 177.183 102.243   6
  26 -22  -3 69.7091 82.2043  11
  22 -26   3 105.385 99.1270  11
  26 -22   3 37.1222 68.7719  11
   4  22  -3 100.182 97.3261   6
  -4  26  -3-20.4418 92.2061   6
 -22  26  -3-2.65372 115.481   8
  26 -22  -4 38.0779 82.8543  11
  26 -22   4 72.6475 75.2732  11
   4  22  -4 69.4676 94.2411   6
  -4  26  -4-4.81453 88.2301   6
  22 -26   4 72.3216 89.4152  11
 -22  26  -4 195.202 105.865   8
  22 -26   5 75.9314 79.5514  11
  26 -22   5 21.7406 71.8974  11
   4  22  -5 27.2374 91.6137   6
  -4  26  -5 24.1599 88.2700   6
   4  22   5 39.4419 71.8766   9
 -22  26  -5-14.7907 90.5578   8
  22 -26   6-34.8188 71.2451  11
  26 -22   6-0.80348 71.6282  11
   4  22  -6 31.8667 89.7674   6
  -4  26  -6 104.741 88.0260   6
   4  22   6 69.4243 67.2656   9
 -22  26  -6 93.7035 83.8385   8
  26 -22   7 70.8913 69.1308  11
   4  22  -7 63.0780 86.7101   6
  -4  26  -7-46.2926 86.6269   6
   4  22   7 36.5113 65.8702   9
 -22  26  -7 25.3844 71.8474   8
  26 -22   8 63.3981 66.4895  11
   4  22  -8 95.1694 81.8474   6
  -4  26  -8-14.8385 80.8194   6
   4  22   8 97.6933 63.3657   9
 -22  26  -8 53.9027 64.2901   8
  26 -22   9 31.9647 58.8675  11
   4  22  -9 63.1578 72.4910   6
  -4  26  -9 90.4145 74.6503   6
   4  22   9-6.77842 55.8568   9
 -22  26  -9-35.7366 60.0972   8
  23 -26   0 300.549 99.2566  11
  26 -23   0 143.946 78.4340  11
   3  23   0 334.548 104.169   6
  -3  26   0 162.516 100.601   6
  23 -26  -1 143.186 89.5069  11
  23 -26   1 199.535 92.5796  11
  26 -23  -1 136.291 83.0102  11
  26 -23   1 186.712 77.2342  11
   3  23   1 221.401 98.3887   6
   3  23  -1 262.463 103.373   6
  -3  26   1 430.608 107.807   6
  -3  26  -1 322.155 106.364   6
  23 -26  -2 235.000 88.1520  11
  26 -23  -2 155.689 83.3642  11
  23 -26   2 246.542 100.563  11
  26 -23   2 134.419 76.5789  11
   3  23   2 280.017 100.874   6
   3  23  -2 264.373 102.270   6
  -3  26   2 448.688 106.094   6
  -3  26  -2 302.163 102.061   6
  26 -23  -3 232.551 87.2787  11
  23 -26   3 271.239 92.4207  11
  26 -23   3 132.092 76.6540  11
   3  23  -3 190.708 96.0134   6
  -3  26  -3 200.994 94.8480   6
  23 -26   4 240.005 91.4182  11
  26 -23   4 123.721 77.7549  11
   3  23  -4 267.814 97.8267   6
  -3  26  -4 145.522 93.5456   6
  23 -26   5 97.3803 78.0187  11
  26 -23   5 156.281 75.9699  11
   3  23  -5 190.925 95.4635   6
  -3  26  -5 94.6520 86.9985   6
   3  23   5 131.283 69.9703   9
  23 -26   6 101.687 67.1126  11
  26 -23   6 57.6414 68.1487  11
   3  23  -6 152.573 88.9892   6
  -3  26  -6 99.0920 85.7963   6
   3  23   6 243.054 69.9454   9
 -23  26  -6 19.6989 77.8971   8
  23 -26   7 145.400 57.6490  11
  26 -23   7 82.4655 68.6647  11
   3  23  -7 160.802 84.0699   6
  -3  26  -7 55.9485 81.7114   6
   3  23   7 166.379 66.7405   9
 -23  26  -7 153.843 70.1162   8
  26 -23   8 59.4727 63.3708  11
   3  23  -8 38.3755 75.3999   6
  -3  26  -8 64.5420 77.3653   6
   3  23   8 51.2649 58.5513   9
 -23  26  -8-36.5091 59.3803   8
  24 -26   0 88.8581 84.9396  11
  26 -24   0 92.8724 79.1023  11
   2  24   0 170.837 96.8063   6
  -2  26   0 183.568 97.1672   6
  24 -26  -1-116.573 85.3033  11
  26 -24  -1 175.571 83.6963  11
  24 -26   1 73.6580 86.7960  11
  26 -24   1 48.7084 75.5598  11
   2  24   1 122.754 93.6121   6
   2  24  -1 179.084 97.9765   6
  -2  26   1 88.3085 97.0567   6
  -2  26  -1 62.3980 92.1672   6
  24 -26  -2 62.0946 78.5345  11
  24 -26   2 115.769 87.2688  11
  26 -24   2 89.5280 77.1937  11
   2  24   2 94.7737 92.5265   6
   2  24  -2 70.7929 91.9302   6
  -2  26  -2 189.968 95.2889   6
  26 -24  -2 147.531 80.7986  11
  26 -24  -3 98.8300 78.5790  11
  24 -26   3 42.5698 83.1458  11
  26 -24   3 36.5221 72.9020  11
   2  24  -3 2.28193 88.4084   6
  -2  26  -3 110.571 91.8478   6
  24 -26   4 98.4290 82.5843  11
  26 -24   4 44.2305 76.0219  11
   2  24  -4 105.614 89.0041   6
  -2  26  -4 154.018 88.3738   6
  24 -26   5 53.7024 73.4356  11
  26 -24   5 86.1036 72.5715  11
   2  24  -5-5.11260 84.7699   6
  -2  26  -5 121.899 87.5931   6
  24 -26   6 14.0250 63.1002  11
  26 -24   6-18.8336 70.7108  11
   2  24  -6 125.879 84.7294   6
  -2  26  -6 65.8073 82.6871   6
   2  24   6-35.6106 61.7517   9
  24 -26   7 100.759 56.5845  11
  26 -24   7 118.532 64.2192  11
   2  24  -7-29.5106 79.6139   6
  -2  26  -7 79.0296 80.3589   6
   2  24   7-13.6161 58.7078   9
  26 -24   8 43.8678 57.5938  11
   2  24  -8 76.7973 72.5492   6
  -2  26  -8 21.5346 71.3191   6
   2  24   8 62.5223 55.7541   9
  -2  26   8-7.39148 53.4188   9
  25 -26   0 169.931 81.0256  11
  26 -25   0 139.358 75.2415  11
   1  25   0 207.070 93.0683   6
  -1  26   0 113.466 87.6414   6
  25 -26  -1 190.673 76.7023  11
  26 -25  -1 98.1481 74.6456  11
  25 -26   1 147.233 80.3107  11
  26 -25   1 58.9086 75.0329  11
   1  25   1 195.648 92.9195   6
   1  25  -1 134.392 91.3589   6
  -1  26   1 305.487 95.3179   6
  -1  26  -1 267.537 95.1821   6
  25 -26   2-7.24834 76.7029  11
  25 -26  -2 209.827 78.1734  11
  26 -25  -2 82.5978 73.2779  11
  26 -25   2 49.4928 76.4255  11
   1  25  -2 64.4857 87.7444   6
  -1  26  -2 6.31120 85.8182   6
  25 -26   3 77.5673 76.5469  11
  26 -25   3 54.8086 72.2346  11
   1  25  -3 10.4821 84.9092   6
  -1  26  -3 267.295 91.1568   6
  25 -26   4 105.234 75.6458  11
  26 -25   4 145.709 76.6502  11
   1  25  -4 206.084 89.5732   6
  -1  26  -4 63.1941 86.4420   6
  25 -26   5 127.141 72.9443  11
  26 -25   5-29.2462 68.8567  11
   1  25  -5 160.845 85.7183   6
  -1  26  -5 139.325 84.1027   6
  25 -26   6 73.6316 62.5716  11
  26 -25   6-11.4055 65.6333  11
   1  25  -6 40.0366 77.3507   6
  -1  26  -6 69.3010 79.9852   6
   1  25   6 92.6110 60.4036   9
  25 -26   7-12.5247 52.2271  11
  26 -25   7 50.1793 59.6030  11
   1  25  -7 92.7557 74.0683   6
  -1  26  -7 201.665 77.3981   6
   1  25   7 110.895 58.2474   9
  -1  26   7-26.1749 56.0467   9
  26 -26   0 113.252 75.2392  11
   0  26   0-58.2790 85.4140   6
  26 -26   1-26.5096 69.3474  11
   0  26   1-36.4233 83.7992   6
   0  26  -1 38.7231 85.4976   6
  26 -26  -1 85.0692 70.7506  11
  26 -26   2-0.61196 72.9020  11
   0  26  -2 6.33401 82.0842   6
  26 -26   3 42.9886 67.8683  11
   0  26  -3 46.6729 80.3491   6
  26 -26   4 65.3644 71.8003  11
   0  26  -4-42.3822 80.2964   6
  26 -26   5-16.8348 67.6684  11
   0  26  -5-13.4951 75.2335   6
  26 -26   6 39.8572 59.0521  11
   0  26  -6-92.1381 76.5362   6
   0  26   6-86.2415 57.1172   9
  14  13   0 36.4280 98.3834   6
  13  14   0 61.3850 98.6346   6
 -13  27   0 35.3154 101.274   6
 -14  27   0 76.2118 99.9936   6
  14  13   1 20.4978 97.4736   6
  13  14   1 32.7875 101.064   6
  14  13  -1 22.2697 96.6785   6
  27 -14   1 114.840 81.1638  11
  13  14  -1-81.8609 103.219   6
 -14  27  -1-42.5882 107.268   8
 -13  27   1 122.994 101.670   6
 -13  27  -1-14.8317 99.6744   6
 -14  27   1 151.481 100.991   6
  14  13   2 239.610 103.017   6
  13  14   2-124.672 100.755   6
  14  13  -2-62.0178 98.4185   6
  13  14  -2 138.074 102.069   6
 -13  27   2 18.3526 98.2730   6
 -13  27  -2-22.2076 99.7858   8
 -14  27   2 57.0182 96.0834   6
 -14  27  -2-68.7308 103.631   8
 -13  27  -2-15.0854 97.0113   6
  14  13   3-92.5757 96.7734   6
  13  14   3-114.273 100.759   6
  14  13  -3-4.92691 95.1622   6
  13  14  -3 14.1535 96.8914   6
 -13  27  -3 53.0048 98.8830   8
 -14  27  -3 38.9663 98.0759   8
 -13  27  -3 95.8371 95.4426   6
  14  13   4-19.6331 97.2449   6
  14  13  -4-58.2906 102.737   6
  13  14  -4-23.8448 100.841   6
 -13  27  -4-40.2943 90.8268   6
 -13  27  -4 68.8001 99.9651   8
 -14  27  -4 67.1775 96.3907   8
 -14  27  -4 61.7155 88.9351   6
  14  13  -5-14.9532 102.819   6
  13  14  -5 53.8983 103.895   6
  13  14   5-17.7910 76.9267   9
 -13  27  -5 93.4467 90.4112   6
 -14  27  -5 34.8278 87.4355   6
 -13  27  -5 64.1616 93.8592   8
 -14  27  -5 47.6860 92.1693   8
  14  13  -6 88.1521 101.671   6
  13  14  -6 6.98721 98.9414   6
  14  13   6 54.6097 73.8822   9
  13  14   6-126.583 77.9373   9
 -13  27  -6 9.92897 85.1698   6
 -14  27  -6-53.8238 88.3296   6
 -13  27  -6-126.264 96.4137   8
 -14  27  -6-15.6999 89.7357   8
  14  13  -7-72.7922 94.4980   6
  13  14  -7-35.7929 93.4659   6
  14  13   7 158.581 72.1927   9
  13  14   7 95.5070 69.5549   9
 -13  27  -7-23.6899 84.0251   6
 -14  27  -7-33.9898 82.3436   6
 -13  27  -7 83.2680 94.1774   8
 -14  27  -7 32.5837 88.6794   8
  14  13  -8-7.02272 84.2986   6
  13  14  -8-8.35569 83.7065   6
  14  13   8 61.3516 64.3393   9
  13  14   8 85.9235 65.4943   9
 -13  27  -8 70.9715 79.6099   6
 -14  27  -8 67.6650 82.1339   6
 -13  27  -8-2.96266 89.7670   8
 -14  27  -8 27.4657 86.6215   8
  13 -27  -9 6.65008 93.3980  10
  14  13   9-11.4873 58.0780   9
  13  14   9 66.1001 60.4695   9
 -13  27  -9 13.0791 76.0833   6
 -14  27  -9 79.3317 74.4536   6
 -13  27  -9 60.3879 87.3896   8
 -14  27  -9 46.3535 81.5823   8
  13 -27 -10-27.3233 83.8457  10
  14 -27 -10-24.5008 85.8589  10
  14  13  10 74.5555 54.7473   9
  13  14  10 11.9570 53.2552   9
 -13  27 -10 88.8684 68.4691   6
 -14  27 -10 17.5291 67.8036   6
 -13  27 -10 76.8553 81.3999   8
 -14  27 -10-150.291 80.4356   8
  15  12   0 83.8290 99.1617   6
  27 -15   0-16.6409 84.3288  11
  12  15   0-95.7656 101.140   6
 -12  27   0 19.7828 98.9376   6
  15  12   1-14.5134 97.0227   6
  15  12  -1 83.8837 97.4662   6
  12  15   1-91.9970 102.934   6
  27 -15   1-91.9274 86.4850  11
  12  15  -1 1.80171 101.570   6
 -12  27   1 172.028 103.175   6
 -15  27  -1-44.6311 114.382   8
 -12  27  -1-65.8546 98.2970   6
  15  12   2 21.0050 97.4502   6
  15  12  -2 86.7350 99.6684   6
  12  15   2-20.1955 98.3424   6
  12  15  -2-103.078 102.926   6
 -12  27   2 48.7304 99.4419   6
 -12  27  -2-17.4598 104.387   8
 -12  27  -2-47.7092 95.7517   6
 -15  27  -2 126.246 108.801   8
 -15  27   2 123.154 99.4689   6
  15  12   3-6.17863 95.6885   6
  12  15   3-52.1280 95.5717   6
  15  12  -3 129.976 102.372   6
  12  15  -3-56.3667 99.1014   6
 -12  27  -3-3.98746 93.4101   6
 -12  27  -3 113.184 103.222   8
 -15  27  -3-104.611 103.509   8
  15  12  -4 17.1719 101.351   6
  12  15  -4 19.4683 97.8998   6
 -12  27  -4 3.90714 88.4626   6
 -12  27  -4 30.8310 100.388   8
 -15  27  -4-1.21879 101.260   8
  15  12  -5 108.903 106.178   6
  12  15  -5 40.8539 103.670   6
  12  15   5 84.2703 79.6754   9
 -12  27  -5 96.1972 89.3463   6
 -12  27  -5 33.0031 102.650   8
 -15  27  -5-42.4909 89.6997   8
  15  12  -6-72.7183 102.847   6
  12  15  -6 120.795 100.466   6
  15  12   6 147.968 78.4177   9
  12  15   6 20.7676 73.9888   9
 -12  27  -6-16.0870 85.7441   6
 -15  27  -6-10.4443 85.6075   6
 -12  27  -6 43.2195 94.8198   8
 -15  27  -6 104.142 90.5959   8
  15  12  -7-139.832 96.3541   6
  12  15  -7-50.6104 92.5948   6
  15  12   7 52.5390 69.6221   9
  12  15   7-4.07257 68.6075   9
 -12  27  -7-56.1466 83.0436   6
 -15  27  -7-5.47314 82.5027   6
 -12  27  -7 86.7614 99.4180   8
 -15  27  -7-35.1969 90.2278   8
  15  12  -8 110.101 87.8576   6
  12  15  -8 67.7174 86.9376   6
  12 -27  -8 158.874 108.119  10
  15  12   8 81.6102 65.5904   9
  12  15   8 19.6839 63.8635   9
 -12  27  -8 88.1646 80.4096   6
 -15  27  -8 21.2041 79.0102   6
 -12  27  -8 103.337 96.2302   8
 -15  27  -8-47.4617 84.1985   8
  12 -27  -9 98.6292 94.9968  10
  15  12   9 56.6278 59.0717   9
  12  15   9-28.6032 59.2815   9
 -12  27  -9 5.32603 75.5389   6
 -15  27  -9 3.32148 74.6513   6
 -12  27  -9-33.9312 89.7647   8
 -15  27  -9 6.98790 81.2906   8
  12 -27 -10-42.9814 82.5725  10
  15 -27 -10-16.6890 82.0809  10
  15  12  10 3.45751 52.7370   9
 -12  27 -10-61.1449 68.3861   6
  12  15  10 17.8711 52.9118   9
 -15  27 -10 125.286 70.4447   6
 -12  27 -10-2.96527 78.0930   8
 -15  27 -10-31.8460 76.8262   8
  16  11   0 117.742 102.675   6
  27 -16   0 51.5169 83.8763  11
  11  16   0 138.755 102.867   6
 -11  27   0 117.290 107.874   6
  16  11   1 105.427 99.9711   6
  16  11  -1 84.8749 100.445   6
  27 -16  -1 46.9729 89.0697  11
  27 -16   1 146.081 87.3883  11
  11  16   1 133.916 103.082   6
  11  16  -1 161.464 104.828   6
 -11  27   1 36.8912 99.0675   6
 -11  27  -1 210.323 105.392   6
 -16  27  -1 246.923 120.189   8
  16  11   2 196.755 102.169   6
  16  11  -2 31.6761 100.197   6
  11  16   2 53.2866 99.1054   6
  27 -16   2 45.1882 74.3745  11
  11  16  -2 86.6436 104.565   6
 -11  27   2 87.4659 102.024   6
 -11  27  -2 10.8030 97.1046   6
 -11  27  -2 177.218 110.331   8
 -16  27  -2 129.974 105.881   8
  16  11   3 7.01396 97.6705   6
  16  11  -3 115.582 102.768   6
  11  16   3-55.7989 97.5103   6
  11  16  -3-5.47345 98.2610   6
 -11  27  -3 212.376 100.302   6
 -11  27  -3 134.227 105.437   8
 -16  27  -3 25.5376 103.315   8
  16  11  -4 17.5593 99.8825   6
  11  16  -4 169.473 105.808   6
 -11  27  -4 77.0134 91.3923   6
 -11  27  -4 147.223 108.743   8
 -16  27  -4 107.068 94.4949   8
  16  11  -5 43.8962 104.582   6
  11  16  -5 104.819 108.617   6
  11  16   5 91.0966 82.7131   9
 -11  27  -5 19.9224 87.9425   6
 -11  27  -5 63.2082 104.568   8
 -16  27  -5-14.6337 95.2292   8
  16  11  -6 99.4525 104.035   6
  11  16  -6 90.1573 105.072   6
  16  11   6 21.6379 75.6497   9
  11  16   6 100.918 79.0347   9
 -11  27  -6-5.27987 87.1937   6
 -11  27  -6 32.4570 100.779   8
 -16  27  -6-182.004 95.9928   8
  16  11  -7-31.6671 92.3853   6
  11  16  -7 241.398 102.275   6
  16  11   7 218.621 74.5257   9
  11  16   7 32.9491 69.1189   9
 -11  27  -7-32.2795 85.9044   6
 -16  27  -7 48.3782 85.6590   6
 -11  27  -7 13.7957 94.5849   8
 -16  27  -7 15.9687 84.6710   8
  11  16  -8 105.642 89.7892   6
  11 -27  -8 64.1108 105.864  10
  16  11   8 72.4256 65.4459   9
  11  16   8 51.3806 66.7442   9
 -11  27  -8 75.3185 82.4782   6
 -16  27  -8 85.4310 82.1835   6
 -11  27  -8 165.572 102.715   8
 -16  27  -8 110.070 79.6522   8
  11  16  -9 107.884 80.8761   6
  11 -27  -9 106.655 94.1921  10
  16  11   9 65.0955 59.6221   9
 -11  27  -9 164.410 79.2509   6
  11  16   9-12.9017 60.1403   9
 -16  27  -9 18.3389 75.3818   6
 -11  27  -9-27.7589 92.5019   8
 -16  27  -9 3.36463 76.3422   8
  16 -27 -10-19.2355 83.0636  10
 -11  27 -10 57.1986 67.3793   6
  11  16  10-4.23252 53.9542   9
 -16  27 -10 108.614 69.5266   6
 -11  27 -10-32.4696 80.3022   8
 -16  27 -10-30.9484 74.6416   8
  17  10   0 128.286 106.602   6
  27 -17   0 369.033 95.6592  11
  10  17   0 447.945 116.602   6
 -10  27   0 248.655 110.895   6
  17  10   1 170.851 103.841   6
  17  10  -1 277.797 106.038   6
  27 -17  -1 213.754 96.3560  11
  27 -17   1 61.6269 82.2965  11
  10  17   1 175.080 104.475   6
  10  17  -1 137.369 104.936   6
 -10  27   1 15.4992 100.659   6
 -10  27  -1 198.505 106.154   6
 -17  27  -1-54.8757 119.531   8
  17  10   2 65.5472 102.066   6
  17  10  -2 357.695 109.383   6
  27 -17  -2 108.030 93.9438  11
  27 -17   2 121.389 81.8782  11
  10  17   2 101.189 102.510   6
  10  17  -2 125.063 102.664   6
 -10  27   2 296.427 110.902   6
 -10  27  -2 166.446 103.443   6
 -17  27  -2 247.144 116.288   8
  17  10  -3 121.578 104.878   6
  10  17   3 140.666 103.928   6
  10  17  -3 273.905 109.856   6
 -10  27  -3 124.315 98.8232   6
 -10  27  -3 196.879 115.456   8
 -17  27  -3 250.683 114.843   8
  17  10  -4 223.507 109.593   6
  10  17  -4 53.5071 102.651   6
 -10  27  -4 87.9762 93.2969   6
 -10  27  -4 122.652 113.824   8
 -17  27  -4 43.6475 96.5763   8
  17  10  -5 222.841 110.491   6
  10  17  -5 202.925 109.794   6
  10  17   5 169.033 84.5765   9
 -10  27  -5 46.8452 88.6004   6
 -10  27  -5 193.732 117.110   8
 -17  27  -5-42.7799 97.3113   8
  17  10  -6 48.2642 101.601   6
  10  17  -6 127.373 103.490   6
  17  10   6 246.335 80.8587   9
  10  17   6-1.26837 76.1148   9
 -10  27  -6 100.163 91.5288   6
 -10  27  -6 67.5952 110.104   8
 -17  27  -6 71.7019 86.1967   8
  10  17  -7 163.784 101.046   6
  17  10   7 190.724 73.3993   9
  10  17   7 56.4176 72.0504   9
 -10  27  -7 162.782 91.0596   6
 -10  27  -7-31.9484 103.731   8
 -17  27  -7 137.338 89.3251   8
  10  17  -8 136.156 88.7400   6
  10 -27  -8 15.5102 103.072  10
  17  10   8 52.4538 65.3950   9
 -10  27  -8 140.895 87.3876   6
  10  17   8 163.422 67.7709   9
 -17  27  -8 103.180 85.0952   6
 -10  27  -8 132.986 100.201   8
 -17  27  -8 92.9230 83.0739   8
  10  17  -9 171.442 80.1402   6
  10 -27  -9-8.21729 90.7001  10
 -10  27  -9 110.389 77.4116   6
  10  17   9 41.7364 59.7116   9
 -17  27  -9 127.873 77.1997   6
 -10  27  -9-18.7748 88.2950   8
 -17  27  -9 109.303 80.9319   8
 -10  27 -10 108.420 68.2796   6
  10  17  10-2.41043 53.1488   9
 -10  27 -10 70.1595 77.8229   8
 -17  27 -10 31.4132 74.2483   8
  18   9   0 128.185 103.584   6
  27 -18   0 119.305 93.4211  11
   9  18   0 10.3822 102.855   6
  -9  27   0 119.510 104.908   6
  18   9   1 211.531 104.700   6
  18 -27   1 146.452 109.571  11
  18   9  -1 201.420 103.007   6
  27 -18  -1 161.260 91.0591  11
  27 -18   1 137.920 83.9075  11
   9  18   1 30.8646 101.148   6
   9  18  -1 69.2059 103.007   6
  -9  27   1 136.057 106.123   6
  -9  27  -1 150.750 104.282   6
 -18  27  -1 143.177 117.971   8
  18   9  -2-0.81357 96.2122   6
  27 -18  -2 108.950 93.9774  11
  27 -18   2 42.6955 80.6788  11
   9  18   2 139.261 102.080   6
   9  18  -2 116.518 104.958   6
  -9  27   2 269.474 109.658   6
  -9  27  -2 136.295 100.351   6
 -18  27  -2 111.816 122.096   8
  18   9  -3 101.239 102.070   6
  27 -18  -3 151.491 99.9301  11
   9  18   3 120.141 105.921   6
  27 -18   3 154.808 77.4224  11
   9  18  -3 122.575 105.530   6
  -9  27  -3 166.265 99.6457   6
 -18  27  -3 55.7294 112.660   8
  18   9  -4 126.001 107.224   6
   9  18  -4 150.889 103.844   6
  -9  27  -4 86.6568 91.0146   6
  -9  27  -4 109.994 119.596   8
 -18  27  -4 124.270 100.140   8
  18   9  -5 120.844 104.474   6
   9  18  -5 99.8797 103.385   6
  -9  27  -5 238.528 96.7615   6
   9  18   5-45.5635 80.5409   9
  -9  27  -5 145.601 115.563   8
 -18  27  -5 148.848 98.8542   8
   9  18  -6 65.6898 101.444   6
  -9  27  -6 98.2999 91.4453   6
   9  18   6 50.5175 75.1852   9
  -9  27  -6-15.8947 108.084   8
 -18  27  -6 86.3173 90.7992   8
   9  18  -7 182.973 98.2000   6
  -9  27  -7 99.6957 88.4964   6
   9  18   7 39.3804 69.9268   9
  -9  27  -7 1.28899 100.419   8
 -18  27  -7 73.4247 82.8937   8
   9  18  -8 56.4490 86.9361   6
  -9  27  -8 91.7374 84.0198   6
   9  18   8 6.56879 62.7229   9
  -9  27  -8-67.5289 94.2018   8
 -18  27  -8 25.8374 79.6358   6
 -18  27  -8 136.257 76.4581   8
   9  18  -9 75.2855 77.3521   6
  -9  27  -9 72.2617 78.6125   6
   9  18   9 90.8732 60.0320   9
 -18  27  -9 62.2789 74.2839   6
  -9  27  -9-95.7851 87.1103   8
 -18  27  -9-73.2572 73.6712   8
  19 -27   0 689.626 127.150  11
  27 -19   0 399.833 99.4049  11
   8  19   0 602.308 120.750   6
  -8  27   0 739.128 124.127   6
  19 -27   1 530.654 122.221  11
  27 -19  -1 477.918 103.351  11
  27 -19   1 287.626 86.5517  11
   8  19   1 481.414 114.636   6
   8  19  -1 542.482 114.873   6
  -8  27   1 743.869 118.187   6
  -8  27  -1 571.181 114.293   6
  19   8  -2 268.700 102.376   6
  19 -27   2 569.102 120.779  11
  27 -19  -2 297.249 99.7932  11
  27 -19   2 372.211 89.0724  11
   8  19   2 609.322 114.871   6
   8  19  -2 542.410 116.804   6
  -8  27   2 550.757 112.513   6
  -8  27  -2 290.468 105.165   6
 -19  27  -2 429.936 132.006   8
  19   8  -3 406.618 110.094   6
  27 -19  -3 457.644 105.384  11
  27 -19   3 347.491 87.9193  11
   8  19   3 532.139 113.932   6
   8  19  -3 580.655 117.294   6
  -8  27  -3 420.390 108.092   6
 -19  27  -3 450.549 125.324   8
  27 -19  -4 256.048 95.6107  11
  27 -19   4 155.820 75.9135  11
   8  19  -4 357.836 107.022   6
  -8  27  -4 189.774 95.6427   6
   8  19   4 271.090 85.2190   9
 -19  27  -4 298.854 103.497   8
   8  19  -5 241.204 105.878   6
  -8  27  -5 248.491 96.8410   6
   8  19   5 295.506 84.0971   9
  -8  27  -5 304.710 116.399   8
 -19  27  -5 186.931 94.3199   8
   8  19  -6 319.898 106.092   6
  -8  27  -6 166.412 93.4872   6
   8  19   6 260.079 78.0841   9
  -8  27  -6 257.800 111.753   8
 -19  27  -6 114.998 83.3851   8
   8  19  -7 269.761 97.5322   6
  -8  27  -7 341.539 94.2487   6
   8  19   7 207.807 72.7486   9
  -8  27  -7 121.416 98.3387   8
 -19  27  -7 96.9061 82.9587   8
   8  19  -8 189.709 86.6756   6
  -8  27  -8 174.792 83.3330   6
   8  19   8 79.9586 65.2739   9
  -8  27  -8 278.429 96.8772   8
 -19  27  -8 145.764 84.6993   6
 -19  27  -8 147.205 78.9212   8
   8  19  -9 26.7203 74.0998   6
  -8  27  -9 69.3617 75.4079   6
   8  19   9 112.666 60.0443   9
 -19  27  -9 218.399 76.8055   6
 -19  27  -9 100.651 72.0962   8
  20 -27   0 263.049 112.829  11
  27 -20   0 228.406 91.8077  11
   7  20   0 65.5019 99.4976   6
  -7  27   0 285.346 106.339   6
  20 -27   1 172.675 104.442  11
  27 -20  -1 110.254 89.9178  11
  27 -20   1 181.343 84.7091  11
   7  20   1 165.984 105.677   6
   7  20  -1 41.5167 97.2759   6
  -7  27   1 105.630 101.653   6
  -7  27  -1 259.502 105.522   6
  20 -27   2 274.511 114.943  11
  27 -20  -2 43.9135 92.7030  11
  27 -20   2 152.816 81.2302  11
   7  20   2 204.753 101.420   6
   7  20  -2 119.658 101.161   6
  -7  27   2 268.408 106.128   6
  -7  27  -2 200.956 100.696   6
 -20  27  -2 205.018 123.469   8
  27 -20  -3 142.492 97.1684  11
  20 -27   3 207.772 100.319  11
  27 -20   3 78.9710 72.5876  11
   7  20  -3 28.9392 95.3047   6
  -7  27  -3 204.499 97.5466   6
 -20  27  -3 104.085 114.123   8
  27 -20  -4 181.334 91.8537  11
  27 -20   4 132.934 74.1723  11
   7  20  -4 55.3149 95.4620   6
  -7  27  -4-6.47917 89.5616   6
   7  20   4 213.347 81.8651   9
 -20  27  -4 69.0709 99.6766   8
  27 -20   5 40.8068 69.6237  11
   7  20  -5 87.0411 96.8838   6
  -7  27  -5 143.990 90.6238   6
   7  20   5 140.547 77.6572   9
 -20  27  -5 148.433 93.9347   8
   7  20  -6 102.861 95.0007   6
  -7  27  -6 120.924 88.0812   6
   7  20   6 27.2706 70.9034   9
 -20  27  -6 98.5668 81.1046   8
   7  20  -7 175.987 93.3248   6
  -7  27  -7 84.8823 82.5899   6
   7  20   7 22.5230 66.0318   9
 -20  27  -7 50.4614 76.1403   8
   7  20  -8-20.4457 80.0235   6
  -7  27  -8 36.9486 79.3889   6
   7  20   8 53.1989 61.2940   9
 -20  27  -8 108.145 69.4124   8
   7  20  -9 8.82027 72.9671   6
  27 -20   9 42.6715 64.1910  11
  -7  27  -9 100.241 73.5480   6
   7  20   9 62.1052 55.3925   9
 -20  27  -9 4.39088 70.1864   6
 -20  27  -9 77.6727 65.0732   8
  21 -27   0 386.537 111.325  11
  27 -21   0 261.104 86.0045  11
   6  21   0 247.578 102.869   6
  -6  27   0 245.601 100.469   6
  21 -27   1 125.751 104.464  11
  27 -21  -1 93.2525 81.2142  11
  27 -21   1 133.690 79.0243  11
   6  21   1 199.236 96.9654   6
   6  21  -1 227.155 104.049   6
  -6  27   1 104.326 97.4201   6
  -6  27  -1 244.781 100.677   6
  21 -27   2 191.159 100.789  11
  27 -21   2 94.2964 74.6373  11
   6  21   2 294.743 100.929   6
   6  21  -2 257.302 103.779   6
  -6  27  -2 132.439 97.5087   6
  27 -21  -2 140.357 89.0480  11
 -21  27  -2 93.7223 119.825   8
  27 -21  -3 136.749 88.6516  11
  21 -27   3 326.503 99.7909  11
  27 -21   3 291.523 76.1074  11
   6  21  -3 216.305 99.6238   6
  -6  27  -3 226.343 96.0208   6
 -21  27  -3 178.373 110.985   8
  27 -21  -4 289.910 91.6377  11
  21 -27   4 164.492 83.9115  11
  27 -21   4 101.677 72.1762  11
   6  21  -4 213.428 98.3080   6
  -6  27  -4 136.134 90.8677   6
   6  21   4 201.208 75.5642   9
 -21  27  -4 65.1658 93.9585   8
  27 -21   5 99.2808 73.7011  11
   6  21  -5 179.502 97.1207   6
  -6  27  -5 161.268 90.5641   6
   6  21   5 249.803 76.9641   9
 -21  27  -5 169.753 87.4734   8
  27 -21   6 88.7068 69.5081  11
   6  21  -6 239.176 95.2613   6
  -6  27  -6 327.812 94.4159   6
   6  21   6 252.018 75.2295   9
 -21  27  -6 91.2784 77.9636   8
  27 -21   7 30.9984 67.8929  11
   6  21  -7 76.7739 87.0391   6
  -6  27  -7 13.5867 80.8552   6
   6  21   7 129.921 64.7690   9
 -21  27  -7 201.530 76.3386   8
  27 -21   8 47.4021 63.0286  11
   6  21  -8 63.0100 78.3283   6
  -6  27  -8 38.8830 76.6884   6
   6  21   8 8.69244 58.6295   9
 -21  27  -8 30.9425 65.9147   8
  22 -27   0 1.46709 91.5232  11
  27 -22   0 25.0915 74.9457  11
   5  22   0 118.323 93.4084   6
  -5  27   0 121.087 95.6901   6
  22 -27  -1 91.4508 90.0072  11
  22 -27   1 100.746 94.8640  11
  27 -22  -1-55.3429 82.5489  11
  27 -22   1 66.4002 75.2644  11
   5  22   1 146.883 97.6838   6
   5  22  -1 95.3435 94.1447   6
  -5  27   1 58.9700 94.1553   6
  -5  27  -1-38.0579 93.2401   6
  22 -27   2 61.1716 92.4724  11
  27 -22  -2 47.0337 80.6965  11
  27 -22   2 22.8342 71.8258  11
   5  22   2 162.001 96.6484   6
   5  22  -2-18.3314 91.2575   6
  -5  27  -2 121.576 90.8831   6
  22 -27   3 130.152 88.8837  11
  27 -22  -3 54.7194 83.9101  11
  27 -22   3-79.9745 70.9078  11
   5  22  -3-48.8963 90.1028   6
  -5  27  -3 27.8957 86.2276   6
 -22  27  -3-100.980 102.327   8
  22 -27   4 102.046 78.4746  11
  27 -22   4-0.27160 66.3250  11
   5  22  -4-61.2156 90.0717   6
  -5  27  -4 53.1944 84.7506   6
   5  22   4 39.2367 70.2233   9
 -22  27  -4 124.638 96.2772   8
  22 -27   5-32.8138 71.8002  11
  27 -22   5 28.6626 64.3825  11
   5  22  -5 7.01126 86.7273   6
  -5  27  -5 153.817 87.7276   6
   5  22   5 139.668 71.1962   9
 -22  27  -5 98.2884 84.8059   8
  27 -22   6 49.2581 64.7835  11
   5  22  -6 57.9690 85.0182   6
  -5  27  -6 113.417 82.4696   6
   5  22   6 92.7874 66.1004   9
 -22  27  -6 47.7956 72.9553   8
  27 -22   7 39.2781 66.7920  11
   5  22  -7 18.3816 78.6265   6
  -5  27  -7-41.2864 79.5750   6
   5  22   7 77.2718 63.8044   9
 -22  27  -7-18.7462 65.5332   8
  27 -22   8 26.0659 62.8992  11
   5  22  -8 67.0272 76.1058   6
  -5  27  -8 16.4826 74.3861   6
   5  22   8-34.6840 56.0047   9
 -22  27  -8-63.5971 60.3208   8
  23 -27   0 136.894 89.1169  11
  27 -23   0 52.6656 69.1736  11
   4  23   0 85.2294 89.1318   6
  -4  27   0 157.920 92.3412   6
  23 -27  -1-12.9904 78.3079  11
  23 -27   1 24.4364 87.8093  11
  27 -23  -1 127.580 79.1429  11
  27 -23   1-3.44857 65.9074  11
   4  23   1-21.2095 89.7557   6
   4  23  -1-59.7802 90.8823   6
  -4  27   1 46.7502 89.7781   6
  -4  27  -1 58.9162 91.6363   6
  27 -23  -2 27.3488 75.7328  11
  23 -27   2-50.6600 85.3942  11
  27 -23   2 77.4628 71.2074  11
   4  23   2 166.022 89.8486   6
   4  23  -2 90.8526 88.1191   6
  -4  27  -2 91.8897 90.4822   6
  27 -23  -3 10.0808 75.3557  11
  23 -27   3-22.9836 79.5921  11
  27 -23   3 36.7371 68.4185  11
   4  23  -3 58.8474 86.4594   6
  -4  27  -3 110.638 84.8959   6
  23 -27   4 17.8233 75.2371  11
  27 -23   4 39.2971 68.8980  11
   4  23  -4 82.1877 88.2129   6
  -4  27  -4 111.525 85.2370   6
   4  23   4 15.6395 66.2235   9
  23 -27   5 28.2737 68.1794  11
  27 -23   5 41.4102 64.1417  11
   4  23  -5 52.4596 83.1860   6
  -4  27  -5 15.7104 81.9352   6
   4  23   5-0.40399 63.9991   9
 -23  27  -5 22.2350 76.6300   8
  23 -27   6 79.9042 58.7605  11
  27 -23   6-50.6132 64.3262  11
   4  23  -6 203.806 86.4919   6
  -4  27  -6 85.9219 81.4285   6
   4  23   6 66.1942 61.9835   9
 -23  27  -6 34.6666 68.2638   8
  27 -23   7 109.835 63.5241  11
   4  23  -7 122.426 78.2181   6
  -4  27  -7-62.3777 77.4530   6
   4  23   7 160.915 61.6829   9
 -23  27  -7 52.1258 62.1912   8
  24 -27   0 3.56647 80.8759  11
  27 -24   0 59.0085 69.8953  11
   3  24   0 94.6030 86.1909   6
  -3  27   0 179.748 91.5211   6
  24 -27  -1 168.651 79.0046  11
  24 -27   1-7.34914 82.9723  11
  27 -24  -1 0.91448 71.0576  11
  27 -24   1-31.4137 70.5707  11
   3  24   1-27.5928 84.6639   6
   3  24  -1 38.4354 85.2015   6
  -3  27   1-34.3287 87.2573   6
  -3  27  -1 15.1002 86.7281   6
  27 -24  -2-43.6283 69.8844  11
  24 -27   2-6.10498 78.3432  11
  27 -24   2-3.25835 69.1849  11
   3  24   2-38.2035 85.7362   6
   3  24  -2-93.8156 87.7135   6
  -3  27  -2 35.8774 87.8747   6
  24 -27   3-109.996 80.0069  11
  27 -24   3 50.3930 70.5808  11
   3  24  -3 43.4699 82.2250   6
  -3  27  -3 97.0632 85.6853   6
   3  24   3 15.1158 63.1216   9
  24 -27   4 21.8653 72.2837  11
  27 -24   4 55.4670 70.1682  11
   3  24  -4 78.4451 83.0090   6
  -3  27  -4 88.2859 82.9339   6
   3  24   4 57.5364 63.9651   9
  24 -27   5 87.7644 65.8862  11
  27 -24   5 29.5726 67.9647  11
   3  24  -5 43.2448 79.5277   6
  -3  27  -5 43.2273 80.5039   6
   3  24   5 51.6280 62.6367   9
  24 -27   6 9.71276 54.5818  11
  27 -24   6-10.7299 64.6185  11
   3  24  -6-52.7256 76.0091   6
  -3  27  -6 23.3608 75.0938   6
   3  24   6 16.5120 57.8480   9
  27 -24   7 21.4953 58.8903  11
   3  24  -7 38.9188 71.1451   6
  -3  27  -7 82.1037 72.2798   6
   3  24   7 37.9332 55.4888   9
  25 -27   0 105.588 73.1392  11
  27 -25   0 98.0430 68.8072  11
   2  25   0 94.2965 84.4385   6
  -2  27   0 101.749 86.9661   6
  25 -27  -1 65.9280 74.6329  11
  27 -25  -1 95.8351 69.4062  11
  25 -27   1 106.280 78.0345  11
  27 -25   1 192.314 75.2321  11
   2  25   1 143.576 85.3334   6
   2  25  -1 236.384 88.7775   6
  -2  27   1 260.241 90.5175   6
  -2  27  -1 138.420 85.3887   6
  27 -25  -2 82.5599 69.6255  11
  25 -27   2 130.795 79.3892  11
  27 -25   2 105.039 71.0172  11
   2  25  -2 178.963 88.3369   6
  -2  27  -2 177.756 87.3102   6
  25 -27   3 8.75295 75.7800  11
  27 -25   3 22.1900 67.0083  11
   2  25  -3 93.7315 82.1597   6
  -2  27  -3 54.4537 81.7259   6
   2  25   3 45.1875 62.5805   9
  25 -27   4 20.7426 68.6545  11
  27 -25   4 30.1240 65.9179  11
   2  25  -4 22.0865 78.0700   6
  -2  27  -4 237.655 84.9899   6
   2  25   4 112.486 62.4407   9
  25 -27   5 57.4860 65.3265  11
  27 -25   5 46.8836 63.0622  11
   2  25  -5 93.8738 79.3108   6
  -2  27  -5 47.6899 76.6649   6
   2  25   5 80.2125 59.9126   9
  25 -27   6 103.482 55.2013  11
  27 -25   6 90.3923 63.0531  11
   2  25  -6 22.6058 71.6560   6
  -2  27  -6 43.0306 72.5771   6
   2  25   6-30.4612 55.8392   9
  26 -27   0 134.841 70.7896  11
  27 -26   0 116.001 68.5763  11
   1  26   0 107.509 81.7182   6
  -1  27   0 71.0646 82.2699   6
  27 -26  -1 4.27543 64.7781  11
  26 -27   1 1.06907 71.9153  11
  27 -26   1 37.3311 68.9692  11
   1  26   1 149.009 82.8753   6
  -1  27   1-65.5752 80.5962   6
   1  26  -1 43.9371 79.5069   6
  -1  27  -1 27.8673 79.4513   6
  26 -27   2-6.42129 70.5343  11
  27 -26   2 72.2908 69.1092  11
   1  26  -2 75.7130 78.6800   6
  -1  27  -2 79.2440 80.0744   6
  26 -27   3 80.1029 70.9226  11
  27 -26   3-82.1011 71.2621  11
   1  26  -3 68.4125 79.8371   6
  -1  27  -3 42.3035 78.9078   6
   1  26   3-86.3009 60.2500   9
  26 -27   4 39.8423 64.2297  11
  27 -26   4 47.8800 65.6372  11
   1  26  -4-24.6832 75.4701   6
  -1  27  -4 1.29257 75.1778   6
   1  26   4 52.9183 56.8825   9
  26 -27   5 12.8001 59.3679  11
  27 -26   5-37.1036 64.5507  11
   1  26   5 57.0880 55.3299   9
  -1  27   5-15.1580 54.9461   9
  27 -27   0 130.790 69.6725  11
   0  27   0 76.4143 79.8810   6
  27 -27   1 75.3417 68.0058  11
   0  27   1 84.6258 76.5583   6
   0  27  -1 59.6780 76.9792   6
  27 -27   2 63.9248 67.0563  11
   0  27  -2 174.402 79.0602   6
  27 -27   3 54.7272 67.7276  11
   0  27  -3 82.2293 74.2996   6
  14  14   0 57.5763 91.8362   6
 -14  28   0 44.8815 92.4391   6
  14  14   1 52.2932 93.8410   6
  14  14  -1-28.8720 93.5937   6
 -14  28   1-146.522 96.4815   6
 -14  28  -1-97.8957 92.6406   6
  14  14   2-19.8428 91.5052   6
  14  14  -2-88.2159 97.3059   6
  28 -14   2-64.5976 74.9748  11
 -14  28  -2 57.9987 87.9740   8
 -14  28  -2-47.1607 89.3807   6
  14  14   3-69.1955 90.9341   6
  14  14  -3 42.1230 95.0170   6
 -14  28  -3 122.281 93.7300   8
 -14  28  -3-39.4101 88.0978   6
  14  14  -4 28.8958 96.4509   6
 -14  28  -4 71.3937 85.1132   6
 -14  28  -4 97.8697 93.4312   8
  14  14  -5-168.837 101.895   6
 -14  28  -5-94.6864 85.2008   6
 -14  28  -5-26.3330 90.4587   8
  14  14  -6 117.612 97.3064   6
  14  14   6 121.777 70.5329   9
 -14  28  -6 20.8037 80.3673   6
 -14  28  -6 33.0553 93.5457   8
  14  14  -7 66.2124 87.0961   6
  14  14   7 88.5746 63.3763   9
 -14  28  -7 61.3748 76.4972   6
 -14  28  -7-19.4024 86.7290   8
  14  14  -8-89.1928 80.8547   6
  14 -28  -8 105.581 96.7732  10
  14  14   8-3.36278 58.2401   9
 -14  28  -8 42.8991 73.9878   6
 -14  28  -8 47.8418 82.9045   8
  14 -28  -9-65.6570 85.5643  10
  14  14   9 95.6450 53.4142   9
 -14  28  -9-50.9177 69.5374   6
 -14  28  -9-15.6030 77.4714   8
  15  13   0 35.6168 91.8132   6
  13  15   0 62.5876 93.6530   6
 -13  28   0 151.116 97.0620   6
 -15  28   0-10.3470 92.0640   6
  15  13   1-75.8094 92.6570   6
  15  13  -1-13.4911 91.8807   6
  13  15   1 11.1007 92.8065   6
  28 -15   1 25.8931 77.5656  11
  13  15  -1 148.556 94.2957   6
 -13  28   1-43.5110 91.2935   6
 -13  28  -1 67.9987 92.9291   6
 -15  28   1 50.2020 93.1248   6
 -15  28  -1 68.8450 94.3984   6
  15  13   2-65.0895 94.4710   6
  13  15   2-41.0269 91.2770   6
  15  13  -2 9.13271 91.0621   6
  13  15  -2 37.1028 94.4006   6
  28 -15   2-4.18303 73.2101  11
 -13  28  -2 100.945 92.6545   6
 -15  28  -2 13.2522 93.8712   8
 -15  28  -2 26.1664 91.6559   6
  15  13   3 188.653 94.4541   6
  13  15   3-3.38542 89.7948   6
  15  13  -3-58.0126 94.2630   6
  13  15  -3-35.0020 94.7424   6
 -13  28  -3 7.08284 86.5878   6
 -13  28  -3-56.2368 92.2659   8
 -15  28  -3-55.1089 92.3203   8
 -15  28  -3-0.39790 88.0809   6
  15  13  -4-6.97037 97.1135   6
  13  15  -4 78.9073 97.3859   6
 -13  28  -4-13.9341 83.4892   6
 -13  28  -4 15.9052 89.5561   8
 -15  28  -4 109.292 93.9202   8
 -15  28  -4-39.3143 84.3682   6
  15  13  -5-101.840 99.5347   6
  13  15  -5 65.0836 98.3976   6
 -13  28  -5-62.9795 83.1209   6
 -15  28  -5 23.5239 81.3648   6
 -13  28  -5 39.9109 92.7072   8
 -15  28  -5 125.977 91.6517   8
  15  13  -6-69.0786 97.3542   6
  13  15  -6 52.4068 91.9612   6
  15  13   6 124.444 71.3519   9
  13  15   6 27.6516 68.2576   9
 -13  28  -6 112.543 84.4805   6
 -15  28  -6 45.0456 82.2829   6
 -13  28  -6 80.9687 91.1311   8
 -15  28  -6-68.9772 88.1487   8
  15  13  -7-23.2856 86.5167   6
  13  15  -7 18.5296 87.8125   6
  15  13   7 7.87026 62.1632   9
  13  15   7-26.8981 63.3647   9
 -13  28  -7 37.9130 79.4111   6
 -15  28  -7-46.5654 79.4437   6
 -13  28  -7 18.5771 87.1492   8
 -15  28  -7-5.17226 84.9480   8
  13  15  -8-58.4079 78.8287   6
  13 -28  -8-55.6697 97.1123  10
  15  13   8-5.81149 58.1068   9
  13  15   8 33.4513 58.8218   9
 -13  28  -8-15.9515 72.1882   6
 -15  28  -8 65.5033 75.4150   6
 -13  28  -8-0.93428 83.8634   8
 -15  28  -8 75.3668 79.0296   8
  15 -28  -9-68.9898 84.6335  10
  15  13   9-4.93665 52.2595   9
  13  15   9 20.1119 53.1886   9
 -13  28  -9-11.3281 67.7497   6
 -15  28  -9-12.0174 68.1500   6
 -13  28  -9 98.7086 82.2720   8
 -15  28  -9-64.5167 78.0179   8
  16  12   0 45.1234 94.9042   6
  28 -16   0 60.4714 81.4736  11
  12  16   0 148.373 98.0661   6
 -12  28   0 74.2873 95.7484   6
  16  12   1-10.1626 91.7963   6
  16  12  -1-26.9356 96.0763   6
  12  16   1-18.1104 93.2268   6
  28 -16   1 52.5935 76.4460  11
  12  16  -1-2.01891 94.1450   6
 -12  28   1-27.2939 90.6040   6
 -12  28  -1 22.9632 93.0479   6
 -16  28   1-91.5314 97.2287   6
  16  12   2 58.2500 90.7388   6
  16  12  -2-54.4277 93.5687   6
  12  16   2-54.4070 93.7692   6
  28 -16   2 32.8539 74.0317  11
  12  16  -2 67.6042 96.8678   6
 -12  28  -2 3.31251 90.4349   6
 -16  28  -2 28.2678 100.775   8
 -16  28   2-33.2485 91.5632   6
  12  16   3 9.73361 92.6021   6
  16  12  -3 82.6617 97.4557   6
  28 -16   3 57.5355 72.8876  11
  12  16  -3 118.683 98.4847   6
 -12  28  -3 33.3893 89.1254   6
 -12  28  -3 22.3232 99.0105   8
 -16  28  -3-1.09207 91.0518   8
  16  12  -4 58.0239 97.6429   6
  12  16  -4-30.2477 95.7050   6
 -12  28  -4-45.8186 87.3191   6
 -12  28  -4 171.585 102.549   8
 -16  28  -4 10.7900 87.5063   8
  16  12  -5 65.5969 98.9573   6
  12  16  -5 164.095 100.672   6
 -12  28  -5 21.6063 85.0762   6
 -12  28  -5-25.4394 100.908   8
 -16  28  -5 58.0054 90.3410   8
 -16  28  -5-32.7481 83.3321   6
  16  12  -6 54.5276 93.8875   6
  12  16  -6-1.18115 92.6509   6
  12  16   6 137.051 72.9335   9
 -12  28  -6 74.9367 84.5938   6
 -16  28  -6 78.7662 84.9124   6
 -12  28  -6-47.7525 95.9444   8
 -16  28  -6 53.5910 86.0156   8
  16  12  -7 105.663 85.5925   6
  12  16  -7 1.01145 87.1308   6
  12 -28  -7-41.6056 104.912  10
  16  12   7 14.2619 63.3404   9
  12  16   7 83.2051 64.2927   9
 -12  28  -7 83.6004 80.8293   6
 -16  28  -7 15.1213 77.2405   6
 -12  28  -7 89.8331 93.1437   8
 -16  28  -7 1.53442 82.7369   8
  12  16  -8 73.4502 79.4098   6
  12 -28  -8-17.0975 97.1966  10
  16  12   8 87.0635 60.3305   9
  12  16   8 92.3443 60.7102   9
 -12  28  -8 55.9232 78.0530   6
 -16  28  -8 148.343 77.8960   6
 -12  28  -8 74.0401 87.3810   8
 -16  28  -8 28.7368 77.0553   8
 -12  28  -9 102.461 71.1884   6
  12  16   9 90.6913 55.1962   9
 -16  28  -9-104.612 70.5805   6
 -12  28  -9 34.3287 81.1334   8
 -16  28  -9-67.4689 78.8135   8
  17  11   0 33.3589 92.2308   6
  28 -17   0 14.9529 78.3700  11
  11  17   0 9.11273 94.5588   6
 -11  28   0 147.117 97.2096   6
  17  11   1 103.482 95.1654   6
  17  11  -1-7.42632 89.8007   6
  28 -17  -1-20.7410 81.6326  11
  28 -17   1 64.9942 75.8373  11
  11  17   1-0.05278 92.8444   6
  11  17  -1 35.2543 94.8270   6
 -11  28   1 132.181 93.5549   6
 -11  28  -1 91.4857 94.1747   6
  17  11  -2 60.0028 89.9327   6
  11  17   2-30.0891 92.9889   6
  28 -17   2-60.6834 78.0193  11
  11  17  -2 14.9184 93.2462   6
 -11  28  -2-89.1069 94.2303   6
 -17  28  -2-18.0613 101.336   8
 -17  28   2 224.644 97.4515   6
  17  11  -3 5.69026 94.8130   6
  11  17   3-117.422 94.1228   6
  28 -17   3 13.8696 73.4540  11
  11  17  -3 2.97258 94.0752   6
 -11  28  -3 46.4209 89.6770   6
 -17  28  -3 103.534 92.3391   8
  17  11  -4 7.62341 96.7327   6
  11  17  -4 45.3857 96.5279   6
 -11  28  -4-16.9474 85.9082   6
 -11  28  -4-23.5634 94.4857   8
 -17  28  -4-93.2455 92.6245   8
  17  11  -5 43.2699 96.6371   6
  11  17  -5 71.5857 96.9817   6
 -11  28  -5 19.7690 83.2492   6
 -11  28  -5 14.2415 97.1586   8
 -17  28  -5 80.5799 89.4237   8
  17  11  -6 67.6547 95.7827   6
  11  17  -6 35.4405 94.8205   6
  11  17   6 68.2192 71.4445   9
 -11  28  -6 61.5280 81.3645   6
 -11  28  -6 63.0905 103.357   8
 -17  28  -6 33.9379 82.9375   6
 -17  28  -6-3.82671 84.9857   8
  11  17  -7 96.7901 88.9573   6
  11  17   7 14.7802 63.6611   9
 -11  28  -7 30.7480 80.7947   6
 -17  28  -7 18.9234 78.6926   6
 -11  28  -7-16.9516 96.0263   8
 -17  28  -7 31.3520 78.5926   8
  11  17  -8-30.3878 77.6363   6
 -11  28  -8 56.2097 76.5758   6
  11  17   8 53.6762 59.1573   9
 -17  28  -8 86.1669 74.9884   6
 -11  28  -8 25.4091 85.5988   8
 -17  28  -8-45.0108 79.7605   8
  18  10   0-118.331 93.8607   6
  28 -18   0 6.63186 83.0512  11
  10  18   0 20.5159 93.8681   6
 -10  28   0 82.5237 92.4277   6
  18  10  -1 23.8811 91.1679   6
  28 -18  -1-40.2618 82.9680  11
  28 -18   1 72.2135 80.6188  11
  10  18   1 158.552 98.7475   6
  10  18  -1-114.812 96.6167   6
 -10  28   1 80.3140 94.6580   6
 -10  28  -1 66.6688 92.3779   6
  18  10  -2 33.2576 90.3531   6
  28 -18  -2 5.42224 83.8016  11
  10  18   2 80.0993 91.0009   6
  28 -18   2-62.8367 75.4210  11
  10  18  -2 143.051 98.1207   6
 -10  28  -2 31.8682 92.2967   6
 -18  28  -2-34.8643 99.2595   8
  18  10  -3-43.1728 91.4329   6
  10  18   3 190.050 97.0592   6
  28 -18   3-6.82106 74.4388  11
  10  18  -3 5.15274 94.4967   6
 -10  28  -3-28.8961 89.4332   6
 -18  28  -3-64.7552 98.9832   8
  18  10  -4-17.1015 94.6144   6
  28 -18   4 15.0727 70.0154  11
  10  18  -4-41.4266 93.7192   6
 -10  28  -4 189.627 90.0000   6
 -18  28  -4 86.6562 89.5870   8
  18  10  -5 12.9358 94.2341   6
  10  18  -5 169.319 99.5925   6
  10  18   5 123.919 72.5767   9
 -10  28  -5 89.0726 87.2138   6
 -10  28  -5 65.1726 102.760   8
 -18  28  -5 0.63659 87.6157   8
  10  18  -6 88.4171 94.2719   6
 -10  28  -6-24.3589 82.6654   6
  10  18   6-0.94758 67.5615   9
 -10  28  -6 40.5051 100.487   8
 -18  28  -6 56.9711 83.5152   8
  10  18  -7 235.559 91.2601   6
 -10  28  -7-23.8260 78.8849   6
  10  18   7 57.5041 64.3882   9
 -10  28  -7-35.7115 93.3457   8
 -18  28  -7 72.7590 79.4044   6
 -18  28  -7 45.8222 78.7807   8
  10  18  -8 69.4601 76.1970   6
 -10  28  -8-31.0543 72.2115   6
  10  18   8 74.7657 58.0401   9
 -18  28  -8-11.3703 72.7820   6
 -10  28  -8-96.1808 90.1521   8
 -18  28  -8 29.6607 71.5674   8
  28 -19   0 50.6938 78.6233  11
   9  19   0 56.3972 97.8077   6
  -9  28   0-25.9236 93.5896   6
  28 -19  -1 109.680 84.9830  11
  28 -19   1 54.3611 78.1213  11
   9  19   1 75.2268 94.4540   6
   9  19  -1 133.331 97.1114   6
  -9  28   1 127.978 98.2354   6
  -9  28  -1-83.2856 95.9873   6
  28 -19  -2 9.42805 82.7975  11
  28 -19   2-13.9818 72.2586  11
   9  19   2 76.8354 93.6387   6
   9  19  -2 93.6092 96.3119   6
  -9  28  -2 40.2765 90.9003   6
 -19  28  -2 21.5052 105.275   8
  28 -19  -3-28.8484 85.3920  11
  28 -19   3 83.0055 74.7469  11
   9  19  -3 27.4808 94.3635   6
  -9  28  -3 50.7691 90.6597   6
 -19  28  -3 38.3689 95.0916   8
  28 -19   4-56.1426 66.7647  11
   9  19  -4 68.3533 94.4990   6
  -9  28  -4-15.1208 84.4267   6
 -19  28  -4 23.1594 90.0939   8
  28 -19   5 32.6803 66.0015  11
   9  19  -5 23.3368 90.3795   6
  -9  28  -5-56.1643 84.9341   6
   9  19   5 37.0654 71.9388   9
 -19  28  -5 7.16898 80.3987   8
  28 -19   6 23.0195 64.4009  11
   9  19  -6 79.6784 88.6329   6
  -9  28  -6-38.2197 80.6878   6
   9  19   6 101.038 68.4409   9
 -19  28  -6 67.2609 79.0416   8
   9  19  -7 70.0750 82.8604   6
  -9  28  -7 30.9067 80.1031   6
   9  19   7 2.63844 61.9267   9
 -19  28  -7-30.1770 76.8798   6
 -19  28  -7 20.1376 72.4109   8
   9  19  -8-29.5908 74.9911   6
  -9  28  -8 46.1967 71.9444   6
   9  19   8 28.2597 55.1304   9
 -19  28  -8 56.6295 69.1811   6
 -19  28  -8 42.8837 69.1129   8
  28 -20   0 36.5623 79.1536  11
   8  20   0 264.954 99.5154   6
  -8  28   0 68.6863 94.2641   6
  28 -20  -1 127.632 84.4058  11
  28 -20   1 52.0851 75.5187  11
   8  20   1 50.4750 95.9335   6
   8  20  -1 136.219 94.6724   6
  -8  28   1 274.940 98.0991   6
  -8  28  -1 134.127 93.0942   6
  20 -28   2 209.429 95.3581  11
  28 -20  -2 82.1929 84.9328  11
  28 -20   2 82.8478 76.2446  11
   8  20   2 95.9087 92.1234   6
   8  20  -2-20.8203 91.3940   6
  -8  28  -2 69.2438 89.2723   6
  28 -20  -3-43.6324 81.9990  11
  28 -20   3 47.2645 69.0110  11
   8  20  -3 41.4695 91.4788   6
  -8  28  -3 130.862 89.2289   6
 -20  28  -3-25.9683 95.4857   8
  28 -20   4-26.9488 67.3892  11
   8  20  -4 139.496 94.1289   6
  -8  28  -4 106.844 85.6371   6
 -20  28  -4-64.2138 88.8037   8
  28 -20   5-16.4248 66.4890  11
   8  20  -5 44.0996 88.2371   6
  -8  28  -5-6.59198 80.6253   6
   8  20   5 109.770 68.4703   9
 -20  28  -5 104.306 80.7848   8
  28 -20   6 77.2873 64.4262  11
   8  20  -6-17.5697 86.9053   6
  -8  28  -6 23.2966 79.6967   6
   8  20   6-9.79874 63.1412   9
 -20  28  -6 19.6983 75.2600   8
  28 -20   7-28.8041 66.2506  11
   8  20  -7 98.2833 82.2472   6
  -8  28  -7 138.473 79.9941   6
   8  20   7 31.8319 59.9693   9
 -20  28  -7-2.02132 67.5491   8
   8  20  -8 50.0541 73.5947   6
  28 -20   8-3.53018 61.2741  11
  -8  28  -8 52.7137 70.5502   6
   8  20   8 1.51713 54.5886   9
 -20  28  -8-30.4733 68.7553   6
 -20  28  -8 31.4850 65.9065   8
  28 -21   0 162.642 75.8730  11
   7  21   0 227.719 96.3678   6
  -7  28   0 242.677 95.6722   6
  21 -28   1 56.6977 89.6414  11
  28 -21  -1 153.086 77.9266  11
  28 -21   1 58.3112 74.4935  11
   7  21   1 124.723 91.7796   6
   7  21  -1 5.58994 89.8618   6
  -7  28   1 97.3814 89.4932   6
  -7  28  -1 153.010 93.3602   6
  21 -28   2 116.330 85.8114  11
  28 -21  -2 123.612 82.5145  11
  28 -21   2 139.672 69.8788  11
   7  21   2 251.125 92.5262   6
   7  21  -2 164.366 93.6008   6
  -7  28  -2 37.4098 86.5483   6
  28 -21  -3 179.271 83.8353  11
  21 -28   3 43.9294 79.2438  11
  28 -21   3 115.678 69.8235  11
   7  21  -3 46.2341 88.9453   6
  -7  28  -3 132.616 88.3397   6
 -21  28  -3 17.7042 90.7582   8
  28 -21   4 101.380 69.9539  11
   7  21  -4 68.2357 88.1461   6
  -7  28  -4 141.600 86.5479   6
 -21  28  -4 154.890 88.2125   8
  28 -21   5 57.0171 67.5324  11
   7  21  -5 83.5102 86.9587   6
  -7  28  -5 51.0693 81.1987   6
   7  21   5 36.5895 64.7159   9
 -21  28  -5 16.7413 74.8134   8
  28 -21   6 50.5784 66.2168  11
   7  21  -6 112.924 82.9486   6
  -7  28  -6 76.3323 80.5480   6
   7  21   6 122.361 65.2004   9
 -21  28  -6 48.0911 68.5002   8
  28 -21   7 98.6426 62.6113  11
   7  21  -7 101.757 79.3093   6
  -7  28  -7 68.3871 76.3268   6
   7  21   7 78.2991 58.9053   9
 -21  28  -7 9.80939 65.8368   8
  28 -22   0 37.0492 72.4938  11
   6  22   0 133.366 87.1607   6
  -6  28   0 174.879 92.5573   6
  22 -28   1 128.076 90.2413  11
  28 -22  -1 42.0377 75.4844  11
  28 -22   1 73.8306 73.3825  11
   6  22   1 128.695 88.6882   6
   6  22  -1 100.765 90.8570   6
  -6  28   1 135.113 91.9832   6
  -6  28  -1 299.895 98.0043   6
  22 -28   2 65.9393 83.2731  11
  28 -22  -2-2.81981 77.1888  11
  28 -22   2 48.9076 66.1632  11
   6  22   2 129.102 89.0458   6
   6  22  -2 151.338 88.5623   6
  -6  28  -2 87.2886 87.1268   6
  28 -22  -3 67.8358 75.3993  11
  22 -28   3 38.6982 74.4747  11
  28 -22   3 150.450 67.9031  11
   6  22  -3 113.522 86.9185   6
  -6  28  -3 89.9946 85.0705   6
  22 -28   4 83.9534 68.5842  11
  28 -22   4 96.3741 67.3889  11
   6  22  -4 205.159 91.0606   6
  -6  28  -4 134.471 83.8971   6
 -22  28  -4 161.208 83.9471   8
  28 -22   5 13.1696 63.5320  11
   6  22  -5 132.772 86.7321   6
  -6  28  -5 12.0305 78.6473   6
   6  22   5 70.9538 64.8110   9
 -22  28  -5-24.7427 73.4232   8
  28 -22   6 51.8813 63.7620  11
   6  22  -6 83.3261 81.4082   6
  -6  28  -6 51.3362 75.8528   6
   6  22   6 60.1781 60.8289   9
 -22  28  -6 59.4542 67.3715   8
  28 -22   7 108.927 65.9399  11
   6  22  -7 135.784 78.0385   6
  -6  28  -7 84.2587 73.6856   6
   6  22   7 119.774 58.3706   9
 -22  28  -7 0.09362 60.7964   8
  28 -23   0 103.103 71.9941  11
   5  23   0 94.0144 83.5308   6
  -5  28   0 160.725 89.5635   6
  23 -28   1 108.607 80.3566  11
  28 -23  -1 87.7156 71.1882  11
  28 -23   1 105.622 70.0840  11
   5  23   1 189.762 86.3638   6
   5  23  -1 94.8964 86.4779   6
  -5  28   1 83.0354 86.3389   6
  -5  28  -1 62.0189 88.3525   6
  23 -28   2 65.7403 77.2361  11
  28 -23  -2 71.9518 69.9471  11
  28 -23   2-15.3084 64.3144  11
   5  23   2 106.558 85.2494   6
   5  23  -2 81.2013 84.3041   6
  -5  28  -2 110.066 85.8651   6
  23 -28   3 164.112 77.8848  11
  28 -23   3 50.0072 66.0404  11
   5  23  -3 193.153 85.8269   6
  -5  28  -3 50.4807 82.5954   6
  23 -28   4 81.3357 67.3383  11
  28 -23   4 54.8788 65.0200  11
   5  23  -4 76.1294 84.2281   6
  -5  28  -4 162.603 83.0406   6
   5  23   4 91.1658 63.7950   9
  28 -23   5 92.3839 67.3211  11
   5  23  -5-48.7321 80.5457   6
  -5  28  -5 125.527 80.4319   6
   5  23   5 4.14223 61.2503   9
 -23  28  -5 33.8935 67.2921   8
  28 -23   6 21.6028 59.6811  11
   5  23  -6 120.876 79.9782   6
  -5  28  -6 40.3418 74.3409   6
   5  23   6-12.2914 55.9348   9
 -23  28  -6 23.5962 60.0585   8
  28 -24   0 18.0895 67.8105  11
   4  24   0 44.1465 81.8099   6
  -4  28   0-77.5869 85.2715   6
  24 -28   1-15.5994 73.0990  11
  28 -24  -1 6.18706 63.7757  11
  28 -24   1-15.6852 65.9665  11
   4  24   1 73.9221 80.9529   6
   4  24  -1-37.3637 80.9279   6
  -4  28   1-38.7514 81.6251   6
  -4  28  -1 37.5874 83.5622   6
  28 -24  -2 33.6145 66.7515  11
  24 -28   2 10.9439 74.1752  11
  28 -24   2 66.7920 68.3447  11
   4  24  -2-45.1084 80.6080   6
  -4  28  -2-7.36748 81.1393   6
  24 -28   3 92.2272 70.8077  11
  28 -24   3 42.0186 60.2953  11
   4  24  -3 26.7241 78.4466   6
  -4  28  -3 19.9372 80.5695   6
  24 -28   4 32.0808 62.6843  11
  28 -24   4-51.5861 61.8737  11
   4  24  -4-70.6168 76.6146   6
  -4  28  -4 21.6187 76.1040   6
   4  24   4 56.6799 60.1958   9
  24 -28   5-64.4035 56.6225  11
  28 -24   5 1.72909 64.2193  11
   4  24  -5-28.6414 73.9257   6
  -4  28  -5 24.0872 73.3723   6
   4  24   5 48.7448 56.7246   9
  28 -25   0 44.7232 64.5476  11
   3  25   0-7.66229 76.4255   6
  -3  28   0 4.34394 77.6883   6
  25 -28   1 31.2300 71.3028  11
  28 -25  -1-88.5493 67.2595  11
  28 -25   1 55.5163 65.5529  11
   3  25   1 56.4854 78.4174   6
   3  25  -1-25.2416 76.7123   6
  -3  28   1-22.9777 77.1894   6
  -3  28  -1 56.3793 78.6652   6
  25 -28   2 11.5071 67.2992  11
  28 -25   2-1.63805 64.8517  11
   3  25  -2 39.1430 77.5707   6
  -3  28  -2-32.9839 77.1586   6
  25 -28   3-17.5101 67.1891  11
  28 -25   3 74.3902 64.5659  11
   3  25  -3-33.5636 76.1585   6
  -3  28  -3-42.4388 76.8745   6
  25 -28   4 33.6495 61.3983  11
  28 -25   4 6.18057 64.5365  11
   3  25  -4 48.5151 72.9213   6
  -3  28  -4 38.9150 74.2317   6
   3  25   4-60.0946 57.7282   9
  28 -26   0 81.6433 61.8529  11
   2  26   0 60.0191 75.1479   6
  -2  28   0 75.6087 76.0941   6
  26 -28   1-8.49315 65.8626  11
  28 -26   1-39.5941 63.3702  11
   2  26   1 105.883 75.1963   6
   2  26  -1 29.4554 71.3080   6
  -2  28   1-57.7754 74.7076   6
  -2  28  -1-2.52042 74.2707   6
  26 -28   2-76.2318 65.2522  11
  28 -26   2-22.3484 63.2662  11
   2  26  -2 24.9291 73.3404   6
  -2  28  -2 20.1078 74.5321   6
  26 -28   3-9.93428 63.5813  11
  28 -26   3-45.2832 64.5957  11
   2  26  -3-20.0316 71.9536   6
  -2  28  -3-48.8228 74.9731   6
  15  14   0 164.716 93.9417   6
  14  15   0-42.3427 90.2686   6
 -14  29   0 54.4731 88.2504   6
 -15  29   0 23.0220 88.5214   6
  15  14   1 111.660 91.0378   6
  14  15   1 36.1077 89.4602   6
  15  14  -1 105.525 93.4507   6
  14  15  -1 90.2311 93.6551   6
 -14  29   1 116.914 90.1725   6
 -15  29   1 81.1309 90.6866   6
 -14  29  -1 87.1172 90.5706   6
 -15  29  -1 40.3696 90.7949   6
  15  14   2 64.9879 87.4812   6
  14  15   2 31.4015 87.3155   6
  15  14  -2 5.90005 90.5007   6
  14  15  -2-32.4278 93.9177   6
  29 -15   2 51.9254 72.2566  11
 -14  29  -2 102.138 89.3247   6
 -15  29  -2 48.7861 85.9598   6
  14  15   3 90.9854 85.1176   6
  15  14  -3-0.39033 89.7024   6
  14  15  -3 19.9448 92.6731   6
  29 -15   3 66.0186 69.7831  11
  29 -14   3-46.9864 73.0832  11
 -14  29  -3-28.3991 84.5020   6
 -15  29  -3 12.5889 83.5377   6
  15  14  -4 33.7154 91.4455   6
  14  15  -4 54.5392 92.3532   6
  29 -15   4-37.9976 65.6033  11
  29 -14   4 17.0647 67.5214  11
 -14  29  -4-6.00037 80.2236   6
 -15  29  -4-4.56974 80.4911   6
 -14  29  -4-34.9591 88.4069   8
 -15  29  -4 24.3623 84.9376   8
  15  14  -5 66.3094 91.8110   6
  14  15  -5-7.47394 89.4407   6
 -14  29  -5 14.7774 76.9976   6
 -15  29  -5 81.6640 79.6863   6
 -14  29  -5 60.4057 88.6933   8
 -15  29  -5-8.25970 78.2041   8
  15  14  -6 68.6700 87.0088   6
  14  15  -6-62.1237 86.3158   6
 -14  29  -6 111.272 78.4297   6
 -15  29  -6 22.5328 74.4896   6
 -14  29  -6 35.4583 85.9723   8
 -15  29  -6-17.7811 85.2850   8
  15  14  -7 48.3246 76.8757   6
  14  15  -7 54.7060 77.7914   6
  14 -29  -7 13.0635 94.4303  10
  15  14   7-28.2103 56.8535   9
  14  15   7 20.3046 57.0262   9
 -14  29  -7 117.288 73.8170   6
 -15  29  -7 6.29761 71.4551   6
 -14  29  -7 124.578 84.0605   8
 -15  29  -7-77.5731 83.8887   8
  16  13   0 14.3137 87.2025   6
  13  16   0 41.3072 88.1922   6
 -13  29   0 33.8826 88.5125   6
 -16  29   0-18.6954 90.0598   6
  16  13   1 148.106 91.1499   6
  16  13  -1 156.149 94.2246   6
  13  16   1 48.4002 90.1858   6
  29 -16   1-56.6270 76.6292  11
  13  16  -1 168.990 95.9981   6
 -13  29   1 89.2623 89.5892   6
 -13  29  -1 199.006 93.4501   6
 -16  29   1 171.950 94.2108   6
 -16  29  -1 46.0637 89.1951   6
  16  13   2 44.8187 84.7918   6
  16  13  -2 26.7838 90.1035   6
  13  16   2 44.5392 85.6394   6
  13  16  -2-1.10650 90.0966   6
  29 -16   2 104.780 74.4690  11
 -13  29  -2 173.467 91.8699   6
 -16  29  -2 88.9233 88.8232   6
  13  16   3 89.8195 86.6662   6
  16  13  -3-10.6054 90.7195   6
  13  16  -3 34.2358 92.0772   6
  29 -16   3 81.3222 70.7237  11
 -13  29  -3-0.84744 83.7219   6
 -16  29  -3 5.05800 84.3284   6
  16  13  -4 15.4771 91.0534   6
  13  16  -4 21.5057 90.4088   6
  29 -16   4-2.18520 65.2449  11
  29 -13   4 4.13173 68.6231  11
 -13  29  -4 17.0063 82.0650   6
 -16  29  -4-10.1607 86.6158   8
 -16  29  -4 40.9192 80.0279   6
  16  13  -5 46.2004 90.3232   6
  13  16  -5 12.9299 88.2731   6
  29 -16   5-14.0046 64.6317  11
 -13  29  -5 70.7251 80.1599   6
 -16  29  -5 62.9464 79.4446   6
 -13  29  -5-5.72481 86.4928   8
 -16  29  -5 103.511 86.3951   8
  16  13  -6-92.0799 88.4161   6
  13  16  -6 25.9553 85.7830   6
 -13  29  -6 71.0713 76.6237   6
 -16  29  -6 8.60782 74.6216   6
 -13  29  -6 0.28428 88.8343   8
 -16  29  -6 5.55407 81.8463   8
  13  16  -7-29.8736 80.3772   6
  13  16   7 18.9519 57.1310   9
 -13  29  -7-38.6394 72.6984   6
 -16  29  -7-9.81207 71.4847   6
 -13  29  -7 4.09968 80.9942   8
 -16  29  -7-5.28283 78.9992   8
  17  12   0 145.816 91.5640   6
  29 -17   0 91.9282 77.5984  11
  12  17   0 36.5304 92.2800   6
 -12  29   0-12.0715 87.0179   6
 -17  29   0-105.217 93.1915   6
  17  12   1-5.34484 85.2269   6
  17  12  -1 33.7869 89.1400   6
  12  17   1 34.1773 89.0029   6
  29 -17   1-40.4923 75.6851  11
  12  17  -1 11.1217 91.6563   6
 -12  29   1 49.7486 89.1455   6
 -12  29  -1-34.9550 87.3526   6
 -17  29   1 120.108 91.2017   6
 -17  29  -1 23.1094 86.1781   6
  17  12  -2-47.2815 91.7595   6
  12  17   2 80.3126 90.0002   6
  29 -17   2-92.3498 73.4007  11
  12  17  -2 63.5555 94.0523   6
 -12  29  -2 58.3698 87.7842   6
 -17  29  -2-2.35659 85.6999   6
  17  12  -3 61.5083 91.5908   6
  12  17   3 19.8625 87.7556   6
  29 -17   3 50.2605 69.5613  11
  12  17  -3-75.2415 94.8109   6
 -12  29  -3 58.3385 85.7496   6
 -17  29  -3-13.1872 83.4094   8
 -17  29  -3-59.6979 85.8541   6
  17  12  -4-173.698 97.1425   6
  12  17  -4 119.491 95.3585   6
  29 -17   4 43.5826 65.8887  11
 -12  29  -4 30.6914 79.8093   6
 -17  29  -4 120.566 86.1623   8
 -17  29  -4 142.354 83.1703   6
  17  12  -5 12.8189 88.1979   6
  12  17  -5 62.4189 90.1817   6
  29 -17   5 4.62634 63.5856  11
 -12  29  -5 74.8726 80.5140   6
 -17  29  -5 92.7756 83.6585   8
 -17  29  -5 114.735 80.2982   6
  12  17  -6-55.6086 85.8657   6
  29 -17   6 29.2867 59.9052  11
 -12  29  -6 153.720 80.1623   6
 -17  29  -6-114.516 77.3944   6
 -12  29  -6-23.0517 90.0806   8
 -17  29  -6 83.4277 78.9822   8
  12  17  -7-38.7160 80.8020   6
  12  17   7 44.7736 57.4972   9
 -12  29  -7-30.4540 71.7978   6
 -17  29  -7 0.72294 70.4309   6
 -12  29  -7-19.5039 85.0311   8
 -17  29  -7 130.794 79.1723   8
  29 -18   0 55.0696 77.3531  11
  11  18   0 76.2844 88.1535   6
 -11  29   0 109.311 89.9386   6
 -18  29   0 19.2196 87.0126   6
  18  11  -1-43.5109 88.5723   6
  29 -18  -1 94.5437 78.7760  11
  29 -18   1 82.0049 76.1265  11
  11  18   1 195.637 92.4957   6
  11  18  -1 90.5932 93.7965   6
 -11  29   1 78.2455 87.7348   6
 -11  29  -1 72.4745 89.3674   6
 -18  29   1 75.5857 87.1407   6
  18  11  -2 49.4261 87.0974   6
  11  18   2 47.2524 88.7252   6
  29 -18   2-59.9609 75.4827  11
  11  18  -2 122.004 91.9413   6
 -11  29  -2 41.0756 87.4459   6
  18  11  -3 92.2530 93.1275   6
  29 -18   3 129.394 71.0808  11
  11  18  -3-23.8150 89.2077   6
 -11  29  -3 80.6108 86.3321   6
  29 -18   4 45.8377 66.4230  11
  11  18  -4 93.8604 89.6825   6
 -11  29  -4 117.467 83.4673   6
 -18  29  -4 112.230 84.2722   8
 -18  29  -4 80.4697 81.4034   6
  11  18  -5 70.3007 89.1694   6
  29 -18   5 40.4719 65.9885  11
 -11  29  -5 121.889 81.3154   6
 -18  29  -5 26.7769 77.4124   8
 -18  29  -5 47.9701 77.9703   6
  11  18  -6-62.5126 85.2711   6
  29 -18   6 3.19983 59.2548  11
  11  18   6 15.0830 59.0515   9
 -11  29  -6 101.234 78.3805   6
 -18  29  -6 153.050 78.4915   6
 -18  29  -6 68.9058 75.4606   8
  11  18  -7 42.6027 78.0314   6
  29 -18   7 16.8880 60.3912  11
 -11  29  -7 114.587 74.3078   6
  11  18   7-94.9068 58.3069   9
 -18  29  -7-2.85203 70.4209   6
 -18  29  -7 69.3861 73.7487   8
  29 -19   0 111.663 75.1237  11
  10  19   0 189.783 92.4317   6
 -10  29   0 67.4135 87.1850   6
  29 -19  -1 47.7886 77.4082  11
  29 -19   1 212.463 77.7911  11
  10  19   1-2.60911 88.3378   6
  10  19  -1-19.1017 87.3860   6
 -10  29   1 187.376 89.7098   6
 -10  29  -1 127.962 90.4473   6
 -19  29   1 2.06835 84.4885   6
  29 -19  -2 73.6609 77.2994  11
  10  19   2 76.5927 89.1614   6
  29 -19   2 84.5004 68.0368  11
  10  19  -2 199.335 96.6372   6
 -10  29  -2 54.9190 86.5137   6
  29 -19   3 15.9668 67.0788  11
  10  19  -3-60.1258 92.3182   6
 -10  29  -3 56.6174 82.3758   6
  29 -19   4 41.2236 63.2117  11
  10  19  -4 56.6918 86.0628   6
 -10  29  -4 16.4497 80.0111   6
 -19  29  -4-60.6874 82.1060   8
  29 -19   5 30.9845 63.4664  11
  10  19  -5 44.3686 86.0963   6
 -10  29  -5 36.2547 77.5144   6
 -19  29  -5 67.5149 77.0838   8
 -19  29  -5-14.2498 77.3238   6
  10  19  -6 25.4022 80.5988   6
  29 -19   6-28.8164 62.3165  11
 -10  29  -6 22.1864 73.0154   6
  10  19   6 87.9470 60.4698   9
 -19  29  -6 60.5038 73.0357   8
 -19  29  -6 153.275 79.3206   6
  10  19  -7 60.2005 76.2731   6
  29 -19   7 55.2646 60.3269  11
 -10  29  -7-25.0851 69.7884   6
  10  19   7-11.0383 55.0545   9
 -19  29  -7 3.06604 69.2818   6
 -19  29  -7 52.3678 68.6770   8
  29 -20   0 39.5268 72.6447  11
   9  20   0 173.572 89.1812   6
  -9  29   0-39.6743 83.6718   6
  29 -20  -1 36.5938 73.1199  11
  29 -20   1 103.432 71.1415  11
   9  20   1 170.184 88.8121   6
   9  20  -1 46.3454 87.4250   6
  -9  29   1 295.465 93.2268   6
  -9  29  -1 78.9394 86.2374   6
  29 -20  -2 121.617 75.1878  11
  29 -20   2 29.4725 66.0646  11
   9  20   2 152.498 87.7322   6
   9  20  -2 38.5543 89.0014   6
  -9  29  -2 164.588 87.7393   6
  29 -20  -3-5.85636 70.9761  11
  29 -20   3 98.8238 66.9909  11
   9  20  -3 121.721 87.2478   6
  -9  29  -3 118.846 83.9920   6
  29 -20   4 111.284 65.6429  11
   9  20  -4 204.453 90.9623   6
  -9  29  -4 139.897 82.2575   6
 -20  29  -4 47.1384 77.3076   8
  29 -20   5 50.0682 61.9740  11
   9  20  -5 19.2994 84.4358   6
  -9  29  -5 108.752 77.2985   6
 -20  29  -5 117.920 75.6904   8
  29 -20   6 47.4376 57.3719  11
   9  20  -6-44.3364 79.7530   6
  -9  29  -6 62.0048 73.4341   6
   9  20   6 99.3489 56.5619   9
 -20  29  -6 42.1310 66.6909   8
 -20  29  -6 64.6404 72.1986   6
  29 -21   0 68.8923 72.3325  11
   8  21   0 14.5332 83.7677   6
  -8  29   0 50.3414 85.5614   6
  29 -21  -1-36.0499 73.8323  11
  29 -21   1 35.3578 68.4420  11
   8  21   1 114.011 87.3438   6
   8  21  -1 11.8761 86.8323   6
  -8  29   1 146.548 87.6604   6
  -8  29  -1 228.981 89.8307   6
  29 -21  -2-51.1831 72.2079  11
  29 -21   2 41.6385 68.7381  11
   8  21   2-22.7870 83.7554   6
   8  21  -2 106.122 87.1413   6
  -8  29  -2-8.84650 81.9658   6
  29 -21   3-43.9743 65.6756  11
   8  21  -3 67.2917 85.0827   6
  -8  29  -3 120.552 83.5939   6
  29 -21   4 36.8388 62.0129  11
   8  21  -4-54.8830 83.9458   6
  -8  29  -4 35.4591 79.6872   6
  29 -21   5 15.6592 59.0446  11
   8  21  -5 44.3967 78.3868   6
  -8  29  -5-111.983 77.3895   6
 -21  29  -5 76.7559 69.8005   8
  29 -21   6 45.1872 57.8709  11
   8  21  -6 35.9085 77.3344   6
  -8  29  -6 12.8490 71.0387   6
   8  21   6 47.5207 56.5518   9
 -21  29  -6 63.8340 64.4707   8
 -21  29  -6 52.8328 70.7029   6
  29 -22   0 44.6528 66.9797  11
   7  22   0 72.4159 84.0511   6
  -7  29   0 193.101 86.3579   6
  29 -22  -1 105.884 72.3291  11
  29 -22   1 42.5435 67.6945  11
   7  22   1 209.711 86.7419   6
   7  22  -1 42.2322 85.3616   6
  -7  29   1 248.059 87.9680   6
  -7  29  -1 356.443 90.8926   6
  29 -22  -2 96.9436 69.6956  11
  29 -22   2-6.09355 63.2183  11
   7  22   2 103.680 84.7334   6
   7  22  -2 110.224 83.6407   6
  -7  29  -2 152.258 85.3402   6
  29 -22   3 35.4877 62.8343  11
   7  22  -3 137.497 83.0488   6
  -7  29  -3 106.977 80.6681   6
  29 -22   4 82.8402 61.6345  11
   7  22  -4 94.5724 83.3505   6
  -7  29  -4 132.637 80.7293   6
  29 -22   5 66.1100 61.7793  11
   7  22  -5 72.6333 79.6356   6
  -7  29  -5 138.535 76.8622   6
  29 -23   0 29.3447 66.0972  11
   6  23   0-6.31026 78.7478   6
  -6  29   0-22.4586 80.9900   6
  29 -23  -1-18.0053 67.2338  11
  29 -23   1-103.194 69.4944  11
   6  23   1 74.9347 78.9031   6
   6  23  -1 37.5217 79.2977   6
  -6  29   1 119.397 83.8794   6
  -6  29  -1-11.1628 79.9561   6
  29 -23  -2 149.269 69.3013  11
  29 -23   2-14.1748 62.7005  11
   6  23  -2 34.6970 79.4053   6
  -6  29  -2 52.0135 79.9206   6
  29 -23   3 28.4913 61.4517  11
   6  23  -3 1.19174 76.9934   6
  -6  29  -3-7.56224 75.9785   6
  29 -23   4-75.3611 63.5274  11
   6  23  -4 91.7970 76.8532   6
  -6  29  -4 53.4951 76.8226   6
  29 -23   5-42.0790 59.2000  11
  29 -24   0-24.7160 63.2090  11
   5  24   0-3.09142 75.7207   6
  -5  29   0 82.4009 79.3399   6
  29 -24  -1 81.7620 62.1993  11
  29 -24   1 26.1418 62.4307  11
   5  24   1 75.4320 74.5846   6
   5  24  -1-76.1371 76.5191   6
  -5  29  -1-60.2421 77.3565   6
  29 -24   2 62.0454 61.1157  11
   5  24  -2 1.94369 74.6977   6
  -5  29  -2 111.852 78.7002   6
  29 -24   3-19.9165 56.9717  11
   5  24  -3-34.8515 74.5952   6
  -5  29  -3 22.4725 72.7464   6
  29 -24   4 34.0311 59.8897  11
  29 -25   0 49.9409 59.2326  11
  -4  29   0 101.783 73.0943   6
  29 -25  -1-12.4167 59.6958  11
  29 -25   1-9.84412 59.5120  11
   4  25   1-53.4977 71.8852   6
   4  25  -1-54.1814 73.7031   6
  -4  29  -1-51.3816 74.0207   6
  29 -25   2 18.8038 59.4671  11
   4  25  -2-43.7891 71.2207   6
  -4  29  -2-48.6987 72.8302   6
  15  15   0 105.988 88.2107   6
 -15  30   0 77.9495 85.8694   6
  15  15   1-38.1828 83.9200   6
  15  15  -1 68.3604 87.4176   6
 -15  30   1 124.561 84.5886   6
 -15  30  -1 87.0601 85.2794   6
  15  15  -2 9.82748 86.8394   6
 -15  30  -2-49.7738 81.5710   6
  15  15  -3 23.2730 87.7527   6
 -15  30  -3 154.867 83.9049   6
  15  15  -4 156.636 89.2747   6
  30 -15   4 82.9217 65.5640  11
 -15  30  -4 17.4851 77.2218   6
  15  15  -5 11.3503 82.4937   6
  30 -15   5 128.457 62.7782  11
 -15  30  -5 13.0857 72.4932   6
  15  15  -6 124.876 79.1286   6
  30 -15   6 67.6692 58.7933  11
 -15  30  -6 31.6649 69.6483   6
  16  14   0 143.563 89.1855   6
  14  16   0 283.245 92.2147   6
 -14  30   0 121.975 86.2265   6
 -16  30   0 129.885 86.5310   6
  16  14   1 65.6038 83.2784   6
  16  14  -1 203.299 91.4269   6
  14  16   1 172.553 85.7794   6
  14  16  -1 105.984 88.5981   6
 -14  30   1 79.1576 83.3540   6
 -14  30  -1 173.699 86.1216   6
 -16  30   1 113.575 85.8435   6
 -16  30  -1 110.812 86.1909   6
  14  16   2 162.532 85.3859   6
  16  14  -2 123.530 88.8956   6
  14  16  -2 167.437 92.3107   6
  30 -16   2 127.467 70.5699  11
 -14  30  -2 48.6956 82.7520   6
 -16  30  -2 28.5232 81.4841   6
  16  14  -3-19.5770 86.6502   6
  14  16  -3 178.636 90.4723   6
  30 -16   3 119.055 69.7682  11
 -14  30  -3 130.449 83.7487   6
 -16  30  -3 91.9508 82.5430   6
  16  14  -4 8.52688 84.9974   6
  14  16  -4 169.583 90.6240   6
  30 -16   4 31.9361 63.2319  11
 -14  30  -4 212.033 82.2844   6
 -16  30  -4 111.991 79.2265   6
  16  14  -5 139.188 84.9209   6
  14  16  -5 42.3845 82.5146   6
  30 -16   5 10.9007 59.5379  11
  30 -14   5 146.712 61.5238  11
 -14  30  -5 79.7413 75.9105   6
 -16  30  -5 94.1109 74.1104   6
  14  16  -6 226.616 83.4066   6
  30 -16   6 5.89702 57.7652  11
  30 -14   6 171.034 61.8266  11
 -14  30  -6 76.6687 70.9212   6
 -16  30  -6 37.4383 69.9964   6
  13  17   0 44.4428 86.4524   6
 -13  30   0 66.0922 83.8326   6
 -17  30   0 22.1211 84.2239   6
  17  13  -1 8.01330 83.7992   6
  13  17   1 53.2248 83.7439   6
  13  17  -1-66.0300 88.7567   6
  30 -17   1-61.8473 69.4668  11
 -13  30   1 182.384 84.4772   6
 -13  30  -1-43.6869 84.5412   6
 -17  30   1 19.4694 80.7504   6
 -17  30  -1 148.745 85.4013   6
  17  13  -2 35.3728 86.5177   6
  13  17   2 53.1759 81.8519   6
  13  17  -2-20.7237 85.9170   6
  30 -17   2 91.9043 71.0491  11
 -13  30  -2-23.6413 81.8570   6
 -17  30  -2 62.8518 81.4612   6
  17  13  -3 119.612 89.3184   6
  13  17  -3 34.2690 87.9302   6
  30 -17   3 31.0870 65.8154  11
 -13  30  -3 129.581 82.8386   6
 -17  30  -3 60.1430 81.1331   6
  17  13  -4-14.6106 86.7240   6
  13  17  -4 146.234 86.9254   6
  30 -17   4 19.6594 62.1907  11
 -13  30  -4-14.2746 75.8592   6
 -17  30  -4 79.0321 78.0469   6
  13  17  -5 178.787 84.5238   6
  30 -17   5-49.6293 60.2256  11
 -13  30  -5-21.6119 72.1893   6
 -17  30  -5-52.3127 72.3229   6
  13  17  -6 125.409 79.3184   6
  30 -17   6-43.0622 57.7705  11
 -13  30  -6 66.9168 70.5456   6
 -17  30  -6 159.736 72.3633   6
 -17  30  -6-24.8851 74.5217   8
  30 -18   0 140.810 71.7344  11
  12  18   0 76.3639 86.7135   6
 -12  30   0 34.9745 81.5125   6
 -18  30   0 27.8677 79.9799   6
  12  18   1 89.2882 83.1116   6
  30 -18   1 42.2722 68.7571  11
  12  18  -1 32.4766 84.5569   6
 -12  30   1 148.104 85.6461   6
 -12  30  -1 136.105 85.3199   6
 -18  30   1 120.133 81.9350   6
 -18  30  -1 119.867 83.5229   6
  12  18   2 230.898 86.0069   6
  30 -18   2 165.430 71.7889  11
  12  18  -2 103.166 88.7645   6
 -12  30  -2 42.6704 81.3985   6
 -18  30  -2-14.2544 78.4568   6
  12  18  -3 121.132 87.3757   6
  30 -18   3 155.813 66.7386  11
 -12  30  -3 27.1555 80.8847   6
 -18  30  -3 52.4176 77.6819   6
  12  18  -4 133.829 85.2316   6
  30 -18   4 74.1270 61.1157  11
 -12  30  -4 136.736 79.2539   6
 -18  30  -4 76.8714 74.7988   6
  12  18  -5 101.913 81.6594   6
  30 -18   5 23.3029 58.0223  11
 -12  30  -5 132.205 74.7610   6
 -18  30  -5 3.28652 70.8623   6
  30 -19   0-51.3470 70.2118  11
  11  19   0 115.915 82.9050   6
 -11  30   0-67.2132 81.1152   6
 -19  30   0 26.0579 76.3943   6
  30 -19  -1 9.72512 69.4779  11
  30 -19   1 101.133 67.9207  11
  11  19   1 59.0377 79.4324   6
  11  19  -1-83.8577 84.3327   6
 -11  30   1 172.726 82.8886   6
 -11  30  -1-8.43990 81.6180   6
 -19  30   1 47.2058 77.1287   6
 -19  30  -1 83.8275 80.4889   6
  11  19   2 40.4899 79.8545   6
  30 -19   2 62.5229 64.8940  11
  11  19  -2-52.2377 84.1380   6
 -11  30  -2-53.9576 81.0490   6
 -19  30  -2 72.0136 79.0341   6
  30 -19   3-51.3173 64.0375  11
  11  19  -3 19.7606 81.9095   6
 -11  30  -3-87.2999 77.8038   6
 -19  30  -3-25.6671 76.3569   6
  30 -19   4 76.9847 62.3641  11
  11  19  -4 55.5126 81.4154   6
 -11  30  -4 104.462 76.0974   6
 -19  30  -4-58.3889 72.0798   6
  11  19  -5 53.9340 78.0959   6
  30 -19   5-81.7887 60.2115  11
 -11  30  -5 202.911 76.3340   6
 -19  30  -5 121.659 71.9172   6
  30 -20   0 161.233 70.6891  11
  10  20   0 20.4954 79.5085   6
 -10  30   0 27.1462 78.4852   6
 -20  30   0 85.7750 76.6627   6
  30 -20  -1 68.7898 68.9819  11
  30 -20   1 57.0436 66.4099  11
  10  20   1 118.205 81.4203   6
  10  20  -1 113.361 85.1484   6
 -10  30   1 43.3790 78.4027   6
 -10  30  -1 146.450 83.2579   6
 -20  30   1 49.8518 74.9333   6
 -20  30  -1-98.7735 77.6846   6
  10  20   2 182.599 81.6561   6
  30 -20   2 58.7773 66.0650  11
  10  20  -2 81.5141 81.9424   6
 -10  30  -2 28.0720 78.3756   6
 -20  30  -2 119.678 77.1795   6
  30 -20   3 34.4032 61.7301  11
  10  20  -3-22.8229 80.1322   6
 -10  30  -3-18.6981 75.6339   6
 -20  30  -3 48.5058 73.4682   6
  30 -20   4 60.4114 60.8080  11
  10  20  -4-36.5423 78.2547   6
 -10  30  -4 51.1565 73.1074   6
 -20  30  -4 67.7411 71.6144   6
  30 -20   5 144.066 59.3487  11
  10  20  -5 87.8651 75.3596   6
 -10  30  -5 108.978 72.3511   6
 -20  30  -5 32.7125 67.9021   6
  30 -21   0 33.2664 64.3620  11
   9  21   0-23.2837 78.9874   6
  -9  30   0 134.334 81.1969   6
 -21  30   0 116.737 75.7574   6
  30 -21  -1 21.7326 65.7940  11
  30 -21   1 7.91727 63.8585  11
   9  21   1-23.5469 78.1951   6
   9  21  -1 107.503 80.6949   6
  -9  30  -1 66.1672 80.0860   6
 -21  30   1 130.345 75.0374   6
  30 -21  -2-2.23968 64.2510  11
   9  21   2 79.2966 78.7849   6
  30 -21   2-25.6955 60.9034  11
   9  21  -2 16.9080 77.6709   6
  -9  30  -2-51.2444 76.6991   6
  30 -21   3 28.2837 60.1672  11
   9  21  -3-29.5871 76.8545   6
  -9  30  -3 81.9670 76.8111   6
 -21  30  -3-81.2288 72.1927   6
  30 -21   4-20.1018 58.4143  11
   9  21  -4 122.382 76.4570   6
  -9  30  -4-2.74148 71.3084   6
 -21  30  -4 27.2281 67.8385   6
  30 -22   0 121.435 63.7345  11
   8  22   0-12.2551 76.3783   6
  -8  30   0 156.500 80.5133   6
  30 -22  -1-12.4747 61.3395  11
  30 -22   1-65.5532 62.9968  11
   8  22   1 157.639 80.2540   6
   8  22  -1 83.6190 77.6659   6
  -8  30  -1 60.9294 78.8896   6
 -22  30   1 131.167 69.8715   6
  30 -22   2 85.2444 61.1441  11
   8  22  -2 41.3112 75.5155   6
  -8  30  -2-35.5914 74.9559   6
  30 -22   3 136.731 61.0184  11
   8  22  -3 25.4176 73.4888   6
  -8  30  -3 96.0698 76.2757   6
  30 -23   0-18.7827 61.0206  11
   7  23   0 29.2950 74.5230   6
  -7  30   0 58.6284 74.8417   6
  30 -23  -1-38.2771 59.9949  11
  30 -23   1 6.68468 59.5586  11
   7  23   1 88.4975 75.1511   6
   7  23  -1 126.916 75.8525   6
  -7  30  -1 91.5634 77.4281   6
 -23  30   1-82.0548 65.1249   6
  30 -23   2 41.9891 57.6911  11
   7  23  -2-2.20264 72.7388   6
  -7  30  -2 75.1137 74.1701   6
  15  16   0 21.0868 79.7030   6
 -15  31   0 60.8735 77.0951   6
 -16  31   0 21.0466 73.8918   6
  16  15  -1-40.1884 81.8653   6
  15  16  -1 38.2612 79.2145   6
 -15  31  -1-49.4682 75.7117   6
 -16  31  -1 119.109 76.1882   6
  16  15  -2 95.5260 82.3455   6
  15  16  -2 9.40799 80.7749   6
 -15  31  -2 171.848 78.7625   6
 -16  31  -2-1.00779 73.2040   6
  16  15  -3 43.8975 79.2290   6
  15  16  -3 136.603 81.0390   6
 -15  31  -3 38.0672 72.4493   6
 -16  31  -3 152.217 73.8268   6
  14  17   0-38.6366 78.7902   6
 -14  31   0 66.1185 76.9206   6
 -17  31   0 47.2035 73.1083   6
  14  17   1 11.8485 75.2467   6
  14  17  -1-14.2448 77.9056   6
 -14  31  -1 27.8282 74.7620   6
 -17  31  -1 11.7485 73.9985   6
  14  17  -2 10.2970 77.6845   6
 -14  31  -2 74.8738 77.2768   6
 -17  31  -2-1.06167 73.3835   6
  14  17  -3 41.8352 77.8923   6
  31 -17   3 68.5399 61.8772  11
 -14  31  -3 36.4709 73.0436   6
 -17  31  -3 37.3665 71.7335   6
  13  18   0 9.67841 75.3213   6
 -13  31   0-5.54041 73.4257   6
 -18  31   0 104.411 74.9073   6
  13  18   1 32.2465 73.5028   6
  13  18  -1 32.0784 77.2587   6
 -13  31  -1 33.0053 74.7350   6
 -18  31  -1-6.96877 71.4754   6
  13  18  -2 189.456 81.2501   6
  31 -18   2 66.8072 61.1110  11
 -13  31  -2-2.31185 72.8960   6
 -18  31  -2 41.7200 71.8294   6
  13  18  -3-16.4672 76.3426   6
  31 -18   3 72.6159 59.2794  11
 -13  31  -3 46.0349 71.2827   6
 -18  31  -3 133.511 71.3085   6
  12  19   0-21.4537 73.8874   6
 -12  31   0 114.207 75.9509   6
 -19  31   0 126.104 71.9674   6
  12  19   1 119.336 74.8820   6
  31 -19   1-50.9438 60.8806  11
  12  19  -1 23.2977 75.6485   6
 -12  31  -1 64.3049 74.0867   6
 -19  31  -1 53.4639 70.8283   6
  12  19   2 30.7969 71.5228   6
  31 -19   2 96.0074 60.7495  11
  12  19  -2-101.025 78.1379   6
 -12  31  -2-5.13451 70.2451   6
 -19  31  -2 96.6493 71.2189   6
  12  19  -3 138.242 77.3601   6
  31 -19   3-59.2831 59.5929  11
  31 -20   0 19.3083 58.2062  11
  11  20   0 49.9259 73.3096   6
 -11  31   0-91.1598 73.7554   6
 -20  31   0 147.051 67.0545   6
  11  20   1 149.053 74.0478   6
  31 -20   1-1.07369 57.9871  11
  11  20  -1 108.591 74.8870   6
 -11  31  -1 60.2373 72.7550   6
 -20  31  -1 97.7720 67.1953   6
  31 -20   2 16.7661 56.0933  11
  11  20  -2 57.9545 73.7083   6
 -11  31  -2 63.0902 71.4966   6
 -20  31  -2 22.4117 65.9324   6
  31 -21   0-22.6126 57.9460  11
   0   0   0    0.00    0.00   0

TITL CS2_409 in P6/mmm
REM P6/mmm (#191 in standard setting)
CELL 1.54184  26.472468  26.472468  16.611564  90.0000  90.0000 120.0000
ZERR   14.00   0.001399   0.001399   0.000716   0.0000   0.0000   0.0000
LATT  1
SYMM -y, x-y, z
SYMM -x+y,-x, z
SYMM -x,-y, z
SYMM  y,-x+y, z
SYMM  x-y, x, z
SYMM  y, x,-z
SYMM  x-y,-y,-z
SYMM -x,-x+y,-z
SYMM -y,-x,-z
SYMM -x+y, y,-z
SYMM  x, x-y,-z
SFAC C H N O Y
UNIT 280.00 560.00 28.00 224.00 28.00
TREF
HKLF 4
END
;
_shelx_hkl_checksum              41053
_shelx_fab_file
;
   -1    2    0    162.30      0.00
    0    2    0   -245.05      0.00
   -1    3    0   -109.64      0.00
    0    3    0    111.30      0.00
   -2    4    0    175.79      0.00
   -1    4    0    -28.71      0.00
    0    4    0     81.44      0.00
   -2    5    0      2.02      0.00
   -1    5    0     78.56      0.00
    0    5    0      3.64      0.00
   -3    6    0     83.61      0.00
   -2    6    0    -80.16      0.00
   -1    6    0    -24.27      0.00
    0    6    0     50.45      0.00
   -3    7    0    -27.96      0.00
   -2    7    0    -13.57      0.00
   -1    7    0     -7.15      0.00
    0    7    0     36.06      0.00
   -4    8    0     58.20      0.00
   -3    8    0    -38.99      0.00
   -2    8    0    -13.29      0.00
   -1    8    0     51.04      0.00
    0    8    0     36.66      0.00
   -4    9    0     -2.45      0.00
   -3    9    0     15.89      0.00
   -2    9    0     -1.56      0.00
   -1    9    0    -10.25      0.00
    0    9    0     18.76      0.00
   -5   10    0     34.05      0.00
   -4   10    0    -12.11      0.00
   -3   10    0    -13.25      0.00
   -2   10    0     -1.73      0.00
   -1   10    0      1.40      0.00
    0   10    0      0.82      0.00
   -5   11    0     -6.34      0.00
   -4   11    0      7.29      0.00
   -3   11    0      2.49      0.00
   -2   11    0    -17.21      0.00
   -1   11    0     12.02      0.00
    0   11    0     12.49      0.00
   -6   12    0     10.55      0.00
   -5   12    0     -3.10      0.00
   -4   12    0     -6.80      0.00
   -3   12    0     -6.22      0.00
   -2   12    0     -1.02      0.00
   -1   12    0     -1.75      0.00
    0   12    0      2.17      0.00
   -6   13    0     -5.23      0.00
   -5   13    0     -7.00      0.00
   -4   13    0     -1.42      0.00
   -3   13    0    -11.42      0.00
   -2   13    0     -0.40      0.00
   -1   13    0     -5.33      0.00
    0   13    0     -4.84      0.00
   -7   14    0      1.60      0.00
   -6   14    0    -10.21      0.00
   -5   14    0     -5.99      0.00
   -4   14    0      2.98      0.00
   -3   14    0     -2.39      0.00
   -2   14    0     -6.27      0.00
   -1   14    0      0.11      0.00
    0   14    0     -2.11      0.00
   -7   15    0      5.89      0.00
   -6   15    0     -0.07      0.00
   -5   15    0      2.06      0.00
   -4   15    0      0.33      0.00
   -3   15    0      3.60      0.00
   -2   15    0     -0.47      0.00
   -1   15    0     -1.88      0.00
    0   15    0      8.05      0.00
   -8   16    0     16.63      0.00
   -7   16    0     -0.26      0.00
   -6   16    0      0.26      0.00
   -5   16    0      4.25      0.00
   -4   16    0     -3.38      0.00
   -3   16    0     -0.90      0.00
   -2   16    0      2.49      0.00
   -1   16    0      6.25      0.00
    0   16    0      2.99      0.00
   -8   17    0     -3.82      0.00
   -7   17    0      3.98      0.00
   -6   17    0     -3.12      0.00
   -5   17    0     -4.73      0.00
   -4   17    0      2.27      0.00
   -3   17    0     -2.33      0.00
   -2   17    0     -2.97      0.00
   -1   17    0      5.17      0.00
    0   17    0      3.41      0.00
   -9   18    0      6.10      0.00
   -8   18    0     -6.69      0.00
   -7   18    0     -1.65      0.00
   -6   18    0      3.04      0.00
   -5   18    0     -1.66      0.00
   -4   18    0     -0.80      0.00
   -3   18    0      3.34      0.00
   -2   18    0      2.21      0.00
   -1   18    0     -3.84      0.00
    0   18    0      2.31      0.00
   -9   19    0     -0.25      0.00
   -8   19    0     -0.31      0.00
   -7   19    0     -3.98      0.00
   -6   19    0     -0.56      0.00
   -5   19    0      2.34      0.00
   -4   19    0     -0.18      0.00
   -3   19    0     -1.77      0.00
   -2   19    0      4.80      0.00
   -1   19    0      0.71      0.00
    0   19    0     -4.96      0.00
  -10   20    0     12.23      0.00
   -9   20    0     -1.63      0.00
   -8   20    0     -4.28      0.00
   -7   20    0      4.72      0.00
   -6   20    0      0.54      0.00
   -5   20    0     -0.53      0.00
   -4   20    0      2.92      0.00
   -3   20    0      1.36      0.00
   -2   20    0      1.63      0.00
   -1   20    0      3.47      0.00
    0   20    0      1.71      0.00
  -10   21    0      2.96      0.00
   -9   21    0     -0.18      0.00
   -8   21    0     -0.85      0.00
   -7   21    0      1.91      0.00
   -6   21    0      4.75      0.00
   -5   21    0     -1.00      0.00
   -4   21    0     -0.82      0.00
   -3   21    0      4.16      0.00
   -2   21    0      2.90      0.00
   -1   21    0      2.89      0.00
    0   21    0      2.85      0.00
  -11   22    0      3.61      0.00
  -10   22    0     -3.30      0.00
   -9   22    0     -3.56      0.00
   -8   22    0      5.81      0.00
   -7   22    0      2.90      0.00
   -6   22    0     -0.79      0.00
   -5   22    0      0.51      0.00
   -4   22    0     -1.46      0.00
   -3   22    0      2.66      0.00
   -2   22    0      2.36      0.00
   -1   22    0     -0.39      0.00
    0   22    0     -2.34      0.00
  -11   23    0     -2.34      0.00
  -10   23    0      2.07      0.00
   -9   23    0      2.48      0.00
   -8   23    0      2.92      0.00
   -7   23    0      2.02      0.00
   -6   23    0     -0.40      0.00
   -5   23    0      2.53      0.00
   -4   23    0      0.16      0.00
   -3   23    0     -1.73      0.00
   -2   23    0     -0.72      0.00
   -1   23    0      0.23      0.00
    0   23    0      1.87      0.00
  -12   24    0      0.87      0.00
  -11   24    0      0.07      0.00
  -10   24    0     -0.20      0.00
   -9   24    0      2.34      0.00
   -8   24    0     -2.10      0.00
   -7   24    0      2.61      0.00
   -6   24    0      1.22      0.00
   -5   24    0     -1.55      0.00
   -4   24    0      2.19      0.00
   -3   24    0     -0.44      0.00
   -2   24    0     -0.18      0.00
   -1   24    0      0.33      0.00
    0   24    0      1.78      0.00
  -12   25    0     -1.48      0.00
  -11   25    0     -1.68      0.00
  -10   25    0     -1.52      0.00
   -9   25    0     -0.83      0.00
   -8   25    0      0.58      0.00
   -7   25    0     -0.95      0.00
   -6   25    0     -0.20      0.00
   -5   25    0      0.63      0.00
   -4   25    0      1.49      0.00
   -3   25    0      1.91      0.00
   -2   25    0      1.08      0.00
   -1   25    0     -1.56      0.00
    0   25    0     -0.84      0.00
  -13   26    0     -2.70      0.00
  -12   26    0      1.16      0.00
  -11   26    0      1.93      0.00
  -10   26    0      1.38      0.00
   -9   26    0     -1.39      0.00
   -8   26    0      3.56      0.00
   -7   26    0      1.75      0.00
   -6   26    0     -0.67      0.00
   -5   26    0      1.96      0.00
   -4   26    0      0.16      0.00
   -3   26    0      0.41      0.00
   -2   26    0      0.23      0.00
   -1   26    0      1.31      0.00
    0   26    0     -2.37      0.00
  -13   27    0      1.60      0.00
  -12   27    0      0.10      0.00
  -11   27    0      1.61      0.00
  -10   27    0      1.80      0.00
   -9   27    0      0.68      0.00
   -8   27    0      0.22      0.00
   -7   27    0      0.83      0.00
   -6   27    0     -0.63      0.00
   -5   27    0     -1.42      0.00
   -4   27    0      0.62      0.00
   -3   27    0     -0.95      0.00
   -2   27    0     -0.96      0.00
   -1   27    0      0.23      0.00
    0   27    0      0.22      0.00
  -14   28    0      0.57      0.00
  -13   28    0      4.22      0.00
  -12   28    0     -1.84      0.00
  -11   28    0      2.24      0.00
  -10   28    0      0.46      0.00
   -9   28    0      0.30      0.00
   -8   28    0      0.54      0.00
   -7   28    0     -0.84      0.00
   -6   28    0      0.39      0.00
   -5   28    0     -0.83      0.00
   -4   28    0     -1.76      0.00
   -3   28    0      1.01      0.00
   -2   28    0      1.54      0.00
  -14   29    0      0.30      0.00
  -13   29    0      0.43      0.00
  -12   29    0      0.89      0.00
  -11   29    0      0.18      0.00
  -10   29    0      1.49      0.00
   -9   29    0      0.96      0.00
   -8   29    0     -0.82      0.00
   -7   29    0     -0.96      0.00
   -6   29    0     -0.80      0.00
   -5   29    0      0.74      0.00
   -4   29    0      0.70      0.00
  -15   30    0     -1.63      0.00
  -14   30    0     -0.14      0.00
  -13   30    0     -1.87      0.00
  -12   30    0      0.56      0.00
  -11   30    0      0.04      0.00
  -10   30    0      1.74      0.00
   -9   30    0     -0.72      0.00
   -8   30    0     -1.62      0.00
   -7   30    0      0.33      0.00
  -15   31    0     -2.64      0.00
  -14   31    0      1.11      0.00
  -13   31    0      1.36      0.00
  -12   31    0      0.07      0.00
  -11   31    0     -1.06      0.00
  -10   31    0     -0.35      0.00
   -1    2    1     74.41      0.00
    0    2    1    -19.59      0.00
   -1    3    1     82.40      0.00
    0    3    1    -86.01      0.00
   -1    4    1    -46.88      0.00
    0    4    1     32.59      0.00
   -2    5    1      5.06      0.00
   -1    5    1    -20.00      0.00
    0    5    1     64.40      0.00
   -3    6    1    -29.02      0.00
   -2    6    1    -22.04      0.00
   -1    6    1     77.93      0.00
    0    6    1      2.55      0.00
   -3    7    1      2.62      0.00
   -2    7    1    -21.22      0.00
   -1    7    1     -0.46      0.00
    0    7    1     -4.43      0.00
   -4    8    1      4.64      0.00
   -3    8    1    -19.23      0.00
   -2    8    1     12.03      0.00
   -1    8    1     -5.80      0.00
    0    8    1      5.86      0.00
   -4    9    1     11.37      0.00
   -3    9    1     -1.41      0.00
   -2    9    1     19.72      0.00
   -1    9    1     10.48      0.00
    0    9    1     10.36      0.00
   -5   10    1     19.89      0.00
   -4   10    1     -1.59      0.00
   -3   10    1      6.26      0.00
   -2   10    1      8.49      0.00
   -1   10    1     13.42      0.00
    0   10    1      5.47      0.00
   -5   11    1     -3.03      0.00
   -4   11    1    -11.81      0.00
   -3   11    1      0.17      0.00
   -2   11    1     -0.35      0.00
   -1   11    1     -0.39      0.00
    0   11    1      3.99      0.00
   -6   12    1      4.75      0.00
   -5   12    1    -13.47      0.00
   -4   12    1    -12.10      0.00
   -3   12    1    -12.65      0.00
   -2   12    1     -3.17      0.00
   -1   12    1      7.85      0.00
    0   12    1     -4.99      0.00
   -6   13    1     -2.29      0.00
   -5   13    1     -7.52      0.00
   -4   13    1     -4.59      0.00
   -3   13    1     -5.36      0.00
   -2   13    1     -9.99      0.00
   -1   13    1     -4.42      0.00
    0   13    1     -0.16      0.00
   -7   14    1     -2.14      0.00
   -6   14    1     -3.95      0.00
   -5   14    1      6.81      0.00
   -4   14    1     -3.02      0.00
   -3   14    1     -3.83      0.00
   -2   14    1      3.57      0.00
   -1   14    1     -9.88      0.00
    0   14    1     -0.33      0.00
   -7   15    1      0.87      0.00
   -6   15    1      0.65      0.00
   -5   15    1      1.44      0.00
   -4   15    1      0.04      0.00
   -3   15    1     -1.20      0.00
   -2   15    1      1.04      0.00
   -1   15    1      3.88      0.00
    0   15    1     -0.21      0.00
   -8   16    1      8.15      0.00
   -7   16    1      0.10      0.00
   -6   16    1      1.11      0.00
   -5   16    1     -2.09      0.00
   -4   16    1     -0.29      0.00
   -3   16    1      2.21      0.00
   -2   16    1      0.09      0.00
   -1   16    1      6.78      0.00
    0   16    1      2.50      0.00
   -8   17    1      3.83      0.00
   -7   17    1     -2.69      0.00
   -6   17    1      2.08      0.00
   -5   17    1      0.75      0.00
   -4   17    1     -3.22      0.00
   -3   17    1      3.78      0.00
   -2   17    1      2.18      0.00
   -1   17    1      1.61      0.00
    0   17    1      6.86      0.00
   -9   18    1      2.73      0.00
   -8   18    1     -2.53      0.00
   -7   18    1     -0.10      0.00
   -6   18    1     -0.61      0.00
   -5   18    1     -1.20      0.00
   -4   18    1      0.69      0.00
   -3   18    1     -0.48      0.00
   -2   18    1      3.90      0.00
   -1   18    1     -0.33      0.00
    0   18    1     -0.18      0.00
   -9   19    1      3.07      0.00
   -8   19    1     -1.65      0.00
   -7   19    1      3.11      0.00
   -6   19    1      4.62      0.00
   -5   19    1      0.33      0.00
   -4   19    1      2.04      0.00
   -3   19    1      1.43      0.00
   -2   19    1     -0.82      0.00
   -1   19    1      4.98      0.00
    0   19    1     -0.03      0.00
  -10   20    1     -0.39      0.00
   -9   20    1     -1.19      0.00
   -8   20    1      3.04      0.00
   -7   20    1      1.11      0.00
   -6   20    1      3.10      0.00
   -5   20    1      1.94      0.00
   -4   20    1     -1.53      0.00
   -3   20    1      2.60      0.00
   -2   20    1     -0.09      0.00
   -1   20    1     -0.83      0.00
    0   20    1      2.69      0.00
  -10   21    1      1.05      0.00
   -9   21    1     -2.78      0.00
   -8   21    1      0.83      0.00
   -7   21    1      3.33      0.00
   -6   21    1     -2.38      0.00
   -5   21    1      0.75      0.00
   -4   21    1      1.40      0.00
   -3   21    1     -0.63      0.00
   -2   21    1      4.70      0.00
   -1   21    1     -0.55      0.00
    0   21    1     -1.84      0.00
  -11   22    1     -0.85      0.00
  -10   22    1     -0.92      0.00
   -9   22    1      2.12      0.00
   -8   22    1      3.34      0.00
   -7   22    1     -0.15      0.00
   -6   22    1     -1.15      0.00
   -5   22    1     -1.80      0.00
   -4   22    1      1.75      0.00
   -3   22    1      3.63      0.00
   -2   22    1      0.59      0.00
   -1   22    1     -0.13      0.00
    0   22    1     -0.07      0.00
  -11   23    1     -1.96      0.00
  -10   23    1     -2.31      0.00
   -9   23    1      3.93      0.00
   -8   23    1      1.64      0.00
   -7   23    1     -1.80      0.00
   -6   23    1     -0.07      0.00
   -5   23    1      0.23      0.00
   -4   23    1     -1.10      0.00
   -3   23    1     -1.21      0.00
   -2   23    1     -1.23      0.00
   -1   23    1      1.38      0.00
    0   23    1      1.41      0.00
  -12   24    1     -1.00      0.00
  -11   24    1     -0.50      0.00
  -10   24    1     -1.30      0.00
   -9   24    1      2.38      0.00
   -8   24    1     -0.22      0.00
   -7   24    1     -1.08      0.00
   -6   24    1      0.53      0.00
   -5   24    1     -2.33      0.00
   -4   24    1     -0.18      0.00
   -3   24    1     -0.87      0.00
   -2   24    1     -0.41      0.00
   -1   24    1      0.67      0.00
    0   24    1      0.30      0.00
  -12   25    1      5.15      0.00
  -11   25    1     -2.74      0.00
  -10   25    1     -0.40      0.00
   -9   25    1      1.01      0.00
   -8   25    1     -0.39      0.00
   -7   25    1     -1.36      0.00
   -6   25    1     -0.40      0.00
   -5   25    1     -1.51      0.00
   -4   25    1      0.56      0.00
   -3   25    1      3.71      0.00
   -2   25    1     -0.51      0.00
   -1   25    1     -2.50      0.00
    0   25    1     -1.56      0.00
  -13   26    1     -1.51      0.00
  -12   26    1      1.14      0.00
  -11   26    1     -1.27      0.00
  -10   26    1      0.80      0.00
   -9   26    1     -4.04      0.00
   -8   26    1     -1.58      0.00
   -7   26    1      0.55      0.00
   -6   26    1     -1.73      0.00
   -5   26    1      0.91      0.00
   -4   26    1     -1.01      0.00
   -3   26    1     -0.69      0.00
   -2   26    1      1.08      0.00
   -1   26    1      0.24      0.00
    0   26    1     -1.01      0.00
  -13   27    1      0.65      0.00
  -12   27    1     -0.84      0.00
  -11   27    1      1.05      0.00
  -10   27    1     -0.78      0.00
   -9   27    1     -0.89      0.00
   -8   27    1      0.65      0.00
   -7   27    1      1.29      0.00
   -6   27    1     -0.58      0.00
   -5   27    1     -1.55      0.00
   -4   27    1      0.14      0.00
   -3   27    1     -0.78      0.00
   -2   27    1     -0.05      0.00
   -1   27    1      1.12      0.00
    0   27    1      0.72      0.00
  -14   28    1     -1.35      0.00
  -13   28    1     -0.65      0.00
  -12   28    1      0.31      0.00
  -11   28    1      2.00      0.00
  -10   28    1     -1.41      0.00
   -9   28    1      0.08      0.00
   -8   28    1     -0.35      0.00
   -7   28    1      0.51      0.00
   -6   28    1      0.79      0.00
   -5   28    1     -2.62      0.00
   -4   28    1     -0.63      0.00
   -3   28    1      0.18      0.00
   -2   28    1     -0.26      0.00
  -14   29    1     -2.48      0.00
  -13   29    1     -0.72      0.00
  -12   29    1      0.42      0.00
  -11   29    1      0.12      0.00
  -10   29    1      0.00      0.00
   -9   29    1      0.98      0.00
   -8   29    1     -0.09      0.00
   -7   29    1     -1.53      0.00
   -6   29    1     -1.31      0.00
   -5   29    1      1.74      0.00
   -4   29    1     -0.83      0.00
  -15   30    1     -1.62      0.00
  -14   30    1     -0.84      0.00
  -13   30    1     -2.29      0.00
  -12   30    1      2.54      0.00
  -11   30    1      2.03      0.00
  -10   30    1     -0.05      0.00
   -9   30    1     -0.52      0.00
   -8   30    1     -0.97      0.00
   -7   30    1     -0.80      0.00
  -15   31    1     -0.32      0.00
  -14   31    1      0.46      0.00
  -13   31    1      0.82      0.00
  -12   31    1      0.41      0.00
  -11   31    1     -1.14      0.00
    0    0    2    255.73      0.00
    0    1    2    -19.67      0.00
   -1    2    2     37.02      0.00
    0    2    2    -60.47      0.00
   -1    3    2     39.74      0.00
    0    3    2     -3.83      0.00
   -2    4    2     55.54      0.00
   -1    4    2    -23.84      0.00
    0    4    2    -18.26      0.00
   -2    5    2      2.90      0.00
   -1    5    2    -61.81      0.00
    0    5    2    -17.77      0.00
   -3    6    2     14.06      0.00
   -2    6    2    -19.35      0.00
   -1    6    2     14.25      0.00
    0    6    2     16.82      0.00
   -3    7    2      4.83      0.00
   -2    7    2      1.03      0.00
   -1    7    2     29.24      0.00
    0    7    2     -0.83      0.00
   -4    8    2     -1.36      0.00
   -3    8    2     -7.97      0.00
   -2    8    2     11.06      0.00
   -1    8    2     -8.12      0.00
    0    8    2    -15.21      0.00
   -4    9    2     -6.91      0.00
   -3    9    2      2.71      0.00
   -2    9    2      5.92      0.00
   -1    9    2    -21.60      0.00
    0    9    2      6.18      0.00
   -5   10    2     10.71      0.00
   -4   10    2     -0.96      0.00
   -3   10    2     -3.37      0.00
   -2   10    2      3.76      0.00
   -1   10    2     20.86      0.00
    0   10    2     12.15      0.00
   -5   11    2     -2.30      0.00
   -4   11    2     -3.71      0.00
   -3   11    2      9.87      0.00
   -2   11    2     -0.20      0.00
   -1   11    2     10.04      0.00
    0   11    2     -0.99      0.00
   -6   12    2     -2.92      0.00
   -5   12    2     -3.08      0.00
   -4   12    2     -7.13      0.00
   -3   12    2     -4.55      0.00
   -2   12    2     -0.61      0.00
   -1   12    2    -12.28      0.00
    0   12    2     -9.53      0.00
   -6   13    2     -4.10      0.00
   -5   13    2     -7.03      0.00
   -4   13    2      4.09      0.00
   -3   13    2     -8.05      0.00
   -2   13    2     -3.77      0.00
   -1   13    2     -4.77      0.00
    0   13    2      1.49      0.00
   -7   14    2     -6.66      0.00
   -6   14    2     -3.17      0.00
   -5   14    2      3.11      0.00
   -4   14    2      3.45      0.00
   -3   14    2     -1.63      0.00
   -2   14    2     -1.39      0.00
   -1   14    2      4.60      0.00
    0   14    2      1.07      0.00
   -7   15    2      0.19      0.00
   -6   15    2      0.15      0.00
   -5   15    2      4.51      0.00
   -4   15    2     -0.09      0.00
   -3   15    2      1.16      0.00
   -2   15    2      0.34      0.00
   -1   15    2     -1.18      0.00
    0   15    2     -1.00      0.00
   -8   16    2      7.29      0.00
   -7   16    2      0.36      0.00
   -6   16    2      0.55      0.00
   -5   16    2      0.78      0.00
   -4   16    2     -1.99      0.00
   -3   16    2     -0.09      0.00
   -2   16    2     -1.07      0.00
   -1   16    2      2.23      0.00
    0   16    2      1.96      0.00
   -8   17    2      2.32      0.00
   -7   17    2      2.41      0.00
   -6   17    2     -2.57      0.00
   -5   17    2     -0.62      0.00
   -4   17    2      2.69      0.00
   -3   17    2     -0.86      0.00
   -2   17    2      0.39      0.00
   -1   17    2      2.30      0.00
    0   17    2      6.82      0.00
   -9   18    2      6.15      0.00
   -8   18    2     -1.71      0.00
   -7   18    2     -0.05      0.00
   -6   18    2     -0.36      0.00
   -5   18    2      0.47      0.00
   -4   18    2      2.70      0.00
   -3   18    2      0.61      0.00
   -2   18    2      2.46      0.00
   -1   18    2     -0.82      0.00
    0   18    2      0.71      0.00
   -9   19    2     -0.53      0.00
   -8   19    2     -2.29      0.00
   -7   19    2     -2.56      0.00
   -6   19    2      0.57      0.00
   -5   19    2     -0.86      0.00
   -4   19    2      0.72      0.00
   -3   19    2      0.21      0.00
   -2   19    2     -1.86      0.00
   -1   19    2      1.69      0.00
    0   19    2     -2.47      0.00
  -10   20    2      2.71      0.00
   -9   20    2     -2.97      0.00
   -8   20    2     -1.86      0.00
   -7   20    2      0.87      0.00
   -6   20    2      1.44      0.00
   -5   20    2      1.84      0.00
   -4   20    2     -0.71      0.00
   -3   20    2      0.73      0.00
   -2   20    2      0.96      0.00
   -1   20    2      0.98      0.00
    0   20    2      2.93      0.00
  -10   21    2     -0.64      0.00
   -9   21    2     -1.86      0.00
   -8   21    2      0.74      0.00
   -7   21    2      1.98      0.00
   -6   21    2      0.50      0.00
   -5   21    2      0.74      0.00
   -4   21    2      1.14      0.00
   -3   21    2     -1.20      0.00
   -2   21    2      3.37      0.00
   -1   21    2      3.14      0.00
    0   21    2      2.37      0.00
  -11   22    2     -0.22      0.00
  -10   22    2     -1.88      0.00
   -9   22    2     -0.07      0.00
   -8   22    2      2.58      0.00
   -7   22    2      1.61      0.00
   -6   22    2     -0.22      0.00
   -5   22    2     -0.96      0.00
   -4   22    2      0.47      0.00
   -3   22    2      2.36      0.00
   -2   22    2      2.20      0.00
   -1   22    2      1.30      0.00
    0   22    2     -3.28      0.00
  -11   23    2     -1.49      0.00
  -10   23    2      1.04      0.00
   -9   23    2      2.48      0.00
   -8   23    2      2.44      0.00
   -7   23    2     -0.43      0.00
   -6   23    2      0.08      0.00
   -5   23    2      3.79      0.00
   -4   23    2      0.21      0.00
   -3   23    2      1.38      0.00
   -2   23    2     -0.38      0.00
   -1   23    2     -1.22      0.00
    0   23    2     -0.54      0.00
  -12   24    2     -0.22      0.00
  -11   24    2     -0.82      0.00
  -10   24    2     -0.92      0.00
   -9   24    2      2.44      0.00
   -8   24    2     -0.25      0.00
   -7   24    2      0.73      0.00
   -6   24    2      0.46      0.00
   -5   24    2      1.55      0.00
   -4   24    2      2.17      0.00
   -3   24    2     -0.87      0.00
   -2   24    2     -0.21      0.00
   -1   24    2     -0.46      0.00
    0   24    2      1.11      0.00
  -12   25    2     -1.28      0.00
  -11   25    2     -2.67      0.00
  -10   25    2     -1.61      0.00
   -9   25    2      0.20      0.00
   -8   25    2     -0.27      0.00
   -7   25    2     -1.36      0.00
   -6   25    2     -0.06      0.00
   -5   25    2     -0.31      0.00
   -4   25    2      0.07      0.00
   -3   25    2      0.37      0.00
   -2   25    2      1.21      0.00
   -1   25    2     -1.45      0.00
    0   25    2     -0.86      0.00
  -13   26    2     -3.75      0.00
  -12   26    2     -0.73      0.00
  -11   26    2     -0.02      0.00
  -10   26    2      0.40      0.00
   -9   26    2     -3.28      0.00
   -8   26    2     -0.09      0.00
   -7   26    2      0.84      0.00
   -6   26    2     -0.87      0.00
   -5   26    2     -0.39      0.00
   -4   26    2     -1.45      0.00
   -3   26    2     -0.08      0.00
   -2   26    2      1.24      0.00
   -1   26    2      1.34      0.00
    0   26    2     -1.79      0.00
  -13   27    2     -1.51      0.00
  -12   27    2     -0.98      0.00
  -11   27    2      0.13      0.00
  -10   27    2     -0.21      0.00
   -9   27    2     -0.82      0.00
   -8   27    2     -1.07      0.00
   -7   27    2     -0.48      0.00
   -6   27    2     -0.40      0.00
   -5   27    2     -1.27      0.00
   -4   27    2      0.25      0.00
   -3   27    2      0.65      0.00
   -2   27    2     -0.09      0.00
   -1   27    2      0.98      0.00
    0   27    2      0.83      0.00
  -14   28    2     -1.37      0.00
  -13   28    2      1.84      0.00
  -12   28    2     -1.84      0.00
  -11   28    2      1.98      0.00
  -10   28    2     -0.67      0.00
   -9   28    2      0.25      0.00
   -8   28    2      1.45      0.00
   -7   28    2     -1.51      0.00
   -6   28    2     -0.13      0.00
   -5   28    2      0.39      0.00
   -4   28    2     -0.30      0.00
   -3   28    2      1.11      0.00
   -2   28    2     -0.10      0.00
  -14   29    2     -0.63      0.00
  -13   29    2      0.90      0.00
  -12   29    2     -0.03      0.00
  -11   29    2     -0.11      0.00
  -10   29    2      1.92      0.00
   -9   29    2      1.04      0.00
   -8   29    2     -1.72      0.00
   -7   29    2     -0.48      0.00
   -6   29    2     -0.12      0.00
   -5   29    2     -0.31      0.00
   -4   29    2     -0.86      0.00
  -15   30    2     -0.52      0.00
  -14   30    2     -0.30      0.00
  -13   30    2     -1.81      0.00
  -12   30    2      1.17      0.00
  -11   30    2     -0.93      0.00
  -10   30    2      0.84      0.00
   -9   30    2      0.61      0.00
   -8   30    2     -1.61      0.00
   -7   30    2     -0.51      0.00
  -15   31    2     -1.99      0.00
  -14   31    2      1.13      0.00
  -13   31    2     -0.42      0.00
  -12   31    2     -0.24      0.00
  -11   31    2     -0.24      0.00
    0    0    3    -27.22      0.00
    0    1    3      7.42      0.00
   -1    2    3     -0.82      0.00
    0    2    3     25.56      0.00
   -1    3    3     49.94      0.00
    0    3    3    -38.16      0.00
   -2    4    3    -51.91      0.00
   -1    4    3    -12.85      0.00
    0    4    3     52.04      0.00
   -2    5    3    -24.96      0.00
   -1    5    3    -15.50      0.00
    0    5    3     35.85      0.00
   -3    6    3    -19.88      0.00
   -2    6    3    -16.29      0.00
   -1    6    3     19.62      0.00
    0    6    3     -5.27      0.00
   -3    7    3     11.43      0.00
   -2    7    3    -13.98      0.00
   -1    7    3    -10.82      0.00
    0    7    3      0.66      0.00
   -4    8    3     11.34      0.00
   -3    8    3    -15.05      0.00
   -2    8    3    -12.36      0.00
   -1    8    3     12.37      0.00
    0    8    3     15.70      0.00
   -4    9    3     -8.01      0.00
   -3    9    3     -7.57      0.00
   -2    9    3     -3.02      0.00
   -1    9    3     -1.04      0.00
    0    9    3     12.92      0.00
   -5   10    3      2.90      0.00
   -4   10    3     -4.59      0.00
   -3   10    3     -2.02      0.00
   -2   10    3      4.30      0.00
   -1   10    3     -4.75      0.00
    0   10    3     -4.48      0.00
   -5   11    3     -3.51      0.00
   -4   11    3      5.59      0.00
   -3   11    3      4.43      0.00
   -2   11    3     -5.82      0.00
   -1   11    3      4.02      0.00
    0   11    3     -0.09      0.00
   -6   12    3     -1.54      0.00
   -5   12    3     -2.75      0.00
   -4   12    3     -1.82      0.00
   -3   12    3     -0.04      0.00
   -2   12    3      1.45      0.00
   -1   12    3      6.49      0.00
    0   12    3     -1.25      0.00
   -6   13    3     -2.37      0.00
   -5   13    3     -5.08      0.00
   -4   13    3     -3.06      0.00
   -3   13    3      0.73      0.00
   -2   13    3      0.81      0.00
   -1   13    3     -6.20      0.00
    0   13    3      0.84      0.00
   -7   14    3     -3.48      0.00
   -6   14    3     -1.03      0.00
   -5   14    3      0.64      0.00
   -4   14    3     -2.83      0.00
   -3   14    3     -2.40      0.00
   -2   14    3      1.43      0.00
   -1   14    3     -3.67      0.00
    0   14    3      0.20      0.00
   -7   15    3      2.35      0.00
   -6   15    3     -1.80      0.00
   -5   15    3      0.05      0.00
   -4   15    3     -0.36      0.00
   -3   15    3     -0.43      0.00
   -2   15    3     -2.75      0.00
   -1   15    3      3.93      0.00
    0   15    3     -1.00      0.00
   -8   16    3      0.93      0.00
   -7   16    3      0.95      0.00
   -6   16    3      1.82      0.00
   -5   16    3     -0.86      0.00
   -4   16    3     -0.52      0.00
   -3   16    3      0.75      0.00
   -2   16    3     -1.24      0.00
   -1   16    3      0.73      0.00
    0   16    3     -1.53      0.00
   -8   17    3      2.97      0.00
   -7   17    3     -2.34      0.00
   -6   17    3      2.33      0.00
   -5   17    3      4.10      0.00
   -4   17    3      0.65      0.00
   -3   17    3     -0.57      0.00
   -2   17    3      1.60      0.00
   -1   17    3     -3.22      0.00
    0   17    3      0.61      0.00
   -9   18    3      1.50      0.00
   -8   18    3      2.09      0.00
   -7   18    3      2.35      0.00
   -6   18    3     -1.20      0.00
   -5   18    3      2.51      0.00
   -4   18    3      5.18      0.00
   -3   18    3      1.92      0.00
   -2   18    3      1.77      0.00
   -1   18    3     -1.59      0.00
    0   18    3     -1.24      0.00
   -9   19    3      2.71      0.00
   -8   19    3     -2.02      0.00
   -7   19    3      0.05      0.00
   -6   19    3      1.30      0.00
   -5   19    3     -1.29      0.00
   -4   19    3      1.32      0.00
   -3   19    3      7.08      0.00
   -2   19    3     -1.28      0.00
   -1   19    3      3.10      0.00
    0   19    3      0.82      0.00
  -10   20    3     -2.07      0.00
   -9   20    3     -1.15      0.00
   -8   20    3      0.08      0.00
   -7   20    3     -3.86      0.00
   -6   20    3     -0.34      0.00
   -5   20    3      0.29      0.00
   -4   20    3     -2.80      0.00
   -3   20    3      2.33      0.00
   -2   20    3      1.18      0.00
   -1   20    3     -0.96      0.00
    0   20    3     -0.07      0.00
  -10   21    3      0.79      0.00
   -9   21    3     -2.65      0.00
   -8   21    3      1.04      0.00
   -7   21    3      2.96      0.00
   -6   21    3     -1.76      0.00
   -5   21    3     -1.64      0.00
   -4   21    3      1.88      0.00
   -3   21    3     -3.62      0.00
   -2   21    3      2.45      0.00
   -1   21    3     -0.70      0.00
    0   21    3     -2.11      0.00
  -11   22    3     -1.64      0.00
  -10   22    3     -1.02      0.00
   -9   22    3      1.86      0.00
   -8   22    3      3.00      0.00
   -7   22    3      1.46      0.00
   -6   22    3      0.14      0.00
   -5   22    3     -1.64      0.00
   -4   22    3      0.37      0.00
   -3   22    3      1.77      0.00
   -2   22    3      1.04      0.00
   -1   22    3     -0.91      0.00
    0   22    3     -2.51      0.00
  -11   23    3     -1.57      0.00
  -10   23    3     -1.22      0.00
   -9   23    3      2.55      0.00
   -8   23    3      1.05      0.00
   -7   23    3      0.90      0.00
   -6   23    3      1.42      0.00
   -5   23    3      1.43      0.00
   -4   23    3     -0.55      0.00
   -3   23    3      2.21      0.00
   -2   23    3      0.01      0.00
   -1   23    3      0.05      0.00
    0   23    3     -0.12      0.00
  -12   24    3     -0.15      0.00
  -11   24    3     -0.22      0.00
  -10   24    3     -1.33      0.00
   -9   24    3      1.74      0.00
   -8   24    3      0.61      0.00
   -7   24    3      0.33      0.00
   -6   24    3      0.14      0.00
   -5   24    3     -0.39      0.00
   -4   24    3      1.89      0.00
   -3   24    3      0.50      0.00
   -2   24    3     -0.53      0.00
   -1   24    3      0.89      0.00
    0   24    3      1.01      0.00
  -12   25    3      1.00      0.00
  -11   25    3     -1.02      0.00
  -10   25    3      0.04      0.00
   -9   25    3     -1.59      0.00
   -8   25    3     -0.29      0.00
   -7   25    3     -0.55      0.00
   -6   25    3     -1.42      0.00
   -5   25    3     -1.86      0.00
   -4   25    3      1.90      0.00
   -3   25    3      2.07      0.00
   -2   25    3     -0.53      0.00
   -1   25    3     -1.64      0.00
    0   25    3      0.44      0.00
  -13   26    3     -4.17      0.00
  -12   26    3     -0.10      0.00
  -11   26    3     -0.09      0.00
  -10   26    3      1.02      0.00
   -9   26    3     -2.98      0.00
   -8   26    3     -1.18      0.00
   -7   26    3      0.15      0.00
   -6   26    3     -0.27      0.00
   -5   26    3      1.73      0.00
   -4   26    3     -1.05      0.00
   -3   26    3     -1.44      0.00
   -2   26    3      0.66      0.00
   -1   26    3      0.67      0.00
    0   26    3      0.78      0.00
  -13   27    3     -1.79      0.00
  -12   27    3     -1.67      0.00
  -11   27    3      1.13      0.00
  -10   27    3      0.52      0.00
   -9   27    3     -0.99      0.00
   -8   27    3      0.67      0.00
   -7   27    3      1.40      0.00
   -6   27    3      0.19      0.00
   -5   27    3      0.88      0.00
   -4   27    3      0.96      0.00
   -3   27    3     -1.41      0.00
   -2   27    3     -0.21      0.00
   -1   27    3      2.14      0.00
    0   27    3      0.60      0.00
  -14   28    3     -0.86      0.00
  -13   28    3      0.16      0.00
  -12   28    3     -1.32      0.00
  -11   28    3      0.74      0.00
  -10   28    3     -0.91      0.00
   -9   28    3     -0.12      0.00
   -8   28    3     -0.21      0.00
   -7   28    3      0.24      0.00
   -6   28    3      0.85      0.00
   -5   28    3     -0.63      0.00
   -4   28    3      1.14      0.00
   -3   28    3      1.70      0.00
   -2   28    3     -1.22      0.00
  -14   29    3     -0.28      0.00
  -13   29    3     -0.30      0.00
  -12   29    3     -0.81      0.00
  -11   29    3     -0.66      0.00
  -10   29    3     -0.80      0.00
   -9   29    3      0.90      0.00
   -8   29    3     -0.37      0.00
   -7   29    3     -1.41      0.00
   -6   29    3     -0.11      0.00
   -5   29    3      1.80      0.00
  -15   30    3     -1.59      0.00
  -14   30    3     -0.61      0.00
  -13   30    3     -2.58      0.00
  -12   30    3      0.89      0.00
  -11   30    3      0.70      0.00
  -10   30    3      0.05      0.00
   -9   30    3      0.71      0.00
   -8   30    3      0.04      0.00
  -15   31    3     -2.42      0.00
  -14   31    3      0.24      0.00
  -13   31    3     -0.37      0.00
  -12   31    3     -0.59      0.00
    0    0    4     98.03      0.00
    0    1    4     23.56      0.00
   -1    2    4     -7.57      0.00
    0    2    4    -20.69      0.00
   -1    3    4      2.82      0.00
    0    3    4    -22.38      0.00
   -2    4    4      2.02      0.00
   -1    4    4     -0.50      0.00
    0    4    4      3.29      0.00
   -2    5    4      4.94      0.00
   -1    5    4    -13.80      0.00
    0    5    4     -3.99      0.00
   -3    6    4     -1.34      0.00
   -2    6    4     -0.65      0.00
   -1    6    4     -4.76      0.00
    0    6    4     -9.37      0.00
   -3    7    4     -3.05      0.00
   -2    7    4      9.49      0.00
   -1    7    4      9.05      0.00
    0    7    4    -12.03      0.00
   -4    8    4      1.03      0.00
   -3    8    4      5.72      0.00
   -2    8    4      8.40      0.00
   -1    8    4      7.66      0.00
    0    8    4      2.06      0.00
   -4    9    4      0.70      0.00
   -3    9    4      5.81      0.00
   -2    9    4      3.30      0.00
   -1    9    4     -5.81      0.00
    0    9    4     15.68      0.00
   -5   10    4      0.70      0.00
   -4   10    4     -0.98      0.00
   -3   10    4     -7.54      0.00
   -2   10    4      2.90      0.00
   -1   10    4      5.08      0.00
    0   10    4     -5.47      0.00
   -5   11    4     -2.46      0.00
   -4   11    4      1.79      0.00
   -3   11    4      5.40      0.00
   -2   11    4     -4.85      0.00
   -1   11    4      3.49      0.00
    0   11    4     -4.44      0.00
   -6   12    4     -0.23      0.00
   -5   12    4      3.62      0.00
   -4   12    4     -2.06      0.00
   -3   12    4      2.56      0.00
   -2   12    4      2.47      0.00
   -1   12    4     -3.86      0.00
    0   12    4      1.58      0.00
   -6   13    4     -1.27      0.00
   -5   13    4     -1.27      0.00
   -4   13    4      4.29      0.00
   -3   13    4     -3.97      0.00
   -2   13    4      5.41      0.00
   -1   13    4     -1.35      0.00
    0   13    4      0.64      0.00
   -7   14    4     -5.18      0.00
   -6   14    4      0.87      0.00
   -5   14    4      0.02      0.00
   -4   14    4      2.64      0.00
   -3   14    4      1.45      0.00
   -2   14    4     -1.18      0.00
   -1   14    4      4.04      0.00
    0   14    4     -0.68      0.00
   -7   15    4      0.16      0.00
   -6   15    4      0.73      0.00
   -5   15    4      0.22      0.00
   -4   15    4     -1.85      0.00
   -3   15    4      4.50      0.00
   -2   15    4     -4.05      0.00
   -1   15    4     -0.80      0.00
    0   15    4      1.56      0.00
   -8   16    4      1.47      0.00
   -7   16    4      1.12      0.00
   -6   16    4     -1.63      0.00
   -5   16    4      0.51      0.00
   -4   16    4     -1.30      0.00
   -3   16    4     -3.81      0.00
   -2   16    4      2.10      0.00
   -1   16    4      0.03      0.00
    0   16    4     -2.84      0.00
   -8   17    4      0.20      0.00
   -7   17    4     -0.02      0.00
   -6   17    4     -1.60      0.00
   -5   17    4     -0.25      0.00
   -4   17    4      4.71      0.00
   -3   17    4     -3.83      0.00
   -2   17    4      0.84      0.00
   -1   17    4      0.50      0.00
    0   17    4     -0.92      0.00
   -9   18    4      2.46      0.00
   -8   18    4     -0.56      0.00
   -7   18    4     -1.07      0.00
   -6   18    4      0.32      0.00
   -5   18    4      0.77      0.00
   -4   18    4      1.77      0.00
   -3   18    4      2.04      0.00
   -2   18    4     -1.27      0.00
   -1   18    4     -4.34      0.00
    0   18    4      1.99      0.00
   -9   19    4      2.60      0.00
   -8   19    4      1.61      0.00
   -7   19    4      1.90      0.00
   -6   19    4      0.08      0.00
   -5   19    4     -0.42      0.00
   -4   19    4     -2.75      0.00
   -3   19    4      3.10      0.00
   -2   19    4      0.25      0.00
   -1   19    4      0.95      0.00
    0   19    4     -3.50      0.00
  -10   20    4      3.21      0.00
   -9   20    4      0.98      0.00
   -8   20    4     -0.05      0.00
   -7   20    4      0.14      0.00
   -6   20    4      1.12      0.00
   -5   20    4     -1.26      0.00
   -4   20    4     -2.40      0.00
   -3   20    4      0.95      0.00
   -2   20    4      0.27      0.00
   -1   20    4      1.10      0.00
    0   20    4     -1.25      0.00
  -10   21    4     -0.35      0.00
   -9   21    4     -3.14      0.00
   -8   21    4     -0.94      0.00
   -7   21    4      1.24      0.00
   -6   21    4      1.60      0.00
   -5   21    4     -2.41      0.00
   -4   21    4      0.33      0.00
   -3   21    4     -2.10      0.00
   -2   21    4      0.19      0.00
   -1   21    4     -2.40      0.00
    0   21    4      2.61      0.00
  -11   22    4     -1.91      0.00
  -10   22    4     -0.97      0.00
   -9   22    4      1.11      0.00
   -8   22    4      1.47      0.00
   -7   22    4      1.48      0.00
   -6   22    4      2.08      0.00
   -5   22    4      0.15      0.00
   -4   22    4      0.90      0.00
   -3   22    4     -0.82      0.00
   -2   22    4      0.78      0.00
   -1   22    4      0.67      0.00
    0   22    4     -2.47      0.00
  -11   23    4     -0.26      0.00
  -10   23    4      1.24      0.00
   -9   23    4      1.99      0.00
   -8   23    4      0.42      0.00
   -7   23    4      1.14      0.00
   -6   23    4     -0.47      0.00
   -5   23    4      3.08      0.00
   -4   23    4     -0.42      0.00
   -3   23    4      0.21      0.00
   -2   23    4     -2.26      0.00
   -1   23    4      1.22      0.00
    0   23    4      0.57      0.00
  -12   24    4      0.92      0.00
  -11   24    4     -0.38      0.00
  -10   24    4     -1.21      0.00
   -9   24    4      1.91      0.00
   -8   24    4     -0.16      0.00
   -7   24    4     -0.79      0.00
   -6   24    4     -2.34      0.00
   -5   24    4     -0.50      0.00
   -4   24    4      0.49      0.00
   -3   24    4      0.17      0.00
   -2   24    4      0.93      0.00
   -1   24    4     -0.43      0.00
    0   24    4      1.47      0.00
  -12   25    4     -0.52      0.00
  -11   25    4     -1.05      0.00
  -10   25    4     -0.33      0.00
   -9   25    4      0.79      0.00
   -8   25    4      0.51      0.00
   -7   25    4     -2.49      0.00
   -6   25    4     -0.83      0.00
   -5   25    4     -1.45      0.00
   -4   25    4      0.66      0.00
   -3   25    4      1.39      0.00
   -2   25    4      0.65      0.00
   -1   25    4     -0.73      0.00
    0   25    4     -0.26      0.00
  -13   26    4     -2.90      0.00
  -12   26    4     -0.63      0.00
  -11   26    4     -0.20      0.00
  -10   26    4      0.75      0.00
   -9   26    4     -2.44      0.00
   -8   26    4      1.04      0.00
   -7   26    4     -0.04      0.00
   -6   26    4     -0.97      0.00
   -5   26    4      0.81      0.00
   -4   26    4     -1.32      0.00
   -3   26    4     -0.80      0.00
   -2   26    4      0.67      0.00
   -1   26    4     -0.27      0.00
    0   26    4     -0.80      0.00
  -13   27    4     -0.36      0.00
  -12   27    4      0.50      0.00
  -11   27    4      0.60      0.00
  -10   27    4     -0.29      0.00
   -9   27    4     -0.01      0.00
   -8   27    4     -0.45      0.00
   -7   27    4      0.61      0.00
   -6   27    4     -0.32      0.00
   -5   27    4     -0.65      0.00
   -4   27    4     -0.38      0.00
   -3   27    4     -1.36      0.00
   -2   27    4     -0.31      0.00
   -1   27    4      1.47      0.00
  -14   28    4      0.56      0.00
  -13   28    4      3.68      0.00
  -12   28    4      1.06      0.00
  -11   28    4      1.15      0.00
  -10   28    4     -2.25      0.00
   -9   28    4      0.83      0.00
   -8   28    4      0.21      0.00
   -7   28    4     -1.34      0.00
   -6   28    4      1.47      0.00
   -5   28    4     -1.38      0.00
   -4   28    4     -1.13      0.00
   -3   28    4      2.10      0.00
  -14   29    4      0.28      0.00
  -13   29    4      2.62      0.00
  -12   29    4      1.17      0.00
  -11   29    4     -0.84      0.00
  -10   29    4     -1.25      0.00
   -9   29    4     -0.58      0.00
   -8   29    4     -1.39      0.00
   -7   29    4     -0.96      0.00
   -6   29    4     -0.25      0.00
   -5   29    4      0.31      0.00
  -15   30    4     -1.08      0.00
  -14   30    4     -0.22      0.00
  -13   30    4     -1.09      0.00
  -12   30    4      1.03      0.00
  -11   30    4     -1.90      0.00
  -10   30    4     -0.47      0.00
   -9   30    4     -1.14      0.00
    0    0    5    -35.53      0.00
    0    1    5     16.19      0.00
   -1    2    5    -19.35      0.00
    0    2    5     21.70      0.00
   -1    3    5     12.12      0.00
    0    3    5    -20.78      0.00
   -2    4    5    -37.17      0.00
   -1    4    5      1.24      0.00
    0    4    5     24.20      0.00
   -2    5    5      5.46      0.00
   -1    5    5     -4.23      0.00
    0    5    5      9.73      0.00
   -3    6    5      0.72      0.00
   -2    6    5      5.13      0.00
   -1    6    5      3.55      0.00
    0    6    5     -9.81      0.00
   -3    7    5      1.86      0.00
   -2    7    5     -9.70      0.00
   -1    7    5     -7.57      0.00
    0    7    5      3.04      0.00
   -4    8    5     -5.41      0.00
   -3    8    5     -2.21      0.00
   -2    8    5      1.41      0.00
   -1    8    5      4.65      0.00
    0    8    5      4.59      0.00
   -4    9    5      6.31      0.00
   -3    9    5      2.22      0.00
   -2    9    5     -1.26      0.00
   -1    9    5      3.01      0.00
    0    9    5      6.56      0.00
   -5   10    5     -2.16      0.00
   -4   10    5      3.67      0.00
   -3   10    5      4.24      0.00
   -2   10    5      1.08      0.00
   -1   10    5     -4.76      0.00
    0   10    5     -0.79      0.00
   -5   11    5     -4.69      0.00
   -4   11    5     -0.52      0.00
   -3   11    5      0.78      0.00
   -2   11    5     -2.55      0.00
   -1   11    5      1.61      0.00
    0   11    5     -1.98      0.00
   -6   12    5     -2.82      0.00
   -5   12    5      3.36      0.00
   -4   12    5      0.86      0.00
   -3   12    5      0.67      0.00
   -2   12    5      2.94      0.00
   -1   12    5      3.65      0.00
    0   12    5      0.14      0.00
   -6   13    5      4.71      0.00
   -5   13    5      3.19      0.00
   -4   13    5      2.86      0.00
   -3   13    5      1.33      0.00
   -2   13    5      0.57      0.00
   -1   13    5     -2.86      0.00
    0   13    5      4.12      0.00
   -7   14    5     -2.48      0.00
   -6   14    5      3.82      0.00
   -5   14    5      1.95      0.00
   -4   14    5     -1.73      0.00
   -3   14    5     -1.23      0.00
   -2   14    5      0.35      0.00
   -1   14    5     -0.78      0.00
    0   14    5     -0.24      0.00
   -7   15    5     -0.70      0.00
   -6   15    5     -2.42      0.00
   -5   15    5      1.09      0.00
   -4   15    5     -1.07      0.00
   -3   15    5      2.02      0.00
   -2   15    5     -0.35      0.00
   -1   15    5      2.66      0.00
    0   15    5     -2.32      0.00
   -8   16    5     -5.78      0.00
   -7   16    5     -0.35      0.00
   -6   16    5      0.32      0.00
   -5   16    5     -1.04      0.00
   -4   16    5      0.30      0.00
   -3   16    5      1.45      0.00
   -2   16    5     -0.63      0.00
   -1   16    5      0.57      0.00
    0   16    5     -1.15      0.00
   -8   17    5     -1.63      0.00
   -7   17    5     -1.97      0.00
   -6   17    5      1.49      0.00
   -5   17    5      0.69      0.00
   -4   17    5      1.81      0.00
   -3   17    5     -2.91      0.00
   -2   17    5     -0.27      0.00
   -1   17    5     -4.31      0.00
    0   17    5      2.90      0.00
   -9   18    5     -1.54      0.00
   -8   18    5      3.14      0.00
   -7   18    5      1.14      0.00
   -6   18    5     -2.20      0.00
   -5   18    5      3.44      0.00
   -4   18    5      3.75      0.00
   -3   18    5     -1.21      0.00
   -2   18    5     -1.35      0.00
   -1   18    5     -1.56      0.00
    0   18    5      0.76      0.00
   -9   19    5      1.00      0.00
   -8   19    5     -0.49      0.00
   -7   19    5      0.26      0.00
   -6   19    5     -2.29      0.00
   -5   19    5      0.26      0.00
   -4   19    5      0.62      0.00
   -3   19    5      3.67      0.00
   -2   19    5     -4.46      0.00
   -1   19    5      3.80      0.00
    0   19    5      1.61      0.00
  -10   20    5     -1.92      0.00
   -9   20    5      0.59      0.00
   -8   20    5     -1.67      0.00
   -7   20    5     -4.42      0.00
   -6   20    5      0.64      0.00
   -5   20    5      3.11      0.00
   -4   20    5     -2.43      0.00
   -3   20    5      0.51      0.00
   -2   20    5      0.81      0.00
   -1   20    5     -0.68      0.00
    0   20    5      0.52      0.00
  -10   21    5      0.97      0.00
   -9   21    5     -3.60      0.00
   -8   21    5     -0.33      0.00
   -7   21    5      0.92      0.00
   -6   21    5      3.55      0.00
   -5   21    5      0.17      0.00
   -4   21    5      1.92      0.00
   -3   21    5     -4.22      0.00
   -2   21    5      2.05      0.00
   -1   21    5     -0.05      0.00
    0   21    5     -0.27      0.00
  -11   22    5     -2.61      0.00
  -10   22    5     -0.08      0.00
   -9   22    5      1.36      0.00
   -8   22    5      1.44      0.00
   -7   22    5      1.51      0.00
   -6   22    5      2.40      0.00
   -5   22    5     -0.33      0.00
   -4   22    5     -0.19      0.00
   -3   22    5      0.01      0.00
   -2   22    5     -0.30      0.00
   -1   22    5     -0.75      0.00
    0   22    5     -3.24      0.00
  -11   23    5      0.00      0.00
  -10   23    5      0.11      0.00
   -9   23    5      2.37      0.00
   -8   23    5      0.92      0.00
   -7   23    5      2.35      0.00
   -6   23    5     -0.17      0.00
   -5   23    5      1.71      0.00
   -4   23    5     -1.29      0.00
   -3   23    5     -0.79      0.00
   -2   23    5     -1.81      0.00
   -1   23    5      0.56      0.00
    0   23    5     -0.27      0.00
  -12   24    5     -0.96      0.00
  -11   24    5     -0.64      0.00
  -10   24    5     -0.67      0.00
   -9   24    5      2.43      0.00
   -8   24    5      0.11      0.00
   -7   24    5      0.56      0.00
   -6   24    5     -1.15      0.00
   -5   24    5     -0.91      0.00
   -4   24    5     -0.35      0.00
   -3   24    5     -0.35      0.00
   -2   24    5      0.43      0.00
   -1   24    5     -0.57      0.00
    0   24    5      0.15      0.00
  -12   25    5     -1.66      0.00
  -11   25    5     -2.64      0.00
  -10   25    5     -0.17      0.00
   -9   25    5     -1.47      0.00
   -8   25    5      0.15      0.00
   -7   25    5     -1.85      0.00
   -6   25    5     -1.18      0.00
   -5   25    5     -1.29      0.00
   -4   25    5      1.09      0.00
   -3   25    5      1.07      0.00
   -2   25    5      0.86      0.00
   -1   25    5     -1.37      0.00
    0   25    5     -1.14      0.00
  -13   26    5     -2.16      0.00
  -12   26    5     -0.47      0.00
  -11   26    5     -0.28      0.00
  -10   26    5      0.79      0.00
   -9   26    5     -2.94      0.00
   -8   26    5      0.25      0.00
   -7   26    5      0.70      0.00
   -6   26    5      0.12      0.00
   -5   26    5      0.85      0.00
   -4   26    5     -1.07      0.00
   -3   26    5     -0.57      0.00
   -2   26    5     -0.31      0.00
   -1   26    5     -0.33      0.00
    0   26    5     -0.95      0.00
  -13   27    5      0.77      0.00
  -12   27    5     -1.42      0.00
  -11   27    5      0.00      0.00
  -10   27    5      0.13      0.00
   -9   27    5     -0.83      0.00
   -8   27    5     -0.37      0.00
   -7   27    5      0.90      0.00
   -6   27    5      0.28      0.00
   -5   27    5     -0.88      0.00
   -4   27    5     -0.70      0.00
   -3   27    5     -1.42      0.00
   -2   27    5     -0.37      0.00
   -1   27    5      0.78      0.00
  -14   28    5      0.07      0.00
  -13   28    5      0.73      0.00
  -12   28    5     -1.26      0.00
  -11   28    5      0.18      0.00
  -10   28    5     -1.69      0.00
   -9   28    5      0.05      0.00
   -8   28    5     -0.60      0.00
   -7   28    5     -0.45      0.00
   -6   28    5      0.21      0.00
   -5   28    5     -2.07      0.00
   -4   28    5     -1.02      0.00
  -14   29    5     -1.33      0.00
  -13   29    5     -0.07      0.00
  -12   29    5      0.88      0.00
  -11   29    5      0.35      0.00
  -10   29    5     -0.01      0.00
   -9   29    5      0.22      0.00
   -8   29    5     -0.57      0.00
   -7   29    5     -0.97      0.00
   -6   29    5     -1.65      0.00
  -15   30    5     -0.67      0.00
  -14   30    5      0.46      0.00
  -13   30    5     -0.66      0.00
  -12   30    5      2.70      0.00
  -11   30    5      2.62      0.00
  -10   30    5      2.08      0.00
    0    0    6     21.28      0.00
    0    1    6      3.87      0.00
   -1    2    6      5.59      0.00
    0    2    6     -7.65      0.00
   -1    3    6     -5.94      0.00
    0    3    6      2.54      0.00
   -2    4    6      6.66      0.00
   -1    4    6     -0.50      0.00
    0    4    6     -4.45      0.00
   -2    5    6      0.24      0.00
   -1    5    6      4.57      0.00
    0    5    6    -10.21      0.00
   -3    6    6     -1.95      0.00
   -2    6    6     -3.45      0.00
   -1    6    6     -3.35      0.00
    0    6    6      2.61      0.00
   -3    7    6     -7.83      0.00
   -2    7    6      9.36      0.00
   -1    7    6      0.62      0.00
    0    7    6      0.05      0.00
   -4    8    6      0.65      0.00
   -3    8    6      0.23      0.00
   -2    8    6      0.78      0.00
   -1    8    6      3.19      0.00
    0    8    6     -7.16      0.00
   -4    9    6      2.21      0.00
   -3    9    6      3.24      0.00
   -2    9    6     -6.77      0.00
   -1    9    6     -1.70      0.00
    0    9    6      5.93      0.00
   -5   10    6      1.60      0.00
   -4   10    6      0.08      0.00
   -3   10    6     -2.30      0.00
   -2   10    6      4.21      0.00
   -1   10    6      0.05      0.00
    0   10    6     -1.56      0.00
   -5   11    6     -0.98      0.00
   -4   11    6      3.34      0.00
   -3   11    6      1.62      0.00
   -2   11    6      1.45      0.00
   -1   11    6      1.86      0.00
    0   11    6     -2.50      0.00
   -6   12    6     -0.44      0.00
   -5   12    6      0.38      0.00
   -4   12    6     -2.14      0.00
   -3   12    6      1.49      0.00
   -2   12    6     -1.06      0.00
   -1   12    6     -0.56      0.00
    0   12    6      1.84      0.00
   -6   13    6     -0.02      0.00
   -5   13    6      0.20      0.00
   -4   13    6      1.37      0.00
   -3   13    6     -2.16      0.00
   -2   13    6      1.88      0.00
   -1   13    6      0.21      0.00
    0   13    6      2.98      0.00
   -7   14    6     -1.29      0.00
   -6   14    6      2.82      0.00
   -5   14    6      0.13      0.00
   -4   14    6      1.74      0.00
   -3   14    6      0.31      0.00
   -2   14    6      1.43      0.00
   -1   14    6      2.71      0.00
    0   14    6     -2.74      0.00
   -7   15    6      1.06      0.00
   -6   15    6      2.36      0.00
   -5   15    6      1.00      0.00
   -4   15    6     -1.02      0.00
   -3   15    6      3.11      0.00
   -2   15    6     -3.63      0.00
   -1   15    6      0.91      0.00
    0   15    6      1.89      0.00
   -8   16    6      4.17      0.00
   -7   16    6      4.22      0.00
   -6   16    6     -1.42      0.00
   -5   16    6      1.84      0.00
   -4   16    6      0.07      0.00
   -3   16    6     -1.52      0.00
   -2   16    6      3.29      0.00
   -1   16    6     -0.12      0.00
    0   16    6      2.00      0.00
   -8   17    6      1.08      0.00
   -7   17    6      1.80      0.00
   -6   17    6     -0.29      0.00
   -5   17    6     -2.31      0.00
   -4   17    6      4.02      0.00
   -3   17    6     -4.68      0.00
   -2   17    6     -0.94      0.00
   -1   17    6      3.63      0.00
    0   17    6      2.08      0.00
   -9   18    6      0.12      0.00
   -8   18    6     -1.10      0.00
   -7   18    6     -3.48      0.00
   -6   18    6      0.90      0.00
   -5   18    6     -2.01      0.00
   -4   18    6     -2.30      0.00
   -3   18    6     -1.19      0.00
   -2   18    6     -3.46      0.00
   -1   18    6     -2.32      0.00
    0   18    6      0.89      0.00
   -9   19    6     -1.53      0.00
   -8   19    6      3.45      0.00
   -7   19    6      2.82      0.00
   -6   19    6     -3.26      0.00
   -5   19    6      2.16      0.00
   -4   19    6     -2.34      0.00
   -3   19    6      0.81      0.00
   -2   19    6     -0.26      0.00
   -1   19    6     -0.14      0.00
    0   19    6     -3.11      0.00
  -10   20    6      0.87      0.00
   -9   20    6      1.88      0.00
   -8   20    6      0.66      0.00
   -7   20    6      2.05      0.00
   -6   20    6      1.72      0.00
   -5   20    6      0.63      0.00
   -4   20    6      0.53      0.00
   -3   20    6      1.32      0.00
   -2   20    6      0.91      0.00
   -1   20    6      0.65      0.00
    0   20    6     -0.96      0.00
  -10   21    6     -0.50      0.00
   -9   21    6      0.56      0.00
   -8   21    6      1.03      0.00
   -7   21    6      0.94      0.00
   -6   21    6      3.11      0.00
   -5   21    6     -1.95      0.00
   -4   21    6      0.55      0.00
   -3   21    6     -1.19      0.00
   -2   21    6      0.83      0.00
   -1   21    6     -0.38      0.00
    0   21    6      1.59      0.00
  -11   22    6     -2.56      0.00
  -10   22    6     -0.88      0.00
   -9   22    6      0.91      0.00
   -8   22    6      2.53      0.00
   -7   22    6      0.67      0.00
   -6   22    6      1.09      0.00
   -5   22    6     -1.83      0.00
   -4   22    6     -0.71      0.00
   -3   22    6      0.78      0.00
   -2   22    6      2.93      0.00
   -1   22    6     -0.68      0.00
    0   22    6     -4.23      0.00
  -11   23    6     -0.75      0.00
  -10   23    6     -0.54      0.00
   -9   23    6      1.52      0.00
   -8   23    6      0.67      0.00
   -7   23    6      1.92      0.00
   -6   23    6     -0.52      0.00
   -5   23    6      2.74      0.00
   -4   23    6      1.26      0.00
   -3   23    6      1.53      0.00
   -2   23    6     -2.01      0.00
   -1   23    6      1.01      0.00
    0   23    6      0.46      0.00
  -12   24    6     -0.14      0.00
  -11   24    6     -0.52      0.00
  -10   24    6     -0.14      0.00
   -9   24    6      1.96      0.00
   -8   24    6     -0.02      0.00
   -7   24    6      1.00      0.00
   -6   24    6      0.35      0.00
   -5   24    6      2.63      0.00
   -4   24    6      2.44      0.00
   -3   24    6      0.18      0.00
   -2   24    6     -0.45      0.00
   -1   24    6     -0.92      0.00
    0   24    6      2.22      0.00
  -12   25    6      1.09      0.00
  -11   25    6     -0.39      0.00
  -10   25    6     -0.46      0.00
   -9   25    6      0.23      0.00
   -8   25    6      0.73      0.00
   -7   25    6     -1.12      0.00
   -6   25    6      0.39      0.00
   -5   25    6      1.43      0.00
   -4   25    6      1.12      0.00
   -3   25    6     -0.74      0.00
   -2   25    6     -0.25      0.00
   -1   25    6     -0.91      0.00
    0   25    6     -1.50      0.00
  -13   26    6     -2.46      0.00
  -12   26    6     -0.62      0.00
  -11   26    6     -0.30      0.00
  -10   26    6     -0.44      0.00
   -9   26    6     -3.42      0.00
   -8   26    6     -0.48      0.00
   -7   26    6     -1.13      0.00
   -6   26    6     -0.60      0.00
   -5   26    6     -0.67      0.00
   -4   26    6     -0.88      0.00
   -3   26    6      0.18      0.00
   -2   26    6      0.16      0.00
   -1   26    6     -0.29      0.00
    0   26    6     -1.08      0.00
  -13   27    6     -1.22      0.00
  -12   27    6     -2.37      0.00
  -11   27    6     -0.46      0.00
  -10   27    6     -0.07      0.00
   -9   27    6     -0.64      0.00
   -8   27    6     -1.73      0.00
   -7   27    6     -0.85      0.00
   -6   27    6     -0.67      0.00
   -5   27    6     -0.93      0.00
   -4   27    6      0.48      0.00
   -3   27    6      1.07      0.00
   -2   27    6     -0.26      0.00
  -14   28    6     -0.02      0.00
  -13   28    6     -0.96      0.00
  -12   28    6     -2.15      0.00
  -11   28    6      1.59      0.00
  -10   28    6     -1.16      0.00
   -9   28    6     -0.19      0.00
   -8   28    6      0.34      0.00
   -7   28    6     -0.45      0.00
   -6   28    6      0.66      0.00
   -5   28    6      0.12      0.00
  -14   29    6     -0.06      0.00
  -13   29    6     -0.38      0.00
  -12   29    6      0.80      0.00
  -11   29    6      0.61      0.00
  -10   29    6     -0.59      0.00
   -9   29    6     -0.25      0.00
   -8   29    6      0.50      0.00
  -15   30    6      0.79      0.00
  -14   30    6     -0.86      0.00
  -13   30    6     -2.24      0.00
    0    0    7    -32.00      0.00
    0    1    7      1.38      0.00
   -1    2    7     -3.51      0.00
    0    2    7     15.26      0.00
   -1    3    7      1.61      0.00
    0    3    7     -4.24      0.00
   -2    4    7    -17.13      0.00
   -1    4    7     -3.79      0.00
    0    4    7      1.88      0.00
   -2    5    7     -1.22      0.00
   -1    5    7     -3.74      0.00
    0    5    7     -5.45      0.00
   -3    6    7     -1.55      0.00
   -2    6    7      2.14      0.00
   -1    6    7      3.21      0.00
    0    6    7      2.13      0.00
   -3    7    7      0.44      0.00
   -2    7    7     -1.14      0.00
   -1    7    7     -4.16      0.00
    0    7    7      7.31      0.00
   -4    8    7     -2.79      0.00
   -3    8    7     -1.37      0.00
   -2    8    7      1.73      0.00
   -1    8    7      1.02      0.00
    0    8    7     -5.85      0.00
   -4    9    7      0.24      0.00
   -3    9    7      1.96      0.00
   -2    9    7     -3.09      0.00
   -1    9    7      1.83      0.00
    0    9    7     -4.00      0.00
   -5   10    7     -1.95      0.00
   -4   10    7      0.46      0.00
   -3   10    7      3.72      0.00
   -2   10    7      3.27      0.00
   -1   10    7     -4.13      0.00
    0   10    7      1.83      0.00
   -5   11    7     -0.04      0.00
   -4   11    7      0.53      0.00
   -3   11    7     -1.32      0.00
   -2   11    7      3.01      0.00
   -1   11    7      0.53      0.00
    0   11    7      0.43      0.00
   -6   12    7      0.96      0.00
   -5   12    7      2.12      0.00
   -4   12    7     -0.30      0.00
   -3   12    7      0.48      0.00
   -2   12    7     -0.25      0.00
   -1   12    7      2.62      0.00
    0   12    7     -1.61      0.00
   -6   13    7      3.19      0.00
   -5   13    7     -1.00      0.00
   -4   13    7     -2.08      0.00
   -3   13    7      1.78      0.00
   -2   13    7     -0.67      0.00
   -1   13    7     -0.79      0.00
    0   13    7      3.35      0.00
   -7   14    7     -0.83      0.00
   -6   14    7      1.67      0.00
   -5   14    7      0.74      0.00
   -4   14    7     -0.76      0.00
   -3   14    7     -0.33      0.00
   -2   14    7      6.49      0.00
   -1   14    7      0.77      0.00
    0   14    7     -2.63      0.00
   -7   15    7     -0.50      0.00
   -6   15    7     -0.22      0.00
   -5   15    7      2.18      0.00
   -4   15    7      1.02      0.00
   -3   15    7      2.35      0.00
   -2   15    7      3.30      0.00
   -1   15    7      2.67      0.00
    0   15    7     -3.04      0.00
   -8   16    7     -0.81      0.00
   -7   16    7      1.17      0.00
   -6   16    7      0.83      0.00
   -5   16    7     -1.12      0.00
   -4   16    7     -3.55      0.00
   -3   16    7      4.74      0.00
   -2   16    7      0.63      0.00
   -1   16    7     -3.19      0.00
    0   16    7     -0.18      0.00
   -8   17    7      0.29      0.00
   -7   17    7      2.17      0.00
   -6   17    7      0.12      0.00
   -5   17    7     -2.54      0.00
   -4   17    7      0.31      0.00
   -3   17    7     -2.03      0.00
   -2   17    7      0.97      0.00
   -1   17    7     -1.31      0.00
    0   17    7      3.53      0.00
   -9   18    7     -0.31      0.00
   -8   18    7     -0.89      0.00
   -7   18    7     -1.27      0.00
   -6   18    7      2.64      0.00
   -5   18    7      0.55      0.00
   -4   18    7      0.46      0.00
   -3   18    7     -1.32      0.00
   -2   18    7      0.20      0.00
   -1   18    7      1.89      0.00
    0   18    7      0.92      0.00
   -9   19    7     -4.23      0.00
   -8   19    7     -1.53      0.00
   -7   19    7     -0.80      0.00
   -6   19    7      2.71      0.00
   -5   19    7      2.54      0.00
   -4   19    7     -2.50      0.00
   -3   19    7      1.29      0.00
   -2   19    7     -3.19      0.00
   -1   19    7      2.13      0.00
    0   19    7      1.83      0.00
  -10   20    7      1.13      0.00
   -9   20    7     -2.11      0.00
   -8   20    7     -1.47      0.00
   -7   20    7      3.54      0.00
   -6   20    7      0.85      0.00
   -5   20    7      2.49      0.00
   -4   20    7     -1.47      0.00
   -3   20    7      0.69      0.00
   -2   20    7      1.23      0.00
   -1   20    7     -3.90      0.00
    0   20    7     -2.20      0.00
  -10   21    7     -0.34      0.00
   -9   21    7      0.65      0.00
   -8   21    7     -0.14      0.00
   -7   21    7      0.68      0.00
   -6   21    7      1.71      0.00
   -5   21    7     -0.64      0.00
   -4   21    7      3.35      0.00
   -3   21    7     -2.97      0.00
   -2   21    7      0.88      0.00
   -1   21    7      1.43      0.00
    0   21    7     -0.33      0.00
  -11   22    7     -1.55      0.00
  -10   22    7     -2.02      0.00
   -9   22    7      1.08      0.00
   -8   22    7      0.93      0.00
   -7   22    7     -2.45      0.00
   -6   22    7      2.19      0.00
   -5   22    7     -1.30      0.00
   -4   22    7     -1.15      0.00
   -3   22    7      2.15      0.00
   -2   22    7     -0.11      0.00
   -1   22    7      0.26      0.00
    0   22    7     -0.59      0.00
  -11   23    7     -1.56      0.00
  -10   23    7      1.33      0.00
   -9   23    7     -1.60      0.00
   -8   23    7     -0.38      0.00
   -7   23    7      0.87      0.00
   -6   23    7     -0.40      0.00
   -5   23    7      2.06      0.00
   -4   23    7     -2.84      0.00
   -3   23    7     -1.20      0.00
   -2   23    7      0.01      0.00
   -1   23    7     -1.65      0.00
    0   23    7     -1.83      0.00
  -12   24    7      0.13      0.00
  -11   24    7     -0.70      0.00
  -10   24    7      0.91      0.00
   -9   24    7      2.26      0.00
   -8   24    7     -1.03      0.00
   -7   24    7      1.55      0.00
   -6   24    7      0.23      0.00
   -5   24    7      1.03      0.00
   -4   24    7     -0.77      0.00
   -3   24    7     -1.82      0.00
   -2   24    7      0.47      0.00
   -1   24    7     -0.19      0.00
    0   24    7     -1.41      0.00
  -12   25    7      0.49      0.00
  -11   25    7     -0.98      0.00
  -10   25    7     -0.77      0.00
   -9   25    7      0.82      0.00
   -8   25    7      1.10      0.00
   -7   25    7      0.53      0.00
   -6   25    7      0.49      0.00
   -5   25    7     -2.88      0.00
   -4   25    7      1.81      0.00
   -3   25    7      2.67      0.00
   -2   25    7     -0.32      0.00
   -1   25    7     -0.47      0.00
    0   25    7      1.33      0.00
  -13   26    7     -0.08      0.00
  -12   26    7     -0.32      0.00
  -11   26    7      1.35      0.00
  -10   26    7      1.25      0.00
   -9   26    7     -2.72      0.00
   -8   26    7      0.93      0.00
   -7   26    7      1.68      0.00
   -6   26    7      0.67      0.00
   -5   26    7     -0.39      0.00
   -4   26    7     -0.75      0.00
   -3   26    7      1.24      0.00
   -2   26    7      0.55      0.00
   -1   26    7      0.30      0.00
  -13   27    7      1.57      0.00
  -12   27    7      0.80      0.00
  -11   27    7      1.75      0.00
  -10   27    7      0.96      0.00
   -9   27    7     -1.46      0.00
   -8   27    7     -0.01      0.00
   -7   27    7      0.63      0.00
   -6   27    7     -0.41      0.00
   -5   27    7      0.19      0.00
   -4   27    7      0.52      0.00
   -3   27    7     -0.99      0.00
  -14   28    7      1.48      0.00
  -13   28    7      2.25      0.00
  -12   28    7      2.46      0.00
  -11   28    7      1.80      0.00
  -10   28    7     -1.24      0.00
   -9   28    7      0.06      0.00
   -8   28    7     -0.73      0.00
   -7   28    7      0.15      0.00
   -6   28    7      0.53      0.00
  -14   29    7     -0.60      0.00
  -13   29    7      1.19      0.00
  -12   29    7      1.22      0.00
  -11   29    7     -0.71      0.00
  -10   29    7     -1.46      0.00
    0    0    8     10.91      0.00
    0    1    8     -1.11      0.00
   -1    2    8      7.45      0.00
    0    2    8     -4.83      0.00
   -1    3    8     -6.22      0.00
    0    3    8      7.38      0.00
   -2    4    8      1.50      0.00
   -1    4    8     -2.46      0.00
    0    4    8     -4.91      0.00
   -2    5    8     -1.13      0.00
   -1    5    8      2.77      0.00
    0    5    8     -5.82      0.00
   -3    6    8     -1.18      0.00
   -2    6    8     -0.77      0.00
   -1    6    8      1.94      0.00
    0    6    8      2.84      0.00
   -3    7    8      0.05      0.00
   -2    7    8      4.22      0.00
   -1    7    8     -0.54      0.00
    0    7    8      4.60      0.00
   -4    8    8     -1.24      0.00
   -3    8    8      1.57      0.00
   -2    8    8      0.95      0.00
   -1    8    8     -0.94      0.00
    0    8    8     -2.39      0.00
   -4    9    8     -0.55      0.00
   -3    9    8      0.36      0.00
   -2    9    8     -1.23      0.00
   -1    9    8      2.28      0.00
    0    9    8     -1.05      0.00
   -5   10    8     -0.58      0.00
   -4   10    8      0.99      0.00
   -3   10    8     -0.32      0.00
   -2   10    8      1.19      0.00
   -1   10    8      1.07      0.00
    0   10    8      0.25      0.00
   -5   11    8      1.70      0.00
   -4   11    8      1.24      0.00
   -3   11    8      0.98      0.00
   -2   11    8     -1.68      0.00
   -1   11    8     -0.43      0.00
    0   11    8      4.83      0.00
   -6   12    8      0.09      0.00
   -5   12    8      0.21      0.00
   -4   12    8     -1.56      0.00
   -3   12    8      1.50      0.00
   -2   12    8     -0.23      0.00
   -1   12    8     -0.44      0.00
    0   12    8      2.84      0.00
   -6   13    8     -1.56      0.00
   -5   13    8     -0.16      0.00
   -4   13    8      3.80      0.00
   -3   13    8     -0.81      0.00
   -2   13    8      1.99      0.00
   -1   13    8      3.00      0.00
    0   13    8     -4.32      0.00
   -7   14    8     -1.02      0.00
   -6   14    8      0.97      0.00
   -5   14    8     -0.34      0.00
   -4   14    8      3.11      0.00
   -3   14    8      0.39      0.00
   -2   14    8     -0.23      0.00
   -1   14    8      1.16      0.00
    0   14    8     -4.42      0.00
   -7   15    8     -0.46      0.00
   -6   15    8      0.18      0.00
   -5   15    8      2.73      0.00
   -4   15    8     -1.56      0.00
   -3   15    8      1.14      0.00
   -2   15    8     -3.16      0.00
   -1   15    8     -4.27      0.00
    0   15    8      1.81      0.00
   -8   16    8      1.02      0.00
   -7   16    8      0.23      0.00
   -6   16    8     -4.12      0.00
   -5   16    8      0.57      0.00
   -4   16    8     -0.71      0.00
   -3   16    8     -2.28      0.00
   -2   16    8      1.38      0.00
   -1   16    8     -1.40      0.00
    0   16    8      0.06      0.00
   -8   17    8     -2.47      0.00
   -7   17    8     -0.92      0.00
   -6   17    8     -0.20      0.00
   -5   17    8     -5.67      0.00
   -4   17    8     -0.25      0.00
   -3   17    8     -0.40      0.00
   -2   17    8      0.01      0.00
   -1   17    8      5.68      0.00
    0   17    8     -0.17      0.00
   -9   18    8     -0.15      0.00
   -8   18    8      0.16      0.00
   -7   18    8     -0.57      0.00
   -6   18    8      0.53      0.00
   -5   18    8     -3.05      0.00
   -4   18    8     -0.34      0.00
   -3   18    8      2.34      0.00
   -2   18    8     -2.05      0.00
   -1   18    8     -2.36      0.00
    0   18    8      0.81      0.00
   -9   19    8      0.15      0.00
   -8   19    8      3.60      0.00
   -7   19    8      4.31      0.00
   -6   19    8     -3.52      0.00
   -5   19    8      1.91      0.00
   -4   19    8      0.53      0.00
   -3   19    8     -2.35      0.00
   -2   19    8     -1.74      0.00
   -1   19    8     -1.72      0.00
    0   19    8     -1.33      0.00
  -10   20    8      1.97      0.00
   -9   20    8      2.55      0.00
   -8   20    8      0.02      0.00
   -7   20    8     -0.58      0.00
   -6   20    8     -0.36      0.00
   -5   20    8      0.28      0.00
   -4   20    8      0.52      0.00
   -3   20    8      0.30      0.00
   -2   20    8      0.51      0.00
   -1   20    8      0.48      0.00
    0   20    8     -1.79      0.00
  -10   21    8      1.54      0.00
   -9   21    8      0.74      0.00
   -8   21    8     -0.07      0.00
   -7   21    8      0.15      0.00
   -6   21    8      1.11      0.00
   -5   21    8     -0.16      0.00
   -4   21    8      2.54      0.00
   -3   21    8      0.21      0.00
   -2   21    8      0.14      0.00
   -1   21    8      1.83      0.00
    0   21    8      0.75      0.00
  -11   22    8      0.25      0.00
  -10   22    8     -0.59      0.00
   -9   22    8     -0.56      0.00
   -8   22    8      2.85      0.00
   -7   22    8      3.08      0.00
   -6   22    8      0.27      0.00
   -5   22    8     -1.53      0.00
   -4   22    8      0.62      0.00
   -3   22    8      0.46      0.00
   -2   22    8      1.74      0.00
   -1   22    8     -1.62      0.00
    0   22    8     -1.51      0.00
  -11   23    8     -1.05      0.00
  -10   23    8     -0.06      0.00
   -9   23    8      1.69      0.00
   -8   23    8      1.14      0.00
   -7   23    8     -0.06      0.00
   -6   23    8      0.88      0.00
   -5   23    8      2.48      0.00
   -4   23    8     -1.96      0.00
   -3   23    8     -0.20      0.00
   -2   23    8     -1.83      0.00
   -1   23    8     -0.32      0.00
    0   23    8      1.70      0.00
  -12   24    8      0.62      0.00
  -11   24    8     -1.64      0.00
  -10   24    8     -0.40      0.00
   -9   24    8      1.61      0.00
   -8   24    8      0.07      0.00
   -7   24    8     -1.47      0.00
   -6   24    8     -0.82      0.00
   -5   24    8      2.89      0.00
   -4   24    8      0.07      0.00
   -3   24    8     -2.40      0.00
   -2   24    8     -1.32      0.00
   -1   24    8      1.08      0.00
    0   24    8      1.47      0.00
  -12   25    8      1.33      0.00
  -11   25    8     -0.41      0.00
  -10   25    8     -0.57      0.00
   -9   25    8      1.89      0.00
   -8   25    8      1.30      0.00
   -7   25    8      0.74      0.00
   -6   25    8     -0.40      0.00
   -5   25    8     -0.24      0.00
   -4   25    8      3.27      0.00
   -3   25    8      0.49      0.00
   -2   25    8     -0.78      0.00
   -1   25    8     -0.86      0.00
    0   25    8     -0.84      0.00
  -13   26    8      1.81      0.00
  -12   26    8      0.20      0.00
  -11   26    8     -0.47      0.00
  -10   26    8      1.04      0.00
   -9   26    8      2.11      0.00
   -8   26    8      0.08      0.00
   -7   26    8     -1.32      0.00
   -6   26    8      2.95      0.00
   -5   26    8      0.06      0.00
   -4   26    8     -0.48      0.00
   -3   26    8      1.16      0.00
   -2   26    8      0.54      0.00
  -13   27    8      0.94      0.00
  -12   27    8     -2.34      0.00
  -11   27    8     -0.06      0.00
  -10   27    8      2.43      0.00
   -9   27    8     -0.26      0.00
   -8   27    8     -1.16      0.00
   -7   27    8     -0.19      0.00
   -6   27    8     -0.36      0.00
   -5   27    8      0.69      0.00
  -14   28    8      1.57      0.00
  -13   28    8     -1.24      0.00
  -12   28    8     -2.41      0.00
  -11   28    8      0.46      0.00
  -10   28    8      0.50      0.00
   -9   28    8     -1.10      0.00
   -8   28    8     -1.06      0.00
    0    0    9     -4.92      0.00
    0    1    9     -2.83      0.00
   -1    2    9      4.61      0.00
    0    2    9      3.46      0.00
   -1    3    9     -1.68      0.00
    0    3    9      2.59      0.00
   -2    4    9     -0.77      0.00
   -1    4    9     -2.07      0.00
    0    4    9      0.55      0.00
   -2    5    9     -0.99      0.00
   -1    5    9      1.40      0.00
    0    5    9     -4.48      0.00
   -3    6    9      0.12      0.00
   -2    6    9      1.44      0.00
   -1    6    9      1.66      0.00
    0    6    9      0.91      0.00
   -3    7    9      2.72      0.00
   -2    7    9      1.13      0.00
   -1    7    9     -1.92      0.00
    0    7    9      5.33      0.00
   -4    8    9      1.02      0.00
   -3    8    9      1.69      0.00
   -2    8    9      2.74      0.00
   -1    8    9      0.49      0.00
    0    8    9     -2.88      0.00
   -4    9    9     -0.08      0.00
   -3    9    9      1.05      0.00
   -2    9    9     -0.47      0.00
   -1    9    9      1.24      0.00
    0    9    9     -5.81      0.00
   -5   10    9     -1.46      0.00
   -4   10    9     -0.48      0.00
   -3   10    9      1.78      0.00
   -2   10    9     -0.01      0.00
   -1   10    9     -1.75      0.00
    0   10    9      2.33      0.00
   -5   11    9      0.06      0.00
   -4   11    9      2.34      0.00
   -3   11    9      0.18      0.00
   -2   11    9      0.59      0.00
   -1   11    9     -1.00      0.00
    0   11    9      8.46      0.00
   -6   12    9      3.21      0.00
   -5   12    9      1.43      0.00
   -4   12    9      0.79      0.00
   -3   12    9     -0.14      0.00
   -2   12    9      0.73      0.00
   -1   12    9      2.34      0.00
    0   12    9     -2.47      0.00
   -6   13    9      1.77      0.00
   -5   13    9      1.17      0.00
   -4   13    9      0.26      0.00
   -3   13    9     -1.03      0.00
   -2   13    9     -2.77      0.00
   -1   13    9      3.25      0.00
    0   13    9     -0.90      0.00
   -7   14    9      1.12      0.00
   -6   14    9     -0.64      0.00
   -5   14    9      0.46      0.00
   -4   14    9     -0.44      0.00
   -3   14    9     -0.83      0.00
   -2   14    9      1.39      0.00
   -1   14    9     -1.37      0.00
    0   14    9      3.69      0.00
   -7   15    9     -1.62      0.00
   -6   15    9     -2.03      0.00
   -5   15    9      1.93      0.00
   -4   15    9      0.61      0.00
   -3   15    9     -2.19      0.00
   -2   15    9      3.45      0.00
   -1   15    9     -1.62      0.00
    0   15    9     -1.84      0.00
   -8   16    9      0.46      0.00
   -7   16    9     -1.05      0.00
   -6   16    9      0.90      0.00
   -5   16    9     -0.96      0.00
   -4   16    9     -2.89      0.00
   -3   16    9      0.54      0.00
   -2   16    9     -3.45      0.00
   -1   16    9     -1.76      0.00
    0   16    9     -1.24      0.00
   -8   17    9      2.09      0.00
   -7   17    9      0.67      0.00
   -6   17    9      0.53      0.00
   -5   17    9     -4.55      0.00
   -4   17    9     -4.43      0.00
   -3   17    9     -0.50      0.00
   -2   17    9     -0.74      0.00
   -1   17    9     -0.39      0.00
    0   17    9     -0.15      0.00
   -9   18    9      0.84      0.00
   -8   18    9     -0.40      0.00
   -7   18    9     -0.23      0.00
   -6   18    9     -1.32      0.00
   -5   18    9     -1.75      0.00
   -4   18    9      1.59      0.00
   -3   18    9     -1.22      0.00
   -2   18    9     -1.20      0.00
   -1   18    9     -2.51      0.00
    0   18    9      2.38      0.00
   -9   19    9     -2.36      0.00
   -8   19    9     -0.84      0.00
   -7   19    9      0.89      0.00
   -6   19    9      3.58      0.00
   -5   19    9      1.22      0.00
   -4   19    9     -0.77      0.00
   -3   19    9     -1.13      0.00
   -2   19    9     -1.36      0.00
   -1   19    9      1.40      0.00
    0   19    9      1.55      0.00
  -10   20    9     -0.36      0.00
   -9   20    9     -1.12      0.00
   -8   20    9      3.24      0.00
   -7   20    9      1.74      0.00
   -6   20    9     -2.00      0.00
   -5   20    9      0.99      0.00
   -4   20    9     -0.41      0.00
   -3   20    9      0.00      0.00
   -2   20    9     -0.01      0.00
   -1   20    9      1.40      0.00
    0   20    9     -3.65      0.00
  -10   21    9      0.95      0.00
   -9   21    9      1.21      0.00
   -8   21    9     -0.15      0.00
   -7   21    9      0.01      0.00
   -6   21    9     -0.83      0.00
   -5   21    9     -0.74      0.00
   -4   21    9      0.94      0.00
   -3   21    9     -1.22      0.00
   -2   21    9      1.10      0.00
   -1   21    9     -1.02      0.00
    0   21    9     -0.14      0.00
  -11   22    9     -0.22      0.00
  -10   22    9     -1.52      0.00
   -9   22    9      2.21      0.00
   -8   22    9      1.15      0.00
   -7   22    9     -0.38      0.00
   -6   22    9      3.06      0.00
   -5   22    9     -1.32      0.00
   -4   22    9     -2.51      0.00
   -3   22    9      0.43      0.00
   -2   22    9      2.33      0.00
   -1   22    9     -1.54      0.00
    0   22    9      0.00      0.00
  -11   23    9      0.15      0.00
  -10   23    9     -0.10      0.00
   -9   23    9     -2.80      0.00
   -8   23    9      1.83      0.00
   -7   23    9      2.63      0.00
   -6   23    9      0.16      0.00
   -5   23    9      0.83      0.00
   -4   23    9     -2.26      0.00
   -3   23    9     -1.27      0.00
   -2   23    9     -1.15      0.00
   -1   23    9      0.64      0.00
    0   23    9      0.31      0.00
  -12   24    9      2.09      0.00
  -11   24    9     -0.23      0.00
  -10   24    9      0.11      0.00
   -9   24    9      0.67      0.00
   -8   24    9      1.29      0.00
   -7   24    9      1.64      0.00
   -6   24    9     -0.35      0.00
   -5   24    9      1.75      0.00
   -4   24    9      0.30      0.00
   -3   24    9     -0.95      0.00
   -2   24    9     -1.22      0.00
   -1   24    9      1.44      0.00
    0   24    9      0.36      0.00
  -12   25    9      1.89      0.00
  -11   25    9     -0.93      0.00
  -10   25    9     -1.77      0.00
   -9   25    9      2.37      0.00
   -8   25    9      1.50      0.00
   -7   25    9     -1.00      0.00
   -6   25    9      0.20      0.00
   -5   25    9     -1.29      0.00
   -4   25    9      3.22      0.00
   -3   25    9      0.86      0.00
   -2   25    9     -1.65      0.00
  -13   26    9     -0.55      0.00
  -12   26    9     -0.21      0.00
  -11   26    9      1.84      0.00
  -10   26    9     -0.69      0.00
   -9   26    9     -1.88      0.00
   -8   26    9      0.74      0.00
   -7   26    9      0.70      0.00
   -6   26    9      1.36      0.00
   -5   26    9      1.82      0.00
   -4   26    9      0.10      0.00
  -13   27    9      1.11      0.00
  -12   27    9     -0.48      0.00
  -11   27    9      0.38      0.00
  -10   27    9      1.14      0.00
   -9   27    9     -1.14      0.00
   -8   27    9     -0.68      0.00
   -7   27    9      1.35      0.00
  -14   28    9     -0.30      0.00
  -13   28    9      0.94      0.00
  -12   28    9      2.42      0.00
    0    0   10      9.10      0.00
    0    1   10     -0.39      0.00
   -1    2   10      3.46      0.00
    0    2   10     -3.94      0.00
   -1    3   10     -2.20      0.00
    0    3   10      3.96      0.00
   -2    4   10      3.08      0.00
   -1    4   10      0.41      0.00
    0    4   10     -1.73      0.00
   -2    5   10      1.28      0.00
   -1    5   10      2.47      0.00
    0    5   10     -1.58      0.00
   -3    6   10     -0.43      0.00
   -2    6   10      1.07      0.00
   -1    6   10      1.94      0.00
    0    6   10      0.51      0.00
   -3    7   10      0.52      0.00
   -2    7   10      2.01      0.00
   -1    7   10     -0.51      0.00
    0    7   10      1.73      0.00
   -4    8   10     -0.71      0.00
   -3    8   10      2.15      0.00
   -2    8   10      2.28      0.00
   -1    8   10     -1.56      0.00
    0    8   10     -1.96      0.00
   -4    9   10      0.05      0.00
   -3    9   10      1.95      0.00
   -2    9   10      0.89      0.00
   -1    9   10      1.61      0.00
    0    9   10     -2.06      0.00
   -5   10   10     -0.97      0.00
   -4   10   10     -0.27      0.00
   -3   10   10     -0.96      0.00
   -2   10   10      0.00      0.00
   -1   10   10      1.55      0.00
    0   10   10      0.98      0.00
   -5   11   10     -0.88      0.00
   -4   11   10      0.40      0.00
   -3   11   10     -0.72      0.00
   -2   11   10     -0.96      0.00
   -1   11   10     -0.50      0.00
    0   11   10      1.14      0.00
   -6   12   10      5.23      0.00
   -5   12   10      1.01      0.00
   -4   12   10     -1.07      0.00
   -3   12   10      3.87      0.00
   -2   12   10      2.12      0.00
   -1   12   10     -2.45      0.00
    0   12   10     -0.24      0.00
   -6   13   10     -0.09      0.00
   -5   13   10      2.60      0.00
   -4   13   10      2.17      0.00
   -3   13   10      0.37      0.00
   -2   13   10      0.59      0.00
   -1   13   10      1.92      0.00
    0   13   10     -4.60      0.00
   -7   14   10      2.39      0.00
   -6   14   10     -1.09      0.00
   -5   14   10     -1.01      0.00
   -4   14   10      2.18      0.00
   -3   14   10     -1.03      0.00
   -2   14   10     -2.12      0.00
   -1   14   10      1.43      0.00
    0   14   10      1.14      0.00
   -7   15   10     -0.73      0.00
   -6   15   10      0.48      0.00
   -5   15   10      0.84      0.00
   -4   15   10     -1.88      0.00
   -3   15   10      0.85      0.00
   -2   15   10     -0.61      0.00
   -1   15   10     -3.86      0.00
    0   15   10      1.90      0.00
   -8   16   10      1.17      0.00
   -7   16   10      0.35      0.00
   -6   16   10      0.22      0.00
   -5   16   10      1.36      0.00
   -4   16   10      1.21      0.00
   -3   16   10     -0.20      0.00
   -2   16   10     -3.13      0.00
   -1   16   10     -1.44      0.00
    0   16   10      1.27      0.00
   -8   17   10      1.44      0.00
   -7   17   10      1.77      0.00
   -6   17   10      2.93      0.00
   -5   17   10      0.48      0.00
   -4   17   10     -0.41      0.00
   -3   17   10     -0.72      0.00
   -2   17   10     -2.27      0.00
   -1   17   10      3.47      0.00
    0   17   10     -0.63      0.00
   -9   18   10      1.43      0.00
   -8   18   10      1.47      0.00
   -7   18   10      1.89      0.00
   -6   18   10     -0.43      0.00
   -5   18   10     -0.48      0.00
   -4   18   10      1.60      0.00
   -3   18   10      1.04      0.00
   -2   18   10     -3.17      0.00
   -1   18   10     -2.31      0.00
    0   18   10      2.29      0.00
   -9   19   10     -1.51      0.00
   -8   19   10      0.91      0.00
   -7   19   10      3.24      0.00
   -6   19   10     -3.10      0.00
   -5   19   10     -1.31      0.00
   -4   19   10      0.08      0.00
   -3   19   10     -0.99      0.00
   -2   19   10     -0.28      0.00
   -1   19   10     -1.09      0.00
    0   19   10      0.08      0.00
  -10   20   10     -0.45      0.00
   -9   20   10      1.76      0.00
   -8   20   10      2.59      0.00
   -7   20   10     -0.66      0.00
   -6   20   10     -3.32      0.00
   -5   20   10     -0.77      0.00
   -4   20   10      1.08      0.00
   -3   20   10      0.22      0.00
   -2   20   10      1.02      0.00
   -1   20   10      1.95      0.00
    0   20   10     -3.03      0.00
  -10   21   10      0.39      0.00
   -9   21   10      1.48      0.00
   -8   21   10      1.13      0.00
   -7   21   10     -1.29      0.00
   -6   21   10      0.55      0.00
   -5   21   10     -0.58      0.00
   -4   21   10      0.47      0.00
   -3   21   10      0.72      0.00
   -2   21   10      0.10      0.00
   -1   21   10      0.31      0.00
    0   21   10      0.22      0.00
  -11   22   10     -2.22      0.00
  -10   22   10     -1.26      0.00
   -9   22   10      0.42      0.00
   -8   22   10      1.38      0.00
   -7   22   10      1.74      0.00
   -6   22   10      0.62      0.00
   -5   22   10     -0.65      0.00
   -4   22   10     -1.33      0.00
   -3   22   10      0.51      0.00
   -2   22   10      2.69      0.00
   -1   22   10     -1.83      0.00
    0   22   10     -1.23      0.00
  -11   23   10     -0.38      0.00
  -10   23   10      0.83      0.00
   -9   23   10      0.47      0.00
   -8   23   10     -0.48      0.00
   -7   23   10      1.62      0.00
   -6   23   10      2.01      0.00
   -5   23   10      2.05      0.00
   -4   23   10     -1.29      0.00
   -3   23   10      1.55      0.00
   -2   23   10      0.27      0.00
   -1   23   10      0.13      0.00
    0   23   10      0.64      0.00
  -12   24   10      0.45      0.00
  -11   24   10     -0.01      0.00
  -10   24   10     -0.15      0.00
   -9   24   10     -0.90      0.00
   -8   24   10     -0.37      0.00
   -7   24   10      0.31      0.00
   -6   24   10      0.46      0.00
   -5   24   10      1.30      0.00
   -4   24   10      0.29      0.00
   -3   24   10      0.36      0.00
   -2   24   10     -0.58      0.00
   -1   24   10      0.29      0.00
  -12   25   10      0.36      0.00
  -11   25   10     -1.00      0.00
  -10   25   10     -0.63      0.00
   -9   25   10      1.24      0.00
   -8   25   10      1.49      0.00
   -7   25   10      0.32      0.00
   -6   25   10     -0.79      0.00
   -5   25   10     -2.17      0.00
   -4   25   10      3.04      0.00
   -3   25   10      0.88      0.00
  -13   26   10     -0.60      0.00
  -12   26   10      0.10      0.00
  -11   26   10      1.04      0.00
  -10   26   10      0.09      0.00
   -9   26   10      1.77      0.00
   -8   26   10      1.13      0.00
   -7   26   10     -1.24      0.00
   -6   26   10      0.05      0.00
  -13   27   10      1.38      0.00
  -12   27   10     -0.66      0.00
  -11   27   10      0.53      0.00
  -10   27   10      2.03      0.00
    0    0   11     -3.34      0.00
    0    1   11     -0.17      0.00
   -1    2   11      0.92      0.00
    0    2   11      3.33      0.00
   -1    3   11     -0.30      0.00
    0    3   11     -0.56      0.00
   -2    4   11     -1.49      0.00
   -1    4   11     -0.99      0.00
    0    4   11     -2.75      0.00
   -2    5   11      0.99      0.00
   -1    5   11     -0.74      0.00
    0    5   11     -0.35      0.00
   -3    6   11      0.34      0.00
   -2    6   11      1.75      0.00
   -1    6   11      1.20      0.00
    0    6   11      2.01      0.00
   -3    7   11      1.83      0.00
   -2    7   11     -1.77      0.00
   -1    7   11     -2.61      0.00
    0    7   11      3.96      0.00
   -4    8   11     -1.80      0.00
   -3    8   11     -0.32      0.00
   -2    8   11     -3.16      0.00
   -1    8   11     -0.29      0.00
    0    8   11      2.63      0.00
   -4    9   11      0.39      0.00
   -3    9   11     -2.02      0.00
   -2    9   11     -2.01      0.00
   -1    9   11      3.72      0.00
    0    9   11     -2.75      0.00
   -5   10   11      0.87      0.00
   -4   10   11      2.17      0.00
   -3   10   11      1.88      0.00
   -2   10   11      0.39      0.00
   -1   10   11     -0.58      0.00
    0   10   11     -0.94      0.00
   -5   11   11      1.52      0.00
   -4   11   11     -0.90      0.00
   -3   11   11      1.78      0.00
   -2   11   11      5.51      0.00
   -1   11   11     -3.65      0.00
    0   11   11      1.55      0.00
   -6   12   11     -5.57      0.00
   -5   12   11     -2.47      0.00
   -4   12   11     -0.33      0.00
   -3   12   11     -3.27      0.00
   -2   12   11     -1.60      0.00
   -1   12   11      1.22      0.00
    0   12   11     -0.57      0.00
   -6   13   11      1.91      0.00
   -5   13   11     -4.07      0.00
   -4   13   11     -4.18      0.00
   -3   13   11     -2.71      0.00
   -2   13   11     -2.82      0.00
   -1   13   11      2.15      0.00
    0   13   11     -3.21      0.00
   -7   14   11     -0.39      0.00
   -6   14   11      2.18      0.00
   -5   14   11      0.22      0.00
   -4   14   11     -5.24      0.00
   -3   14   11     -2.28      0.00
   -2   14   11     -1.74      0.00
   -1   14   11     -2.24      0.00
    0   14   11      0.93      0.00
   -7   15   11      3.23      0.00
   -6   15   11     -2.87      0.00
   -5   15   11      1.54      0.00
   -4   15   11      2.57      0.00
   -3   15   11     -3.14      0.00
   -2   15   11      2.70      0.00
   -1   15   11     -2.42      0.00
    0   15   11     -1.29      0.00
   -8   16   11     -4.77      0.00
   -7   16   11      0.40      0.00
   -6   16   11      4.78      0.00
   -5   16   11      1.27      0.00
   -4   16   11      1.49      0.00
   -3   16   11     -0.43      0.00
   -2   16   11      0.34      0.00
   -1   16   11      0.22      0.00
    0   16   11     -0.83      0.00
   -8   17   11     -0.08      0.00
   -7   17   11     -4.38      0.00
   -6   17   11      3.53      0.00
   -5   17   11      0.44      0.00
   -4   17   11     -4.00      0.00
   -3   17   11     -0.23      0.00
   -2   17   11      0.00      0.00
   -1   17   11      3.44      0.00
    0   17   11      3.29      0.00
   -9   18   11     -0.30      0.00
   -8   18   11      1.53      0.00
   -7   18   11      0.60      0.00
   -6   18   11     -3.26      0.00
   -5   18   11     -2.93      0.00
   -4   18   11      0.23      0.00
   -3   18   11     -0.57      0.00
   -2   18   11     -0.94      0.00
   -1   18   11      0.17      0.00
    0   18   11      3.70      0.00
   -9   19   11      5.13      0.00
   -8   19   11      0.76      0.00
   -7   19   11      0.91      0.00
   -6   19   11     -1.47      0.00
   -5   19   11     -0.70      0.00
   -4   19   11      1.39      0.00
   -3   19   11     -1.34      0.00
   -2   19   11     -0.02      0.00
   -1   19   11      0.20      0.00
    0   19   11     -1.01      0.00
  -10   20   11      3.43      0.00
   -9   20   11      1.74      0.00
   -8   20   11      0.64      0.00
   -7   20   11     -1.32      0.00
   -6   20   11     -0.74      0.00
   -5   20   11      2.39      0.00
   -4   20   11      2.88      0.00
   -3   20   11      0.36      0.00
   -2   20   11      0.58      0.00
   -1   20   11      0.46      0.00
    0   20   11     -4.20      0.00
  -10   21   11      0.56      0.00
   -9   21   11     -0.22      0.00
   -8   21   11     -0.27      0.00
   -7   21   11      1.25      0.00
   -6   21   11      3.63      0.00
   -5   21   11      2.04      0.00
   -4   21   11      2.04      0.00
   -3   21   11     -0.03      0.00
   -2   21   11     -0.12      0.00
   -1   21   11     -0.84      0.00
    0   21   11     -1.54      0.00
  -11   22   11     -2.28      0.00
  -10   22   11     -1.02      0.00
   -9   22   11      2.70      0.00
   -8   22   11      2.86      0.00
   -7   22   11      0.54      0.00
   -6   22   11      3.19      0.00
   -5   22   11     -0.60      0.00
   -4   22   11     -3.36      0.00
   -3   22   11      1.01      0.00
   -2   22   11      2.48      0.00
   -1   22   11     -2.43      0.00
    0   22   11     -2.10      0.00
  -11   23   11     -0.23      0.00
  -10   23   11      0.85      0.00
   -9   23   11     -0.30      0.00
   -8   23   11      0.22      0.00
   -7   23   11      0.50      0.00
   -6   23   11     -2.44      0.00
   -5   23   11     -0.04      0.00
   -4   23   11     -1.90      0.00
   -3   23   11      0.42      0.00
   -2   23   11      1.48      0.00
   -1   23   11     -0.66      0.00
  -12   24   11     -0.79      0.00
  -11   24   11      0.50      0.00
  -10   24   11      3.16      0.00
   -9   24   11     -0.12      0.00
   -8   24   11     -2.72      0.00
   -7   24   11      1.43      0.00
   -6   24   11     -0.47      0.00
   -5   24   11     -0.56      0.00
   -4   24   11      2.31      0.00
   -3   24   11      0.40      0.00
  -12   25   11     -0.64      0.00
  -11   25   11      0.45      0.00
  -10   25   11      0.30      0.00
   -9   25   11      1.66      0.00
   -8   25   11      0.30      0.00
   -7   25   11     -1.71      0.00
   -6   25   11      1.77      0.00
  -13   26   11     -3.54      0.00
  -12   26   11     -0.59      0.00
  -11   26   11      2.93      0.00
  -10   26   11      0.09      0.00
    0    0   12      0.81      0.00
    0    1   12      1.49      0.00
   -1    2   12      1.01      0.00
    0    2   12     -1.21      0.00
   -1    3   12     -3.60      0.00
    0    3   12     -0.59      0.00
   -2    4   12     -0.74      0.00
   -1    4   12      0.22      0.00
    0    4   12     -2.66      0.00
   -2    5   12     -2.44      0.00
   -1    5   12      1.99      0.00
    0    5   12      2.70      0.00
   -3    6   12     -3.94      0.00
   -2    6   12      2.62      0.00
   -1    6   12      1.04      0.00
    0    6   12      3.88      0.00
   -3    7   12     -0.61      0.00
   -2    7   12     -1.28      0.00
   -1    7   12      2.12      0.00
    0    7   12     -2.52      0.00
   -4    8   12     -2.24      0.00
   -3    8   12     -0.94      0.00
   -2    8   12     -6.10      0.00
   -1    8   12     -4.40      0.00
    0    8   12     -2.55      0.00
   -4    9   12     -2.22      0.00
   -3    9   12     -4.86      0.00
   -2    9   12      1.05      0.00
   -1    9   12     -5.90      0.00
    0    9   12    -11.74      0.00
   -5   10   12     -4.38      0.00
   -4   10   12      0.96      0.00
   -3   10   12     -2.72      0.00
   -2   10   12     -2.70      0.00
   -1   10   12      1.86      0.00
    0   10   12     -0.24      0.00
   -5   11   12     -1.64      0.00
   -4   11   12     -3.12      0.00
   -3   11   12      2.39      0.00
   -2   11   12      2.66      0.00
   -1   11   12     -1.80      0.00
    0   11   12      1.16      0.00
   -6   12   12     -2.57      0.00
   -5   12   12      1.17      0.00
   -4   12   12     -1.00      0.00
   -3   12   12     -1.73      0.00
   -2   12   12      2.66      0.00
   -1   12   12      1.20      0.00
    0   12   12      0.64      0.00
   -6   13   12      0.02      0.00
   -5   13   12     -4.80      0.00
   -4   13   12     -4.09      0.00
   -3   13   12      0.46      0.00
   -2   13   12     -1.65      0.00
   -1   13   12      0.27      0.00
    0   13   12     -2.84      0.00
   -7   14   12     -0.24      0.00
   -6   14   12      0.38      0.00
   -5   14   12      0.89      0.00
   -4   14   12      0.57      0.00
   -3   14   12      0.02      0.00
   -2   14   12     -1.18      0.00
   -1   14   12     -0.25      0.00
    0   14   12     -1.38      0.00
   -7   15   12      2.21      0.00
   -6   15   12      1.19      0.00
   -5   15   12      3.95      0.00
   -4   15   12      1.90      0.00
   -3   15   12      1.28      0.00
   -2   15   12      2.31      0.00
   -1   15   12     -0.15      0.00
    0   15   12      1.31      0.00
   -8   16   12     -2.87      0.00
   -7   16   12      0.88      0.00
   -6   16   12      4.27      0.00
   -5   16   12      1.54      0.00
   -4   16   12     -0.55      0.00
   -3   16   12      3.57      0.00
   -2   16   12      2.88      0.00
   -1   16   12     -0.27      0.00
    0   16   12      3.34      0.00
   -8   17   12      1.13      0.00
   -7   17   12     -0.33      0.00
   -6   17   12      1.27      0.00
   -5   17   12      2.19      0.00
   -4   17   12      0.02      0.00
   -3   17   12     -1.20      0.00
   -2   17   12     -0.50      0.00
   -1   17   12      3.82      0.00
    0   17   12      1.89      0.00
   -9   18   12      2.26      0.00
   -8   18   12     -0.09      0.00
   -7   18   12     -2.23      0.00
   -6   18   12     -1.93      0.00
   -5   18   12     -0.52      0.00
   -4   18   12     -0.15      0.00
   -3   18   12      0.09      0.00
   -2   18   12     -2.94      0.00
   -1   18   12      0.74      0.00
    0   18   12      0.98      0.00
   -9   19   12     -1.75      0.00
   -8   19   12     -1.41      0.00
   -7   19   12     -3.84      0.00
   -6   19   12     -4.20      0.00
   -5   19   12      0.54      0.00
   -4   19   12     -0.80      0.00
   -3   19   12      0.31      0.00
   -2   19   12     -1.46      0.00
   -1   19   12     -1.75      0.00
    0   19   12      2.53      0.00
  -10   20   12      3.20      0.00
   -9   20   12     -1.37      0.00
   -8   20   12     -3.25      0.00
   -7   20   12      1.40      0.00
   -6   20   12     -1.35      0.00
   -5   20   12      0.41      0.00
   -4   20   12      0.33      0.00
   -3   20   12     -1.56      0.00
   -2   20   12      1.60      0.00
   -1   20   12     -0.75      0.00
    0   20   12     -2.05      0.00
  -10   21   12     -0.98      0.00
   -9   21   12      1.72      0.00
   -8   21   12      0.50      0.00
   -7   21   12     -0.31      0.00
   -6   21   12      3.21      0.00
   -5   21   12     -1.24      0.00
   -4   21   12      0.59      0.00
   -3   21   12      0.07      0.00
   -2   21   12     -0.29      0.00
   -1   21   12      2.41      0.00
    0   21   12      1.13      0.00
  -11   22   12      1.08      0.00
  -10   22   12     -2.11      0.00
   -9   22   12      0.87      0.00
   -8   22   12      4.73      0.00
   -7   22   12     -0.49      0.00
   -6   22   12      0.94      0.00
   -5   22   12      1.25      0.00
   -4   22   12     -1.47      0.00
   -3   22   12      2.02      0.00
   -2   22   12      1.32      0.00
   -1   22   12      1.51      0.00
  -11   23   12     -0.20      0.00
  -10   23   12      1.84      0.00
   -9   23   12      0.66      0.00
   -8   23   12      1.28      0.00
   -7   23   12      3.05      0.00
   -6   23   12     -0.27      0.00
   -5   23   12      2.47      0.00
   -4   23   12     -1.81      0.00
   -3   23   12     -1.27      0.00
  -12   24   12      0.40      0.00
  -11   24   12     -0.27      0.00
  -10   24   12      0.10      0.00
   -9   24   12      1.25      0.00
   -8   24   12     -0.16      0.00
   -7   24   12      2.56      0.00
   -6   24   12      0.92      0.00
  -12   25   12      0.51      0.00
  -11   25   12      0.05      0.00
  -10   25   12     -0.54      0.00
    0    0   13     -5.72      0.00
    0    1   13      0.37      0.00
   -1    2   13     -0.33      0.00
    0    2   13      3.83      0.00
   -1    3   13     -1.15      0.00
    0    3   13      1.08      0.00
   -2    4   13     -4.79      0.00
   -1    4   13      0.58      0.00
    0    4   13     -1.80      0.00
   -2    5   13     -1.70      0.00
   -1    5   13      0.03      0.00
    0    5   13      7.69      0.00
   -3    6   13     -3.79      0.00
   -2    6   13     -0.74      0.00
   -1    6   13      3.16      0.00
    0    6   13      9.39      0.00
   -3    7   13     -1.50      0.00
   -2    7   13     -0.99      0.00
   -1    7   13     -0.18      0.00
    0    7   13     -1.14      0.00
   -4    8   13     -1.58      0.00
   -3    8   13     -0.40      0.00
   -2    8   13     -5.79      0.00
   -1    8   13     -1.61      0.00
    0    8   13     -4.53      0.00
   -4    9   13      0.73      0.00
   -3    9   13      0.43      0.00
   -2    9   13     -3.97      0.00
   -1    9   13     -4.76      0.00
    0    9   13     -1.62      0.00
   -5   10   13      6.17      0.00
   -4   10   13      2.86      0.00
   -3   10   13     -2.87      0.00
   -2   10   13     -0.13      0.00
   -1   10   13     -1.62      0.00
    0   10   13     -2.75      0.00
   -5   11   13     -0.28      0.00
   -4   11   13     -1.14      0.00
   -3   11   13      2.04      0.00
   -2   11   13      2.40      0.00
   -1   11   13     -1.79      0.00
    0   11   13     -2.03      0.00
   -6   12   13     -3.86      0.00
   -5   12   13     -5.36      0.00
   -4   12   13     -4.69      0.00
   -3   12   13      1.30      0.00
   -2   12   13     -2.41      0.00
   -1   12   13      0.17      0.00
    0   12   13      6.05      0.00
   -6   13   13     -0.76      0.00
   -5   13   13     -3.45      0.00
   -4   13   13     -1.48      0.00
   -3   13   13     -0.92      0.00
   -2   13   13      2.28      0.00
   -1   13   13      0.05      0.00
    0   13   13     -3.71      0.00
   -7   14   13      0.59      0.00
   -6   14   13     -0.25      0.00
   -5   14   13     -1.12      0.00
   -4   14   13      2.56      0.00
   -3   14   13     -1.99      0.00
   -2   14   13     -5.71      0.00
   -1   14   13      0.20      0.00
    0   14   13     -2.08      0.00
   -7   15   13      1.87      0.00
   -6   15   13     -0.69      0.00
   -5   15   13     -0.37      0.00
   -4   15   13      0.20      0.00
   -3   15   13      0.01      0.00
   -2   15   13     -1.23      0.00
   -1   15   13     -2.47      0.00
    0   15   13      3.66      0.00
   -8   16   13     -1.46      0.00
   -7   16   13      0.33      0.00
   -6   16   13      1.29      0.00
   -5   16   13      1.98      0.00
   -4   16   13     -0.47      0.00
   -3   16   13     -3.48      0.00
   -2   16   13      5.00      0.00
   -1   16   13      1.10      0.00
    0   16   13     -2.50      0.00
   -8   17   13     -0.01      0.00
   -7   17   13     -3.26      0.00
   -6   17   13      3.04      0.00
   -5   17   13      0.74      0.00
   -4   17   13     -1.17      0.00
   -3   17   13     -1.93      0.00
   -2   17   13     -0.37      0.00
   -1   17   13      4.47      0.00
    0   17   13      0.67      0.00
   -9   18   13      1.96      0.00
   -8   18   13      1.05      0.00
   -7   18   13     -0.59      0.00
   -6   18   13      1.43      0.00
   -5   18   13     -1.47      0.00
   -4   18   13     -2.39      0.00
   -3   18   13      2.53      0.00
   -2   18   13     -0.70      0.00
   -1   18   13     -1.02      0.00
    0   18   13      3.02      0.00
   -9   19   13      4.39      0.00
   -8   19   13      1.58      0.00
   -7   19   13      3.68      0.00
   -6   19   13     -4.27      0.00
   -5   19   13     -1.00      0.00
   -4   19   13      3.24      0.00
   -3   19   13      0.18      0.00
   -2   19   13      0.52      0.00
   -1   19   13     -1.67      0.00
    0   19   13     -0.08      0.00
  -10   20   13      5.82      0.00
   -9   20   13      2.03      0.00
   -8   20   13     -1.82      0.00
   -7   20   13      1.27      0.00
   -6   20   13      0.70      0.00
   -5   20   13     -1.21      0.00
   -4   20   13      4.77      0.00
   -3   20   13      1.53      0.00
   -2   20   13      0.16      0.00
   -1   20   13      1.47      0.00
    0   20   13     -1.07      0.00
  -10   21   13      0.63      0.00
   -9   21   13      0.81      0.00
   -8   21   13      1.54      0.00
   -7   21   13     -0.65      0.00
   -6   21   13      4.02      0.00
   -5   21   13      1.29      0.00
   -4   21   13      0.78      0.00
   -3   21   13      2.19      0.00
   -2   21   13     -1.11      0.00
   -1   21   13      0.07      0.00
  -11   22   13     -1.10      0.00
  -10   22   13     -0.48      0.00
   -9   22   13      0.41      0.00
   -8   22   13      3.30      0.00
   -7   22   13     -0.02      0.00
   -6   22   13     -0.69      0.00
   -5   22   13      0.99      0.00
   -4   22   13     -1.38      0.00
   -3   22   13     -0.60      0.00
  -11   23   13     -1.63      0.00
  -10   23   13      0.10      0.00
   -9   23   13      0.60      0.00
   -8   23   13     -1.09      0.00
   -7   23   13      0.84      0.00
   -6   23   13     -2.96      0.00
    0    0   14     -2.61      0.00
    0    1   14      3.48      0.00
   -1    2   14     -3.53      0.00
    0    2   14     -1.95      0.00
   -1    3   14     -4.59      0.00
    0    3   14     -5.20      0.00
   -2    4   14      5.74      0.00
   -1    4   14      2.16      0.00
    0    4   14     -4.90      0.00
   -2    5   14      7.95      0.00
   -1    5   14      1.59      0.00
    0    5   14     -4.05      0.00
   -3    6   14      4.84      0.00
   -2    6   14      3.84      0.00
   -1    6   14     -4.33      0.00
    0    6   14     -0.83      0.00
   -3    7   14      2.35      0.00
   -2    7   14     -4.05      0.00
   -1    7   14     -3.91      0.00
    0    7   14     -2.36      0.00
   -4    8   14      5.44      0.00
   -3    8   14     -1.03      0.00
   -2    8   14     -6.88      0.00
   -1    8   14      2.29      0.00
    0    8   14      3.39      0.00
   -4    9   14      2.89      0.00
   -3    9   14     -4.60      0.00
   -2    9   14      0.72      0.00
   -1    9   14      0.88      0.00
    0    9   14     -1.69      0.00
   -5   10   14      2.25      0.00
   -4   10   14     -1.61      0.00
   -3   10   14     -5.80      0.00
   -2   10   14      2.07      0.00
   -1   10   14      2.66      0.00
    0   10   14      0.31      0.00
   -5   11   14     -5.12      0.00
   -4   11   14     -0.24      0.00
   -3   11   14      5.17      0.00
   -2   11   14      0.68      0.00
   -1   11   14     -7.03      0.00
    0   11   14     -1.55      0.00
   -6   12   14      4.84      0.00
   -5   12   14      1.78      0.00
   -4   12   14      0.28      0.00
   -3   12   14      0.61      0.00
   -2   12   14      0.30      0.00
   -1   12   14      2.95      0.00
    0   12   14     -0.88      0.00
   -6   13   14      1.25      0.00
   -5   13   14      2.30      0.00
   -4   13   14     -0.89      0.00
   -3   13   14      0.82      0.00
   -2   13   14     -1.22      0.00
   -1   13   14      3.04      0.00
    0   13   14      4.07      0.00
   -7   14   14      5.60      0.00
   -6   14   14     -1.99      0.00
   -5   14   14     -2.75      0.00
   -4   14   14      3.86      0.00
   -3   14   14      1.31      0.00
   -2   14   14      0.23      0.00
   -1   14   14     -0.53      0.00
    0   14   14      2.14      0.00
   -7   15   14      1.21      0.00
   -6   15   14     -0.10      0.00
   -5   15   14      0.33      0.00
   -4   15   14      1.79      0.00
   -3   15   14      0.97      0.00
   -2   15   14      1.96      0.00
   -1   15   14      0.32      0.00
    0   15   14     -2.39      0.00
   -8   16   14      3.19      0.00
   -7   16   14     -0.79      0.00
   -6   16   14      0.59      0.00
   -5   16   14      4.31      0.00
   -4   16   14     -0.19      0.00
   -3   16   14      1.65      0.00
   -2   16   14      2.79      0.00
   -1   16   14      0.70      0.00
    0   16   14      0.48      0.00
   -8   17   14      0.65      0.00
   -7   17   14     -0.54      0.00
   -6   17   14      1.39      0.00
   -5   17   14      1.68      0.00
   -4   17   14     -0.77      0.00
   -3   17   14      0.07      0.00
   -2   17   14      1.83      0.00
   -1   17   14      2.63      0.00
    0   17   14      2.00      0.00
   -9   18   14      0.91      0.00
   -8   18   14      0.50      0.00
   -7   18   14     -0.46      0.00
   -6   18   14     -1.06      0.00
   -5   18   14     -1.01      0.00
   -4   18   14     -1.73      0.00
   -3   18   14      0.46      0.00
   -2   18   14      0.93      0.00
   -1   18   14      0.09      0.00
    0   18   14     -1.00      0.00
   -9   19   14     -0.62      0.00
   -8   19   14      3.23      0.00
   -7   19   14      3.10      0.00
   -6   19   14     -2.56      0.00
   -5   19   14     -2.14      0.00
   -4   19   14      0.93      0.00
   -3   19   14      1.05      0.00
   -2   19   14     -1.83      0.00
   -1   19   14     -2.26      0.00
    0   19   14     -0.27      0.00
  -10   20   14     -0.90      0.00
   -9   20   14      1.33      0.00
   -8   20   14      2.82      0.00
   -7   20   14      3.62      0.00
   -6   20   14      1.64      0.00
   -5   20   14     -1.08      0.00
   -4   20   14     -1.29      0.00
   -3   20   14     -1.18      0.00
   -2   20   14     -2.22      0.00
  -10   21   14     -1.83      0.00
   -9   21   14     -0.57      0.00
   -8   21   14      3.26      0.00
   -7   21   14      0.07      0.00
   -6   21   14      1.14      0.00
   -5   21   14      0.33      0.00
   -4   21   14     -2.54      0.00
  -11   22   14     -2.90      0.00
  -10   22   14     -1.45      0.00
   -9   22   14      0.03      0.00
   -8   22   14     -0.26      0.00
    0    0   15      2.62      0.00
    0    1   15      2.26      0.00
   -1    2   15     -3.04      0.00
    0    2   15     -1.27      0.00
   -1    3   15     -0.99      0.00
    0    3   15      5.87      0.00
   -2    4   15      5.08      0.00
   -1    4   15      7.85      0.00
    0    4   15      4.15      0.00
   -2    5   15      3.65      0.00
   -1    5   15      2.24      0.00
    0    5   15      0.83      0.00
   -3    6   15     -4.52      0.00
   -2    6   15     -3.63      0.00
   -1    6   15      1.70      0.00
    0    6   15      5.18      0.00
   -3    7   15     -2.21      0.00
   -2    7   15      0.72      0.00
   -1    7   15     -1.46      0.00
    0    7   15     -1.37      0.00
   -4    8   15     -4.51      0.00
   -3    8   15      0.02      0.00
   -2    8   15      4.91      0.00
   -1    8   15     -1.72      0.00
    0    8   15    -18.75      0.00
   -4    9   15     -0.78      0.00
   -3    9   15      3.20      0.00
   -2    9   15     -1.02      0.00
   -1    9   15     -5.55      0.00
    0    9   15     -5.76      0.00
   -5   10   15      1.84      0.00
   -4   10   15      0.13      0.00
   -3   10   15      0.05      0.00
   -2   10   15      1.48      0.00
   -1   10   15     -1.78      0.00
    0   10   15      1.62      0.00
   -5   11   15      1.42      0.00
   -4   11   15     -1.29      0.00
   -3   11   15      2.39      0.00
   -2   11   15      3.57      0.00
   -1   11   15     -2.58      0.00
    0   11   15     -3.04      0.00
   -6   12   15      6.91      0.00
   -5   12   15     -1.40      0.00
   -4   12   15     -8.64      0.00
   -3   12   15      1.00      0.00
   -2   12   15      0.30      0.00
   -1   12   15      1.55      0.00
    0   12   15     -0.74      0.00
   -6   13   15     -0.53      0.00
   -5   13   15     -4.71      0.00
   -4   13   15     -1.65      0.00
   -3   13   15     -0.33      0.00
   -2   13   15     -0.16      0.00
   -1   13   15      0.19      0.00
    0   13   15      0.22      0.00
   -7   14   15      3.52      0.00
   -6   14   15     -2.06      0.00
   -5   14   15     -4.09      0.00
   -4   14   15      3.76      0.00
   -3   14   15     -0.46      0.00
   -2   14   15     -1.41      0.00
   -1   14   15     -0.93      0.00
    0   14   15     -1.26      0.00
   -7   15   15      1.31      0.00
   -6   15   15      3.04      0.00
   -5   15   15      0.14      0.00
   -4   15   15     -0.86      0.00
   -3   15   15      1.66      0.00
   -2   15   15      0.58      0.00
   -1   15   15     -1.03      0.00
    0   15   15     -1.17      0.00
   -7   16   15      1.78      0.00
   -6   16   15      0.60      0.00
   -5   16   15      1.89      0.00
   -4   16   15     -1.16      0.00
   -3   16   15     -0.54      0.00
   -2   16   15      0.52      0.00
   -1   16   15     -0.21      0.00
    0   16   15      1.83      0.00
   -8   17   15      0.97      0.00
   -7   17   15     -0.35      0.00
   -6   17   15      0.19      0.00
   -5   17   15      1.17      0.00
   -4   17   15      0.65      0.00
   -3   17   15     -1.36      0.00
   -2   17   15     -0.70      0.00
   -1   17   15      3.21      0.00
    0   17   15      6.02      0.00
   -9   18   15      0.06      0.00
   -8   18   15     -1.50      0.00
   -7   18   15     -3.30      0.00
   -6   18   15      0.04      0.00
   -5   18   15      0.55      0.00
   -4   18   15      0.06      0.00
   -3   18   15     -0.44      0.00
   -2   18   15     -1.36      0.00
   -1   18   15      4.47      0.00
   -9   19   15     -1.75      0.00
   -8   19   15     -3.67      0.00
   -7   19   15     -0.42      0.00
   -6   19   15     -3.39      0.00
   -5   19   15     -3.02      0.00
   -4   19   15     -0.01      0.00
   -3   19   15     -0.91      0.00
  -10   20   15      1.20      0.00
   -9   20   15      0.03      0.00
   -8   20   15     -4.11      0.00
   -7   20   15     -2.01      0.00
   -6   20   15     -0.33      0.00
    0    0   16      3.26      0.00
    0    1   16      4.93      0.00
   -1    2   16     -2.29      0.00
    0    2   16     -1.68      0.00
   -1    3   16     -6.43      0.00
    0    3   16     -3.18      0.00
   -2    4   16      0.87      0.00
   -1    4   16     -0.97      0.00
    0    4   16     -2.21      0.00
   -2    5   16      3.22      0.00
   -1    5   16      4.12      0.00
    0    5   16      3.72      0.00
   -3    6   16      1.94      0.00
   -2    6   16      2.83      0.00
   -1    6   16      3.34      0.00
    0    6   16      7.09      0.00
   -3    7   16      1.91      0.00
   -2    7   16     -0.40      0.00
   -1    7   16      0.19      0.00
    0    7   16      0.77      0.00
   -4    8   16      0.22      0.00
   -3    8   16     -0.60      0.00
   -2    8   16     -2.42      0.00
   -1    8   16      0.32      0.00
    0    8   16     -2.40      0.00
   -4    9   16      1.56      0.00
   -3    9   16     -6.69      0.00
   -2    9   16     -2.39      0.00
   -1    9   16     -3.02      0.00
    0    9   16     -3.02      0.00
   -5   10   16      0.31      0.00
   -4   10   16      0.60      0.00
   -3   10   16     -3.69      0.00
   -2   10   16     -0.48      0.00
   -1   10   16      2.02      0.00
    0   10   16      4.72      0.00
   -5   11   16      1.39      0.00
   -4   11   16     -0.15      0.00
   -3   11   16      5.53      0.00
   -2   11   16     -2.01      0.00
   -1   11   16     -2.00      0.00
   -6   12   16      3.76      0.00
   -5   12   16      4.30      0.00
   -4   12   16     -1.51      0.00
   -3   12   16     -4.42      0.00
   -2   12   16      0.98      0.00
   -1   12   16      4.05      0.00
    0   12   16     -1.64      0.00
   -6   13   16     -0.62      0.00
   -5   13   16      0.93      0.00
   -4   13   16      3.10      0.00
   -3   13   16     -2.52      0.00
   -2   13   16     -3.04      0.00
   -1   13   16      2.21      0.00
    0   13   16     -0.46      0.00
   -7   14   16     -1.26      0.00
   -6   14   16     -1.76      0.00
   -5   14   16     -3.71      0.00
   -4   14   16      3.23      0.00
   -3   14   16      3.10      0.00
   -2   14   16     -1.71      0.00
   -1   14   16     -2.73      0.00
    0   14   16      1.53      0.00
   -7   15   16     -2.14      0.00
   -6   15   16     -1.79      0.00
   -5   15   16      1.17      0.00
   -4   15   16      0.18      0.00
   -3   15   16     -0.03      0.00
   -2   15   16      1.59      0.00
   -1   15   16     -1.06      0.00
    0   15   16     -2.22      0.00
   -8   16   16      0.53      0.00
   -7   16   16     -1.13      0.00
   -6   16   16     -1.09      0.00
   -5   16   16      4.21      0.00
   -4   16   16     -0.24      0.00
   -3   16   16     -2.18      0.00
   -2   16   16      1.91      0.00
   -1   16   16     -0.45      0.00
    0   16   16     -2.63      0.00
   -8   17   16     -0.25      0.00
   -7   17   16     -1.49      0.00
   -6   17   16      0.14      0.00
   -5   17   16      1.35      0.00
   -4   17   16      0.47      0.00
   -3   17   16     -1.19      0.00
   -2   17   16     -0.14      0.00
   -9   18   16     -0.46      0.00
   -8   18   16     -0.22      0.00
   -7   18   16     -0.91      0.00
   -6   18   16      1.57      0.00
   -5   18   16     -0.09      0.00
    0    0   17      0.97      0.00
    0    1   17      1.24      0.00
   -1    2   17      2.93      0.00
    0    2   17      1.00      0.00
   -1    3   17      0.35      0.00
    0    3   17      3.80      0.00
   -2    4   17      2.46      0.00
   -1    4   17      2.10      0.00
    0    4   17      1.99      0.00
   -1    5   17      3.14      0.00
    0    5   17      4.03      0.00
   -3    6   17     -0.67      0.00
   -2    6   17     -1.87      0.00
   -1    6   17      1.48      0.00
    0    6   17      5.32      0.00
   -3    7   17     -0.13      0.00
   -2    7   17     -2.11      0.00
   -1    7   17     -1.83      0.00
    0    7   17     -2.07      0.00
   -4    8   17      0.54      0.00
   -3    8   17     -1.21      0.00
   -2    8   17     -1.68      0.00
   -1    8   17     -1.62      0.00
    0    8   17     -9.22      0.00
   -4    9   17      4.78      0.00
   -3    9   17     -0.29      0.00
   -2    9   17     -2.33      0.00
   -1    9   17     -2.93      0.00
    0    9   17      1.20      0.00
   -5   10   17      0.64      0.00
   -4   10   17      1.76      0.00
   -3   10   17      0.85      0.00
   -2   10   17      0.94      0.00
   -1   10   17     -1.78      0.00
    0   10   17     -3.39      0.00
   -5   11   17     -0.67      0.00
   -4   11   17     -1.85      0.00
   -3   11   17      2.60      0.00
   -2   11   17     -1.09      0.00
   -1   11   17     -2.81      0.00
    0   11   17     -4.28      0.00
   -6   12   17     -1.19      0.00
   -5   12   17      0.20      0.00
   -4   12   17     -2.39      0.00
   -3   12   17      2.04      0.00
   -2   12   17      0.46      0.00
   -1   12   17     -0.09      0.00
    0   12   17      1.52      0.00
   -6   13   17     -2.32      0.00
   -5   13   17     -0.65      0.00
   -4   13   17      5.05      0.00
   -3   13   17     -0.65      0.00
   -2   13   17     -1.70      0.00
   -1   13   17      1.38      0.00
    0   13   17      2.40      0.00
   -7   14   17      2.76      0.00
   -6   14   17      2.04      0.00
   -5   14   17      0.82      0.00
   -4   14   17      3.34      0.00
   -3   14   17     -0.23      0.00
   -2   14   17     -2.00      0.00
   -1   14   17      0.08      0.00
    0   14   17      0.86      0.00
   -7   15   17      2.45      0.00
   -6   15   17      2.15      0.00
   -5   15   17      1.23      0.00
   -4   15   17     -2.17      0.00
   -3   15   17      0.26      0.00
   -8   16   17     -0.25      0.00
   -7   16   17      0.26      0.00
   -6   16   17     -1.15      0.00
    0    0   18      1.16      0.00
    0    1   18      1.24      0.00
   -1    2   18      1.11      0.00
    0    2   18      1.33      0.00
   -1    3   18      2.90      0.00
    0    3   18     -0.23      0.00
   -2    4   18      5.68      0.00
   -1    4   18      2.96      0.00
    0    4   18      0.37      0.00
   -2    5   18      5.92      0.00
   -1    5   18      2.78      0.00
    0    5   18      5.26      0.00
   -3    6   18      4.95      0.00
   -2    6   18      3.87      0.00
   -1    6   18      0.91      0.00
    0    6   18      0.36      0.00
   -3    7   18      1.60      0.00
   -2    7   18     -0.63      0.00
   -1    7   18      1.75      0.00
    0    7   18      0.27      0.00
   -4    8   18     -0.09      0.00
   -3    8   18      0.12      0.00
   -2    8   18     -0.04      0.00
   -1    8   18      2.07      0.00
    0    8   18      2.87      0.00
   -4    9   18      3.67      0.00
   -3    9   18     -2.41      0.00
   -2    9   18     -0.17      0.00
   -1    9   18      0.06      0.00
    0    9   18      3.22      0.00
   -5   10   18      1.27      0.00
   -4   10   18      1.16      0.00
   -3   10   18      0.69      0.00
   -2   10   18      1.46      0.00
   -1   10   18     -0.68      0.00
    0   10   18     -0.49      0.00
   -5   11   18      0.48      0.00
   -4   11   18     -1.44      0.00
   -3   11   18      2.23      0.00
   -2   11   18     -0.69      0.00
   -1   11   18      0.47      0.00
    0   11   18      0.38      0.00
   -6   12   18     -0.60      0.00
   -5   12   18     -0.73      0.00
   -4   12   18     -0.86      0.00
   -3   12   18     -0.96      0.00
   -2   12   18     -0.08      0.00
   -6   13   18     -0.48      0.00
   -5   13   18      1.96      0.00
   -4   13   18      4.26      0.00
    0    0   19     -0.80      0.00
    0    1   19     -1.96      0.00
   -1    2   19      1.55      0.00
    0    2   19      1.33      0.00
   -1    3   19      1.29      0.00
    0    3   19      2.82      0.00
   -2    4   19     -3.44      0.00
   -1    4   19     -1.89      0.00
    0    4   19      0.39      0.00
   -2    5   19     -7.52      0.00
   -1    5   19     -2.14      0.00
    0    5   19      4.05      0.00
   -3    6   19     -2.21      0.00
   -2    6   19     -0.54      0.00
   -1    6   19      1.16      0.00
    0    6   19      1.77      0.00
   -3    7   19      2.53      0.00
   -2    7   19      1.29      0.00
   -1    7   19      5.22      0.00
    0    7   19     -0.68      0.00
   -4    8   19     -0.36      0.00
   -3    8   19      2.20      0.00
   -2    8   19      3.44      0.00
   -1    8   19     -0.22      0.00
    0    8   19      0.39      0.00
   -4    9   19     -1.97      0.00
   -3    9   19     -2.12      0.00
    0    1    0    128.52      0.00
   -1   28    0     -1.50      0.00
   -3   29    0      0.89      0.00
   -6   30    0     -0.13      0.00
   -9   31    0      0.74      0.00
    0    0    1     33.61      0.00
    0    1    1    -55.00      0.00
   -2    4    1     24.65      0.00
   -1   28    1      0.17      0.00
   -6   30    1      0.38      0.00
  -10   31    1     -0.03      0.00
   -6   30    2     -0.31      0.00
  -10   31    2      0.57      0.00
   -4   29    3     -0.24      0.00
   -7   30    3     -0.56      0.00
  -11   31    3     -0.63      0.00
    0   27    4      0.18      0.00
   -2   28    4     -0.09      0.00
   -8   30    4     -3.13      0.00
  -15   31    4     -1.19      0.00
  -14   31    4      0.73      0.00
  -13   31    4     -0.03      0.00
  -12   31    4     -0.01      0.00
   -3   28    5      2.29      0.00
   -9   30    5      0.72      0.00
   -4   28    6     -0.16      0.00
   -7   29    6      1.92      0.00
  -12   30    6      1.91      0.00
  -11   30    6     -1.14      0.00
   -5   28    7     -0.13      0.00
   -9   29    7     -0.95      0.00
   -4   27    8     -0.23      0.00
   -7   28    8     -0.38      0.00
  -14   29    8      1.66      0.00
  -13   29    8     -0.76      0.00
  -12   29    8      0.82      0.00
   -1   25    9     -0.76      0.00
   -3   26    9     -0.78      0.00
   -6   27    9      0.26      0.00
  -11   28    9      0.29      0.00
  -10   28    9      0.62      0.00
   -5   26   10     -1.84      0.00
   -9   27   10      0.40      0.00
    0   23   11     -3.42      0.00
   -2   24   11     -1.02      0.00
   -5   25   11     -1.50      0.00
   -9   26   11     -1.73      0.00
   -8   26   11      2.11      0.00
    0   22   12      2.56      0.00
   -2   23   12      3.42      0.00
   -5   24   12     -0.93      0.00
   -9   25   12      1.16      0.00
   -8   25   12      2.26      0.00
    0   21   13      0.17      0.00
   -5   23   13     -0.88      0.00
  -12   24   13      0.39      0.00
  -11   24   13     -0.88      0.00
  -10   24   13      0.64      0.00
   -9   24   13      1.51      0.00
   -1   20   14     -1.53      0.00
   -3   21   14     -1.67      0.00
   -7   22   14     -1.11      0.00
   -6   22   14     -1.39      0.00
   -8   16   15      2.77      0.00
    0   18   15      6.11      0.00
   -2   19   15     -1.29      0.00
   -5   20   15     -3.01      0.00
  -10   21   15      1.21      0.00
   -9   21   15     -1.58      0.00
    0   11   16      9.83      0.00
   -1   17   16      0.19      0.00
   -4   18   16     -0.77      0.00
   -9   19   16      0.92      0.00
   -8   19   16      1.56      0.00
   -2    5   17     -1.35      0.00
   -2   15   17      0.75      0.00
   -1   15   17      0.50      0.00
   -5   16   17     -0.04      0.00
   -4   16   17     -2.08      0.00
   -1   12   18     -0.06      0.00
    0   12   18     -0.65      0.00
   -3   13   18     -0.95      0.00
   -2   13   18     -0.77      0.00
   -7   14   18      0.35      0.00
   -2    9   19      2.12      0.00
   -1    9   19     -0.90      0.00
   -5   10   19     -6.59      0.00
   -4   10   19     -2.52      0.00
    0    0    0      0.00      0.00
# SQUEEZE RESULTS (Version =  71116)
# Note: Data are Listed for all Voids in the P1 Unit Cell
# i.e. Centre of Gravity, Solvent Accessible Volume,
# Recovered number of Electrons in the Void and
# Details about the Squeezed Material
loop_
  _platon_squeeze_void_nr
  _platon_squeeze_void_average_x
  _platon_squeeze_void_average_y
  _platon_squeeze_void_average_z
  _platon_squeeze_void_volume
  _platon_squeeze_void_count_electrons
  _platon_squeeze_void_content
   1 -0.024 -0.019 -0.009      5232       938 ' '
   2  0.000  0.500  0.500        27        -1 ' '
   3  0.500  0.500  0.500        27        -1 ' '
   4  0.500  1.000  0.500        27        -1 ' '
# Missing Reflections Below sin(th)/lambda = 0.25
loop_
  _platon_missing_refln_index_h
  _platon_missing_refln_index_k
  _platon_missing_refln_index_l
  _platon_missing_refln_theta
    0    1    0     1.927
    0    0    1     2.660
    0    1    1     3.285
   -2    4    1     7.203
_platon_squeeze_void_probe_radius                  1.20
_platon_squeeze_details
)
TITL CS2_409   P 6/m m m    R = 0.21
CELL   26.4725   26.4725   16.6116     90.00     90.00    120.00
SPGR P6/mmm
# Solvent Accessible Volume =      5300
# Electrons Found in S.A.V. =       930
# Note: Atoms in Void as Cxxx and Qxxx all others
C101 0.668 0.336 0.492 !       3.06 eA-3
C102 0.668 0.336 0.680 !       1.42 eA-3
C103 0.330 0.664 0.141 !       1.37 eA-3
C104 0.359 0.633 0.503 !       1.36 eA-3
C105 0.783 0.219-0.004 !       1.30 eA-3
C106 0.533 0.289-0.011 !       1.26 eA-3
C107 0.829 0.172-0.002 !       1.20 eA-3
C108 0.334 0.664 0.395 !       1.12 eA-3
C109 0.243 0.753 0.032 !       1.06 eA-3
C110 0.860 0.719 0.499 !       1.03 eA-3
Q111 0.670 0.672-0.004 !       1.02 eA-3
C112 0.667 0.330 0.230 !       1.01 eA-3
C113 1.000 1.000 0.000 !       0.99 eA-3
C114 0.899 0.703 0.503 !       0.99 eA-3
C115 0.821 0.125 0.499 !       0.95 eA-3
Q116 0.483 0.453 0.002 !       0.94 eA-3
C117 0.828 0.660 0.062 !       0.93 eA-3
C118 0.467 0.734 0.079 !       0.92 eA-3
C119 0.594 0.797 0.047 !       0.90 eA-3
C120 0.596 0.300 0.875 !       0.90 eA-3
C121 0.741 0.745 0.358 !       0.89 eA-3
Q122 0.438 0.562-0.001 !       0.88 eA-3
C123 0.186 0.375 0.006 !       0.86 eA-3
C124 0.711 0.425 0.107 !       0.86 eA-3
Q125 0.678 0.734 0.003 !       0.84 eA-3
C126 0.874 0.875-0.002 !       0.84 eA-3
C127 0.243 0.125 0.499 !       0.84 eA-3
Q128 0.607 0.023 0.005 !       0.81 eA-3
Q129 0.968 0.484 0.000 !       0.80 eA-3
Q130 0.391 0.781 0.004 !       0.80 eA-3
Q131 0.805 0.805 0.002 !       0.79 eA-3
C132 1.000 0.748 0.702 !       0.78 eA-3
Q133 0.945 0.467 0.335 !       0.74 eA-3
Q134 0.336 0.797-0.006 !       0.73 eA-3
C135 0.672 0.338 0.078 !       0.70 eA-3
C136 1.000 1.004 0.109 !       0.70 eA-3
C137 0.162 0.292 0.452 !       0.69 eA-3
Q138 1.000 0.500 0.656 !       0.69 eA-3
C139 0.712 1.001 0.404 !       0.68 eA-3
Q140 0.343 0.959 0.068 !       0.66 eA-3
Q141 0.759 0.380 0.049 !       0.65 eA-3
C142 0.242 0.246 0.219 !       0.65 eA-3
C143 0.758 0.754 0.781 !       0.65 eA-3
C144 0.702 1.000 0.533 !       0.65 eA-3
Q145 0.007 0.809 0.077 !       0.64 eA-3
C146 0.999 0.946 0.067 !       0.64 eA-3
C147 0.678 0.320 0.019 !       0.62 eA-3
C148 0.773 0.889 0.561 !       0.61 eA-3
C149 0.158 0.834 0.878 !       0.60 eA-3
C150 1.000 1.003 0.781 !       0.59 eA-3
C151 0.875 0.805 0.500 !       0.58 eA-3
Q152 0.377 0.556 0.970 !       0.58 eA-3
C153 0.742 0.871 0.231 !       0.57 eA-3
C154 0.983 0.730 0.261 !       0.56 eA-3
C155 0.117 0.117 0.921 !       0.56 eA-3
C156 1.000 1.001 0.172 !       0.55 eA-3
Q157 0.789 0.787 0.954 !       0.54 eA-3
Q158 0.719 0.359 0.000 !       0.53 eA-3
Q159 0.509 0.102 0.003 !       0.53 eA-3
C160 0.796 0.993 0.174 !       0.52 eA-3
C161 0.268 0.131 0.390 !       0.51 eA-3
C162 0.188 0.999 0.749 !       0.51 eA-3
C163 0.008 0.055-0.002 !       0.51 eA-3
C164 0.027 0.320 0.506 !       0.50 eA-3
C165 0.030 0.969 0.003 !       0.50 eA-3
)
;
_shelx_fab_checksum              65457
loop_
_space_group_symop_operation_xyz
'x, y, z'
'-y, x-y, z'
'-x+y, -x, z'
'-x, -y, z'
'y, -x+y, z'
'x-y, x, z'
'y, x, -z'
'x-y, -y, -z'
'-x, -x+y, -z'
'-y, -x, -z'
'-x+y, y, -z'
'x, x-y, -z'
'-x, -y, -z'
'y, -x+y, -z'
'x-y, x, -z'
'x, y, -z'
'-y, x-y, -z'
'-x+y, -x, -z'
'-y, -x, z'
'-x+y, y, z'
'x, x-y, z'
'y, x, z'
'x-y, -y, z'
'-x, -x+y, z'
loop_
_atom_site_label
_atom_site_type_symbol
_atom_site_fract_x
_atom_site_fract_y
_atom_site_fract_z
_atom_site_U_iso_or_equiv
_atom_site_adp_type
_atom_site_occupancy
_atom_site_site_symmetry_order
_atom_site_calc_flag
_atom_site_refinement_flags_posn
_atom_site_refinement_flags_adp
_atom_site_refinement_flags_occupancy
Y1 Y 0.54121(3) 0.45879(3) 0.0000 0.1251(8) Uani 1 4 d S T P
Y2 Y 0.63509(7) 0.63509(7) 0.0000 0.1231(7) Uani 1 4 d S T P
C1 C 0.7105(6) 0.5258(8) 0.5000 0.134(5) Uani 1 2 d S T P
C2 C 0.7366(4) 0.5280(5) 0.4277(5) 0.123(3) Uani 1 1 d . . .
C3 C 0.6538(7) 0.5265(11) 0.5000 0.176(8) Uani 1 2 d S T P
H3A H 0.6408 0.5248 0.5544 0.265 Uiso 0.5 1 calc R U P
H3B H 0.6596 0.5618 0.4750 0.265 Uiso 0.5 1 calc R U P
H3C H 0.6248 0.4935 0.4706 0.265 Uiso 0.5 1 calc R U P
C4 C 0.7121(4) 0.5317(6) 0.3519(5) 0.126(3) Uani 1 1 d . . .
C5 C 0.6788(6) 0.4845(7) 0.3032(8) 0.179(5) Uani 1 1 d . . .
H5 H 0.6727 0.4481 0.3183 0.215 Uiso 1 1 calc R U .
C6 C 0.6546(7) 0.4893(11) 0.2343(10) 0.204(7) Uani 1 1 d . . .
H6 H 0.6285 0.4558 0.2064 0.245 Uiso 1 1 calc R U .
C7 C 0.6675(7) 0.5411(10) 0.2061(7) 0.179(6) Uani 1 1 d . . .
C8 C 0.7024(7) 0.5915(8) 0.2460(8) 0.219(8) Uani 1 1 d . . .
H8 H 0.7104 0.6278 0.2271 0.263 Uiso 1 1 calc R U .
C9 C 0.7262(8) 0.5838(8) 0.3205(8) 0.213(7) Uani 1 1 d . . .
H9 H 0.7529 0.6170 0.3483 0.256 Uiso 1 1 calc R U .
C10 C 0.6457(8) 0.5535(12) 0.1275(7) 0.224(10) Uani 1 1 d . . .
O1 O 0.6113(6) 0.5005(6) 0.0894(7) 0.227(5) Uani 1 1 d . . .
O2 O 0.6549(7) 0.5840(8) 0.0914(9) 0.277(8) Uani 1 1 d . U .
O3 O 0.5491(3) 0.5491(3) 0.0000 0.087(2) Uani 1 4 d S TU P
O4 O 0.5915(3) 0.4085(3) 0.0000 0.300(12) Uani 1 4 d S TU P
O5 O 0.7008(17) 0.7354(15) 0.0000 0.246(15) Uani 0.5 2 d S TU P
N1 N 0.5000 0.5000 0.2724(9) 0.128(5) Uani 1 4 d DS T P
O6 O 0.5226(6) 0.4774(6) 0.1549(16) 0.188(9) Uani 0.5 2 d S TU P
C11 C 0.5000 0.5000 0.1922(10) 0.180(9) Uani 1 4 d DS TU P
H11 H 0.4824 0.5176 0.1646 0.216 Uiso 0.5 2 calc R U P
C12 C 0.5468(9) 0.5468(9) 0.318(2) 0.34(2) Uani 1 2 d DS TU P
H12A H 0.5393 0.5393 0.3745 0.516 Uiso 1 2 calc R U P
H12B H 0.5831 0.5489 0.3048 0.516 Uiso 0.5 1 calc R U P
H12C H 0.5489 0.5831 0.3048 0.516 Uiso 0.5 1 calc R U P
loop_
_atom_site_aniso_label
_atom_site_aniso_U_11
_atom_site_aniso_U_22
_atom_site_aniso_U_33
_atom_site_aniso_U_23
_atom_site_aniso_U_13
_atom_site_aniso_U_12
Y1 0.1534(13) 0.1534(13) 0.1262(13) 0.000 0.000 0.1199(13)
Y2 0.1267(10) 0.1267(10) 0.1173(13) 0.000 0.000 0.0642(10)
C1 0.097(7) 0.207(15) 0.095(7) 0.000 0.000 0.074(9)
C2 0.110(5) 0.198(9) 0.073(4) -0.007(5) -0.007(4) 0.087(6)
C3 0.133(11) 0.32(3) 0.106(9) 0.000 0.000 0.140(15)
C4 0.123(6) 0.183(10) 0.082(5) -0.009(6) -0.015(5) 0.084(7)
C5 0.151(10) 0.225(14) 0.157(10) -0.049(10) -0.055(9) 0.091(10)
C6 0.158(12) 0.25(2) 0.175(14) -0.046(14) -0.071(11) 0.083(14)
C7 0.160(11) 0.29(2) 0.089(6) -0.039(10) -0.056(7) 0.117(14)
C8 0.264(19) 0.202(14) 0.156(12) 0.025(10) -0.096(12) 0.089(14)
C9 0.241(16) 0.227(16) 0.142(10) -0.026(11) -0.104(11) 0.095(14)
C10 0.225(16) 0.38(3) 0.088(7) -0.055(11) -0.093(9) 0.171(18)
O1 0.275(13) 0.297(14) 0.157(8) -0.021(9) -0.090(9) 0.178(12)
O2 0.314(12) 0.306(12) 0.229(10) 0.125(9) -0.061(8) 0.168(9)
O3 0.088(3) 0.088(3) 0.084(5) 0.000 0.000 0.043(4)
O4 0.337(15) 0.337(15) 0.42(2) 0.000 0.000 0.314(15)
O5 0.248(17) 0.228(17) 0.252(17) 0.000 0.000 0.113(11)
N1 0.162(11) 0.162(11) 0.091(8) 0.000 0.000 0.104(12)
O6 0.199(9) 0.199(9) 0.181(12) -0.012(6) 0.012(6) 0.109(9)
C11 0.186(10) 0.186(10) 0.174(13) 0.000 0.000 0.096(9)
C12 0.35(2) 0.35(2) 0.36(3) -0.004(13) -0.004(13) 0.187(17)
loop_
_atom_type_symbol
_atom_type_description
_atom_type_scat_dispersion_real
_atom_type_scat_dispersion_imag
_atom_type_scat_source
C C 0.0181 0.0091 'International Tables Vol C Tables 4.2.6.8 and 6.1.1.4'
H H 0.0000 0.0000 'International Tables Vol C Tables 4.2.6.8 and 6.1.1.4'
N N 0.0311 0.0180 'International Tables Vol C Tables 4.2.6.8 and 6.1.1.4'
O O 0.0492 0.0322 'International Tables Vol C Tables 4.2.6.8 and 6.1.1.4'
Y Y -0.2670 2.0244 'International Tables Vol C Tables 4.2.6.8 and 6.1.1.4'
loop_
_geom_angle_atom_site_label_1
_geom_angle_atom_site_label_2
_geom_angle_atom_site_label_3
_geom_angle
_geom_angle_site_symmetry_1
_geom_angle_site_symmetry_3
O1 Y1 O1 145.4(6) . 10_665
O1 Y1 O1 84.7(7) . 19_665
O1 Y1 O1 85.1(8) 10_665 19_665
O1 Y1 O1 85.1(8) . 16
O1 Y1 O1 84.7(7) 10_665 16
O1 Y1 O1 145.4(6) 19_665 16
O1 Y1 O3 82.1(3) . .
O1 Y1 O3 128.8(4) 10_665 .
O1 Y1 O3 128.8(4) 19_665 .
O1 Y1 O3 82.1(3) 16 .
O1 Y1 O3 128.8(4) . 13_665
O1 Y1 O3 82.1(3) 10_665 13_665
O1 Y1 O3 82.1(3) 19_665 13_665
O1 Y1 O3 128.8(4) 16 13_665
O3 Y1 O3 69.0(3) . 13_665
O1 Y1 O4 72.7(3) . .
O1 Y1 O4 72.7(3) 10_665 .
O1 Y1 O4 72.7(3) 19_665 .
O1 Y1 O4 72.7(3) 16 .
O3 Y1 O4 145.49(17) . .
O3 Y1 O4 145.49(17) 13_665 .
O1 Y1 O6 56.7(5) . .
O1 Y1 O6 137.4(4) 10_665 .
O1 Y1 O6 56.7(5) 19_665 .
O1 Y1 O6 137.4(4) 16 .
O3 Y1 O6 75.0(5) . .
O3 Y1 O6 75.0(5) 13_665 .
O4 Y1 O6 108.3(6) . .
O1 Y1 O6 137.4(4) . 16
O1 Y1 O6 56.7(5) 10_665 16
O1 Y1 O6 137.4(4) 19_665 16
O1 Y1 O6 56.7(5) 16 16
O3 Y1 O6 75.0(5) . 16
O3 Y1 O6 75.0(5) 13_665 16
O4 Y1 O6 108.3(6) . 16
O6 Y1 O6 143.3(12) . 16
O1 Y1 Y1 107.3(3) . 13_665
O1 Y1 Y1 107.3(3) 10_665 13_665
O1 Y1 Y1 107.3(3) 19_665 13_665
O1 Y1 Y1 107.3(3) 16 13_665
O3 Y1 Y1 34.51(17) . 13_665
O3 Y1 Y1 34.51(17) 13_665 13_665
O4 Y1 Y1 180.00(3) . 13_665
O6 Y1 Y1 71.7(6) . 13_665
O6 Y1 Y1 71.7(6) 16 13_665
O1 Y1 Y2 137.3(4) . 13_665
O1 Y1 Y2 62.8(3) 10_665 13_665
O1 Y1 Y2 62.8(3) 19_665 13_665
O1 Y1 Y2 137.3(4) 16 13_665
O3 Y1 Y2 96.66(17) . 13_665
O3 Y1 Y2 27.64(17) 13_665 13_665
O4 Y1 Y2 117.85(2) . 13_665
O6 Y1 Y2 81.6(3) . 13_665
O6 Y1 Y2 81.6(3) 16 13_665
Y1 Y1 Y2 62.15(2) 13_665 13_665
O1 Y1 Y2 62.8(3) . .
O1 Y1 Y2 137.3(4) 10_665 .
O1 Y1 Y2 137.3(4) 19_665 .
O1 Y1 Y2 62.8(3) 16 .
O3 Y1 Y2 27.64(17) . .
O3 Y1 Y2 96.66(17) 13_665 .
O4 Y1 Y2 117.85(2) . .
O6 Y1 Y2 81.6(3) . .
O6 Y1 Y2 81.6(3) 16 .
Y1 Y1 Y2 62.15(2) 13_665 .
Y2 Y1 Y2 124.30(4) 13_665 .
O2 Y2 O2 159.0(9) . 7
O2 Y2 O2 84.3(11) . 16
O2 Y2 O2 91.9(10) 7 16
O2 Y2 O2 91.9(10) . 22
O2 Y2 O2 84.3(11) 7 22
O2 Y2 O2 159.0(9) 16 22
O2 Y2 O3 79.5(5) . .
O2 Y2 O3 79.5(5) 7 .
O2 Y2 O3 79.5(5) 16 .
O2 Y2 O3 79.5(5) 22 .
O2 Y2 O5 114.6(7) . .
O2 Y2 O5 85.9(8) 7 .
O2 Y2 O5 114.6(7) 16 .
O2 Y2 O5 85.9(8) 22 .
O3 Y2 O5 160.2(9) . .
O2 Y2 O5 85.9(8) . 7
O2 Y2 O5 114.6(7) 7 7
O2 Y2 O5 85.9(8) 16 7
O2 Y2 O5 114.6(7) 22 7
O3 Y2 O5 160.2(9) . 7
O5 Y2 O5 39.7(17) . 7
O2 Y2 Y1 100.0(4) . 13_665
O2 Y2 Y1 60.2(5) 7 13_665
O2 Y2 Y1 100.0(4) 16 13_665
O2 Y2 Y1 60.2(5) 22 13_665
O3 Y2 Y1 27.85(2) . 13_665
O5 Y2 Y1 132.3(9) . 13_665
O5 Y2 Y1 172.0(9) 7 13_665
O2 Y2 Y1 60.2(5) . .
O2 Y2 Y1 100.0(4) 7 .
O2 Y2 Y1 60.2(5) 16 .
O2 Y2 Y1 100.0(4) 22 .
O3 Y2 Y1 27.85(2) . .
O5 Y2 Y1 172.0(9) . .
O5 Y2 Y1 132.3(9) 7 .
Y1 Y2 Y1 55.70(4) 13_665 .
C2 C1 C2 122.1(11) . 16_556
C2 C1 C3 118.8(6) . .
C2 C1 C3 118.8(6) 16_556 .
C1 C2 C4 122.2(8) . .
C1 C2 C2 118.9(6) . 20_655
C4 C2 C2 118.9(5) . 20_655
C1 C3 H3A 109.5 . .
C1 C3 H3B 109.5 . .
H3A C3 H3B 109.5 . .
C1 C3 H3C 109.5 . .
H3A C3 H3C 109.5 . .
H3B C3 H3C 109.5 . .
C9 C4 C5 115.3(11) . .
C9 C4 C2 120.4(11) . .
C5 C4 C2 124.0(12) . .
C6 C5 C4 122.3(17) . .
C6 C5 H5 118.9 . .
C4 C5 H5 118.9 . .
C7 C6 C5 120.6(17) . .
C7 C6 H6 119.7 . .
C5 C6 H6 119.7 . .
C6 C7 C8 123.0(13) . .
C6 C7 C10 126.6(18) . .
C8 C7 C10 110.5(18) . .
C7 C8 C9 114.1(15) . .
C7 C8 H8 123.0 . .
C9 C8 H8 123.0 . .
C4 C9 C8 124.0(14) . .
C4 C9 H9 118.0 . .
C8 C9 H9 118.0 . .
O2 C10 O1 109.8(15) . .
O2 C10 C7 140(3) . .
O1 C10 C7 107(2) . .
C10 O1 Y1 141.2(11) . .
C10 O2 Y2 155(2) . .
Y2 O3 Y1 124.51(17) . 13_665
Y2 O3 Y1 124.51(17) . .
Y1 O3 Y1 111.0(3) 13_665 .
O5 O5 Y2 70.2(9) 7 .
C11 N1 C12 121.4(17) . .
C11 N1 C12 121.4(17) . 4_665
C12 N1 C12 117(3) . 4_665
C11 O6 Y1 139(2) . .
O6 C11 N1 120.9(16) . .
O6 C11 H11 119.6 . .
N1 C11 H11 119.6 . .
N1 C12 H12A 109.5 . .
N1 C12 H12B 109.5 . .
H12A C12 H12B 109.5 . .
N1 C12 H12C 109.5 . .
H12A C12 H12C 109.5 . .
H12B C12 H12C 109.5 . .
loop_
_geom_bond_atom_site_label_1
_geom_bond_atom_site_label_2
_geom_bond_distance
_geom_bond_site_symmetry_2
Y1 O1 2.195(11) .
Y1 O1 2.195(11) 10_665
Y1 O1 2.195(11) 19_665
Y1 O1 2.195(11) 16
Y1 O3 2.293(5) .
Y1 O3 2.293(5) 13_665
Y1 O4 2.305(12) .
Y1 O6 2.71(3) .
Y1 O6 2.71(3) 16
Y1 Y1 3.779(3) 13_665
Y1 Y2 4.0446(18) 13_665
Y1 Y2 4.0446(18) .
Y2 O2 2.263(8) .
Y2 O2 2.263(8) 7
Y2 O2 2.263(8) 16
Y2 O2 2.263(8) 22
Y2 O3 2.277(8) .
Y2 O5 2.34(4) .
Y2 O5 2.34(4) 7
Y2 Y1 4.0446(18) 13_665
C1 C2 1.373(10) .
C1 C2 1.373(10) 16_556
C1 C3 1.511(19) .
C2 C4 1.442(11) .
C2 C2 1.450(16) 20_655
C3 H3A 0.9600 .
C3 H3B 0.9600 .
C3 H3C 0.9600 .
C4 C9 1.342(18) .
C4 C5 1.374(15) .
C5 C6 1.348(19) .
C5 H5 0.9300 .
C6 C7 1.32(2) .
C6 H6 0.9300 .
C7 C8 1.36(2) .
C7 C10 1.530(17) .
C8 C9 1.449(15) .
C8 H8 0.9300 .
C9 H9 0.9300 .
C10 O2 0.93(3) .
C10 O1 1.39(2) .
O3 Y1 2.293(5) 13_665
O5 O5 1.59(7) 7
N1 C11 1.332(10) .
N1 C12 1.451(10) .
N1 C12 1.451(10) 4_665
O6 C11 1.21(3) .
C11 H11 0.9300 .
C12 H12A 0.9600 .
C12 H12B 0.9600 .
C12 H12C 0.9600 .
