#------------------------------------------------------------------------------
#$Date: 2018-02-04 00:23:35 +0200 (Sun, 04 Feb 2018) $
#$Revision: 206109 $
#$URL: file:///home/coder/svn-repositories/cod/cif/4/51/43/4514372.cif $
#------------------------------------------------------------------------------
#
# This file is available in the Crystallography Open Database (COD),
# http://www.crystallography.net/
#
# All data on this site have been placed in the public domain by the
# contributors.
#
data_4514372
loop_
_publ_author_name
'Li, Qiyang'
'Wu, Xiuju'
'Huang, Xiaoli'
'Deng, Yangjun'
'Chen, Nanjian'
'Jiang, Dandan'
'Zhao, Lili'
'Lin, Zhihua'
'Zhao, Yonggang'
_publ_section_title
;
 Tailoring the Fluorescence of AIE-Active Metal-Organic Frameworks for
 Aqueous Sensing of Metal Ions.
;
_journal_issue                   4
_journal_name_full               'ACS applied materials &amp; interfaces'
_journal_page_first              3801
_journal_page_last               3809
_journal_paper_doi               10.1021/acsami.7b17762
_journal_volume                  10
_journal_year                    2018
_chemical_formula_sum            'C36 H34 N2 O8 Zn'
_chemical_formula_weight         688.02
_chemical_name_systematic
;
 ?
;
_space_group_crystal_system      monoclinic
_space_group_IT_number           15
_space_group_name_Hall           '-I 2ya'
_space_group_name_H-M_alt        'I 1 2/a 1'
_symmetry_space_group_name_Hall  '-I 2ya'
_symmetry_space_group_name_H-M   'I 1 2/a 1'
_atom_sites_solution_hydrogens   geom
_atom_sites_solution_primary     direct
_atom_sites_solution_secondary   difmap
_audit_creation_method           SHELXL-2013
_cell_angle_alpha                90
_cell_angle_beta                 96.686(11)
_cell_angle_gamma                90
_cell_formula_units_Z            4
_cell_length_a                   10.875(4)
_cell_length_b                   9.029(3)
_cell_length_c                   33.420(11)
_cell_measurement_reflns_used    1624
_cell_measurement_temperature    296(2)
_cell_measurement_theta_max      22.19
_cell_measurement_theta_min      2.34
_cell_volume                     3259.2(19)
_computing_cell_refinement       'Bruker SAINT'
_computing_data_collection       'Bruker APEX2'
_computing_data_reduction        'Bruker SAINT'
_computing_molecular_graphics    'Bruker SHELXTL'
_computing_publication_material  'Bruker SHELXTL'
_computing_structure_refinement  'SHELXL-2013 (Sheldrick, 2013)'
_computing_structure_solution    'SHELXS-97 (Sheldrick 2008)'
_diffrn_ambient_temperature      296(2)
_diffrn_measured_fraction_theta_full 0.971
_diffrn_measured_fraction_theta_max 0.994
_diffrn_measurement_device_type  'Bruker APEX-II CCD'
_diffrn_measurement_method       '\f and \w scans'
_diffrn_radiation_type           MoK\a
_diffrn_radiation_wavelength     0.71073
_diffrn_reflns_av_R_equivalents  0.0545
_diffrn_reflns_av_unetI/netI     0.0482
_diffrn_reflns_Laue_measured_fraction_full 0.971
_diffrn_reflns_Laue_measured_fraction_max 0.994
_diffrn_reflns_limit_h_max       12
_diffrn_reflns_limit_h_min       -12
_diffrn_reflns_limit_k_max       8
_diffrn_reflns_limit_k_min       -10
_diffrn_reflns_limit_l_max       39
_diffrn_reflns_limit_l_min       -39
_diffrn_reflns_number            11816
_diffrn_reflns_point_group_measured_fraction_full 0.971
_diffrn_reflns_point_group_measured_fraction_max 0.994
_diffrn_reflns_theta_full        25.242
_diffrn_reflns_theta_max         24.996
_diffrn_reflns_theta_min         2.338
_exptl_absorpt_coefficient_mu    0.809
_exptl_absorpt_correction_type   none
_exptl_crystal_colour            colorless
_exptl_crystal_density_diffrn    1.402
_exptl_crystal_description       block
_exptl_crystal_F_000             1432
_exptl_crystal_size_max          0.280
_exptl_crystal_size_mid          0.250
_exptl_crystal_size_min          0.220
_refine_diff_density_max         0.370
_refine_diff_density_min         -0.325
_refine_diff_density_rms         0.054
_refine_ls_extinction_method     none
_refine_ls_goodness_of_fit_ref   0.937
_refine_ls_hydrogen_treatment    constr
_refine_ls_matrix_type           full
_refine_ls_number_parameters     268
_refine_ls_number_reflns         2855
_refine_ls_number_restraints     81
_refine_ls_restrained_S_all      0.985
_refine_ls_R_factor_all          0.0853
_refine_ls_R_factor_gt           0.0535
_refine_ls_shift/su_max          0.000
_refine_ls_shift/su_mean         0.000
_refine_ls_structure_factor_coef Fsqd
_refine_ls_weighting_details
;
 w=1/[\s^2^(Fo^2^)+(0.1466P)^2^+0.1405P]
 where P=(Fo^2^+2Fc^2^)/3
;
_refine_ls_weighting_scheme      calc
_refine_ls_wR_factor_gt          0.1662
_refine_ls_wR_factor_ref         0.2028
_reflns_Friedel_coverage         0.000
_reflns_number_gt                1866
_reflns_number_total             2855
_reflns_threshold_expression     'I > 2\s(I)'
_cod_data_source_file            am7b17762_si_002.cif
_cod_data_source_block           1
_cod_depositor_comments
'Adding full bibliography for 4514370--4514372.cif.'
_cod_database_code               4514372
_shelx_space_group_comment
;
The symmetry employed for this shelxl refinement is uniquely defined
by the following loop, which should always be used as a source of
symmetry information in preference to the above space-group names.
They are only intended as comments.
;
_shelx_estimated_absorpt_t_min   0.805
_shelx_estimated_absorpt_t_max   0.842
_shelxl_version_number           2013-2
_shelx_res_file
;

TITL mo_20170215NGD_ZNZZ_0m in Cc     New: I2/a
CELL  0.71073   10.8750    9.0290   33.4200    90.000    96.686    90.000
ZERR        4    0.0040    0.0030    0.0110     0.000     0.011     0.000
LATT 2
SYMM     0.50000 - X ,              Y ,            - Z
SFAC C  H  N  O  Zn
UNIT 144 136 8 32 4
OMIT  -3.00  50.02
L.S. 40
ACTA
BOND $H
FMAP 2
PLAN 0
sadi n1 c17 n1 c18
sadi c16' c17' c16' c18'
sadi c16 c17 c16 c18
dang 2.4 .01 c17 c18 c17' c18' n1 o4 n1' o4'
dfix 1.3 .01 c16 o4 c16' o4'
dfix 1.47 .01 n1' c17' n1' c18'
dfix 1.47 .01 n1 c17 n1 c18
dfix 1.47 .01 c16 n1 c16' n1'
omit  0   0   2
omit -2   0  12
omit 4   0   2
omit 4   0   4

size .28 .25 .22
isor .01 c18'
ISOR 0.01 O4 Zn1 O4' Zn1'  C16 N1 C17 C18 c16' c17'
CONF
FREE Zn1  C16
FREE C16' Zn1
FREE C16' Zn1'
FREE O2   Zn1
FREE C1   Zn1'
FREE C1   Zn1
FREE C2   O3
TEMP    23
WGHT    0.146600    0.140500
FVAR       0.09628   0.57710
O2    4    0.187369   -0.035533    0.051267    11.00000    0.10603    0.09816 =
         0.04072   -0.00373    0.00594   -0.02479
C3    1    0.179002    0.129514    0.122964    11.00000    0.06769    0.06030 =
         0.03867    0.00362    0.00690   -0.01464
AFIX  43
H3A   2    0.107807    0.078413    0.112894    11.00000   -1.20000
AFIX   0
C8    1    0.284546    0.382530    0.210140    11.00000    0.05127    0.04960 =
         0.03639    0.00373    0.00985    0.00113
O1    4    0.370909    0.050223    0.043503    11.00000    0.09942    0.08215 =
         0.04642   -0.01107    0.02417   -0.00894
C2    1    0.283578    0.120885    0.102513    11.00000    0.06770    0.04930 =
         0.03218    0.00847    0.00531   -0.00210
O3    4    0.497559    0.197058    0.101271    11.00000    0.06961    0.09094 =
         0.05569   -0.01275    0.02626   -0.00408
AFIX  83
H3B   2    0.486398    0.153597    0.079607    11.00000   -1.50000
AFIX   0
C11   1    0.378708    0.625484    0.235122    11.00000    0.05099    0.06246 =
         0.04824    0.00095    0.00640    0.00014
AFIX  43
H11A  2    0.407589    0.580049    0.259380    11.00000   -1.20000
AFIX   0
C7    1    0.390373    0.197227    0.118781    11.00000    0.05959    0.05179 =
         0.03714    0.00726    0.01426    0.00528
C6    1    0.389745    0.279866    0.153600    11.00000    0.05111    0.05343 =
         0.03954   -0.00036    0.00908   -0.00004
AFIX  43
H6A   2    0.460790    0.330603    0.163990    11.00000   -1.20000
AFIX   0
C4    1    0.178419    0.211444    0.157559    11.00000    0.05587    0.06543 =
         0.04413    0.00651    0.01808   -0.00353
AFIX  43
H4A   2    0.107207    0.215632    0.170463    11.00000   -1.20000
AFIX   0
C5    1    0.283570    0.287944    0.173325    11.00000    0.05555    0.04608 =
         0.03172    0.00672    0.00897    0.00100
C9    1    0.260277    0.326896    0.245713    11.00000    0.06539    0.04974 =
         0.03836    0.00139    0.01509    0.00616
AFIX  43
H9A   2    0.256409    0.393798    0.266688    11.00000   -1.20000
AFIX   0
C15   1    0.269828    0.614742    0.169321    11.00000    0.08525    0.05480 =
         0.04333    0.00672    0.00259    0.00332
AFIX  43
H15A  2    0.225449    0.561961    0.148526    11.00000   -1.20000
AFIX   0
C1    1    0.280972    0.039260    0.064166    11.00000    0.08430    0.05837 =
         0.03351    0.00458    0.00401   -0.00091
C12   1    0.402476    0.773165    0.230006    11.00000    0.05349    0.06788 =
         0.07548   -0.01015    0.01168   -0.00711
AFIX  43
H12A  2    0.447341    0.826153    0.250659    11.00000   -1.20000
AFIX   0
C13   1    0.360229    0.843264    0.194453    11.00000    0.07132    0.05501 =
         0.08145    0.00551    0.03078    0.00099
AFIX  43
H13A  2    0.377296    0.942945    0.190775    11.00000   -1.20000
AFIX   0
C14   1    0.292239    0.763518    0.164375    11.00000    0.09638    0.05867 =
         0.06725    0.01640    0.01626    0.00915
AFIX  43
H14A  2    0.261249    0.810515    0.140555    11.00000   -1.20000
AFIX   0
C10   1    0.312752    0.542443    0.205035    11.00000    0.04379    0.04893 =
         0.04599    0.00463    0.01191    0.00592
PART   1
ZN1   5    0.250000   -0.112737    0.000000    20.50000    0.10580    0.04472 =
         0.03798    0.00000   -0.01694    0.00000
O4    4    0.164002   -0.270208   -0.023919    21.00000    0.15075    0.08292 =
         0.08255   -0.02697    0.02726    0.01310
C16   1    0.050676   -0.266564   -0.016424    21.00000    0.04507    0.05845 =
         0.10734    0.01414    0.00305   -0.02043
AFIX  43
H16A  2    0.026362   -0.205106    0.003558    21.00000   -1.20000
AFIX   0
N1    3   -0.037827   -0.360680   -0.039933    21.00000    0.11058    0.05330 =
         0.07730    0.00859   -0.01732    0.00347
C17   1    0.001526   -0.466504   -0.067940    21.00000    0.15952    0.12383 =
         0.09643   -0.04749   -0.00007    0.00767
AFIX  33
H17A  2    0.087383   -0.450821   -0.070789    21.00000   -1.50000
H17B  2   -0.046917   -0.454461   -0.093638    21.00000   -1.50000
H17C  2   -0.009601   -0.564918   -0.058101    21.00000   -1.50000
AFIX   0
C18   1   -0.163968   -0.368562   -0.032332    21.00000    0.14410    0.09548 =
         0.15997    0.05788   -0.01593   -0.00020
AFIX  33
H18A  2   -0.179368   -0.294645   -0.012876    21.00000   -1.50000
H18B  2   -0.180528   -0.464933   -0.022068    21.00000   -1.50000
H18C  2   -0.216948   -0.351416   -0.056933    21.00000   -1.50000
AFIX   0
PART   2
ZN1'  5    0.200686   -0.108979    0.000637   -20.50000    0.06961    0.04856 =
         0.03665    0.00574    0.00503    0.00109
O4'   4    0.116487   -0.266265   -0.017518   -21.00000    0.07973    0.05762 =
         0.09276   -0.00468   -0.00195   -0.00770
C16'  1    0.000240   -0.298349   -0.022190   -21.00000    0.05686    0.05735 =
         0.05529   -0.00562   -0.01847   -0.00071
AFIX  43
H16B  2   -0.054691   -0.257286   -0.005938   -21.00000   -1.20000
AFIX   0
N1'   3   -0.040171   -0.401836   -0.054132   -21.00000    0.12877    0.07066 =
         0.05284   -0.00211    0.00561    0.01358
C17'  1    0.041850   -0.430738   -0.084071   -21.00000    0.13819    0.16604 =
         0.10868   -0.03291    0.03712    0.03778
AFIX  33
H17D  2    0.122023   -0.389984   -0.075332   -21.00000   -1.50000
H17E  2    0.009245   -0.385787   -0.109110   -21.00000   -1.50000
H17F  2    0.048973   -0.535715   -0.087735   -21.00000   -1.50000
AFIX   0
C18'  1   -0.163722   -0.451861   -0.062663   -21.00000    0.11507    0.14625 =
         0.13692    0.00466   -0.00654   -0.05772
AFIX  33
H18D  2   -0.209190   -0.427230   -0.040617   -21.00000   -1.50000
H18E  2   -0.164196   -0.557302   -0.066372   -21.00000   -1.50000
H18F  2   -0.201620   -0.404997   -0.086788   -21.00000   -1.50000
PART   0

AFIX   0
HKLF 4 1  0.0000  0.0000  1.0000  0.0000  1.0000  0.0000 -1.0000  0.0000 -1.0000

REM  mo_20170215NGD_ZNZZ_0m in Cc     New: I2/a
REM R1 =  0.0535 for    1866 Fo > 4sig(Fo)  and  0.0853 for all    2855 data
REM    268 parameters refined using     81 restraints

END

WGHT      0.0922      1.1493

REM Highest difference peak  0.370,  deepest hole -0.325,  1-sigma level  0.054
Q1    1   0.0632  0.0966  0.1078  11.00000  0.05    0.37
Q2    1  -0.1484 -0.6370 -0.0721  11.00000  0.05    0.24
Q3    1   0.0759 -0.2310  0.0078  11.00000  0.05    0.23
Q4    1   0.2783  0.4127  0.2735  11.00000  0.05    0.18
Q5    1   0.4276  0.0934  0.0558  11.00000  0.05    0.17
Q6    1   0.2788  0.3379  0.1893  11.00000  0.05    0.17
Q7    1   0.2409 -0.0973  0.0720  11.00000  0.05    0.17
Q8    1  -0.2249 -0.3860 -0.0079  11.00000  0.05    0.17
Q9    1  -0.1218 -0.3846 -0.0187  11.00000  0.05    0.17
Q10   1   0.0759 -0.3567 -0.0797  11.00000  0.05    0.16
Q11   1   0.2164 -0.0418 -0.0310  11.00000  0.05    0.16
Q12   1   0.3400 -0.0115  0.0189  11.00000  0.05    0.15
Q13   1   0.3850 -0.0186  0.0576  11.00000  0.05    0.15
Q14   1   0.3705  0.3304  0.2331  11.00000  0.05    0.15
Q15   1   0.0914 -0.0700  0.0529  11.00000  0.05    0.15
Q16   1   0.0159 -0.3568 -0.0303  11.00000  0.05    0.15
Q17   1   0.0015 -0.3686 -0.0229  11.00000  0.05    0.14
Q18   1   0.3321  0.1221  0.1100  11.00000  0.05    0.14
Q19   1  -0.1848 -0.3820 -0.1287  11.00000  0.05    0.14
Q20   1   0.2483  0.9167  0.1619  11.00000  0.05    0.14
;
_shelx_res_checksum              1661
_shelx_hkl_file
;
  -2   0   0   -0.28    0.01
   2   0   0   -0.30    0.01
   2   0   0   -0.27    0.01
  -4   0   0  192.58    8.40
   4   0   0  207.25    8.41
   4   0   0  200.28    8.39
  -4   0   0  202.00    8.43
   6   0   0   83.42    3.52
   6   0   0   82.12    3.49
  -6   0   0   81.56    3.51
  -6   0   0   80.65    3.54
   8   0   0    9.09    0.52
  -8   0   0    8.82    0.49
   8   0   0    9.75    0.50
  -8   0   0    7.57    0.51
  10   0   0    7.64    0.46
 -10   0   0    7.15    0.50
 -10   0   0    7.43    0.47
  10   0   0    7.40    0.49
 -12   0   0   48.53    2.25
  12   0   0   49.38    2.21
 -12   0   0   49.95    2.29
  12   0   0   49.03    2.26
 -14   0   0   12.37    0.76
  14   0   0   12.63    0.75
  14   0   0   11.20    0.69
 -14   0   0   13.23    0.74
 -16   0   0   17.06    1.00
  16   0   0   17.20    0.93
 -16   0   0   16.38    0.96
  16   0   0   17.77    1.01
  18   0   0  243.76   10.57
  18   0   0  255.97   10.69
 -18   0   0  247.15   10.67
 -20   0   0  110.16    4.93
  20   0   0  112.22    4.83
  20   0   0  112.11    4.95
 -20   0   0  104.29    4.93
 -22   0   0    0.45    0.24
  22   0   0    0.61    0.31
 -22   0   0    0.24    0.20
  22   0   0    0.11    0.28
 -24   0   0   45.12    2.26
 -24   0   0   43.84    2.25
  24   0   0   41.25    2.26
 -26   0   0    6.22    0.74
  26   0   0    6.73    0.79
 -26   0   0    7.82    0.84
 -28   0   0    1.54    0.45
  28   0   0    1.91    0.56
 -28   0   0    1.67    0.42
 -30   0   0   15.75    1.18
  30   0   0   15.06    1.23
 -30   0   0   16.00    1.19
  32   0   0    3.61    0.72
 -32   0   0    3.26    0.62
 -34   0   0    9.09    1.08
  34   0   0    7.71    1.07
 -36   0   0    0.64    0.42
  36   0   0   -0.35    0.46
 -38   0   0    6.47    0.97
  38   0   0    4.17    0.94
  40   0   0    9.52    1.39
 -40   0   0    9.98    1.28
 -42   0   0    3.61    0.87
  42   0   0    3.53    0.99
  -1  -1   0  186.43    7.91
   1  -1   0  181.34    7.93
   1  -1   0  193.74    7.86
  -3  -1   0  133.67    5.95
   3  -1   0  140.56    5.94
  -3  -1   0  141.14    5.89
  -3   1   0  141.33    5.92
  -5  -1   0   41.35    1.80
   5  -1   0   40.26    1.84
  -5   1   0   43.36    1.85
   5   1   0   39.47    1.76
   7  -1   0   85.38    3.93
  -7  -1   0   93.17    4.03
  -7  -1   0   93.09    3.91
   7   1   0   90.11    3.85
  -7   1   0   91.47    3.96
  -7   1   0   93.35    3.85
   9  -1   0   32.18    1.54
  -9  -1   0   33.92    1.66
  -9  -1   0   34.65    1.53
  -9   1   0   33.30    1.48
   9   1   0   32.90    1.47
 -11  -1   0    7.16    0.46
 -11  -1   0    8.49    0.60
  11  -1   0    7.62    0.48
 -11   1   0    6.85    0.43
  11   1   0    7.47    0.45
  13  -1   0   12.57    0.72
 -13  -1   0   11.60    0.78
 -13  -1   0   10.06    0.64
  13  -1   0   11.96    0.68
 -13   1   0   11.00    0.63
  13   1   0   11.38    0.63
  15  -1   0   26.28    1.35
  15  -1   0   27.96    1.39
 -15  -1   0   28.10    1.36
  15   1   0   25.83    1.28
 -15   1   0   26.17    1.31
 -17  -1   0  119.85    5.17
  17  -1   0  114.32    5.02
 -17  -1   0  118.09    5.03
  17  -1   0  106.95    5.01
 -17   1   0  112.64    4.98
 -17   1   0  109.37    5.08
  17   1   0  117.18    4.94
 -19  -1   0   71.17    3.22
  19  -1   0   71.10    3.22
 -19  -1   0   68.58    3.34
  19   1   0   69.82    3.12
 -19   1   0   69.88    3.18
 -19   1   0   67.85    3.28
 -21  -1   0   77.20    3.70
  21  -1   0   80.52    3.59
 -21  -1   0   82.23    3.59
  21  -1   0   78.81    3.56
 -21   1   0   76.14    3.54
 -21   1   0   75.90    3.65
  21   1   0   72.51    3.69
  21   1   0   75.84    3.46
  23  -1   0   14.03    1.00
  23  -1   0   16.33    1.06
 -23  -1   0   16.84    1.13
 -23  -1   0   16.95    1.03
 -23   1   0   15.55    1.08
  23   1   0   15.48    0.95
 -25  -1   0    6.74    0.82
  25  -1   0    6.40    0.75
 -25  -1   0    7.36    0.76
  25  -1   0    7.36    0.78
 -25   1   0    8.33    0.84
 -25   1   0    7.75    0.75
  27  -1   0   24.66    1.42
 -27  -1   0   24.39    1.55
  27  -1   0   23.39    1.45
 -27  -1   0   22.98    1.42
  27   1   0   20.82    1.56
 -27   1   0   23.30    1.49
 -27   1   0   23.16    1.39
  29  -1   0   -0.44    0.40
 -29  -1   0    0.02    0.22
 -29  -1   0    0.19    0.32
  29  -1   0    0.09    0.40
 -29   1   0    0.36    0.30
  29   1   0    0.30    0.51
 -31  -1   0   15.82    1.18
 -31  -1   0   15.68    1.27
  31  -1   0   14.36    1.19
  31   1   0   16.53    1.54
 -31   1   0   16.23    1.25
 -33  -1   0    1.70    0.49
  33  -1   0    1.20    0.57
 -33  -1   0    1.24    0.48
 -33   1   0    0.99    0.43
  33   1   0    1.13    0.60
 -35  -1   0    0.77    0.43
  35  -1   0    1.02    0.58
 -35  -1   0    0.64    0.65
  35   1   0    1.71    0.67
 -35   1   0    0.13    0.38
 -37  -1   0    2.22    0.59
  37  -1   0    1.55    0.62
 -37   1   0    2.85    0.70
  37   1   0    1.43    0.75
 -39  -1   0    1.34    0.51
  39  -1   0    2.13    0.80
 -39   1   0    1.37    0.55
  39   1   0    1.92    0.80
  41  -1   0    4.25    1.01
 -41  -1   0    4.05    0.82
  41   1   0    3.10    1.02
 -41   1   0    3.93    0.91
   0  -2   0  159.90    6.82
   2  -2   0  180.35    7.84
  -2  -2   0  182.29    7.74
   2  -2   0  185.34    7.70
  -2  -2   0  180.65    7.79
  -4  -2   0   37.72    1.69
   4  -2   0   37.35    1.62
   4  -2   0   36.51    1.79
  -4  -2   0   35.59    1.78
  -4   2   0   36.39    1.74
   6  -2   0  256.35   10.33
   6  -2   0  242.80   10.55
  -6  -2   0  236.92   10.58
  -6  -2   0  248.43   10.44
  -6   2   0  250.36   10.53
  -8  -2   0  292.23   12.38
   8  -2   0  288.90   12.48
  -8   2   0  300.06   12.49
  12  -2   0  146.99    6.48
 -12  -2   0  148.87    6.63
 -12  -2   0  146.23    6.40
 -12   2   0  150.16    6.54
  12   2   0  147.76    6.32
 -12   2   0  154.63    6.27
  14  -2   0   63.92    2.89
 -14  -2   0   62.07    2.82
 -14  -2   0   62.13    3.05
 -14   2   0   60.78    2.95
  14   2   0   62.54    2.71
 -14   2   0   62.94    2.70
 -16  -2   0   70.31    3.31
  16  -2   0   72.63    3.13
 -16  -2   0   69.55    3.07
  16   2   0   57.61    3.25
 -16   2   0   68.85    2.96
  16   2   0   67.70    2.93
 -16   2   0   65.07    3.20
 -18  -2   0    3.14    0.40
  18  -2   0    2.84    0.43
  18  -2   0    4.09    0.55
 -18  -2   0    3.97    0.59
  18   2   0    2.45    0.51
 -18   2   0    3.69    0.54
  18   2   0    3.41    0.27
 -18   2   0    2.80    0.31
  20  -2   0   28.02    1.50
 -20  -2   0   27.41    1.67
 -20  -2   0   30.54    1.49
  20  -2   0   27.05    1.56
 -20   2   0   27.94    1.62
 -20   2   0   27.85    1.38
  20   2   0   27.95    1.31
 -22  -2   0   23.67    1.52
 -22  -2   0   22.66    1.29
  22  -2   0   24.26    1.35
  22  -2   0   23.86    1.40
 -22   2   0   22.29    1.21
  24  -2   0    4.84    0.61
 -24  -2   0    6.49    0.69
  24  -2   0    6.23    0.75
 -24  -2   0    6.76    0.85
 -24   2   0    5.86    0.84
 -26  -2   0   -0.12    0.19
  26  -2   0    0.31    0.32
 -26  -2   0    0.14    0.28
  26  -2   0    0.09    0.36
  26   2   0   -0.12    0.47
 -26   2   0    0.04    0.24
 -28  -2   0    1.67    0.50
  28  -2   0    1.64    0.44
 -28  -2   0    2.70    0.48
  28  -2   0    1.85    0.53
 -28   2   0    2.15    0.54
  28   2   0    1.85    0.70
  30  -2   0    0.22    0.40
 -30  -2   0    0.47    0.42
 -30  -2   0    0.12    0.26
  30  -2   0    0.81    0.46
  30   2   0    0.66    0.55
 -30   2   0    0.26    0.31
 -32  -2   0    0.51    0.43
  32  -2   0    0.80    0.47
 -32  -2   0    0.29    0.32
 -32   2   0    0.73    0.43
  32   2   0    0.86    0.61
 -34  -2   0    0.24    0.28
  34  -2   0    0.36    0.47
 -34  -2   0    0.91    0.50
 -34   2   0    0.28    0.37
  34   2   0    0.75    0.65
 -36  -2   0   -0.38    0.35
 -36  -2   0    0.13    0.34
  36  -2   0   -0.47    0.43
  36   2   0   -0.25    0.60
 -36   2   0    0.02    0.36
 -38  -2   0   -0.21    0.29
  38  -2   0    0.22    0.57
  38   2   0   -0.09    0.57
 -38   2   0    0.55    0.48
 -40  -2   0    0.76    0.49
  40  -2   0    0.00    0.54
  40   2   0    2.25    0.89
 -40   2   0   -0.57    0.36
 -42  -2   0   -0.11    0.34
  42  -2   0   -0.33    0.65
 -42   2   0    0.47    0.49
  42   2   0    0.50    0.76
   1  -3   0    0.77    0.26
   1  -3   0    1.04    0.22
  -3  -3   0   74.48    3.32
   3  -3   0   74.49    3.26
   3  -3   0   73.02    3.46
  -3  -3   0   73.67    3.39
   5  -3   0   50.14    2.23
  -5  -3   0   50.88    2.31
  -5  -3   0   49.31    2.44
  -7  -3   0   27.35    1.57
   7  -3   0   30.69    1.31
   7  -3   0   27.89    1.56
  -7  -3   0   28.29    1.41
  -7   3   0   28.46    1.52
  -9  -3   0  259.74   11.47
  -9  -3   0  262.91   11.24
   9  -3   0  272.41   11.43
  11  -3   0  128.62    5.79
 -11  -3   0  125.34    5.61
 -11   3   0  136.45    5.83
 -13  -3   0    0.77    0.29
  13  -3   0    0.27    0.20
 -13  -3   0    0.64    0.19
 -13   3   0    0.77    0.29
 -15  -3   0   49.14    2.55
  15  -3   0   48.35    2.39
 -15  -3   0   48.65    2.25
 -15   3   0   46.59    2.45
 -17  -3   0    1.56    0.43
  17  -3   0    2.26    0.42
 -17  -3   0    1.51    0.28
  17   3   0    1.00    0.44
 -17   3   0    1.72    0.40
 -19  -3   0   18.65    1.00
 -19  -3   0   16.11    1.23
  19  -3   0   15.29    1.05
 -19   3   0   15.54    1.14
  19   3   0   16.53    1.48
 -21  -3   0    1.95    0.50
  21  -3   0    1.96    0.49
  21  -3   0    2.09    0.41
 -21  -3   0    1.84    0.33
 -21   3   0    2.13    0.47
  23  -3   0    0.07    0.36
 -23  -3   0    0.29    0.31
  23  -3   0    0.30    0.26
 -23  -3   0   -0.09    0.16
  23   3   0   -0.02    0.16
 -23   3   0    0.15    0.28
  25  -3   0    7.00    0.77
 -25  -3   0    6.85    0.93
 -25  -3   0    5.58    0.64
  25  -3   0    7.23    0.90
 -25   3   0    5.25    0.79
  25   3   0    6.52    1.05
 -27  -3   0   13.81    0.95
  27  -3   0   13.34    1.10
 -27  -3   0   13.00    1.35
  27  -3   0   12.59    0.99
 -27   3   0   13.61    1.31
  27   3   0    9.59    1.30
  29  -3   0    1.05    0.46
 -29  -3   0    0.48    0.47
  29  -3   0    0.89    0.48
 -29  -3   0    1.39    0.39
  29   3   0    1.23    0.68
 -29   3   0    0.50    0.42
  31  -3   0   15.17    1.19
 -31  -3   0   15.75    1.62
  31  -3   0   16.07    1.30
 -31  -3   0   15.40    1.14
  31   3   0   17.74    1.78
 -31   3   0   16.60    1.61
 -33  -3   0    0.87    0.39
  33  -3   0    0.76    0.48
  33  -3   0    0.34    0.79
 -33  -3   0    0.47    0.47
  33   3   0    1.16    0.66
 -33   3   0    0.29    0.40
 -35  -3   0    1.52    0.64
  35  -3   0    0.92    0.51
 -35  -3   0    0.93    0.41
 -35   3   0    0.98    0.51
  35   3   0    1.33    0.74
  37  -3   0    0.64    0.54
 -37  -3   0    0.25    0.35
 -37  -3   0    0.01    0.49
  37   3   0   -0.40    0.64
 -37   3   0    0.75    0.54
 -39  -3   0    1.39    0.55
 -39  -3   0    2.34    0.77
  39  -3   0    1.37    0.69
 -39   3   0    1.43    0.59
  39   3   0    0.80    0.73
 -41  -3   0    0.38    0.41
  41  -3   0   -0.41    0.62
  41   3   0    0.98    0.71
 -41   3   0    0.30    0.51
   0  -4   0   31.32    1.60
   0  -4   0   30.07    1.77
   2  -4   0    1.24    0.25
   2  -4   0    0.71    0.35
  -2  -4   0    0.69    0.25
   4  -4   0   37.60    1.84
  -4  -4   0   39.71    1.90
   4  -4   0   37.01    2.07
  -4  -4   0   38.20    2.00
  -6  -4   0    0.32    0.18
  -6  -4   0    0.14    0.20
   6  -4   0   -0.13    0.22
   6  -4   0    0.15    0.12
  -8  -4   0   87.80    4.11
   8  -4   0   85.51    4.10
   8  -4   0   87.38    3.76
  -8  -4   0   85.00    3.87
 -10  -4   0  115.21    5.39
  10  -4   0  120.49    4.94
 -10  -4   0  114.84    5.11
  10  -4   0  121.22    5.38
 -10   4   0  108.50    5.29
  12  -4   0    6.06    0.71
 -12  -4   0    5.99    0.48
 -12  -4   0    6.91    0.82
 -12   4   0    5.54    0.71
  14  -4   0    5.94    0.70
 -14  -4   0    5.48    0.53
 -14   4   0    4.99    0.70
 -16  -4   0   43.09    2.49
 -16  -4   0   44.21    2.15
  16  -4   0   46.48    2.38
 -16   4   0   46.33    2.45
 -18  -4   0   11.88    1.21
 -18  -4   0   10.14    0.71
  18  -4   0   11.95    0.91
 -18   4   0   10.12    1.06
 -20  -4   0   20.92    1.52
 -20  -4   0   21.44    1.19
  20  -4   0   21.01    1.35
 -20   4   0   20.89    1.47
 -22  -4   0   31.97    1.90
  22  -4   0   24.39    1.55
  22  -4   0   26.49    1.68
 -22  -4   0   25.66    1.42
 -22   4   0   24.51    1.70
 -24  -4   0   28.91    1.85
  24  -4   0   20.62    1.57
  24  -4   0   24.89    1.52
 -24  -4   0   25.53    1.40
 -24   4   0   22.51    1.64
 -26  -4   0   10.24    0.80
 -26  -4   0    9.20    1.19
  26  -4   0   10.00    1.15
  26  -4   0   10.90    1.02
 -26   4   0   10.62    1.25
  28  -4   0   23.72    1.44
 -28  -4   0   24.03    1.76
 -28  -4   0   17.21    1.23
  28  -4   0   21.31    1.54
 -28   4   0   18.29    1.79
 -30  -4   0   12.67    1.49
  30  -4   0   10.69    1.09
  30  -4   0    9.60    1.17
 -30  -4   0    8.88    0.93
 -30   4   0    9.42    1.25
 -32  -4   0    2.71    0.54
  32  -4   0    2.82    0.73
  32  -4   0    4.32    0.75
 -32  -4   0    2.35    0.78
 -32   4   0    1.47    0.62
  34  -4   0    4.21    0.85
 -34  -4   0    2.80    0.59
 -34  -4   0    4.08    0.94
  34  -4   0    3.12    0.71
 -34   4   0    2.45    0.71
 -36  -4   0    2.45    0.79
 -36  -4   0    2.42    0.59
  36  -4   0    0.66    0.54
 -36   4   0    2.08    0.70
 -38  -4   0    3.10    0.64
  38  -4   0    2.80    0.74
 -38  -4   0    1.57    0.76
 -38   4   0    2.62    0.81
  40  -4   0    1.32    0.73
 -40  -4   0    1.57    0.54
 -40  -4   0    1.71    0.78
 -40   4   0    1.45    0.78
   1  -5   0   15.08    1.37
  -1  -5   0   11.61    1.18
   1  -5   0   12.98    0.89
  -1  -5   0   12.50    0.90
   3  -5   0   82.23    3.75
   3  -5   0   82.54    4.05
  -3  -5   0   80.39    3.77
  -3  -5   0   80.67    3.86
  -5  -5   0   39.16    2.03
   5  -5   0   39.65    1.97
   5  -5   0   43.41    2.33
  -5  -5   0   40.26    2.19
   7  -5   0   87.01    3.89
   7  -5   0   87.95    4.27
  -7  -5   0   90.06    4.22
  -7  -5   0   84.22    3.96
   9  -5   0   36.17    1.66
  -9  -5   0   33.14    1.99
  -9  -5   0   33.78    1.75
   9  -5   0   32.20    2.00
 -11  -5   0   56.05    3.03
  11  -5   0   59.51    2.55
 -11  -5   0   56.87    2.71
  11  -5   0   54.94    2.98
 -13  -5   0   20.34    1.18
  13  -5   0   21.46    1.46
 -13  -5   0   20.88    1.50
 -13   5   0   23.53    1.48
  15  -5   0   32.57    1.84
 -15  -5   0   26.84    1.48
 -15   5   0   27.87    1.80
 -17  -5   0    6.68    0.65
  17  -5   0    8.48    0.98
 -17   5   0    7.59    0.99
 -19  -5   0    0.85    0.46
  19  -5   0    0.96    0.41
 -19  -5   0    1.27    0.30
 -19   5   0    1.17    0.44
 -21  -5   0    9.04    0.71
 -21  -5   0    9.65    1.21
  21  -5   0   12.74    1.18
 -21   5   0    8.34    1.13
  23  -5   0    3.18    0.68
 -23  -5   0    2.28    0.63
 -23  -5   0    3.08    0.46
  23  -5   0    2.47    0.58
 -23   5   0    4.03    0.83
 -25  -5   0    3.73    0.53
 -25  -5   0    3.47    0.79
  25  -5   0    3.43    0.73
  25  -5   0    2.55    0.60
 -25   5   0    3.30    0.74
  27  -5   0    9.08    1.15
  27  -5   0    9.68    1.06
 -27  -5   0    8.21    1.29
 -27  -5   0    8.98    0.86
 -27   5   0    8.13    1.18
 -29  -5   0    6.55    1.14
  29  -5   0    6.48    1.03
 -29  -5   0    8.65    0.89
  29  -5   0    7.61    0.98
 -29   5   0    9.15    1.28
 -31  -5   0    2.59    0.49
 -31  -5   0    1.85    0.75
  31  -5   0    1.89    0.60
  31  -5   0    4.02    0.84
 -31   5   0    2.96    0.81
 -33  -5   0    5.09    0.73
 -33  -5   0    4.71    1.02
  33  -5   0    4.75    0.92
  33  -5   0    4.30    0.84
 -33   5   0    4.67    1.01
  35  -5   0    0.14    0.65
 -35  -5   0    1.89    0.50
  35  -5   0    1.58    0.62
 -35  -5   0    2.37    0.79
 -35   5   0    2.16    0.78
 -37  -5   0    0.85    0.65
 -37  -5   0    0.97    0.43
  37  -5   0    0.62    0.60
 -37   5   0    0.20    0.53
   0  -6   0   20.33    1.56
   0  -6   0   21.39    1.35
   2  -6   0   14.01    1.00
  -2  -6   0   12.49    1.36
  -2  -6   0   14.90    1.02
  -2  -6   0   13.98    1.06
   2  -6   0   13.73    1.41
  -4  -6   0    9.16    0.83
   4  -6   0    6.66    0.70
   4  -6   0    5.24    0.84
  -4  -6   0    5.55    0.75
  -6  -6   0   25.02    1.70
   6  -6   0   30.40    1.89
   6  -6   0   28.71    1.53
  -6  -6   0   27.25    1.56
   8  -6   0    2.11    0.58
  -8  -6   0    3.02    0.59
  -8  -6   0    3.18    0.48
   8  -6   0    3.05    0.43
  10  -6   0    0.74    0.43
  10  -6   0    1.52    0.31
 -10  -6   0    1.54    0.34
 -10  -6   0    0.89    0.45
 -12  -6   0   11.76    0.83
 -12  -6   0   11.23    1.28
  12  -6   0   12.60    1.28
  14  -6   0   11.53    1.26
 -14  -6   0   10.86    0.78
 -14  -6   0    9.55    1.18
 -16  -6   0    2.35    0.62
  16  -6   0    1.77    0.58
 -16  -6   0    1.52    0.33
  18  -6   0   11.69    1.27
 -18  -6   0   15.42    1.56
 -18  -6   0   14.29    0.92
 -18   6   0   13.33    1.44
 -20  -6   0   -0.07    0.19
 -20  -6   0   -0.35    0.32
  20  -6   0   -0.13    0.32
 -20   6   0   -0.24    0.27
 -22  -6   0    2.74    0.46
 -22  -6   0    3.81    0.88
  22  -6   0    2.21    0.59
 -22   6   0    2.91    0.73
  24  -6   0    3.48    0.77
 -24  -6   0    4.21    0.56
 -24  -6   0    3.81    0.89
  24  -6   0    3.68    0.68
 -24   6   0    3.44    0.82
  26  -6   0    1.07    0.57
  26  -6   0    0.92    0.53
 -26  -6   0    1.02    0.34
 -26  -6   0    1.04    0.59
 -26   6   0    1.92    0.69
 -28  -6   0   -0.01    0.23
  28  -6   0   -0.06    0.39
 -28  -6   0   -0.27    0.48
  28  -6   0    0.60    0.53
 -28   6   0    0.30    0.47
 -30  -6   0    1.59    0.42
 -30  -6   0    2.58    0.88
  30  -6   0    1.81    0.60
  30  -6   0    1.74    0.69
 -30   6   0    1.58    0.72
  32  -6   0   -0.61    0.49
  32  -6   0    0.50    0.50
 -32  -6   0    0.13    0.28
 -32  -6   0    0.30    0.51
 -32   6   0    0.00    0.49
  34  -6   0    0.29    0.60
  34  -6   0   -0.09    0.41
 -34  -6   0    0.03    0.53
 -34   6   0    0.92    0.64
 -36  -6   0    1.12    0.67
  36  -6   0    0.15    0.64
  36  -6   0    0.42    0.58
 -36   6   0    0.50    0.61
  -1  -7   0    0.29    0.41
   1  -7   0    0.71    0.35
   1  -7   0    0.84    0.53
  -1  -7   0    0.33    0.31
   3  -7   0    0.45    0.29
  -3  -7   0    0.71    0.33
   3  -7   0    0.16    0.38
  -3  -7   0    0.04    0.44
  -3  -7   0    0.44    0.37
   5  -7   0    1.93    0.62
  -5  -7   0    3.02    0.65
  -5  -7   0    2.63    0.51
   5  -7   0    2.34    0.49
  -7  -7   0    6.58    0.99
   7  -7   0    5.94    0.98
  -7  -7   0    7.46    0.81
   7  -7   0    6.22    0.71
   9  -7   0    0.65    0.45
  -9  -7   0    0.57    0.43
  -9  -7   0    0.31    0.29
 -11  -7   0   10.78    0.95
  11  -7   0    9.55    1.22
 -11  -7   0    8.45    1.15
  13  -7   0   -0.06    0.38
 -13  -7   0    0.22    0.36
 -13  -7   0   -0.16    0.19
 -15  -7   0    6.62    1.13
 -15  -7   0    5.76    0.65
  15  -7   0    5.44    0.93
 -17  -7   0    0.50    0.50
  17  -7   0    0.21    0.39
 -17  -7   0    0.12    0.22
  19  -7   0    0.47    0.41
 -19  -7   0    0.30    0.24
 -19  -7   0   -0.06    0.40
  21  -7   0    1.33    0.55
 -21  -7   0    1.40    0.60
  23  -7   0    0.17    0.42
  23  -7   0    0.11    0.43
 -23  -7   0    0.31    0.52
  25  -7   0    0.31    0.40
 -25  -7   0    0.16    0.54
  25  -7   0    1.70    0.65
 -27  -7   0   -0.26    0.44
  27  -7   0    0.70    0.61
  27  -7   0    0.18    0.46
 -27   7   0   -0.19    0.46
 -29  -7   0    0.08    0.57
  29  -7   0    0.03    0.54
  29  -7   0    0.52    0.56
 -29   7   0    0.85    0.65
 -31  -7   0    0.19    0.57
  31  -7   0   -0.06    0.46
  31  -7   0    0.12    0.61
 -31   7   0   -0.32    0.47
 -33  -7   0    0.61    0.68
  33  -7   0   -0.02    0.51
  33  -7   0    0.49    0.70
 -33   7   0   -0.21    0.43
   0  -8   0   13.84    1.65
   0  -8   0   12.27    1.27
  -2  -8   0    4.41    0.79
   2  -8   0    4.84    0.76
  -2  -8   0    3.75    0.67
  -2  -8   0    3.54    0.94
   2  -8   0    4.09    0.90
   4  -8   0    7.16    1.20
  -4  -8   0    7.48    1.01
   4  -8   0    8.15    0.91
  -4  -8   0    8.78    0.96
  -4  -8   0    6.95    1.21
   6  -8   0   10.17    1.35
  -6  -8   0    9.12    1.20
  -8  -8   0    9.46    1.26
   8  -8   0    6.97    1.20
 -10  -8   0    6.30    1.07
  10  -8   0    4.13    0.91
 -12  -8   0    4.65    0.96
  12  -8   0    3.92    0.83
  14  -8   0    6.02    1.03
 -14  -8   0    4.49    1.02
  16  -8   0   -0.10    0.49
 -16  -8   0    1.58    0.65
  18  -8   0    4.16    0.91
 -18  -8   0    5.88    1.19
 -20  -8   0    1.13    0.61
  20  -8   0    0.68    0.57
 -22  -8   0    2.92    0.94
  22  -8   0    2.66    0.73
  22  -8   0    2.02    0.73
  24  -8   0    2.69    0.78
 -24  -8   0    2.68    0.93
  24  -8   0    2.12    0.65
  26  -8   0    1.18    0.68
  26  -8   0   -0.02    0.56
 -26  -8   0    0.31    0.57
  28  -8   0    0.43    0.61
  28  -8   0   -0.06    0.51
 -28  -8   0    0.04    0.57
  30  -8   0    3.72    1.06
 -30  -8   0    4.10    1.07
  30  -8   0    4.27    0.96
   1  -9   0    1.52    0.75
  -1  -9   0    0.07    0.52
   1  -9   0    1.86    0.61
  -1  -9   0    1.00    0.49
  -3  -9   0    2.64    0.83
  -3  -9   0    3.40    0.78
   3  -9   0    1.87    0.73
   5  -9   0   -0.12    0.53
  -5  -9   0   -0.15    0.42
  -5  -9   0   -0.19    0.38
   7  -9   0    4.63    1.06
  -7  -9   0    4.13    1.04
  -7  -9   0    5.15    0.99
  -9  -9   0   14.76    1.64
   9  -9   0   13.59    1.72
  11  -9   0    5.57    1.17
 -11  -9   0    5.52    1.06
  13  -9   0    5.60    1.15
 -13  -9   0    5.11    1.08
 -15  -9   0    4.80    1.09
  15  -9   0    3.31    0.91
 -17  -9   0    3.98    1.04
  17  -9   0    3.98    1.02
 -19  -9   0    1.30    0.68
  19  -9   0    2.58    0.82
  21  -9   0    4.30    0.98
 -21  -9   0    4.91    1.18
  21  -9   0    3.86    0.95
  23  -9   0    2.22    0.79
 -23  -9   0    2.42    0.96
  23  -9   0    2.19    0.82
 -25  -9   0    3.45    1.10
  25  -9   0    5.61    1.11
  25  -9   0    1.88    0.79
 -27  -9   0    3.10    1.03
  27  -9   0    3.48    1.02
  27  -9   0    2.68    0.84
   0 -10   0    1.53    0.72
  -2 -10   0    1.76    0.78
   2 -10   0    1.25    0.73
  -2 -10   0    1.48    0.61
  -4 -10   0   -0.03    0.48
  -4 -10   0   -0.25    0.41
   4 -10   0    0.17    0.62
  -6 -10   0    0.06    0.55
   6 -10   0    3.53    1.08
  -6 -10   0    2.75    0.80
  -8 -10   0    6.16    1.15
   8 -10   0    4.88    1.18
  -8 -10   0    4.38    1.12
  10 -10   0    3.56    1.05
 -10 -10   0    2.96    0.90
 -10 -10   0    1.52    0.83
 -12 -10   0    3.28    0.96
  12 -10   0    4.83    1.12
  14 -10   0    0.61    0.60
 -14 -10   0   -0.27    0.58
 -16 -10   0    0.96    0.68
  16 -10   0    0.23    0.65
 -18 -10   0    4.68    1.15
  18 -10   0    4.22    1.10
 -20 -10   0   -0.19    0.60
  20 -10   0   -0.09    0.54
  20 -10   0    1.58    0.72
 -22 -10   0    1.28    0.79
  22 -10   0    2.67    0.88
  22 -10   0    0.59    0.63
  -1 -11   0   -0.08    0.63
   1 -11   0    0.41    0.69
   3 -11   0    0.25    0.68
  -3 -11   0    0.33    0.63
  -5 -11   0    1.00    0.79
   5 -11   0    1.15    0.81
  -7 -11   0   -0.09    0.52
   7 -11   0    0.39    0.68
  -7 -11   0   -0.44    0.64
  -9 -11   0    0.15    0.57
   9 -11   0   -0.31    0.64
  -9 -11   0    0.69    0.71
 -11 -11   0    0.55    0.67
 -11 -11   0    0.63    0.68
  11 -11   0    0.94    0.76
  13 -11   0    0.18    0.73
 -13 -11   0    0.20    0.71
 -13 -11   0   -0.89    0.50
 -42   0   1   -0.08    0.43
  42   0  -1   -1.01    0.56
 -40   0   1   -0.15    0.33
  40   0  -1   -0.82    0.56
 -38   0   1    0.05    0.40
  38   0  -1    0.18    0.59
 -36   0   1   -0.13    0.35
  36   0  -1   -0.33    0.51
  34   0  -1   -0.04    0.49
 -34   0   1    0.27    0.34
 -32   0   1    0.35    0.38
  32   0  -1   -0.45    0.45
 -32   0   1   -0.16    0.26
 -30   0   1    0.20    0.28
  30   0  -1   -0.20    0.38
 -30   0   1    0.32    0.31
 -28   0   1    0.02    0.26
 -28   0   1   -0.06    0.22
  28   0  -1    0.03    0.45
  28   0  -1    0.18    0.39
 -26   0   1    0.30    0.28
  26   0  -1   -0.36    0.39
  26   0  -1    0.19    0.41
 -26   0   1   -0.09    0.24
 -24   0   1    0.22    0.25
 -24   0   1   -0.27    0.17
  24   0  -1    0.29    0.37
  24   0  -1   -0.43    0.32
  22   0  -1   -0.28    0.11
 -22   0   1   -0.04    0.19
 -22   0   1   -0.20    0.17
  22   0  -1   -0.35    0.29
  20   0  -1   -0.01    0.26
 -20   0   1   -0.17    0.14
 -20   0   1   -0.03    0.14
  20   0  -1    0.10    0.28
 -18   0   1    0.06    0.14
  18   0  -1    0.09    0.26
 -18   0   1   -0.03    0.15
  18   0  -1   -0.06    0.20
  16   0  -1    0.14    0.24
 -16   0   1   -0.16    0.09
  16   0  -1   -0.37    0.19
 -16   0   1   -0.11    0.12
 -14   0   1    0.06    0.12
 -14   0   1    0.05    0.14
  14   0  -1    0.05    0.21
  14   0  -1    0.11    0.17
 -12   0   1    0.00    0.11
  12   0  -1    0.18    0.18
 -12   0   1    0.07    0.14
  12   0  -1   -0.03    0.22
 -10   0   1   -0.17    0.11
  10   0  -1   -0.02    0.16
  10   0  -1    0.04    0.21
 -10   0   1   -0.06    0.10
  -8   0   1   -0.15    0.08
  -8   0   1    0.05    0.09
   8   0  -1   -0.07    0.15
   8   0  -1    0.15    0.21
   6   0  -1    0.04    0.16
  -6   0   1   -0.12    0.05
   6   0  -1   -0.03    0.10
  -6   0   1    0.16    0.10
   4   0  -1    0.02    0.11
  -4   0   1   -0.05    0.06
  -4   0   1   -0.13    0.05
   4   0  -1    0.02    0.07
  -2   0   1   -0.02    0.04
   2   0  -1    0.04    0.03
   0   0   1   -0.05    0.05
   0   0   1   -0.08    0.02
   0   0  -1    0.00    0.06
   0   0  -1   -0.13    0.03
   2   0   1   -1.21    0.05
  -2   0  -1   -1.28    0.04
   2   0   1   -1.21    0.03
  -2   0  -1   -1.23    0.05
  -4   0  -1   -0.10    0.05
   4   0   1    0.03    0.06
  -4   0  -1   -0.04    0.02
  -6   0  -1   -0.01    0.02
   6   0   1    0.08    0.09
  -8   0  -1    0.01    0.03
   8   0   1    0.07    0.11
  10   0   1   -0.06    0.11
 -10   0  -1    0.01    0.06
 -12   0  -1    0.03    0.09
  12   0   1   -0.08    0.05
  14   0   1    0.01    0.13
 -14   0  -1    0.05    0.12
  16   0   1   -0.17    0.13
  16   0   1    0.02    0.19
 -16   0  -1   -0.13    0.10
  18   0   1    0.16    0.17
 -18   0  -1   -0.12    0.15
  18   0   1    0.78    0.27
 -18   0  -1    0.24    0.16
  20   0   1    0.09    0.24
 -20   0  -1    0.13    0.20
  20   0   1    0.10    0.20
 -20   0  -1   -0.20    0.12
  22   0   1    0.19    0.24
  22   0   1   -0.17    0.09
 -22   0  -1   -0.10    0.18
 -22   0  -1   -0.10    0.19
 -24   0  -1   -0.02    0.18
 -24   0  -1    0.24    0.26
  24   0   1    0.31    0.28
  24   0   1   -0.24    0.09
 -26   0  -1   -0.01    0.24
 -26   0  -1   -0.13    0.21
  26   0   1    0.42    0.40
 -28   0  -1    0.18    0.24
 -28   0  -1    0.09    0.26
  28   0   1   -0.94    0.33
  30   0   1   -0.10    0.37
 -30   0  -1   -0.24    0.25
 -30   0  -1    0.09    0.24
 -32   0  -1    0.01    0.30
  32   0   1    0.39    0.45
 -34   0  -1   -0.06    0.33
  34   0   1    0.09    0.45
  36   0   1    0.63    0.61
 -36   0  -1   -0.46    0.29
  38   0   1   -0.89    0.52
 -38   0  -1    0.10    0.41
 -40   0  -1    0.18    0.43
  40   0   1    0.21    0.71
 -42   0  -1   -0.09    0.38
  42   0   1    0.49    0.78
  43  -1  -1    4.39    1.07
 -43  -1   1    5.88    1.05
 -43   1   1    3.06    0.84
  43   1  -1    5.96    1.26
  41  -1  -1    0.44    0.63
 -41  -1   1    0.17    0.42
 -41   1   1    0.12    0.42
  41   1  -1    0.92    0.78
 -39  -1   1    1.04    0.54
  39  -1  -1    2.23    0.71
 -39   1   1    1.26    0.52
  39   1  -1    1.94    0.86
 -37  -1   1   11.13    1.23
  37  -1  -1    6.84    1.01
 -37   1   1    7.97    1.11
  37   1  -1    9.87    1.32
 -35  -1   1    8.33    1.06
  35  -1  -1    5.79    0.87
 -35  -1   1    6.71    0.92
  35   1  -1    7.65    1.13
 -35   1   1    8.24    1.05
  33  -1  -1   -0.20    0.42
 -33  -1   1    0.47    0.37
 -33  -1   1   -0.01    0.40
  33   1  -1    1.09    0.56
 -33   1   1    0.01    0.34
  31  -1  -1   24.57    1.61
 -31  -1   1   24.12    1.66
 -31  -1   1   24.26    1.56
 -31   1   1   24.74    1.65
  31   1  -1   22.19    1.72
 -29  -1   1    0.87    0.41
  29  -1  -1    0.62    0.44
 -29  -1   1    0.65    0.31
  29  -1  -1    0.66    0.47
  29   1  -1   -0.34    0.43
 -29   1   1    0.80    0.38
  27  -1  -1    4.05    0.68
  27  -1  -1    3.17    0.56
 -27  -1   1    2.07    0.52
 -27  -1   1    2.77    0.52
 -27   1   1    3.80    0.56
 -27   1   1    3.51    0.60
  27   1  -1    3.79    0.77
  25  -1  -1    2.01    0.46
 -25  -1   1    2.18    0.41
 -25  -1   1    2.89    0.55
  25  -1  -1    1.69    0.48
  25   1  -1    2.29    0.47
 -25   1   1    2.89    0.46
 -25   1   1    2.04    0.48
  25   1  -1    2.32    0.61
  23  -1  -1   36.51    1.87
 -23  -1   1   35.47    1.85
 -23  -1   1   37.92    2.01
  23  -1  -1   33.40    1.87
 -23   1   1   34.31    1.95
  23   1  -1   35.16    1.81
  23   1  -1   34.28    2.00
 -21  -1   1    6.82    0.78
  21  -1  -1    6.25    0.70
  21  -1  -1    7.01    0.67
 -21  -1   1    7.73    0.70
  21   1  -1    6.49    0.66
  21   1  -1    5.95    0.76
 -21   1   1    7.69    0.81
 -21   1   1    7.35    0.67
 -19  -1   1    8.62    0.61
  19  -1  -1    8.38    0.64
  19  -1  -1    8.52    0.78
 -19  -1   1    7.24    0.79
  19   1  -1    6.98    0.79
 -19   1   1    8.29    0.61
 -19   1   1    7.85    0.80
  19   1  -1    8.79    0.67
 -17  -1   1    0.44    0.25
 -17  -1   1    0.99    0.23
  17  -1  -1    1.16    0.30
 -17   1   1    0.86    0.23
  17   1  -1    1.38    0.40
 -17   1   1    1.13    0.31
  17   1  -1    0.69    0.28
  15  -1  -1   14.34    0.91
 -15  -1   1   15.58    0.86
  15  -1  -1   15.25    0.86
  15   1  -1   14.71    1.02
  15   1  -1   15.53    0.90
 -15   1   1   16.11    0.87
 -15   1   1   15.66    0.96
 -13  -1   1   56.14    2.48
  13  -1  -1   52.89    2.46
 -13  -1   1   52.60    2.61
  13  -1  -1   52.79    2.54
 -13   1   1   56.31    2.59
  13   1  -1   54.32    2.63
 -13   1   1   56.19    2.48
  13   1  -1   56.42    2.51
 -11  -1   1    4.12    0.32
 -11  -1   1    4.36    0.50
  11  -1  -1    3.99    0.43
  11  -1  -1    4.90    0.35
  11   1  -1    5.38    0.46
 -11   1   1    4.91    0.48
 -11   1   1    4.47    0.34
  11   1  -1    4.49    0.53
   9  -1  -1   20.27    1.04
  -9  -1   1   18.69    1.06
  -9  -1   1   19.68    0.94
   9  -1  -1   20.03    0.95
   9   1  -1   18.86    1.08
  -9   1   1   20.23    1.05
   9   1  -1   18.29    0.98
  -9   1   1   19.65    0.94
   7  -1  -1   24.37    1.19
  -7  -1   1   23.74    1.08
  -7  -1   1   24.34    1.22
   7  -1  -1   23.48    1.09
  -7   1   1   24.45    1.09
  -7   1   1   22.70    1.19
   7   1  -1   23.12    1.13
   7   1  -1   22.09    1.21
  -5  -1   1  316.41   12.79
   5  -1  -1  297.91   12.78
  -5   1   1  304.79   12.77
   5   1  -1  301.08   12.82
   3  -1  -1   62.89    2.73
  -3  -1   1   65.69    2.62
  -3  -1   1   63.49    2.77
   3  -1  -1   60.08    2.68
   3   1  -1   61.40    2.73
  -3   1   1   60.22    2.68
   1  -1  -1    6.17    0.38
  -1  -1   1    6.80    0.42
   1  -1   1   28.16    1.38
   1  -1   1   29.62    1.35
  -1  -1  -1   29.97    1.31
  -1  -1  -1   29.21    1.39
  -1   1  -1   28.54    1.36
  -1   1  -1   29.76    1.27
  -3  -1  -1  240.38   10.10
   3  -1   1  204.22   10.08
  -3  -1  -1  262.67   10.00
   3  -1   1  250.88   10.05
  -3   1  -1  238.35   10.01
   3   1   1  235.32   10.06
  -5  -1  -1  672.29   27.81
   5  -1   1  664.32   27.98
  -5  -1  -1  644.39   27.88
  -5   1  -1  653.45   28.06
   5   1   1  698.53   28.04
  -7  -1  -1   59.32    2.68
  -7   1  -1   59.57    2.65
   7   1   1   61.72    2.72
  -9  -1  -1  190.95    8.38
  -9   1  -1  199.29    8.38
   9   1   1  201.05    8.44
 -13  -1  -1  133.07    5.31
  13   1   1  123.59    5.38
  13   1   1  121.56    5.12
 -13   1  -1  108.88    5.29
 -15  -1  -1   45.29    2.12
  15   1   1   43.01    2.21
 -15   1  -1   45.96    2.16
  15   1   1   44.67    1.96
 -17  -1  -1   55.81    2.41
 -17  -1  -1   49.72    2.54
 -17   1  -1   43.58    2.38
  17   1   1   51.32    2.21
  17   1   1   50.90    2.49
 -19  -1  -1    0.31    0.25
 -19  -1  -1    0.16    0.18
  19  -1   1   -0.10    0.07
  19   1   1    0.25    0.20
 -19   1  -1    0.30    0.19
  19   1   1    0.37    0.36
 -19   1  -1    0.07    0.09
  21  -1   1   14.69    0.91
  23  -1   1   -0.03    0.10
  23  -1   1    0.45    0.30
 -23  -1  -1    0.43    0.23
 -23  -1  -1    0.85    0.32
 -23   1  -1    0.05    0.10
  23   1   1    0.00    0.13
 -23   1  -1    0.74    0.26
 -25  -1  -1   16.65    1.06
 -25  -1  -1   15.04    1.15
  25  -1   1   13.44    0.97
  25   1   1   13.98    1.27
 -25   1  -1   16.07    1.01
 -27  -1  -1   -0.10    0.27
  27  -1   1    0.40    0.36
 -27  -1  -1    0.18    0.25
  27  -1   1    0.66    0.37
 -27   1  -1    0.26    0.29
 -27   1  -1    0.38    0.27
  27   1   1   -0.09    0.46
  29  -1   1    6.22    0.78
 -29  -1  -1    5.75    0.81
 -29  -1  -1    6.25    0.78
 -29   1  -1    5.50    0.77
  29   1   1    4.99    0.87
  31  -1   1   -0.22    0.38
 -31  -1  -1   -0.06    0.24
 -31  -1  -1   -0.37    0.28
 -31   1  -1    0.00    0.26
  31   1   1    0.07    0.53
 -33  -1  -1    0.10    0.35
  33  -1   1   -0.21    0.38
 -33  -1  -1    0.06    0.32
  33   1   1    0.00    0.53
 -33   1  -1    0.21    0.36
  35  -1   1    7.41    1.05
 -35  -1  -1    7.54    0.96
  35   1   1    4.88    0.99
 -35   1  -1    7.08    0.98
  37  -1   1    2.12    0.70
 -37  -1  -1    3.59    0.71
 -37   1  -1    2.89    0.71
  37   1   1    2.84    0.81
  39  -1   1    0.05    0.60
 -39  -1  -1   -0.22    0.34
 -39   1  -1    0.57    0.53
  39   1   1    0.24    0.59
 -41  -1  -1    1.47    0.59
  41  -1   1    0.59    0.73
 -41   1  -1    0.70    0.57
  41   1   1    0.48    0.73
  42  -2  -1    0.26    0.59
 -42  -2   1    1.93    0.64
  42   2  -1    2.00    0.87
 -42   2   1    1.51    0.69
 -40  -2   1    2.30    0.64
  40  -2  -1    3.80    0.87
  40   2  -1    3.40    1.01
 -40   2   1    1.46    0.69
 -38  -2   1    7.93    1.15
  38  -2  -1    5.22    0.89
 -38  -2   1    7.46    1.02
  38   2  -1    4.17    1.00
 -38   2   1    6.35    1.08
  36  -2  -1    3.37    0.78
 -36  -2   1    4.95    0.95
 -36  -2   1    4.86    0.79
  36   2  -1    3.50    0.90
 -36   2   1    4.41    0.85
 -34  -2   1    9.34    1.19
  34  -2  -1    6.48    0.93
 -34  -2   1    7.71    0.92
  34   2  -1    7.81    1.22
 -34   2   1    7.28    1.04
  32  -2  -1    6.73    0.95
 -32  -2   1    6.14    0.94
  32  -2  -1    7.30    0.89
 -32  -2   1    6.24    0.81
  32   2  -1    6.49    1.04
 -32   2   1    7.25    1.03
  30  -2  -1   12.23    1.18
  30  -2  -1    9.73    1.00
 -30  -2   1   10.17    1.01
 -30  -2   1   12.77    1.33
 -30   2   1    9.24    1.14
  30   2  -1   10.36    1.25
  28  -2  -1   12.06    1.15
 -28  -2   1   10.69    1.21
 -28  -2   1   10.82    1.00
  28  -2  -1   13.17    0.99
 -28   2   1    9.36    1.10
  28   2  -1   13.15    1.37
  26  -2  -1   10.27    1.07
 -26  -2   1   12.15    1.24
  26  -2  -1   12.27    0.93
 -26  -2   1   12.50    0.88
  26   2  -1   10.86    1.28
 -26   2   1   12.76    1.26
 -24  -2   1   45.80    2.55
  24  -2  -1   46.17    2.40
  24  -2  -1   45.10    2.31
 -24  -2   1   47.88    2.31
  24   2  -1   42.80    2.57
 -24   2   1   46.73    2.23
  24   2  -1   46.66    2.21
 -22  -2   1   47.16    2.54
  22  -2  -1   48.93    2.30
 -22  -2   1   47.29    2.27
  22  -2  -1   45.99    2.37
  22   2  -1   39.66    2.50
 -22   2   1   47.63    2.20
  22   2  -1   45.46    2.18
  20  -2  -1   26.19    1.36
 -20  -2   1   25.83    1.58
  20  -2  -1   25.05    1.44
 -20  -2   1   24.55    1.31
  20   2  -1   24.06    1.27
 -20   2   1   23.97    1.25
  20   2  -1   23.37    1.61
  18  -2  -1    0.25    0.30
 -18  -2   1    0.18    0.15
  18  -2  -1    0.47    0.21
 -18  -2   1   -0.03    0.21
 -18   2   1    0.42    0.16
  18   2  -1    0.55    0.19
 -18   2   1    0.00    0.08
  18   2  -1    0.07    0.39
 -16  -2   1   65.76    3.17
  16  -2  -1   63.68    2.93
  16  -2  -1   65.90    3.05
 -16  -2   1   63.96    2.90
  16   2  -1   64.35    2.89
 -16   2   1   64.28    2.82
  16   2  -1   60.63    3.15
  14  -2  -1   75.37    3.47
  14  -2  -1   75.84    3.57
 -14  -2   1   78.22    3.69
 -14  -2   1   79.44    3.43
 -14   2   1   80.56    3.35
  14   2  -1   76.83    3.44
  14   2  -1   76.52    3.69
  12  -2  -1   75.79    3.30
 -12  -2   1   66.45    3.44
 -12  -2   1   75.43    3.23
  12   2  -1   74.16    3.47
 -12   2   1   74.10    3.14
  12   2  -1   74.12    3.27
  10  -2  -1   43.25    2.43
  10  -2  -1   55.44    2.41
 -10  -2   1   54.70    2.31
 -10   2   1   52.52    2.24
  10   2  -1   54.67    2.38
   8  -2  -1   16.68    0.98
   8  -2  -1   16.08    0.91
  -8  -2   1   17.29    0.80
  -8   2   1   16.81    1.00
   8   2  -1   17.40    0.90
   6  -2  -1  978.65   41.55
  -6  -2   1 1000.00   41.50
  -6  -2   1  999.17   41.48
   6   2  -1  982.20   41.38
  -4  -2   1  575.42   23.98
   4  -2  -1  568.46   24.06
  -4  -2   1  580.53   24.11
   4   2  -1  568.84   24.04
   2  -2  -1   42.38    1.98
  -2  -2   1   42.21    1.98
   2   2  -1   42.03    1.97
   0  -2   1    1.71    0.25
   2  -2   1    2.55    0.28
  -2  -2  -1    2.23    0.32
  -2   2  -1    2.52    0.25
   4  -2   1   37.50    1.69
  -4  -2  -1   37.18    1.79
  -4   2  -1   36.74    1.70
  -6  -2  -1   15.10    0.90
   6  -2   1   16.99    0.82
  -6   2  -1   17.17    0.87
  -8  -2  -1    1.90    0.16
  -8  -2  -1    1.67    0.27
   8  -2   1    2.60    0.24
   8   2   1    2.72    0.43
  -8   2  -1    2.05    0.29
  12  -2   1   27.51    1.46
 -12  -2  -1   28.89    1.42
 -12   2  -1   27.63    1.44
  12   2   1   27.52    1.57
  14  -2   1  153.75    6.76
 -14  -2  -1  157.29    6.72
  14   2   1  157.23    6.90
 -14   2  -1  150.74    6.76
  16  -2   1   33.47    1.66
 -16  -2  -1   32.12    1.83
 -16  -2  -1   33.69    1.62
 -16   2  -1   29.51    1.66
  16   2   1   30.16    1.79
 -18  -2  -1   40.67    2.17
  18  -2   1   42.10    1.99
 -18  -2  -1   37.94    1.92
  18   2   1   37.39    2.15
 -18   2  -1   38.36    1.83
 -18   2  -1   36.87    1.99
  20  -2   1   49.95    2.39
 -20  -2  -1   49.54    2.60
 -20  -2  -1   46.35    2.33
  20   2   1   46.13    2.59
 -20   2  -1   48.48    2.45
 -20   2  -1   48.46    2.24
 -22  -2  -1   14.14    0.93
  22  -2   1   14.78    1.01
 -22  -2  -1   16.64    1.19
 -22   2  -1   14.39    0.85
 -22   2  -1   13.36    1.01
  22   2   1   12.74    1.29
  24  -2   1   10.34    0.81
  24  -2   1   10.04    0.93
 -24  -2  -1    9.56    0.76
 -24  -2  -1   10.84    1.15
  24   2   1    8.74    1.11
 -24   2  -1    7.91    0.88
  26  -2   1   13.76    1.03
 -26  -2  -1   13.39    0.95
 -26  -2  -1   11.96    1.24
  26  -2   1   13.62    1.01
  26   2   1    9.74    1.19
 -26   2  -1   13.52    1.05
 -28  -2  -1    8.46    0.87
 -28  -2  -1    7.46    0.98
  28  -2   1   10.04    0.98
  28  -2   1    7.01    0.86
 -28   2  -1    9.29    1.03
  28   2   1    7.51    1.06
 -30  -2  -1    0.40    0.31
  30  -2   1    0.17    0.31
 -30  -2  -1    0.04    0.34
 -30   2  -1   -0.41    0.25
  30   2   1    0.44    0.53
 -32  -2  -1   15.37    1.53
 -32  -2  -1   15.01    1.16
  32  -2   1   16.52    1.28
  32   2   1   14.32    1.52
 -32   2  -1   13.76    1.41
 -34  -2  -1    4.57    0.88
 -34  -2  -1    5.50    0.81
  34  -2   1    6.71    0.95
  34   2   1    5.12    1.05
 -34   2  -1    6.12    0.95
  36  -2   1   13.47    1.38
 -36  -2  -1   14.33    1.53
 -36  -2  -1   12.46    1.29
  36   2   1    8.20    1.29
 -36   2  -1   10.97    1.30
 -38  -2  -1    2.44    0.66
  38  -2   1    1.95    0.75
 -38   2  -1    2.56    0.72
  38   2   1    1.55    0.83
 -40  -2  -1    2.80    0.68
  40  -2   1    3.10    0.82
  40   2   1    2.18    0.93
 -40   2  -1    2.37    0.72
  41  -3  -1    3.03    0.84
 -41  -3   1    2.25    1.32
 -41  -3   1    3.24    0.75
 -41   3   1    2.93    0.84
  41   3  -1    3.75    1.06
  39  -3  -1    2.70    0.76
 -39  -3   1    3.01    0.78
 -39  -3   1    2.61    0.64
 -39   3   1    2.59    0.81
  39   3  -1    1.71    0.83
  37  -3  -1    2.73    0.68
 -37  -3   1    3.02    0.86
 -37  -3   1    3.89    0.72
  37   3  -1    2.34    0.85
 -37   3   1    2.30    0.78
 -35  -3   1    5.47    0.78
 -35  -3   1    4.63    0.95
  35  -3  -1    5.25    0.81
  35   3  -1    3.40    0.89
 -35   3   1    5.36    1.01
 -33  -3   1    1.60    0.66
  33  -3  -1    4.05    0.71
  33  -3  -1    3.05    0.76
 -33  -3   1    2.46    0.53
  33   3  -1    2.85    0.87
 -33   3   1    3.27    0.78
  31  -3  -1    3.35    0.75
 -31  -3   1    3.73    0.77
  31  -3  -1    2.64    0.55
 -31  -3   1    3.84    0.60
  31   3  -1    5.28    1.05
 -31   3   1    2.88    0.69
  29  -3  -1    4.55    0.79
 -29  -3   1    4.14    0.59
 -29  -3   1    3.22    0.75
  29  -3  -1    2.74    0.55
  29   3  -1    3.54    0.88
 -29   3   1    3.37    0.72
 -27  -3   1   12.23    0.89
 -27  -3   1   10.77    1.25
  27  -3  -1   12.83    1.23
  27  -3  -1   13.00    0.98
 -27   3   1   11.83    1.30
  27   3  -1   11.82    1.44
 -25  -3   1   34.06    1.74
 -25  -3   1   34.63    2.11
  25  -3  -1   30.62    1.89
  25  -3  -1   34.01    1.79
  25   3  -1   30.23    2.14
 -25   3   1   29.89    1.97
 -23  -3   1   16.32    1.30
  23  -3  -1   16.44    1.08
  23  -3  -1   19.27    1.28
 -23  -3   1   15.58    1.00
 -21  -3   1   32.98    1.95
  21  -3  -1   30.46    1.64
 -21  -3   1   28.71    1.56
  21  -3  -1   29.16    1.77
  21   3  -1   32.36    1.54
  19  -3  -1   33.22    1.85
 -19  -3   1   32.11    1.64
 -19  -3   1   33.03    1.99
  19  -3  -1   31.69    1.72
 -19   3   1   34.56    1.96
  19   3  -1   34.48    1.64
  17  -3  -1   50.49    2.59
 -17  -3   1   53.45    2.75
 -17  -3   1   46.92    2.35
  17  -3  -1   53.03    2.49
  17   3  -1   52.21    2.39
 -17   3   1   52.66    2.69
  15  -3  -1   69.12    3.13
  15  -3  -1   67.21    3.22
 -15  -3   1   61.84    3.30
 -15  -3   1   65.36    2.98
 -15   3   1   69.62    3.32
  15   3  -1   67.29    3.03
  13  -3  -1  123.64    5.50
 -13  -3   1  122.39    5.33
 -13  -3   1  124.79    5.69
  13  -3  -1  128.38    5.59
 -13   3   1  120.96    5.65
  13   3  -1  123.58    5.40
 -11  -3   1   42.86    1.97
  11  -3  -1   44.37    2.16
 -11   3   1   43.00    2.26
  11   3  -1   44.87    2.08
  -9  -3   1   70.36    3.05
  -9  -3   1   71.78    3.37
   9  -3  -1   70.01    3.25
  -9   3   1   66.90    3.31
   9   3  -1   70.53    3.17
  -7  -3   1  299.69   12.83
  -7  -3   1  307.65   13.13
   7  -3  -1  311.13   13.07
   7   3  -1  304.88   12.98
  -5  -3   1   13.41    0.87
   5  -3  -1   13.03    0.85
  -5  -3   1   12.96    0.67
  -3  -3   1   38.46    1.75
   3  -3  -1   38.10    1.94
  -3  -3   1   38.83    1.92
  -1  -3   1   13.92    0.84
   1  -3  -1   13.24    0.88
   1  -3   1    8.55    0.83
   1  -3   1    7.84    0.56
   3  -3   1    6.81    0.47
   3  -3   1    4.28    0.57
  -3  -3  -1    6.43    0.60
  -3   3  -1    7.09    0.49
   5  -3   1   34.71    1.86
  -5  -3  -1   34.74    1.76
   5  -3   1   35.97    1.66
  -5   3  -1   34.57    1.71
  -7  -3  -1    4.43    0.49
   7  -3   1    4.11    0.35
   7  -3   1    3.50    0.53
  -7   3  -1    2.65    0.37
  -9  -3  -1    0.17    0.15
   9  -3   1    0.27    0.21
   9  -3   1    0.12    0.10
  -9   3  -1   -0.06    0.09
 -11  -3  -1  126.09    5.62
  11  -3   1  128.58    5.75
 -11   3  -1  128.62    5.67
  13  -3   1   11.36    0.84
 -13  -3  -1   10.50    1.03
 -13  -3  -1   10.95    0.73
 -13   3  -1   10.83    0.79
 -15  -3  -1   35.88    1.99
 -15  -3  -1   35.01    1.70
  15  -3   1   33.18    1.80
 -15   3  -1   31.97    1.78
  15   3   1   30.13    1.90
  17  -3   1   18.29    1.19
 -17  -3  -1   20.56    1.39
 -17  -3  -1   19.96    1.11
 -17   3  -1   18.60    0.88
 -17   3  -1   19.84    1.22
  17   3   1   16.74    1.32
  19  -3   1   29.46    1.55
 -19  -3  -1   25.04    1.67
 -19  -3  -1   26.33    1.41
 -19   3  -1   24.25    1.52
 -19   3  -1   25.60    1.22
  19   3   1   24.36    1.72
 -21  -3  -1   17.14    1.33
 -21  -3  -1   17.88    1.08
  21  -3   1   18.14    1.16
  21   3   1   17.36    1.60
 -21   3  -1   16.12    1.18
  23  -3   1   16.10    1.10
 -23  -3  -1   15.85    1.01
 -23  -3  -1   12.73    1.32
  23   3   1   16.26    1.52
 -23   3  -1   13.82    1.12
 -25  -3  -1   12.65    0.94
  25  -3   1   14.33    1.09
  25  -3   1   12.85    1.02
 -25  -3  -1   12.76    1.36
  25   3   1   13.25    1.47
 -25   3  -1   13.83    1.29
 -27  -3  -1    3.60    0.72
 -27  -3  -1    2.49    0.48
  27  -3   1    2.51    0.52
  27  -3   1    4.00    0.70
  27   3   1    2.03    0.70
 -27   3  -1    2.96    0.66
 -29  -3  -1    3.32    0.57
  29  -3   1    3.42    0.65
 -29  -3  -1    3.57    0.73
  29  -3   1    3.82    0.70
 -29   3  -1    2.30    0.61
  29   3   1    3.23    0.87
 -31  -3  -1    0.83    0.51
 -31  -3  -1    1.16    0.41
  31  -3   1    1.06    0.52
  31  -3   1    0.27    0.38
 -31   3  -1    0.44    0.38
  31   3   1    0.36    0.61
  33  -3   1   11.25    1.15
 -33  -3  -1   10.91    1.11
 -33  -3  -1   11.68    1.38
  33   3   1   12.16    1.53
 -33   3  -1   13.57    1.44
  35  -3   1    8.87    1.11
 -35  -3  -1    9.42    1.31
 -35  -3  -1    9.30    1.05
  35   3   1    9.11    1.32
 -35   3  -1    9.52    1.28
 -37  -3  -1    0.55    0.45
  37  -3   1    1.19    0.59
 -37  -3  -1    1.38    0.66
 -37   3  -1    0.75    0.48
  37   3   1    0.84    0.75
  39  -3   1    2.93    0.78
 -39  -3  -1    4.61    0.83
 -39  -3  -1    2.97    0.87
 -39   3  -1    4.30    0.93
  39   3   1    3.75    1.05
 -40  -4   1    1.46    0.52
 -40  -4   1    1.57    0.73
  40  -4  -1   -0.59    0.56
 -40   4   1    2.87    0.88
 -38  -4   1    1.92    0.80
 -38  -4   1    1.57    0.54
  38  -4  -1    1.48    0.63
 -38   4   1    0.73    0.60
 -36  -4   1    0.66    0.38
 -36  -4   1    0.26    0.44
  36  -4  -1    0.75    0.76
  36  -4  -1    0.20    0.48
 -36   4   1    0.31    0.47
  34  -4  -1    0.72    0.44
  34  -4  -1   -0.19    0.54
 -34  -4   1    1.57    0.65
 -34  -4   1    1.38    0.45
 -34   4   1    1.01    0.58
  32  -4  -1    2.12    0.71
 -32  -4   1    0.15    0.49
  32  -4  -1    1.46    0.49
 -32  -4   1    1.17    0.40
 -32   4   1    0.27    0.40
 -30  -4   1    1.62    0.41
  30  -4  -1    3.15    0.74
 -30  -4   1    3.40    0.84
  30  -4  -1    1.88    0.48
 -30   4   1    2.06    0.65
  28  -4  -1    9.28    0.94
 -28  -4   1    6.77    0.73
  28  -4  -1    8.06    1.04
 -28  -4   1    6.19    1.01
 -28   4   1    6.29    1.02
  26  -4  -1    2.48    0.50
 -26  -4   1    1.87    0.61
 -26  -4   1    2.43    0.43
  26  -4  -1    2.81    0.69
 -26   4   1    2.36    0.61
 -24  -4   1    1.26    0.29
 -24  -4   1    0.45    0.38
  24  -4  -1    1.05    0.49
  24  -4  -1    1.10    0.39
 -24   4   1    1.47    0.50
  22  -4  -1    0.69    0.29
 -22  -4   1    0.70    0.23
  22  -4  -1    0.45    0.46
 -22  -4   1    0.20    0.42
 -22   4   1    0.67    0.40
 -20  -4   1    1.45    0.28
  20  -4  -1    1.78    0.53
  20  -4  -1    0.69    0.33
 -20  -4   1    1.16    0.44
 -20   4   1    2.03    0.52
  20   4  -1    1.97    0.35
  18  -4  -1    0.27    0.41
 -18  -4   1    0.76    0.21
  18  -4  -1    0.69    0.30
 -18  -4   1    1.07    0.42
 -18   4   1    1.19    0.44
 -16  -4   1    5.80    0.87
  16  -4  -1    6.75    0.83
  16  -4  -1    6.35    0.69
 -16  -4   1    5.73    0.44
 -16   4   1    6.26    0.85
 -14  -4   1    7.05    0.48
  14  -4  -1    6.99    0.72
 -14   4   1    7.31    0.89
 -12  -4   1   28.49    1.37
  12  -4  -1   28.94    1.63
 -12  -4   1   26.27    1.72
 -12   4   1   30.56    1.73
  10  -4  -1   12.27    0.62
 -10  -4   1   11.74    0.67
  10  -4  -1   11.69    0.89
 -10  -4   1   12.18    1.13
  -8  -4   1  112.88    4.91
   8  -4  -1  113.32    5.20
  -8  -4   1  114.51    5.26
   8  -4  -1  113.90    4.91
  -6  -4   1    0.39    0.25
  -6  -4   1    0.28    0.14
   6  -4  -1    0.32    0.16
   6  -4  -1    0.20    0.22
   4  -4  -1   18.46    1.02
   4  -4  -1   17.67    1.17
  -4  -4   1   17.65    1.12
  -4  -4   1   17.86    0.95
   2  -4  -1   21.67    1.20
  -2  -4   1   19.40    1.20
   2  -4  -1   21.61    1.32
   0  -4   1    8.59    0.65
   0  -4  -1    7.61    0.75
   0  -4   1    8.53    0.89
  -2  -4  -1   92.27    4.37
   2  -4   1   95.54    4.52
   2  -4   1   96.19    4.26
  -4  -4  -1   15.61    1.09
   4  -4   1   16.13    1.16
   4  -4   1   15.85    0.92
  -4  -4  -1   15.87    1.02
   6  -4   1   -0.10    0.18
  -6  -4  -1    0.12    0.18
   6  -4   1    0.06    0.13
  -6  -4  -1   -0.14    0.19
  -6   4  -1    0.08    0.18
  -8  -4  -1   24.85    1.50
  -8  -4  -1   22.44    1.30
   8  -4   1   24.40    1.17
   8  -4   1   25.62    1.51
  -8   4  -1   18.61    1.27
  10  -4   1   67.31    3.32
  10  -4   1   69.38    2.93
 -10  -4  -1   66.43    3.36
 -10  -4  -1   64.89    3.12
 -10   4  -1   62.61    3.17
  12  -4   1   28.74    1.24
 -12  -4  -1   25.19    1.47
 -12  -4  -1   28.41    1.75
  12  -4   1   26.63    1.64
 -12   4  -1   26.78    1.57
 -14  -4  -1    9.42    0.70
  14  -4   1    8.78    0.94
 -14   4  -1    9.46    0.91
 -16  -4  -1    6.21    0.90
 -16  -4  -1    6.61    0.66
 -16  -4  -1    6.79    0.38
  16  -4   1    6.15    0.78
 -16   4  -1    6.14    0.77
 -18  -4  -1   16.09    1.25
  18  -4   1   13.34    1.06
 -18  -4  -1   14.04    0.93
 -18   4  -1   14.68    1.10
 -20  -4  -1    0.08    0.33
  20  -4   1    0.82    0.37
 -20  -4  -1    0.57    0.26
 -20   4  -1    0.82    0.34
 -22  -4  -1    1.72    0.56
  22  -4   1    1.83    0.48
 -22  -4  -1    2.24    0.41
 -22   4  -1    1.00    0.42
 -24  -4  -1   -0.21    0.31
 -24  -4  -1    0.12    0.20
  24  -4   1   -0.16    0.26
 -24   4  -1    0.09    0.27
  26  -4   1   -0.16    0.29
 -26  -4  -1    0.08    0.35
  26  -4   1    0.67    0.43
 -26  -4  -1    0.11    0.21
  26   4   1   -0.20    0.46
 -26   4  -1   -0.42    0.20
 -28  -4  -1    5.51    0.71
 -28  -4  -1    5.69    0.94
  28  -4   1    4.35    0.71
  28  -4   1    5.74    0.90
  28   4   1    5.27    0.99
 -28   4  -1    5.05    0.87
 -30  -4  -1   -0.01    0.39
  30  -4   1    0.09    0.41
 -30  -4  -1   -0.01    0.24
  30  -4   1   -0.32    0.43
  30   4   1    0.48    0.60
 -30   4  -1    0.47    0.44
 -32  -4  -1    0.78    0.34
 -32  -4  -1    1.56    0.61
  32  -4   1    0.66    0.56
  32  -4   1   -0.37    0.33
  32   4   1    0.80    0.70
 -32   4  -1    0.10    0.43
  34  -4   1    0.56    0.48
 -34  -4  -1    1.22    0.63
 -34  -4  -1    0.13    0.31
 -34   4  -1    0.55    0.51
  34   4   1   -0.47    0.54
 -36  -4  -1    1.64    0.74
  36  -4   1    3.30    0.79
 -36  -4  -1    2.63    0.59
 -36   4  -1    3.39    0.89
  36   4   1    2.15    0.88
  38  -4   1   -0.10    0.54
 -38  -4  -1    1.22    0.46
 -38  -4  -1   -0.46    0.55
 -38   4  -1    1.22    0.67
  38   4   1    1.23    0.69
  39  -5  -1    0.55    0.62
 -39  -5   1   -0.70    0.51
 -39   5   1    0.51    0.59
 -37  -5   1   -0.10    0.54
 -37  -5   1    0.11    0.49
  37  -5  -1   -0.74    0.60
  37  -5  -1   -0.44    0.44
 -37   5   1    0.47    0.58
 -35  -5   1   -0.29    0.27
  35  -5  -1    0.07    0.47
 -35  -5   1   -0.43    0.43
  35  -5  -1   -0.20    0.58
 -35   5   1    0.29    0.49
  33  -5  -1    0.25    0.57
  33  -5  -1   -0.18    0.38
 -33  -5   1    0.88    0.66
 -33  -5   1    0.73    0.36
 -33   5   1   -0.01    0.44
 -31  -5   1    2.08    0.72
 -31  -5   1    1.95    0.47
  31  -5  -1    3.08    0.67
  31  -5  -1    3.19    0.81
 -31   5   1    2.26    0.71
 -29  -5   1    0.14    0.41
  29  -5  -1   -0.17    0.32
  29  -5  -1   -0.40    0.39
 -29  -5   1    0.17    0.24
 -29   5   1    0.06    0.43
  27  -5  -1    1.69    0.64
 -27  -5   1    1.38    0.36
  27  -5  -1    2.28    0.52
 -27  -5   1    2.75    0.76
 -27   5   1    1.48    0.63
 -25  -5   1    0.01    0.19
  25  -5  -1   -0.13    0.31
 -25  -5   1    0.28    0.42
  25  -5  -1    0.67    0.56
 -25   5   1   -0.17    0.32
  23  -5  -1    8.11    0.90
 -23  -5   1    7.29    0.68
 -23  -5   1    5.06    0.92
  23  -5  -1    6.72    0.98
 -23   5   1    5.51    0.94
  21  -5  -1    5.97    0.79
  21  -5  -1    6.63    0.95
 -21  -5   1    4.44    0.89
 -21  -5   1    6.56    0.62
 -21   5   1    5.38    0.91
  19  -5  -1   11.66    1.10
 -19  -5   1   11.31    0.73
  19  -5  -1    9.65    1.11
 -19   5   1   12.03    1.35
 -17  -5   1   20.51    1.11
  17  -5  -1   18.61    1.43
  17  -5  -1   24.23    1.45
 -17   5   1   20.94    1.52
 -15  -5   1   18.02    1.80
  15  -5  -1   27.77    1.62
 -15  -5   1   26.15    1.28
 -13  -5   1   26.28    1.32
 -13  -5   1   26.20    1.77
  13  -5  -1   26.56    1.65
 -11  -5   1    0.34    0.30
  11  -5  -1    0.30    0.29
 -11  -5   1    0.01    0.11
  11  -5  -1    0.12    0.12
   9  -5  -1   15.93    0.88
  -9  -5   1   16.36    0.89
   9  -5  -1   16.11    1.19
  -9  -5   1   15.62    1.22
  -7  -5   1    2.30    0.33
   7  -5  -1    2.42    0.52
   7  -5  -1    2.31    0.33
  -7  -5   1    2.58    0.53
   5  -5  -1    1.10    0.35
   5  -5  -1    0.98    0.25
  -5  -5   1    0.87    0.24
  -5  -5   1    1.06    0.35
   3  -5  -1    3.84    0.50
  -3  -5   1    4.14    0.57
   3  -5  -1    3.20    0.57
  -3  -5   1    3.63    0.45
   1  -5  -1    4.41    0.70
   1  -5  -1    5.34    0.65
  -1  -5   1    4.72    0.62
  -1  -5   1    4.60    0.79
   1  -5   1   11.45    0.81
  -1  -5  -1   10.72    0.86
   1  -5   1   10.11    1.12
   3  -5   1    2.28    0.56
   3  -5   1    1.72    0.35
  -3  -5  -1    1.88    0.41
  -3  -5  -1    1.37    0.36
   5  -5   1   19.31    1.41
   5  -5   1   18.50    1.10
  -5  -5  -1   19.92    1.32
  -5  -5  -1   19.14    1.22
   7  -5   1    0.55    0.23
  -7  -5  -1   -0.25    0.19
  -7  -5  -1    0.27    0.31
   7  -5   1    0.24    0.36
  -9  -5  -1    0.01    0.29
   9  -5   1    0.12    0.29
  -9  -5  -1    0.01    0.20
   9  -5   1    0.00    0.14
  -9   5  -1   -0.13    0.18
  11  -5   1    7.93    0.97
  11  -5   1    7.12    0.50
 -11  -5  -1   10.03    1.11
 -11  -5  -1    6.98    0.76
 -11   5  -1    6.69    0.81
  13  -5   1    0.52    0.34
 -13  -5  -1    0.13    0.31
 -13  -5  -1   -0.07    0.17
 -13   5  -1   -0.30    0.21
 -15  -5  -1    0.08    0.20
  15  -5   1    0.06    0.25
 -15  -5  -1   -0.06    0.12
 -15   5  -1    0.00    0.25
 -17  -5  -1    0.55    0.25
  17  -5   1    0.19    0.31
 -17  -5  -1    0.11    0.19
 -17   5  -1    0.63    0.38
 -19  -5  -1    3.16    0.48
  19  -5   1    2.69    0.58
 -19  -5  -1    2.44    0.62
 -19   5  -1    1.46    0.51
 -21  -5  -1   10.41    0.80
 -21  -5  -1   12.04    1.41
  21  -5   1    9.12    1.08
 -21   5  -1   10.14    1.17
  23  -5   1    0.55    0.41
 -23  -5  -1    0.21    0.37
 -23  -5  -1    0.03    0.22
 -23   5  -1    0.09    0.36
 -25  -5  -1   11.80    0.92
 -25  -5  -1   14.58    1.59
  25  -5   1   12.41    1.23
 -25   5  -1   12.17    1.36
 -27  -5  -1    4.60    0.97
 -27  -5  -1    4.40    0.65
  27  -5   1    6.05    0.94
  27  -5   1    4.34    0.75
 -27   5  -1    5.78    0.97
  29  -5   1    2.79    0.63
 -29  -5  -1    3.47    0.59
  29  -5   1    2.82    0.74
 -29  -5  -1    3.28    0.83
 -29   5  -1    1.25    0.58
  31  -5   1    0.96    0.52
 -31  -5  -1    1.09    0.41
 -31  -5  -1    0.74    0.57
  31  -5   1    0.74    0.58
 -31   5  -1    1.49    0.63
 -33  -5  -1    0.91    0.40
 -33  -5  -1    1.36    0.70
  33  -5   1    1.43    0.55
  33  -5   1    1.37    0.68
 -33   5  -1    0.92    0.61
  35  -5   1    0.35    0.54
 -35  -5  -1    0.30    0.62
 -35  -5  -1    0.08    0.31
 -35   5  -1    0.80    0.57
  37  -5   1    0.67    0.65
 -37  -5  -1    0.34    0.38
 -37  -5  -1    1.33    0.74
 -37   5  -1    0.77    0.63
  36  -6  -1   -0.42    0.66
  36  -6  -1   -0.64    0.45
 -36  -6   1   -0.30    0.60
 -36   6   1   -0.44    0.53
  34  -6  -1    5.91    1.13
 -34  -6   1    5.82    1.18
  34  -6  -1    5.11    0.88
 -34   6   1    5.81    1.22
  32  -6  -1    2.16    0.74
 -32  -6   1    3.71    1.01
  32  -6  -1    2.79    0.69
 -32   6   1    4.43    1.01
  30  -6  -1    1.71    0.57
 -30  -6   1    1.06    0.68
  30  -6  -1    3.23    0.84
 -30   6   1    0.36    0.49
  28  -6  -1    9.58    1.26
 -28  -6   1    8.58    1.32
  28  -6  -1    8.35    1.04
 -28   6   1    7.99    1.25
  26  -6  -1    3.56    0.83
 -26  -6   1    5.90    1.07
  26  -6  -1    4.44    0.78
 -26   6   1    3.09    0.88
  24  -6  -1    3.92    0.84
 -24  -6   1    3.39    0.82
  24  -6  -1    2.33    0.60
 -24  -6   1    3.22    0.47
 -24   6   1    3.85    0.85
  22  -6  -1   -0.55    0.39
  22  -6  -1    0.26    0.39
 -22  -6   1    0.78    0.26
 -22  -6   1    0.42    0.46
  20  -6  -1   14.94    1.34
  20  -6  -1    9.74    1.17
 -20  -6   1   11.03    0.74
 -20  -6   1    8.13    1.22
 -18  -6   1    4.82    0.50
  18  -6  -1    3.87    0.83
 -18  -6   1    4.19    0.84
  18  -6  -1    5.84    0.86
 -16  -6   1   64.67    2.97
  16  -6  -1   65.25    3.40
 -14  -6   1    7.95    0.58
 -14  -6   1    7.44    1.05
  14  -6  -1    9.44    1.11
 -12  -6   1    2.64    0.36
 -12  -6   1    1.88    0.59
  12  -6  -1    2.22    0.55
 -10  -6   1   37.67    2.21
 -10  -6   1   34.88    1.73
  10  -6  -1   33.49    1.71
  10  -6  -1   34.90    2.12
   8  -6  -1    7.98    0.71
  -8  -6   1    7.22    0.57
   8  -6  -1    7.27    0.95
  -8  -6   1    9.13    1.03
   6  -6  -1   20.79    1.23
  -6  -6   1   21.53    1.47
   6  -6  -1   22.15    1.55
  -6  -6   1   21.47    1.20
   4  -6  -1   12.27    1.28
  -4  -6   1   16.40    1.16
  -4  -6   1   13.12    0.89
   4  -6  -1   14.03    0.95
  -2  -6   1   24.22    1.48
  -2  -6   1   21.89    1.65
   2  -6  -1   21.48    1.58
   2  -6  -1   21.42    1.35
   0  -6  -1   21.40    1.51
   0  -6   1   17.99    1.24
   0  -6   1   20.92    1.84
   0  -6  -1   18.16    1.25
   2  -6   1  121.16    5.50
   2  -6   1  123.63    5.88
  -2  -6  -1  121.62    5.60
  -2  -6  -1  115.70    5.56
  -4  -6  -1   55.57    2.93
   4  -6   1   58.09    3.23
   4  -6   1   57.82    2.83
  -4  -6  -1   59.27    3.04
   6  -6   1    2.89    0.47
  -6  -6  -1    2.39    0.57
   6  -6   1    2.64    0.65
  -6  -6  -1    2.19    0.49
  -8  -6  -1   12.80    1.32
   8  -6   1   15.26    1.51
  -8  -6  -1   13.83    1.00
   8  -6   1   12.53    0.88
  10  -6   1   36.35    2.31
 -10  -6  -1   37.72    2.03
 -10  -6  -1   37.60    2.27
  10  -6   1   37.28    1.86
  12  -6   1    3.15    0.69
 -12  -6  -1    1.92    0.57
 -12  -6  -1    0.90    0.33
 -14  -6  -1   42.01    2.18
  14  -6   1   43.29    2.51
 -14  -6  -1   39.34    2.47
 -14   6  -1   39.15    2.35
 -16  -6  -1    0.47    0.46
 -16  -6  -1    0.18    0.23
  16  -6   1    0.85    0.47
 -16   6  -1   -0.05    0.31
  18  -6   1   17.95    1.64
 -18  -6  -1   15.10    1.06
 -18  -6  -1   15.42    1.64
 -18   6  -1   15.21    1.46
 -20  -6  -1    5.45    0.68
  20  -6   1    5.80    0.87
 -20  -6  -1    6.16    1.01
 -20   6  -1    4.09    0.79
 -22  -6  -1    0.48    0.29
 -22  -6  -1    0.22    0.40
  22  -6   1    1.15    0.52
 -22   6  -1    0.01    0.34
 -24  -6  -1   13.83    1.65
  24  -6   1   12.16    1.31
 -24  -6  -1   13.12    0.97
 -24   6  -1   13.03    1.49
  26  -6   1    5.62    0.94
 -26  -6  -1    2.43    0.76
 -26  -6  -1    3.53    0.58
  28  -6   1    2.26    0.71
  28  -6   1    2.73    0.69
 -28  -6  -1    2.91    0.84
 -28  -6  -1    1.86    0.46
 -28   6  -1    3.13    0.83
 -30  -6  -1    1.31    0.43
 -30  -6  -1    1.11    0.65
  30  -6   1    1.28    0.62
  30  -6   1    0.85    0.54
 -30   6  -1    1.18    0.56
 -32  -6  -1    5.75    1.18
  32  -6   1    4.78    1.01
  32  -6   1    4.36    0.86
 -32  -6  -1    3.92    0.69
 -32   6  -1    4.13    0.94
  34  -6   1   -0.35    0.50
 -34  -6  -1    0.26    0.60
 -34  -6  -1    0.79    0.40
  34  -6   1    0.82    0.70
 -34   6  -1    0.33    0.57
 -36  -6  -1    0.63    0.42
  36  -6   1    0.62    0.58
 -36  -6  -1    0.42    0.68
 -36   6  -1   -0.21    0.48
 -35  -7   1    2.45    0.89
  35  -7  -1    1.70    0.86
  35  -7  -1    2.62    0.79
 -33  -7   1    1.82    0.88
  33  -7  -1    4.99    1.05
  33  -7  -1    4.41    0.84
 -31  -7   1    3.68    0.97
  31  -7  -1    4.93    1.03
  31  -7  -1    6.00    0.95
 -29  -7   1    2.10    0.83
  29  -7  -1    1.86    0.65
  29  -7  -1    1.89    0.82
  27  -7  -1    3.37    0.75
  27  -7  -1    3.10    0.92
 -27  -7   1    4.40    1.06
  25  -7  -1    2.78    0.72
  25  -7  -1    3.40    0.83
 -25  -7   1    4.18    1.02
  23  -7  -1    1.57    0.66
  23  -7  -1    2.41    0.64
 -23  -7   1    1.39    0.69
 -21  -7   1    1.73    0.70
  21  -7  -1    1.35    0.62
  21  -7  -1    0.68    0.46
  19  -7  -1    5.09    0.88
 -19  -7   1    4.34    0.93
  19  -7  -1    7.24    1.03
  17  -7  -1   36.01    2.28
 -17  -7   1   35.26    2.49
  17  -7  -1   38.82    2.33
 -15  -7   1    3.18    0.82
  15  -7  -1    1.69    0.61
 -13  -7   1   47.11    2.84
  13  -7  -1   45.69    2.73
 -11  -7   1    1.11    0.51
  11  -7  -1    2.64    0.69
  -9  -7   1   12.36    0.95
  -9  -7   1   13.89    1.43
   9  -7  -1   15.35    1.50
   7  -7  -1   17.56    1.64
   7  -7  -1   12.40    0.93
  -7  -7   1   13.95    0.91
  -7  -7   1   11.69    1.28
   5  -7  -1    9.75    0.93
   5  -7  -1    8.99    1.21
  -5  -7   1    9.34    1.13
  -5  -7   1    9.39    0.85
  -3  -7   1    5.11    1.02
   3  -7  -1    5.57    0.95
  -3  -7   1    6.43    0.87
   3  -7  -1    7.09    0.79
  -3  -7   1    7.02    0.76
  -1  -7   1   23.45    1.79
   1  -7  -1   17.59    1.82
   1  -7  -1   21.65    1.41
  -1  -7   1   21.75    1.46
  -1  -7  -1   29.87    1.83
  -1  -7  -1   29.88    1.85
   1  -7   1   30.66    1.81
   1  -7   1   30.78    2.16
  -1  -7  -1   27.89    2.03
  -3  -7  -1   37.09    2.40
  -3  -7  -1   40.71    2.26
  -3  -7  -1   37.56    2.17
   3  -7   1   37.95    2.49
   3  -7   1   35.85    2.08
   5  -7   1   19.57    1.84
   5  -7   1   14.83    1.10
  -5  -7  -1   16.51    1.32
  -5  -7  -1   18.11    1.27
  -7  -7  -1   26.11    1.81
   7  -7   1   28.33    1.97
  -7  -7  -1   26.28    1.64
   7  -7   1   24.79    1.52
  -9  -7  -1    2.64    0.63
   9  -7   1    0.71    0.47
  -9  -7  -1    2.11    0.52
 -11  -7  -1   42.56    2.34
 -11  -7  -1   45.41    2.70
  11  -7   1   43.46    2.71
 -13  -7  -1    3.48    0.77
  13  -7   1    4.01    0.85
 -13  -7  -1    5.38    0.72
 -15  -7  -1    2.51    0.50
  15  -7   1    1.17    0.58
 -15  -7  -1    2.10    0.65
 -17  -7  -1   12.09    0.95
  17  -7   1   11.94    1.40
 -17  -7  -1   12.96    1.50
 -19  -7  -1    0.48    0.29
  19  -7   1    1.00    0.55
 -19  -7  -1    0.60    0.56
  21  -7   1    4.23    0.84
 -21  -7  -1    3.17    0.80
 -21  -7  -1    3.78    0.60
 -21   7  -1    4.53    0.88
 -23  -7  -1    5.00    0.66
 -23  -7  -1    3.44    0.88
  23  -7   1    4.24    0.87
 -23   7  -1    5.53    1.03
 -25  -7  -1    7.54    1.23
 -25  -7  -1    6.74    0.79
  25  -7   1    7.89    1.20
 -25   7  -1    4.50    1.00
 -27  -7  -1    3.46    0.94
 -27  -7  -1    3.33    0.60
  27  -7   1    4.02    0.89
  27  -7   1    3.57    0.84
 -27   7  -1    4.47    0.95
 -29  -7  -1    3.03    0.99
  29  -7   1    3.60    0.84
  29  -7   1    2.66    0.80
 -29   7  -1    2.74    0.84
  31  -7   1    2.65    0.76
 -31  -7  -1    2.89    0.98
  31  -7   1    2.99    0.88
 -31   7  -1    3.01    0.96
  33  -7   1    1.31    0.62
  33  -7   1    1.12    0.73
 -33  -7  -1    0.69    0.77
 -33   7  -1    0.84    0.71
  32  -8  -1    0.09    0.53
 -30  -8   1    3.01    0.98
  30  -8  -1    1.97    0.88
  30  -8  -1    2.82    0.79
  28  -8  -1    0.99    0.69
  28  -8  -1    0.09    0.51
 -28  -8   1    1.68    0.83
 -26  -8   1    1.60    0.77
  26  -8  -1    0.62    0.53
  26  -8  -1    2.43    0.81
 -24  -8   1    7.04    1.39
  24  -8  -1    5.85    1.04
  24  -8  -1    4.33    1.04
 -22  -8   1    0.49    0.64
  22  -8  -1   -0.15    0.51
  22  -8  -1    1.16    0.60
 -20  -8   1    2.09    0.76
  20  -8  -1    5.04    0.97
  20  -8  -1    4.38    0.89
  18  -8  -1    9.32    1.25
  18  -8  -1    7.90    1.21
 -18  -8   1   10.34    1.49
  16  -8  -1    2.72    0.78
 -16  -8   1    2.98    0.85
  16  -8  -1    1.05    0.55
 -14  -8   1    9.24    1.34
  14  -8  -1   10.09    1.35
 -12  -8   1    9.28    1.31
  12  -8  -1   10.50    1.33
 -10  -8   1    1.16    0.52
  10  -8  -1    1.32    0.61
  -8  -8   1    0.69    0.48
   8  -8  -1   -0.39    0.36
   6  -8  -1    3.18    0.79
  -6  -8   1    5.63    0.91
  -6  -8   1    3.95    0.88
  -4  -8   1    0.51    0.40
   4  -8  -1    1.49    0.45
  -4  -8   1    0.98    0.62
   4  -8  -1    0.79    0.59
   2  -8  -1    0.81    0.41
  -2  -8   1    1.52    0.51
  -2  -8   1    1.99    0.69
   2  -8  -1    0.86    0.53
   0  -8  -1    6.91    0.91
   0  -8  -1    4.32    0.94
   0  -8   1    5.67    0.85
   0  -8  -1    5.66    0.89
   0  -8   1    6.79    1.13
  -2  -8  -1    0.59    0.40
   2  -8   1   -0.43    0.42
  -2  -8  -1   -0.36    0.43
  -2  -8  -1    0.19    0.34
   2  -8   1    0.49    0.35
  -4  -8  -1    2.53    0.79
  -4  -8  -1    3.37    0.67
   4  -8   1    3.77    0.66
   4  -8   1    4.18    0.97
  -4  -8  -1    3.37    0.73
  -6  -8  -1    2.88    0.71
  -6  -8  -1    1.79    0.51
   6  -8   1    1.76    0.72
   8  -8   1    0.98    0.57
  -8  -8  -1    1.52    0.48
  -8  -8  -1    0.76    0.52
  10  -8   1    0.04    0.47
 -10  -8  -1    0.02    0.32
 -12  -8  -1    1.58    0.45
 -12  -8  -1    1.15    0.57
  12  -8   1    1.16    0.63
 -14  -8  -1    6.32    1.06
 -14  -8  -1    5.57    0.78
  14  -8   1    5.82    1.09
  16  -8   1   -0.25    0.40
 -16  -8  -1    0.94    0.55
 -18  -8  -1    3.40    0.94
  18  -8   1    2.91    0.79
 -20  -8  -1    0.24    0.50
  20  -8   1    0.52    0.52
  22  -8   1    2.04    0.67
 -22  -8  -1    3.49    0.90
  24  -8   1    0.05    0.49
 -24  -8  -1    1.12    0.67
  26  -8   1    2.19    0.72
 -26  -8  -1    0.98    0.74
  26  -8   1    1.36    0.66
  28  -8   1    2.62    0.77
 -28  -8  -1    5.29    1.26
  28  -8   1    3.71    0.89
  30  -8   1    0.99    0.76
 -30  -8  -1    1.29    0.90
  30  -8   1    1.97    0.76
 -27  -9   1   -0.73    0.58
  27  -9  -1    0.32    0.58
  27  -9  -1    0.14    0.63
  25  -9  -1    0.92    0.64
  25  -9  -1    0.70    0.63
 -25  -9   1    0.87    0.78
  23  -9  -1    0.44    0.58
  23  -9  -1    0.46    0.59
 -23  -9   1    0.07    0.57
  21  -9  -1    0.46    0.58
 -21  -9   1    0.36    0.66
  21  -9  -1    0.19    0.48
  19  -9  -1    0.86    0.61
 -19  -9   1   -0.34    0.52
  19  -9  -1    0.49    0.54
  17  -9  -1    0.07    0.57
 -17  -9   1    0.76    0.62
  17  -9  -1   -0.07    0.43
  15  -9  -1   -0.26    0.53
 -15  -9   1    0.68    0.61
  15  -9  -1    0.50    0.52
 -13  -9   1   -0.70    0.42
  13  -9  -1   -0.02    0.45
  11  -9  -1    0.49    0.58
 -11  -9   1    2.41    0.77
  -9  -9   1   -0.38    0.39
   9  -9  -1   -0.35    0.47
  -9  -9   1   -0.28    0.43
  -7  -9   1    2.04    0.77
  -7  -9   1    1.26    0.56
   7  -9  -1    1.06    0.64
  -5  -9   1    0.76    0.47
   5  -9  -1   -0.27    0.46
  -5  -9   1   -0.41    0.49
  -3  -9   1    4.40    0.85
   3  -9  -1    5.15    1.06
  -3  -9   1    3.99    1.04
   1  -9  -1    1.42    0.71
   1  -9  -1    0.58    0.44
  -1  -9   1    1.54    0.55
  -1  -9   1    0.13    0.58
   1  -9  -1    1.18    0.52
  -1  -9  -1   -0.21    0.32
   1  -9   1    0.02    0.35
  -1  -9  -1   -0.12    0.47
   1  -9   1    0.13    0.58
   3  -9   1   -0.40    0.46
  -3  -9  -1    0.41    0.51
  -3  -9  -1   -0.13    0.37
  -5  -9  -1   -0.19    0.49
   5  -9   1    1.76    0.72
  -5  -9  -1    0.68    0.54
  -7  -9  -1   -0.58    0.36
  -7  -9  -1   -0.02    0.51
   7  -9   1    0.37    0.60
   9  -9   1    0.54    0.56
  -9  -9  -1   -0.18    0.40
  11  -9   1    0.86    0.57
 -11  -9  -1    0.46    0.53
  13  -9   1    0.32    0.52
 -13  -9  -1   -0.44    0.41
 -15  -9  -1   -0.21    0.52
  15  -9   1   -0.13    0.53
 -17  -9  -1   -0.27    0.47
  17  -9   1    1.02    0.71
  19  -9   1    0.36    0.55
 -19  -9  -1   -0.23    0.47
  21  -9   1    0.15    0.57
 -21  -9  -1   -0.12    0.50
  23  -9   1   -0.14    0.44
 -23  -9  -1   -0.99    0.50
  25  -9   1    1.29    0.73
 -25  -9  -1   -0.04    0.67
  25  -9   1    0.81    0.61
 -22 -10   1    1.21    0.83
  22 -10  -1    0.63    0.63
  22 -10  -1   -0.28    0.66
  20 -10  -1    1.51    0.77
  20 -10  -1    0.24    0.60
 -20 -10   1    2.08    0.93
  18 -10  -1    1.44    0.71
  18 -10  -1    1.67    0.71
 -18 -10   1    0.46    0.66
 -16 -10   1    1.08    0.80
  16 -10  -1   -0.06    0.66
  16 -10  -1    1.59    0.68
  14 -10  -1    2.34    0.80
  14 -10  -1    1.65    0.81
 -14 -10   1    3.10    0.94
  12 -10  -1    0.49    0.64
 -12 -10   1    3.32    0.92
  12 -10  -1    1.50    0.65
  10 -10  -1    0.59    0.68
 -10 -10   1    0.45    0.62
 -10 -10   1    0.21    0.55
   8 -10  -1    1.04    0.68
  -8 -10   1    2.62    0.95
  -8 -10   1    2.14    0.76
  -6 -10   1    4.54    1.11
   6 -10  -1    6.81    1.29
  -6 -10   1    6.26    1.11
   4 -10  -1    0.38    0.65
  -4 -10   1    0.62    0.60
  -4 -10   1    1.15    0.59
   2 -10  -1    0.40    0.65
  -2 -10   1    0.58    0.50
  -2 -10   1    0.43    0.56
   0 -10   1    0.70    0.67
   0 -10  -1    0.80    0.66
  -2 -10  -1    0.20    0.55
   2 -10   1    1.13    0.70
  -2 -10  -1    0.53    0.51
   4 -10   1    0.18    0.60
  -4 -10  -1   -0.09    0.56
  -4 -10  -1    0.06    0.43
  -6 -10  -1    0.52    0.53
   6 -10   1    1.17    0.76
  -6 -10  -1    0.13    0.62
  -8 -10  -1   -0.51    0.42
   8 -10   1    0.50    0.61
  -8 -10  -1   -0.13    0.59
 -10 -10  -1   -0.21    0.49
  10 -10   1   -0.11    0.46
 -10 -10  -1   -0.27    0.50
  12 -10   1    1.27    0.78
 -12 -10  -1    1.80    0.80
 -14 -10  -1    1.00    0.62
  14 -10   1    0.27    0.70
 -16 -10  -1   -0.22    0.62
  16 -10   1    0.72    0.71
 -18 -10  -1    2.82    0.97
  18 -10   1    2.36    0.92
  20 -10   1    0.41    0.70
 -20 -10  -1   -0.48    0.58
  15 -11  -1    1.33    0.86
 -15 -11   1    1.49    0.84
 -15 -11   1    1.30    0.79
  15 -11  -1    0.84    0.66
 -13 -11   1    2.75    1.03
  13 -11  -1    4.38    1.18
 -13 -11   1    3.48    1.05
  13 -11  -1    4.31    1.03
  11 -11  -1    0.81    0.76
 -11 -11   1    1.68    0.83
  11 -11  -1    0.79    0.62
 -11 -11   1    0.74    0.66
   9 -11  -1    1.72    0.78
  -9 -11   1    1.51    0.90
   9 -11  -1    2.00    0.96
  -9 -11   1    1.12    0.78
   7 -11  -1    0.79    0.61
  -7 -11   1    0.68    0.64
  -7 -11   1    0.01    0.61
   7 -11  -1   -0.18    0.59
   5 -11  -1    3.16    0.80
   5 -11  -1    1.74    0.94
  -5 -11   1    1.54    0.85
   3 -11  -1    1.91    0.85
  -3 -11   1    1.45    0.82
  -1 -11   1   -0.05    0.68
   1 -11  -1   -0.77    0.58
   1 -11   1   -0.88    0.62
  -1 -11  -1    1.75    0.88
   3 -11   1    5.04    1.34
  -3 -11  -1    3.55    1.08
   5 -11   1    1.73    0.92
  -5 -11  -1    0.80    0.72
  -5 -11  -1    0.87    0.75
  -5 -11  -1    2.43    1.11
   7 -11   1    2.05    0.85
  -7 -11  -1    2.72    0.92
  -7 -11  -1    2.64    0.90
  -9 -11  -1    0.64    0.73
  -9 -11  -1    0.47    0.62
   9 -11   1    1.35    0.92
 -11 -11  -1    0.43    0.76
  11 -11   1    2.02    0.94
 -11 -11  -1    0.65    0.73
  13 -11   1    0.72    0.80
 -13 -11  -1    0.21    0.60
 -13 -11  -1    0.57    0.66
 -42   0   2    3.17    0.80
  42   0  -2    3.79    0.94
 -40   0   2    5.84    1.01
  40   0  -2    5.87    1.08
  38   0  -2   -0.21    0.61
 -38   0   2    2.08    0.63
  36   0  -2    9.18    1.19
 -36   0   2    8.10    1.07
 -34   0   2    5.49    0.87
  34   0  -2    5.17    0.89
 -32   0   2    7.27    0.91
 -32   0   2    6.03    0.84
  32   0  -2    4.50    0.80
 -30   0   2   19.18    1.40
  30   0  -2   20.52    1.46
 -30   0   2   19.30    1.39
  30   0  -2   20.95    1.47
  28   0  -2   -0.44    0.46
 -28   0   2    0.05    0.28
  28   0  -2   -0.21    0.43
 -28   0   2   -0.08    0.29
 -26   0   2  109.44    5.10
  26   0  -2  108.84    5.10
 -26   0   2  106.15    5.09
  26   0  -2  112.22    5.06
  24   0  -2    0.19    0.43
 -24   0   2    0.96    0.35
  24   0  -2    0.27    0.34
 -24   0   2    0.93    0.36
 -22   0   2   38.87    2.10
  22   0  -2   41.75    2.14
  22   0  -2   37.91    2.09
 -22   0   2   41.42    2.14
 -20   0   2   77.98    3.67
  20   0  -2   75.01    3.64
  20   0  -2   81.92    3.68
 -20   0   2   77.48    3.68
 -16   0   2    0.90    0.27
  16   0  -2    0.71    0.28
 -16   0   2    0.44    0.22
  16   0  -2    1.04    0.35
 -14   0   2   23.48    1.27
 -14   0   2   21.82    1.23
  14   0  -2   22.25    1.29
  14   0  -2   24.43    1.25
  12   0  -2   17.08    0.97
 -12   0   2   16.73    1.00
  12   0  -2   17.69    1.06
 -12   0   2   18.21    0.99
 -10   0   2   23.90    1.24
 -10   0   2   23.37    1.21
  10   0  -2   22.83    1.18
  10   0  -2   23.46    1.29
   8   0  -2   42.02    1.91
  -8   0   2   41.65    1.98
  -8   0   2   40.78    1.95
   8   0  -2   42.43    2.03
   6   0  -2  348.90   14.63
  -6   0   2  347.68   14.61
   6   0  -2  340.82   14.51
   0   0   2   39.09    1.85
   0   0  -2   38.57    1.81
   0   0  -2   40.98    1.82
   0   0   2   39.19    1.72
  -2   0  -2   19.88    1.01
  -2   0  -2   20.24    1.01
   2   0   2   20.73    1.05
   2   0   2   20.49    0.93
   4   0   2  750.94   33.96
  -4   0  -2  840.07   34.06
  -4   0  -2  824.65   33.99
   4   0   2  827.84   33.97
   6   0   2   25.13    1.13
  -6   0  -2   22.83    1.17
  -6   0  -2   23.27    1.14
  -8   0  -2   29.84    1.42
   8   0   2   31.16    1.43
 -10   0  -2    0.01    0.06
 -18   0  -2    9.94    0.70
  20   0   2    1.87    0.43
  20   0   2    1.91    0.31
 -20   0  -2    1.61    0.34
  22   0   2   34.57    1.67
  22   0   2   34.28    1.86
 -24   0  -2    0.06    0.22
  24   0   2   -0.03    0.32
 -24   0  -2    0.08    0.27
 -26   0  -2    7.62    0.88
  26   0   2    6.81    0.83
 -26   0  -2    8.15    0.87
  28   0   2   25.58    1.66
 -28   0  -2   26.08    1.65
 -28   0  -2   26.50    1.60
 -30   0  -2    5.94    0.78
 -30   0  -2    7.74    0.91
  30   0   2    6.33    0.88
  32   0   2    5.97    0.90
 -32   0  -2    7.08    0.93
  34   0   2    6.71    1.00
 -34   0  -2    6.77    0.91
 -36   0  -2   -0.20    0.34
  36   0   2   -0.76    0.41
 -38   0  -2    1.07    0.51
  38   0   2    1.70    0.71
  40   0   2    0.32    0.63
 -40   0  -2   -0.14    0.38
 -43  -1   2    3.25    0.79
  43  -1  -2    4.88    1.07
 -43   1   2    1.79    0.74
  43   1  -2    2.65    0.96
 -41  -1   2    3.40    0.80
  41  -1  -2    3.36    0.95
  41   1  -2    4.52    1.01
 -41   1   2    4.17    0.94
 -39  -1   2    0.88    0.51
  39  -1  -2   -0.03    0.60
 -39   1   2    0.46    0.55
  39   1  -2    1.00    0.66
 -37  -1   2    4.06    0.77
  37  -1  -2    1.96    0.69
 -37   1   2    2.11    0.65
  37   1  -2    2.62    0.85
 -35  -1   2    0.23    0.42
 -35  -1   2    0.50    0.38
  35  -1  -2    0.50    0.45
  35   1  -2    0.79    0.63
 -35   1   2   -0.01    0.30
 -33  -1   2   10.62    1.11
  33  -1  -2    7.16    0.95
 -33  -1   2    8.34    1.07
 -33   1   2    9.63    1.17
  33   1  -2    7.86    1.17
 -31  -1   2    0.34    0.37
 -31  -1   2   -0.05    0.28
  31  -1  -2    0.57    0.47
  31  -1  -2   -0.38    0.47
 -31   1   2    0.21    0.31
  31   1  -2   -0.19    0.43
 -29  -1   2   14.88    1.12
  29  -1  -2   14.76    1.17
 -29  -1   2   16.56    1.25
  29  -1  -2   14.34    1.31
 -29   1   2   17.33    1.89
 -29   1   2   12.65    1.28
  29   1  -2   12.15    1.33
  27  -1  -2   13.96    1.05
 -27  -1   2   11.40    1.14
 -27  -1   2   12.20    0.96
  27  -1  -2   10.11    1.09
 -27   1   2   13.17    0.97
  27   1  -2   11.41    0.97
  27   1  -2   11.92    1.28
 -27   1   2   11.67    1.17
 -25  -1   2    1.63    0.39
  25  -1  -2    1.96    0.48
 -25  -1   2    1.78    0.49
  25  -1  -2    0.67    0.47
 -25   1   2    2.29    0.51
  25   1  -2    1.42    0.54
  25   1  -2    2.44    0.55
 -25   1   2    2.31    0.45
  23  -1  -2   42.54    2.09
  23  -1  -2   42.38    2.17
 -23  -1   2   41.13    2.23
 -23  -1   2   44.46    2.14
 -23   1   2   40.84    2.22
  23   1  -2   33.65    2.04
  23   1  -2   38.80    2.24
  21  -1  -2   38.93    2.05
 -21  -1   2   37.62    2.08
  21  -1  -2   38.81    1.92
 -21  -1   2   36.94    1.94
 -21   1   2   39.55    1.95
  21   1  -2   34.01    2.07
 -21   1   2   37.81    2.07
  19  -1  -2   74.03    3.54
 -19  -1   2   72.13    3.47
 -19  -1   2   74.49    3.62
  19  -1  -2   76.86    3.44
  19   1  -2   71.44    3.49
 -19   1   2   81.44    3.50
 -19   1   2   71.41    3.58
  19   1  -2   81.00    3.66
 -17  -1   2   75.01    3.63
  17  -1  -2   85.52    3.62
  17  -1  -2   77.53    3.72
 -17  -1   2   79.28    3.79
 -17   1   2   82.19    3.66
  17   1  -2   80.36    3.80
 -17   1   2   80.62    3.78
  17   1  -2   82.05    3.71
  15  -1  -2   21.48    1.11
 -15  -1   2   20.63    1.27
 -15  -1   2   20.88    1.14
 -15   1   2   21.15    1.16
  15   1  -2   23.84    1.31
 -15   1   2   20.53    1.25
  15   1  -2   22.10    1.23
 -13  -1   2    0.01    0.12
  13  -1  -2    0.29    0.14
 -13  -1   2   -0.02    0.12
  13  -1  -2   -0.06    0.12
 -13   1   2    0.41    0.22
  13   1  -2    0.31    0.25
 -13   1   2    0.36    0.17
  13   1  -2    0.34    0.25
 -11  -1   2    0.14    0.11
 -11  -1   2    0.26    0.19
  11  -1  -2    0.09    0.23
  11  -1  -2    0.40    0.14
  11   1  -2   -0.03    0.21
  11   1  -2    0.06    0.23
 -11   1   2    0.10    0.13
 -11   1   2    0.16    0.18
  -9  -1   2    2.61    0.29
   9  -1  -2    3.39    0.26
  -9  -1   2    2.65    0.38
   9  -1  -2    3.52    0.47
   9   1  -2    3.28    0.41
  -9   1   2    2.48    0.37
   9   1  -2    3.01    0.41
  -9   1   2    3.36    0.35
   7  -1  -2   50.08    2.06
   7  -1  -2   45.73    2.23
  -7  -1   2   47.05    2.11
  -7  -1   2   45.30    2.25
   7   1  -2   48.29    2.21
  -7   1   2   46.94    2.16
   5  -1  -2   69.93    2.93
  -5   1   2   67.36    3.05
   5   1  -2   69.60    3.10
   3  -1  -2  423.74   17.85
   3  -1  -2  445.05   18.01
  -3  -1   2  436.10   18.05
   3   1  -2  408.90   18.00
  -3   1   2  426.02   17.99
   1  -1  -2  146.36    6.05
  -1  -1   2  137.98    6.08
  -1  -1   2  143.40    6.07
  -1   1   2  138.12    6.05
   1   1  -2  137.93    5.93
   1   1  -2  140.81    6.07
  -1  -1  -2  575.95   23.37
   1  -1   2  558.58   23.39
   1  -1   2  563.91   23.41
  -1   1  -2  546.37   23.41
   1   1   2  546.82   23.40
  -1   1  -2  553.75   23.27
  -3  -1  -2    0.25    0.22
  -3  -1  -2    0.01    0.06
   3  -1   2    0.36    0.15
   3  -1   2   -0.03    0.11
  -3   1  -2    0.03    0.14
   3   1   2    0.32    0.17
  -3   1  -2    0.28    0.09
   5  -1   2   68.09    3.16
   5  -1   2   71.42    3.18
  -5  -1  -2   72.48    3.22
  -5  -1  -2   69.98    3.08
  -5   1  -2   70.88    3.09
   5   1   2   74.79    3.13
  -5   1  -2   69.72    3.18
   7  -1   2    1.20    0.23
  -7  -1  -2    1.11    0.16
  -7  -1  -2    0.93    0.22
   7  -1   2    1.35    0.24
  -7   1  -2    1.02    0.18
   7   1   2    0.91    0.22
  -9  -1  -2    6.63    0.49
  -9  -1  -2    6.46    0.34
  -9   1  -2    4.71    0.39
   9   1   2    6.82    0.51
  11  -1   2   22.31    1.23
 -11  -1  -2   25.47    1.28
 -11   1  -2   24.58    1.23
  13  -1   2   11.79    0.73
 -13  -1  -2   11.76    0.75
 -13   1  -2   11.76    0.73
  13   1   2   11.72    0.81
 -15  -1  -2   54.83    2.51
  15  -1   2   53.50    2.49
  15   1   2   49.94    2.53
  15   1   2   52.90    2.27
 -15   1  -2   53.30    2.50
  17  -1   2    3.36    0.43
 -17  -1  -2    3.12    0.42
  17   1   2    3.62    0.26
  17   1   2    3.65    0.54
 -17   1  -2    4.75    0.51
  19  -1   2   18.13    1.05
 -19  -1  -2   15.79    0.99
  19   1   2   15.46    0.77
  19   1   2   17.34    1.14
 -19   1  -2   14.95    1.00
  21  -1   2    7.52    0.74
 -21  -1  -2    7.35    0.72
  21   1   2    8.40    0.89
  23  -1   2    0.03    0.21
 -23  -1  -2   -0.08    0.18
 -23  -1  -2   -0.13    0.24
  23  -1   2    0.27    0.25
 -23   1  -2   -0.01    0.10
  23   1   2   -0.25    0.35
 -25  -1  -2   10.37    0.85
 -25  -1  -2   12.79    1.21
  25  -1   2   12.75    0.95
  25  -1   2   10.81    0.83
  25   1   2   10.47    1.08
 -25   1  -2   11.00    1.00
 -25   1  -2   11.53    0.91
 -27  -1  -2    1.49    0.40
  27  -1   2    0.72    0.38
 -27  -1  -2    0.58    0.39
 -27   1  -2    1.25    0.40
 -27   1  -2    0.43    0.30
  27   1   2    0.98    0.48
 -29  -1  -2   17.33    1.23
  29  -1   2   17.48    1.28
 -29  -1  -2   18.81    1.38
 -29   1  -2   18.51    1.29
  29   1   2   15.71    1.48
 -31  -1  -2    8.72    0.97
  31  -1   2    9.23    1.06
 -31  -1  -2    9.74    1.12
 -31   1  -2    8.92    1.03
  31   1   2    9.70    1.19
  33  -1   2    0.40    0.51
 -33  -1  -2    0.21    0.33
 -33  -1  -2    0.22    0.37
  33   1   2    1.21    0.67
 -33   1  -2    0.53    0.36
 -35  -1  -2    3.87    0.70
  35  -1   2    4.57    0.84
 -35   1  -2    3.16    0.67
  35   1   2    3.46    0.86
  37  -1   2   -0.13    0.55
 -37  -1  -2    0.36    0.35
  37   1   2    0.20    0.66
 -37   1  -2    0.13    0.33
  39  -1   2   -0.07    0.53
 -39  -1  -2   -0.09    0.39
 -39   1  -2   -0.14    0.38
  39   1   2   -0.25    0.64
  41  -1   2   -0.57    0.66
 -41  -1  -2    0.13    0.46
  41   1   2    0.29    0.69
 -41   1  -2    0.80    0.55
 -42  -2   2    0.84    0.53
  42  -2  -2   -0.34    0.61
  42   2  -2    0.22    0.75
 -42   2   2    0.24    0.50
 -40  -2   2    0.04    0.38
  40  -2  -2   -0.37    0.52
  40   2  -2    0.56    0.73
 -40   2   2    0.15    0.50
  38  -2  -2    0.64    0.59
 -38  -2   2    0.14    0.38
 -38  -2   2   -0.52    0.37
  38   2  -2   -0.80    0.47
 -38   2   2   -0.46    0.38
  36  -2  -2   -0.17    0.42
 -36  -2   2   -0.75    0.33
 -36  -2   2   -0.27    0.29
 -36   2   2   -0.65    0.34
  36   2  -2   -0.48    0.48
 -34  -2   2    1.01    0.45
  34  -2  -2    0.74    0.50
 -34  -2   2    1.05    0.51
  34  -2  -2   -0.05    0.54
 -34   2   2    1.35    0.58
  34   2  -2    1.08    0.60
  32  -2  -2    0.62    0.55
 -32  -2   2    0.43    0.41
  32  -2  -2   -0.12    0.35
 -32  -2   2    0.57    0.34
 -32   2   2   -0.24    0.29
  32   2  -2    0.75    0.65
  30  -2  -2    0.08    0.39
  30  -2  -2    0.04    0.50
 -30  -2   2   -0.10    0.31
 -30  -2   2    0.37    0.26
 -30   2   2    0.97    0.47
  30   2  -2    0.36    0.52
 -28  -2   2   -0.19    0.22
 -28  -2   2   -0.05    0.29
  28  -2  -2   -0.05    0.31
  28  -2  -2   -0.13    0.47
 -28   2   2    0.25    0.37
  28   2  -2    0.00    0.53
 -26  -2   2    3.95    0.56
  26  -2  -2    3.32    0.69
  26  -2  -2    3.47    0.56
 -26  -2   2    3.03    0.65
 -26   2   2    3.30    0.65
  26   2  -2    2.32    0.74
 -24  -2   2    6.79    0.94
  24  -2  -2    8.68    0.78
  24  -2  -2    6.80    0.87
 -24  -2   2    7.45    0.74
 -24   2   2    7.01    0.91
 -24   2   2    7.94    0.70
  24   2  -2    7.24    1.03
  22  -2  -2   23.95    1.48
 -22  -2   2   24.13    1.32
 -22  -2   2   19.33    1.47
  22  -2  -2   24.36    1.31
  22   2  -2   23.03    1.59
 -22   2   2   23.34    1.25
 -22   2   2   22.59    1.51
 -20  -2   2   30.43    1.80
  20  -2  -2   30.15    1.70
  20  -2  -2   28.50    1.52
 -20  -2   2   31.05    1.55
 -20   2   2   28.87    1.75
  20   2  -2   28.26    1.82
 -20   2   2   30.41    1.49
  20   2  -2   27.76    1.54
  18  -2  -2    0.89    0.24
 -18  -2   2    0.78    0.22
  18  -2  -2    0.52    0.36
 -18  -2   2    0.68    0.30
 -18   2   2    0.38    0.17
  18   2  -2    0.13    0.21
 -18   2   2    0.47    0.26
  18   2  -2    0.38    0.40
 -16  -2   2   36.61    2.08
  16  -2  -2   38.74    1.83
  16  -2  -2   40.32    2.03
 -16  -2   2   38.22    1.83
  16   2  -2   35.10    2.06
 -16   2   2   40.55    2.11
 -16   2   2   38.09    1.81
  16   2  -2   40.02    1.92
  14  -2  -2   22.36    1.14
  14  -2  -2   24.20    1.34
 -14  -2   2   22.01    1.13
 -14  -2   2   22.15    1.37
  14   2  -2   23.20    1.23
 -14   2   2   22.49    1.12
 -14   2   2   21.29    1.35
 -12  -2   2   83.54    3.86
  12  -2  -2   84.78    3.78
 -12  -2   2   82.71    3.58
  12  -2  -2   78.85    3.59
 -12   2   2   80.38    3.57
  12   2  -2   82.43    3.70
  10  -2  -2   16.11    0.86
 -10  -2   2   17.65    0.82
  10   2  -2   17.08    0.96
 -10   2   2   15.59    0.84
  -8  -2   2   17.69    0.80
   8  -2  -2   16.88    0.87
   8   2  -2   17.91    0.98
  -8   2   2   15.34    0.86
  -6  -2   2   15.08    0.98
   6  -2  -2   15.23    0.94
   6  -2  -2   15.89    0.83
  -6  -2   2   16.96    0.74
   6   2  -2   16.94    0.94
  -6   2   2   16.06    0.86
   4  -2  -2  214.72    9.25
   4  -2  -2  218.31    9.33
  -4  -2   2  220.85    9.40
   4   2  -2  219.40    9.36
  -2  -2   2   41.61    2.01
   2  -2  -2   42.07    1.97
   2  -2  -2   41.52    1.91
   2   2  -2   40.92    2.01
   0  -2   2    8.37    0.58
   0  -2  -2    7.93    0.55
   0  -2   2    7.50    0.61
   0   2  -2    8.16    0.40
   2  -2   2   27.14    1.50
   2  -2   2   28.71    1.43
  -2  -2  -2   29.49    1.52
  -2  -2  -2   28.60    1.37
  -2   2  -2   29.57    1.29
  -2   2  -2   27.75    1.46
   4  -2   2   15.36    0.95
  -4  -2  -2   15.44    0.81
   4  -2   2   15.46    0.87
  -4  -2  -2   14.80    0.93
  -4   2  -2   16.15    0.78
   6  -2   2    1.37    0.24
  -6  -2  -2    1.56    0.23
  -6  -2  -2    1.39    0.28
   6  -2   2    0.23    0.17
   6   2   2    0.60    0.24
  -6   2  -2    1.40    0.20
  -8  -2  -2    3.16    0.42
   8  -2   2    3.77    0.40
  -8  -2  -2    3.77    0.31
  -8   2  -2    3.23    0.34
   8   2   2    3.65    0.49
  10  -2   2   45.59    2.32
  10  -2   2   51.05    2.26
 -10  -2  -2   47.04    2.32
  12  -2   2    1.63    0.33
 -12  -2  -2    1.33    0.28
  12   2   2    1.43    0.41
 -12   2  -2    0.84    0.23
  14  -2   2    6.08    0.61
 -14  -2  -2    4.60    0.52
  14   2   2    6.09    0.71
 -14   2  -2    6.14    0.59
  16  -2   2    4.61    0.54
 -16  -2  -2    4.71    0.55
 -16   2  -2    4.74    0.56
  16   2   2    3.61    0.61
 -18  -2  -2    6.66    0.65
  18  -2   2    5.83    0.63
  18   2   2    6.02    0.79
 -18   2  -2    8.09    0.76
  20  -2   2   -0.06    0.09
 -20  -2  -2    0.15    0.18
 -20   2  -2    0.12    0.21
  20   2   2    0.16    0.45
 -22  -2  -2    3.68    0.52
 -22  -2  -2    4.08    0.73
  22   2   2    3.81    0.71
 -22   2  -2    3.43    0.53
  24  -2   2   -0.12    0.26
 -24  -2  -2    0.30    0.23
 -24  -2  -2   -0.22    0.27
  24   2   2    0.59    0.57
 -24   2  -2    0.15    0.26
 -26  -2  -2   -0.01    0.33
 -26  -2  -2    0.41    0.30
  26  -2   2    0.60    0.37
  26  -2   2    0.33    0.34
  26   2   2    0.45    0.52
 -26   2  -2    0.45    0.32
 -28  -2  -2    7.84    1.01
 -28  -2  -2    6.43    0.80
  28  -2   2    5.08    0.72
  28   2   2    6.27    1.00
 -28   2  -2    5.29    0.76
 -30  -2  -2    2.46    0.53
 -30  -2  -2    3.29    0.73
  30  -2   2    3.11    0.63
  30   2   2    2.94    0.85
 -30   2  -2    3.50    0.69
 -32  -2  -2    4.44    0.71
  32  -2   2    2.64    0.61
 -32  -2  -2    5.21    0.90
 -32   2  -2    2.15    0.57
  32   2   2    3.07    0.79
 -34  -2  -2    0.69    0.38
  34  -2   2    0.49    0.46
 -34  -2  -2    0.02    0.43
 -34   2  -2    1.27    0.50
  34   2   2    1.05    0.77
 -36  -2  -2    0.42    0.41
 -36  -2  -2    0.88    0.54
  36  -2   2   -0.07    0.49
 -36   2  -2    1.11    0.48
  36   2   2    0.86    0.73
  38  -2   2    0.34    0.55
 -38  -2  -2    0.22    0.40
  38   2   2   -0.44    0.65
 -38   2  -2   -0.18    0.35
  40  -2   2   -0.22    0.58
 -40  -2  -2    0.87    0.50
 -40   2  -2    1.53    0.65
  40   2   2    0.19    0.78
 -41  -3   2    1.45    0.76
 -41  -3   2    3.01    0.73
  41  -3  -2    3.12    0.87
  41   3  -2    3.12    0.92
 -41   3   2    3.09    0.94
 -39  -3   2   -0.24    0.47
 -39  -3   2    0.14    0.41
  39  -3  -2    0.33    0.58
 -39   3   2   -0.24    0.47
  39   3  -2    1.39    0.74
 -37  -3   2    1.99    0.74
 -37  -3   2    1.62    0.49
 -37   3   2    2.48    0.76
  37   3  -2    3.39    0.96
  35  -3  -2    2.11    0.78
  35  -3  -2    1.73    0.61
 -35  -3   2    1.06    0.57
 -35  -3   2    1.43    0.48
  35   3  -2    0.92    0.65
 -35   3   2    0.59    0.57
 -33  -3   2    3.76    0.64
 -33  -3   2    2.38    0.69
  33  -3  -2    1.96    0.75
  33  -3  -2    3.53    0.70
 -33   3   2    2.28    0.67
  33   3  -2    1.67    0.71
 -31  -3   2   -0.12    0.23
 -31  -3   2   -0.17    0.34
  31  -3  -2    0.11    0.32
  31  -3  -2   -0.38    0.44
 -31   3   2   -0.06    0.33
  31   3  -2    0.26    0.56
 -29  -3   2    4.59    0.64
  29  -3  -2    5.69    0.73
 -29  -3   2    4.13    0.81
  29  -3  -2    6.80    0.94
 -29   3   2    5.81    0.92
  29   3  -2    5.30    0.99
 -27  -3   2   11.67    1.32
  27  -3  -2    9.41    0.93
  27  -3  -2   10.81    1.17
 -27  -3   2   11.83    0.87
 -27   3   2   11.21    1.27
  27   3  -2   11.82    1.39
 -25  -3   2    1.69    0.36
  25  -3  -2    1.73    0.43
  25  -3  -2    2.22    0.62
 -25  -3   2    1.72    0.53
 -25   3   2    1.36    0.47
 -23  -3   2    2.88    0.61
  23  -3  -2    2.98    0.46
 -23  -3   2    4.40    0.50
  23  -3  -2    5.45    0.81
  23   3  -2    1.36    0.32
  21  -3  -2    8.44    0.93
 -21  -3   2    9.19    1.07
 -21  -3   2    9.23    0.64
  21  -3  -2    8.82    0.68
  21   3  -2    7.68    0.65
  19  -3  -2    1.32    0.47
  19  -3  -2    1.60    0.33
 -19  -3   2    2.25    0.51
 -19  -3   2    1.41    0.27
  19   3  -2    1.57    0.33
 -19   3   2    1.19    0.39
 -19   3   2    1.39    0.19
  17  -3  -2   32.13    1.77
 -17  -3   2   30.29    1.49
 -17  -3   2   28.55    1.82
  17  -3  -2   31.18    1.57
  17   3  -2   28.66    1.58
 -17   3   2   31.04    1.39
 -17   3   2   30.25    1.83
 -15  -3   2   11.52    0.64
  15  -3  -2   10.95    0.73
 -15  -3   2   10.19    1.04
  15  -3  -2   11.93    0.90
 -15   3   2   11.54    0.59
  15   3  -2   10.24    0.74
 -15   3   2    8.47    0.96
  13  -3  -2    9.81    0.81
 -13  -3   2   11.79    1.09
 -13  -3   2    9.76    0.56
  13  -3  -2    9.82    0.67
 -13   3   2    8.97    0.96
  13   3  -2   10.32    0.72
  11  -3  -2   86.17    3.90
 -11  -3   2   83.86    3.59
  11  -3  -2   81.15    3.75
  11   3  -2   82.85    3.81
  -9  -3   2   91.73    3.86
   9  -3  -2   89.72    4.06
  -9  -3   2   87.77    4.23
   9   3  -2   92.66    4.12
   7  -3  -2   13.14    0.84
  -7  -3   2   14.55    0.98
  -7  -3   2   13.71    0.63
   7  -3  -2   14.29    0.94
   7   3  -2   14.04    0.89
  -5  -3   2   11.56    0.83
   5  -3  -2   10.56    0.74
   5  -3  -2   12.33    0.82
   5   3  -2   11.18    0.76
   3  -3  -2    1.85    0.36
   3  -3  -2    0.52    0.22
  -3  -3   2    1.51    0.30
  -1  -3   2   -0.02    0.15
  -1  -3   2    0.00    0.12
   1  -3  -2    0.20    0.21
   1   3  -2   -0.01    0.10
  -1  -3  -2    9.22    0.66
   1  -3   2    9.76    0.68
  -1   3  -2   10.28    0.56
   3  -3   2   46.37    2.19
  -3  -3  -2   43.93    2.29
  -3  -3  -2   45.39    2.12
  -3   3  -2   46.74    2.08
  -5  -3  -2   63.35    2.78
  -5  -3  -2   62.38    2.99
   5  -3   2   59.46    2.85
  -5   3  -2   63.41    2.80
   7  -3   2    0.07    0.14
  -7  -3  -2    0.03    0.14
   7  -3   2    0.01    0.14
  -7  -3  -2    0.16    0.21
  -7   3  -2    0.25    0.14
  -9  -3  -2   51.98    2.34
  -9  -3  -2   53.58    2.60
   9  -3   2   53.57    2.44
 -11  -3  -2    0.55    0.23
 -11  -3  -2    0.74    0.18
  11  -3   2    0.38    0.17
  11  -3   2    0.16    0.18
 -11   3  -2    0.75    0.23
  13  -3   2    0.07    0.13
 -13  -3  -2    1.00    0.28
  13   3   2    0.65    0.35
 -13   3  -2    1.25    0.31
 -15  -3  -2    0.44    0.22
  15  -3   2   -0.05    0.09
 -15   3  -2    0.61    0.25
  15   3   2    0.11    0.39
 -17  -3  -2    0.53    0.23
  17  -3   2   -0.04    0.10
  17   3   2    0.72    0.49
 -17   3  -2    0.64    0.29
 -19  -3  -2    5.21    0.61
  19   3   2    4.37    0.84
 -19   3  -2    4.87    0.66
 -21  -3  -2    2.93    0.46
 -21  -3  -2    2.63    0.61
  21   3   2    2.96    0.73
 -21   3  -2    2.95    0.54
 -23  -3  -2   10.25    0.81
 -23  -3  -2    8.03    1.04
  23  -3   2    9.19    0.95
 -23   3  -2   11.27    1.08
  23   3   2    8.32    1.12
  25  -3   2    6.99    0.84
 -25  -3  -2    6.25    0.74
 -25  -3  -2    5.94    0.92
  25   3   2    5.58    1.03
 -25   3  -2    6.06    0.80
 -27  -3  -2    0.34    0.41
 -27  -3  -2    0.12    0.28
  27  -3   2    0.38    0.34
  27   3   2    0.02    0.58
 -27   3  -2    0.49    0.38
 -29  -3  -2    6.71    0.82
 -29  -3  -2    5.00    0.90
  29  -3   2    5.77    0.84
  29  -3   2    4.20    0.68
  29   3   2    5.08    1.01
 -29   3  -2    5.08    0.83
 -31  -3  -2   -0.18    0.40
  31  -3   2   -0.15    0.37
 -31  -3  -2    0.11    0.30
 -31   3  -2   -0.21    0.34
  31   3   2    0.83    0.72
  33  -3   2    0.21    0.44
 -33  -3  -2   -0.12    0.38
 -33  -3  -2    0.29    0.35
 -33   3  -2    0.25    0.43
  33   3   2    0.52    0.71
 -35  -3  -2    1.79    0.55
  35  -3   2    0.85    0.55
 -35  -3  -2    2.63    0.75
  35   3   2    2.50    0.89
 -35   3  -2    1.67    0.61
  37  -3   2    1.35    0.64
 -37  -3  -2    1.51    0.55
 -37  -3  -2    2.66    0.80
  37   3   2    2.89    0.93
 -37   3  -2    1.21    0.60
 -39  -3  -2    0.00    0.37
 -39  -3  -2   -0.24    0.52
  39  -3   2   -0.59    0.47
 -39   3  -2   -0.01    0.45
  39   3   2    0.20    0.66
 -40  -4   2    1.52    0.73
 -40  -4   2    1.75    0.60
  40  -4  -2    0.16    0.58
 -40   4   2    1.30    0.73
 -38  -4   2    4.44    1.00
  38  -4  -2    2.87    0.75
 -38  -4   2    2.58    0.64
 -38   4   2    3.91    0.99
  36  -4  -2    2.03    0.59
  36  -4  -2    3.25    0.88
 -36  -4   2    2.96    0.64
 -36  -4   2    3.08    0.84
 -36   4   2    3.30    0.86
  34  -4  -2    3.09    0.85
  34  -4  -2    3.02    0.68
 -34  -4   2    3.33    0.61
 -34  -4   2    2.62    0.80
 -34   4   2    2.24    0.73
  32  -4  -2    2.72    0.80
 -32  -4   2    2.10    0.69
  32  -4  -2    2.33    0.58
 -32  -4   2    1.83    0.47
 -32   4   2    2.34    0.69
 -30  -4   2   14.77    1.67
 -30  -4   2   14.70    1.05
  30  -4  -2   13.03    1.47
  30  -4  -2   14.96    1.14
 -30   4   2   13.41    1.58
 -28  -4   2    4.29    0.87
 -28  -4   2    4.34    0.60
  28  -4  -2    4.49    0.68
  28  -4  -2    5.66    0.94
 -28   4   2    5.29    0.94
  26  -4  -2    5.83    0.72
  26  -4  -2    7.59    0.98
 -26  -4   2    5.24    0.95
 -26  -4   2    5.87    0.65
 -26   4   2    7.74    1.10
 -24  -4   2    1.98    0.62
  24  -4  -2    1.26    0.39
  24  -4  -2    1.47    0.62
 -24  -4   2    2.00    0.38
 -24   4   2    1.44    0.56
 -22  -4   2   19.01    1.10
 -22  -4   2   18.05    1.50
  22  -4  -2   19.85    1.22
  22  -4  -2   21.44    1.47
 -22   4   2   17.76    1.46
  20  -4  -2   22.93    1.32
 -20  -4   2   22.35    1.18
 -20  -4   2   22.16    1.60
  20  -4  -2   20.99    1.51
 -20   4   2   20.40    1.55
 -18  -4   2   25.20    1.25
 -18  -4   2   26.23    1.72
  18  -4  -2   24.43    1.60
  18  -4  -2   23.74    1.40
 -18   4   2   22.73    1.63
  16  -4  -2   26.58    1.52
  16  -4  -2   28.88    1.73
 -16  -4   2   28.51    1.35
 -16  -4   2   25.66    1.75
  14  -4  -2   38.90    2.10
 -14  -4   2   36.49    1.72
  14  -4  -2   37.68    1.95
 -12  -4   2  189.74    8.08
 -12  -4   2  191.21    8.60
  12  -4  -2  194.94    8.37
  12   4  -2  189.18    8.36
 -10  -4   2  213.99    9.65
 -10  -4   2  217.17    9.16
  10  -4  -2  221.67    9.49
  10  -4  -2  220.44    9.56
  10   4  -2  215.66    9.47
  -8  -4   2   13.71    1.01
   8  -4  -2   14.24    0.99
   8  -4  -2   12.78    0.91
  -8  -4   2   12.67    0.63
   8   4  -2   13.71    0.93
   6  -4  -2   54.19    2.85
   6  -4  -2   62.93    2.92
  -6  -4   2   59.15    2.54
  -6  -4   2   61.27    2.97
   6   4  -2   58.73    2.87
  -4  -4   2   35.23    1.91
   4  -4  -2   35.59    1.89
   4  -4  -2   37.17    1.88
  -4  -4   2   34.19    1.57
  -2  -4   2   74.49    3.52
   2  -4  -2   75.22    3.55
   2  -4  -2   74.18    3.48
   0  -4  -2    0.39    0.25
   0  -4   2   -0.04    0.10
   0  -4   2    0.55    0.24
  -2  -4  -2    8.45    0.66
  -2  -4  -2    7.82    0.83
   2  -4   2    8.94    0.68
  -4  -4  -2   10.87    1.00
  -4  -4  -2   12.13    0.75
   4  -4   2    9.81    0.73
  -4   4  -2   10.49    0.70
   6  -4   2   29.24    1.54
  -6  -4  -2   30.19    1.69
  -6  -4  -2   30.24    1.51
  -6   4  -2   30.11    1.55
  -8  -4  -2   48.97    2.29
  -8  -4  -2   51.29    2.54
   8  -4   2   49.22    2.35
 -10  -4  -2   16.22    1.08
 -10  -4  -2   15.90    0.85
  10  -4   2   15.97    0.91
 -10   4  -2   15.58    1.00
  12  -4   2    9.45    1.00
 -12  -4  -2   12.01    0.66
  12  -4   2   11.94    0.71
 -12  -4  -2   12.28    0.90
 -12   4  -2   11.19    0.84
 -14  -4  -2    8.80    0.52
 -14  -4  -2    9.90    0.91
  14  -4   2    8.55    0.96
 -14   4  -2    9.63    0.76
 -16  -4  -2    1.66    0.45
 -16  -4  -2    5.26    0.61
 -16   4  -2    5.13    0.65
 -18  -4  -2    6.04    0.70
 -18  -4  -2    5.85    0.91
 -18   4  -2    5.27    0.72
 -20  -4  -2   20.12    1.57
 -20  -4  -2   23.26    1.34
  20  -4   2   21.87    1.44
 -20   4  -2   19.44    1.37
  22  -4   2    8.54    0.94
 -22  -4  -2    9.95    1.24
 -22  -4  -2    8.74    0.85
  22   4   2    6.93    1.04
 -22   4  -2    9.13    0.99
 -24  -4  -2    3.26    0.74
  24  -4   2    2.74    0.60
 -24  -4  -2    3.32    0.55
 -24   4  -2    3.41    0.68
  24   4   2    3.52    0.85
  26  -4   2    8.37    0.96
 -26  -4  -2    6.75    0.79
 -26  -4  -2    8.22    1.15
 -26   4  -2    5.72    0.89
  26   4   2    5.77    1.05
 -28  -4  -2    9.24    1.28
  28  -4   2   11.25    1.15
 -28  -4  -2   12.11    1.09
 -28   4  -2    9.34    1.18
  28   4   2    8.69    1.27
  30  -4   2    7.20    0.94
 -30  -4  -2    6.18    0.82
 -30  -4  -2    6.14    1.05
  30  -4   2    6.32    0.96
  30   4   2    6.23    1.18
 -30   4  -2    8.39    1.12
  32  -4   2    0.53    0.45
 -32  -4  -2    0.28    0.32
 -32  -4  -2    1.05    0.52
 -32   4  -2    0.85    0.47
  32   4   2    0.51    0.67
 -34  -4  -2   -0.54    0.40
  34  -4   2   -0.19    0.40
 -34  -4  -2   -0.03    0.31
 -34   4  -2    0.59    0.51
  34   4   2    0.67    0.63
 -36  -4  -2    4.10    0.92
  36  -4   2    4.24    0.88
 -36  -4  -2    6.94    0.93
 -36   4  -2    3.36    0.82
  36   4   2    3.83    1.06
  38  -4   2    3.08    0.86
 -38  -4  -2    2.53    0.65
 -38  -4  -2    2.66    0.85
  38   4   2    2.08    0.90
 -38   4  -2    2.67    0.77
  39  -5  -2    3.45    0.84
 -39  -5   2    3.56    1.02
 -39   5   2    3.50    1.01
  37  -5  -2    2.72    0.73
 -37  -5   2    4.83    1.11
  37  -5  -2    4.14    1.04
 -37   5   2    3.53    0.95
  35  -5  -2    1.96    0.80
  35  -5  -2    1.33    0.50
 -35  -5   2    0.58    0.55
 -35   5   2    0.70    0.58
  33  -5  -2    3.51    0.90
  33  -5  -2    3.30    0.64
 -33  -5   2    3.45    0.89
 -33   5   2    4.53    1.07
  31  -5  -2    7.72    0.94
  31  -5  -2    7.30    1.15
 -31  -5   2    7.87    1.17
 -31  -5   2    8.40    1.34
 -31   5   2    7.49    1.24
 -29  -5   2    9.15    0.87
  29  -5  -2    9.04    0.96
 -29  -5   2    6.76    1.18
  29  -5  -2    7.76    1.10
 -29   5   2    7.75    1.22
 -27  -5   2    4.29    0.57
  27  -5  -2    4.34    0.67
  27  -5  -2    5.77    0.98
 -27  -5   2    4.18    0.91
 -27   5   2    3.30    0.85
  25  -5  -2    4.47    0.64
  25  -5  -2    4.58    0.85
 -25  -5   2    4.25    0.87
 -25  -5   2    4.65    0.55
 -25   5   2    4.25    0.88
 -23  -5   2   12.58    0.85
  23  -5  -2   14.24    1.45
  23  -5  -2   15.58    1.09
 -23  -5   2   13.77    1.55
 -23   5   2   13.71    1.55
 -21  -5   2   24.37    1.83
  21  -5  -2   22.25    1.62
  21  -5  -2   22.85    1.46
 -21  -5   2   24.31    1.27
  19  -5  -2   39.42    2.13
  19  -5  -2   39.08    2.29
 -19  -5   2   38.53    1.87
  19   5  -2   39.09    2.07
  17  -5  -2    0.63    0.32
  17  -5  -2    0.57    0.42
 -17  -5   2    0.00    0.20
 -17  -5   2    0.42    0.16
  17   5  -2    0.10    0.26
  15  -5  -2    0.30    0.17
 -15  -5   2    0.81    0.43
  15  -5  -2    0.51    0.27
 -15  -5   2    0.67    0.17
 -13  -5   2   54.82    2.97
  13  -5  -2   54.00    2.41
  13  -5  -2   53.41    2.75
 -13  -5   2   53.18    2.39
  11  -5  -2   49.40    2.66
  11  -5  -2   51.81    2.63
 -11  -5   2   54.26    2.82
 -11  -5   2   49.05    2.23
  11  -5  -2   50.03    2.34
  -9  -5   2    2.40    0.24
   9  -5  -2    2.32    0.55
   9  -5  -2    1.76    0.43
  -9  -5   2    2.15    0.50
   7  -5  -2    2.29    0.47
   7  -5  -2    2.91    0.54
  -7  -5   2    2.48    0.54
  -7  -5   2    2.62    0.26
   5  -5  -2    5.99    0.76
  -5  -5   2    7.14    0.85
   5  -5  -2    7.51    0.88
  -5  -5   2    6.22    0.42
  -3  -5   2   57.55    2.86
   3  -5  -2   55.14    2.79
  -3  -5   2   55.61    2.53
   3  -5  -2   57.91    2.91
  -3  -5   2   53.28    3.02
  -1  -5   2   19.97    1.49
   1  -5  -2   20.79    1.39
  -1  -5   2   21.49    1.31
   1  -5  -2   20.45    1.26
  -1  -5  -2   53.22    2.60
   1  -5   2   53.95    2.64
   1  -5   2   49.51    2.86
  -3  -5  -2   -0.16    0.25
   3  -5   2    0.22    0.22
   3  -5   2   -0.05    0.28
  -3  -5  -2    0.27    0.26
   5  -5   2   81.28    3.78
  -5  -5  -2   81.24    3.73
   5  -5   2   81.84    4.11
  -5  -5  -2   80.37    3.93
   7  -5   2   91.31    4.54
  -7  -5  -2   88.65    4.34
   7  -5   2   92.13    4.18
  -7  -5  -2   91.05    4.14
  -7   5  -2   94.95    4.26
   9  -5   2   16.78    0.97
   9  -5   2   15.23    1.44
  -9  -5  -2   15.37    1.11
  -9  -5  -2   14.86    0.92
  -9   5  -2   14.91    1.04
 -11  -5  -2   13.51    1.34
  11  -5   2   11.96    1.27
 -11  -5  -2   11.83    0.76
  11  -5   2   12.41    0.77
 -11  -5  -2   12.32    0.96
 -11   5  -2   11.24    0.91
 -13  -5  -2   13.32    0.79
 -13  -5  -2   13.41    1.35
 -13  -5  -2   13.52    1.02
 -13   5  -2   16.12    1.09
 -15  -5  -2   13.27    1.03
  15  -5   2   16.42    1.26
 -15   5  -2   14.11    1.09
 -17  -5  -2    0.53    0.30
 -17  -5  -2    0.30    0.32
  17  -5   2    0.23    0.32
 -17   5  -2    0.10    0.29
  19  -5   2   48.12    2.70
 -19  -5  -2   52.35    2.53
 -19  -5  -2   49.26    2.88
 -19   5  -2   42.36    2.57
 -21  -5  -2    9.57    1.22
 -21  -5  -2    8.98    0.89
  21  -5   2    9.66    1.09
 -21   5  -2    6.03    0.90
 -23  -5  -2    4.09    0.61
 -23  -5  -2    1.98    0.65
 -23   5  -2    2.87    0.64
  25  -5   2    3.49    0.71
 -25  -5  -2    4.14    0.62
 -25  -5  -2    2.76    0.75
 -25   5  -2    1.95    0.58
 -27  -5  -2   10.88    1.42
  27  -5   2    9.99    1.15
 -27  -5  -2   10.39    1.04
 -27   5  -2    7.37    1.07
 -29  -5  -2    1.82    0.74
 -29  -5  -2    2.34    0.56
  29  -5   2    2.30    0.64
 -29   5  -2    2.01    0.64
  31  -5   2    3.89    0.80
 -31  -5  -2    2.23    0.73
 -31  -5  -2    2.60    0.57
  31  -5   2    3.48    0.71
 -31   5  -2    2.46    0.75
 -33  -5  -2    0.21    0.33
  33  -5   2   -0.18    0.46
 -33  -5  -2   -0.20    0.46
  33  -5   2    0.62    0.84
 -33   5  -2    0.12    0.45
  35  -5   2   -0.53    0.49
 -35  -5  -2    0.05    0.32
 -35  -5  -2    0.25    0.51
 -35   5  -2   -0.49    0.40
 -37  -5  -2    1.39    0.51
 -37  -5  -2    0.81    0.68
  37  -5   2    2.43    0.83
 -37   5  -2    1.61    0.71
  36  -6  -2    0.27    0.80
  36  -6  -2   -0.28    0.43
 -36  -6   2    0.28    0.65
 -36   6   2    0.68    0.63
  34  -6  -2    0.50    0.52
  34  -6  -2    0.07    0.66
 -34  -6   2   -0.35    0.49
 -34   6   2    0.14    0.55
  32  -6  -2    3.85    0.76
  32  -6  -2    3.38    0.92
 -32  -6   2    3.24    0.92
 -30  -6   2    1.27    0.69
  30  -6  -2    1.68    0.57
  30  -6  -2    1.23    0.67
  28  -6  -2    1.20    0.68
  28  -6  -2    2.11    0.55
 -28  -6   2    0.84    0.57
  26  -6  -2    1.08    0.49
  26  -6  -2    1.72    0.64
 -26  -6   2    1.87    0.74
  24  -6  -2    1.99    0.54
 -24  -6   2    3.24    0.82
  24  -6  -2    2.02    0.68
 -22  -6   2    0.31    0.42
  22  -6  -2    0.46    0.38
  22  -6  -2    0.45    0.54
 -20  -6   2   10.02    1.33
  20  -6  -2   12.37    1.17
  20  -6  -2   11.76    1.35
  18  -6  -2    0.51    0.49
  18  -6  -2    0.74    0.38
 -18  -6   2   -0.24    0.34
  16  -6  -2    0.35    0.45
  16  -6  -2    0.47    0.35
 -16  -6   2    0.40    0.41
 -14  -6   2    3.65    0.76
  14  -6  -2    4.68    0.74
  14  -6  -2    3.71    0.72
 -12  -6   2    1.40    0.25
  12  -6  -2    1.86    0.61
 -12  -6   2    1.37    0.56
  12  -6  -2    1.83    0.51
  10  -6  -2    1.82    0.33
 -10  -6   2    0.66    0.41
 -10  -6   2    1.37    0.21
  10  -6  -2    1.45    0.55
  10  -6  -2    0.74    0.36
  -8  -6   2    5.42    0.82
  -8  -6   2    6.09    0.42
   8  -6  -2    7.06    0.69
   8  -6  -2    7.25    0.91
   8  -6  -2    5.33    0.82
   6  -6  -2    0.28    0.43
  -6  -6   2    0.88    0.37
  -6  -6   2    0.68    0.20
   6  -6  -2    0.57    0.27
   6  -6  -2    0.46    0.38
  -4  -6   2    5.45    0.78
   4  -6  -2    4.80    0.79
   4  -6  -2    4.83    0.64
  -4  -6   2    3.85    0.43
  -4  -6   2    4.25    0.81
   2  -6  -2    7.34    0.95
   2  -6  -2    7.60    0.86
  -2  -6   2    8.55    0.95
  -2  -6   2    7.17    1.04
   0  -6  -2   12.58    1.28
   0  -6  -2   10.71    1.09
   0  -6   2   11.33    1.06
   0  -6   2    8.99    1.17
   2  -6   2    0.08    0.37
   2  -6   2    1.00    0.37
  -2  -6  -2    0.32    0.33
  -2  -6  -2    0.28    0.38
   4  -6   2   24.49    1.74
  -4  -6  -2   21.57    1.51
   4  -6   2   21.92    1.38
  -4  -6  -2   24.31    1.61
  -6  -6  -2    7.62    0.78
  -6  -6  -2    9.26    1.08
   6  -6   2    6.94    0.76
   6  -6   2    8.33    1.11
  -6  -6  -2    4.72    0.75
   8  -6   2   13.44    0.94
  -8  -6  -2   16.10    1.51
  -8  -6  -2   11.80    0.90
   8  -6   2   12.07    1.33
  -8  -6  -2   14.81    1.11
  10  -6   2    1.58    0.37
 -10  -6  -2    0.77    0.34
  10  -6   2    1.67    0.59
 -10  -6  -2    0.94    0.44
 -10  -6  -2    1.11    0.39
 -10   6  -2    1.07    0.39
  12  -6   2   14.20    1.50
 -12  -6  -2   15.80    1.13
 -12  -6  -2   14.28    0.91
 -12  -6  -2   16.01    1.54
 -12   6  -2   11.14    1.20
  14  -6   2    0.73    0.45
 -14  -6  -2    0.06    0.28
 -14  -6  -2   -0.21    0.32
 -14   6  -2    0.97    0.40
 -16  -6  -2    8.00    0.91
  16  -6   2    8.64    1.11
 -16  -6  -2    7.22    1.09
 -16   6  -2    6.19    0.89
 -18  -6  -2    0.03    0.26
  18  -6   2    0.17    0.37
 -18  -6  -2    0.31    0.39
 -18   6  -2    0.42    0.36
 -20  -6  -2    0.40    0.42
  20  -6   2   -0.09    0.37
 -20  -6  -2   -0.10    0.25
 -20   6  -2   -0.01    0.34
 -22  -6  -2    3.67    0.60
  22  -6   2    1.62    0.61
 -22  -6  -2    2.75    0.77
 -22   6  -2    2.24    0.60
 -24  -6  -2    0.37    0.32
 -24  -6  -2    0.86    0.59
  24  -6   2    0.53    0.43
 -24   6  -2    0.46    0.42
  26  -6   2    0.42    0.47
 -26  -6  -2    0.11    0.30
 -26  -6  -2    0.25    0.47
 -26   6  -2    0.04    0.39
  28  -6   2    3.80    0.81
 -28  -6  -2    2.36    0.79
 -28  -6  -2    3.92    0.66
 -28   6  -2    2.11    0.65
 -30  -6  -2    0.56    0.38
  30  -6   2    0.79    0.54
 -30  -6  -2    0.31    0.51
  30  -6   2    0.32    0.46
 -30   6  -2    0.55    0.47
 -32  -6  -2    0.62    0.62
  32  -6   2    0.47    0.56
 -32  -6  -2    0.48    0.39
  32  -6   2    0.38    0.49
 -32   6  -2   -0.42    0.41
  34  -6   2    0.07    0.52
 -34  -6  -2   -0.10    0.33
  34  -6   2    0.54    0.69
 -34  -6  -2   -0.08    0.52
 -34   6  -2   -0.78    0.32
  35  -7  -2   -0.33    0.51
  35  -7  -2    0.12    0.72
 -35  -7   2    0.16    0.60
  33  -7  -2   -0.14    0.48
  33  -7  -2    0.33    0.70
 -33  -7   2    0.61    0.74
 -31  -7   2    0.06    0.62
  31  -7  -2    0.61    0.75
  31  -7  -2    0.41    0.50
  29  -7  -2    1.39    0.70
 -29  -7   2    0.49    0.62
  29  -7  -2    1.97    0.60
 -27  -7   2    0.35    0.64
  27  -7  -2    1.26    0.65
  27  -7  -2    0.86    0.50
  25  -7  -2    0.59    0.61
  25  -7  -2    0.77    0.50
 -25  -7   2    0.33    0.61
  23  -7  -2    1.14    0.64
 -23  -7   2    0.39    0.55
  23  -7  -2    0.32    0.42
  21  -7  -2    1.33    0.60
 -21  -7   2    1.94    0.75
  21  -7  -2    0.90    0.51
  19  -7  -2    0.83    0.54
 -19  -7   2    1.14    0.59
  19  -7  -2    0.93    0.49
  17  -7  -2    4.19    0.88
 -17  -7   2    3.39    0.92
  17  -7  -2    3.12    0.68
  15  -7  -2    5.63    0.93
  15  -7  -2    6.22    0.97
 -15  -7   2    3.32    0.82
 -13  -7   2    0.56    0.47
  13  -7  -2    1.38    0.54
  13  -7  -2    0.67    0.49
 -11  -7   2    5.00    0.90
  11  -7  -2    4.88    0.84
  11  -7  -2    3.69    0.75
   9  -7  -2    6.17    0.78
   9  -7  -2    4.30    0.81
   9  -7  -2    4.37    0.84
  -9  -7   2    4.83    0.86
   7  -7  -2    0.81    0.31
  -7  -7   2    0.28    0.39
   7  -7  -2    1.19    0.50
   7  -7  -2    0.64    0.43
   5  -7  -2   -0.16    0.34
   5  -7  -2    0.07    0.26
   5  -7  -2   -0.15    0.29
  -5  -7   2   -0.49    0.23
  -5  -7   2    0.23    0.40
  -3  -7   2    0.61    0.37
   3  -7  -2    2.00    0.61
   3  -7  -2    1.50    0.43
  -3  -7   2    1.64    0.64
  -1  -7   2    1.14    0.46
   1  -7  -2    2.74    0.57
  -1  -7   2    1.84    0.66
   1  -7  -2    2.42    0.63
  -1  -7  -2    0.19    0.43
  -1  -7  -2   -0.34    0.32
   1  -7   2    0.21    0.27
   1  -7   2   -0.07    0.42
  -1  -7  -2   -0.01    0.28
  -3  -7  -2    3.92    0.72
   3  -7   2    3.95    0.92
   3  -7   2    2.14    0.52
  -3  -7  -2    4.31    0.77
  -5  -7  -2    9.37    0.97
   5  -7   2    9.84    1.00
  -5  -7  -2    9.69    1.11
   5  -7   2   11.29    1.44
  -5  -7  -2    8.65    1.14
  -7  -7  -2    1.70    0.53
   7  -7   2    1.99    0.69
   7  -7   2    1.63    0.43
  -7  -7  -2    1.55    0.53
  -7  -7  -2    1.67    0.49
   9  -7   2    1.17    0.57
  -9  -7  -2    0.51    0.41
  -9  -7  -2    1.02    0.43
  -9  -7  -2    0.89    0.38
 -11  -7  -2    0.03    0.34
  11  -7   2    0.35    0.46
 -11  -7  -2    0.12    0.32
 -11  -7  -2    0.61    0.34
 -13  -7  -2    2.91    0.73
  13  -7   2    3.98    0.90
 -13  -7  -2    3.89    0.69
  15  -7   2    3.69    0.87
 -15  -7  -2    2.98    0.60
 -15  -7  -2    2.21    0.73
 -17  -7  -2   -0.28    0.37
 -17  -7  -2    0.21    0.30
  17  -7   2    0.30    0.40
 -17   7  -2    0.16    0.34
  19  -7   2    9.36    1.29
 -19  -7  -2    7.52    1.17
 -19  -7  -2   10.79    1.08
 -19   7  -2    6.95    1.05
 -21  -7  -2    0.82    0.38
 -21  -7  -2   -0.07    0.41
  21  -7   2    0.56    0.47
 -21   7  -2    0.32    0.47
 -23  -7  -2    0.55    0.38
  23  -7   2    0.33    0.43
 -23  -7  -2    0.70    0.57
 -23   7  -2   -0.26    0.43
  25  -7   2   -0.40    0.44
 -25  -7  -2    0.02    0.30
 -25  -7  -2   -0.53    0.42
 -25   7  -2   -0.08    0.41
 -27  -7  -2    0.70    0.39
  27  -7   2    0.25    0.55
 -27  -7  -2   -0.16    0.51
 -27   7  -2    1.16    0.58
  29  -7   2    0.40    0.54
 -29  -7  -2   -0.19    0.39
 -29  -7  -2    0.23    0.33
 -29   7  -2    0.06    0.53
  31  -7   2    0.75    0.62
  31  -7   2   -0.18    0.48
 -31  -7  -2    0.06    0.34
 -31  -7  -2    0.35    0.69
 -31   7  -2    0.12    0.48
  32  -8  -2    2.01    0.72
 -32  -8   2    2.38    1.01
  32  -8  -2    3.35    0.98
  30  -8  -2    5.18    0.98
  30  -8  -2    4.35    1.12
 -30  -8   2    1.41    0.83
  28  -8  -2    1.24    0.80
  28  -8  -2    2.74    0.73
 -28  -8   2    0.74    0.77
 -26  -8   2    2.43    0.89
  26  -8  -2    0.58    0.55
  26  -8  -2    2.37    0.91
 -24  -8   2   -0.52    0.41
  24  -8  -2    0.80    0.69
  24  -8  -2    0.19    0.44
  22  -8  -2    0.93    0.54
 -22  -8   2    1.35    0.78
  22  -8  -2    0.75    0.59
  20  -8  -2    5.50    1.06
  20  -8  -2    5.68    0.99
 -20  -8   2    5.85    1.22
  18  -8  -2    0.30    0.42
  18  -8  -2    1.11    0.55
 -18  -8   2    0.42    0.57
  16  -8  -2    0.26    0.51
 -16  -8   2    1.44    0.65
  16  -8  -2    1.01    0.60
  14  -8  -2    5.97    1.01
  14  -8  -2    5.40    1.00
 -14  -8   2    3.36    0.86
  12  -8  -2   16.04    1.59
 -12  -8   2   16.07    1.74
  12  -8  -2   15.60    1.61
  10  -8  -2    9.61    1.20
 -10  -8   2    8.05    1.16
  10  -8  -2    8.89    1.27
   8  -8  -2    3.68    0.77
   8  -8  -2    3.79    0.88
  -8  -8   2    2.62    0.71
   6  -8  -2    1.55    0.49
   6  -8  -2    0.28    0.46
  -6  -8   2    0.52    0.45
   6  -8  -2    1.56    0.56
  -6  -8   2    0.31    0.47
   4  -8  -2    5.13    0.95
   4  -8  -2    4.84    0.81
   4  -8  -2    5.15    0.76
  -4  -8   2    6.76    1.19
  -4  -8   2    6.43    0.95
  -2  -8   2    8.48    1.10
   2  -8  -2   12.53    1.19
  -2  -8   2    8.47    1.42
   2  -8  -2   10.44    1.19
   2  -8  -2    9.40    1.29
   0  -8   2    1.08    0.69
   0  -8  -2    2.07    0.56
   0  -8  -2    0.42    0.55
   0  -8  -2    2.36    0.63
   0  -8  -2    2.16    0.65
   0  -8   2    2.22    0.58
  -2  -8  -2    0.47    0.39
  -2  -8  -2    0.58    0.46
  -2  -8  -2    0.73    0.43
   2  -8   2    0.08    0.48
  -2  -8  -2    0.79    0.53
   2  -8   2    0.85    0.39
  -4  -8  -2    7.99    1.06
  -4  -8  -2    6.30    1.09
   4  -8   2    6.69    0.88
  -4  -8  -2    6.07    0.96
  -4  -8  -2    7.63    0.95
   4  -8   2    5.55    1.07
  -6  -8  -2    7.10    0.97
  -6  -8  -2    3.76    0.79
  -6  -8  -2    3.38    0.65
   6  -8   2    4.25    0.93
   8  -8   2   10.05    1.41
  -8  -8  -2    9.37    1.13
  -8  -8  -2   12.24    1.14
  -8  -8  -2   10.39    1.28
 -10  -8  -2    0.90    0.56
 -10  -8  -2    2.31    0.60
  10  -8   2    0.34    0.56
 -12  -8  -2    8.36    1.20
  12  -8   2    9.40    1.36
 -12  -8  -2   12.11    1.22
  14  -8   2    1.22    0.68
 -14  -8  -2   -0.39    0.24
 -14  -8  -2   -0.11    0.38
 -16  -8  -2    6.47    1.14
  16  -8   2    4.97    0.97
 -16  -8  -2    4.62    0.77
 -18  -8  -2    1.23    0.64
 -18  -8  -2    1.15    0.43
  18  -8   2    0.82    0.55
 -20  -8  -2    3.40    0.66
 -20  -8  -2    4.10    0.99
  20  -8   2    3.24    0.88
 -22  -8  -2    1.62    0.72
 -22  -8  -2    1.37    0.54
  22  -8   2    2.00    0.73
 -24  -8  -2    0.28    0.53
  24  -8   2   -0.17    0.49
 -26  -8  -2    0.16    0.55
  26  -8   2   -0.07    0.45
 -26   8  -2    0.69    0.54
  28  -8   2    2.12    0.78
 -28  -8  -2    2.68    0.93
 -28   8  -2    1.94    0.82
  27  -9  -2    2.57    0.83
  27  -9  -2    2.53    0.99
 -27  -9   2    1.42    0.81
  25  -9  -2   -0.48    0.45
  25  -9  -2   -0.26    0.67
 -25  -9   2    0.15    0.73
  23  -9  -2    5.50    1.09
  23  -9  -2    6.26    1.11
 -23  -9   2    6.15    1.34
  21  -9  -2    2.56    0.91
  21  -9  -2    3.33    0.76
 -21  -9   2    2.34    0.89
  19  -9  -2    3.08    0.84
  19  -9  -2    2.89    0.88
 -19  -9   2    2.80    0.89
  17  -9  -2    3.82    0.91
 -17  -9   2    3.61    0.99
  17  -9  -2    3.10    0.84
  15  -9  -2    7.32    1.19
 -15  -9   2    5.13    1.10
  15  -9  -2    2.55    0.79
  13  -9  -2    2.68    0.82
  13  -9  -2    1.95    0.76
 -13  -9   2    4.51    1.00
  11  -9  -2    8.92    1.25
  11  -9  -2   10.27    1.40
 -11  -9   2   11.11    1.48
   9  -9  -2   16.46    1.75
   9  -9  -2   14.35    1.57
  -9  -9   2   14.74    1.65
  -9  -9   2   11.21    1.62
  -7  -9   2    0.78    0.55
   7  -9  -2    0.02    0.53
   7  -9  -2    0.66    0.53
  -7  -9   2    0.38    0.61
  -5  -9   2    5.69    1.00
  -5  -9   2    6.41    1.28
   5  -9  -2    5.37    1.08
   5  -9  -2    6.58    1.04
   3  -9  -2    9.42    1.40
  -3  -9   2   10.24    1.24
   3  -9  -2    6.98    1.39
  -3  -9   2    5.86    1.26
   3  -9  -2    6.20    0.98
   1  -9  -2    1.09    0.51
   1  -9  -2    0.89    0.63
  -1  -9   2    2.31    0.62
  -1  -9   2    1.01    0.65
   1  -9  -2    0.63    0.41
   1  -9  -2    0.83    0.53
  -1  -9  -2    2.54    0.62
  -1  -9  -2    4.75    0.90
  -1  -9  -2    3.64    0.77
   1  -9   2    4.79    1.06
  -1  -9  -2    3.81    0.93
   1  -9   2    3.43    0.72
  -3  -9  -2    1.73    0.56
  -3  -9  -2    3.75    0.78
  -3  -9  -2    1.28    0.72
  -3  -9  -2    2.94    0.71
   3  -9   2    2.83    0.84
  -5  -9  -2    1.19    0.59
  -5  -9  -2    1.23    0.51
  -5  -9  -2    1.12    0.64
  -5  -9  -2    1.01    0.51
   5  -9   2    1.79    0.78
  -7  -9  -2    2.65    0.70
  -7  -9  -2    4.57    0.93
   7  -9   2    3.37    0.95
  -7  -9  -2    3.78    0.70
  -7  -9  -2    3.68    0.93
   9  -9   2    3.42    1.03
  -9  -9  -2    2.23    0.69
  -9  -9  -2    2.64    0.78
 -11  -9  -2    0.44    0.56
  11  -9   2    0.21    0.63
  13  -9   2    0.63    0.59
 -13  -9  -2    0.94    0.64
  15  -9   2    1.37    0.76
 -15  -9  -2    1.06    0.69
  17  -9   2    2.43    0.83
 -17  -9  -2    2.36    0.89
 -19  -9  -2    1.82    0.82
  19  -9   2    2.14    0.80
  21  -9   2    0.13    0.63
 -21  -9  -2    0.62    0.58
  23  -9   2    3.69    1.01
 -23  -9  -2    3.19    1.04
 -25  -9  -2    0.90    0.77
  25  -9   2   -0.22    0.58
  22 -10  -2    0.32    0.54
 -22 -10   2    0.68    0.71
  22 -10  -2    1.25    0.81
 -20 -10   2   -0.31    0.53
  20 -10  -2    0.20    0.65
  20 -10  -2   -0.74    0.49
  18 -10  -2    1.00    0.72
 -18 -10   2    1.70    0.91
  18 -10  -2    0.43    0.64
  16 -10  -2    0.18    0.64
 -16 -10   2    0.95    0.71
  16 -10  -2    0.54    0.64
  14 -10  -2    1.76    0.80
  14 -10  -2    3.58    1.00
 -14 -10   2    3.64    0.98
 -12 -10   2    0.10    0.57
  12 -10  -2    0.33    0.54
 -12 -10   2    0.07    0.62
  12 -10  -2    0.40    0.58
  10 -10  -2    0.96    0.64
 -10 -10   2    0.32    0.59
 -10 -10   2    1.40    0.81
  10 -10  -2    1.65    0.75
   8 -10  -2    6.04    1.11
  -8 -10   2    6.79    1.11
   8 -10  -2    6.06    1.17
  -8 -10   2    4.84    1.15
  -6 -10   2    0.95    0.58
   6 -10  -2    0.56    0.49
   6 -10  -2    0.32    0.56
  -6 -10   2   -0.07    0.67
   4 -10  -2    0.26    0.50
  -4 -10   2    2.52    0.91
   4 -10  -2    0.23    0.54
  -4 -10   2    0.19    0.41
   2 -10  -2   -0.46    0.47
  -2 -10   2   -0.04    0.53
   2 -10  -2    1.12    0.56
   0 -10  -2    0.35    0.45
   0 -10   2    0.11    0.56
   0 -10  -2    0.35    0.62
  -2 -10  -2    1.56    0.63
  -2 -10  -2    2.40    0.85
  -2 -10  -2    1.34    0.62
   2 -10   2    2.11    0.91
  -4 -10  -2   -0.05    0.55
  -4 -10  -2    0.37    0.51
  -4 -10  -2    0.31    0.49
   4 -10   2    0.23    0.58
  -6 -10  -2    1.08    0.68
  -6 -10  -2    0.53    0.64
   6 -10   2    0.70    0.70
  -8 -10  -2    1.65    0.84
  -8 -10  -2    1.57    0.70
   8 -10   2    1.49    0.80
 -10 -10  -2    2.64    0.84
  10 -10   2    3.43    1.09
 -12 -10  -2    0.48    0.60
  12 -10   2    0.45    0.60
  14 -10   2   -0.64    0.56
 -14 -10  -2    0.04    0.58
  16 -10   2    1.03    0.80
 -16 -10  -2    1.62    0.79
  18 -10   2    0.57    0.65
 -18 -10  -2    0.94    0.71
 -20 -10  -2    0.54    0.72
  20 -10   2    0.58    0.75
 -13 -11   2    0.08    0.65
 -13 -11   2    0.38    0.61
  13 -11  -2    0.26    0.71
  13 -11  -2    0.23    0.68
  11 -11  -2    0.38    0.67
 -11 -11   2    0.79    0.66
 -11 -11   2    0.11    0.67
  11 -11  -2   -0.29    0.59
  -9 -11   2   -0.16    0.51
  -9 -11   2    0.44    0.74
   9 -11  -2   -0.13    0.57
   9 -11  -2    0.04    0.58
  -7 -11   2    1.21    0.65
   7 -11  -2    0.16    0.62
   7 -11  -2    2.16    0.90
  -7 -11   2    1.37    0.79
   5 -11  -2    0.34    0.58
   5 -11  -2   -0.46    0.57
  -5 -11   2   -0.48    0.53
   3 -11  -2    0.43    0.60
  -3 -11   2    0.32    0.68
   3 -11  -2    1.33    0.82
   1 -11  -2   -0.32    0.60
  -1 -11   2   -0.61    0.60
   1 -11  -2   -0.16    0.48
  -1 -11  -2    0.53    0.56
   1 -11   2    0.09    0.74
  -1 -11  -2    0.20    0.67
   3 -11   2    1.21    0.82
  -3 -11  -2   -0.24    0.58
  -3 -11  -2    0.24    0.54
  -5 -11  -2    0.64    0.58
   5 -11   2   -0.41    0.62
  -5 -11  -2   -0.06    0.52
  -7 -11  -2    0.93    0.68
  -7 -11  -2   -0.95    0.52
   7 -11   2    0.12    0.68
   9 -11   2    0.33    0.76
  -9 -11  -2    1.80    0.77
  -9 -11  -2   -0.14    0.61
 -11 -11  -2   -0.51    0.55
 -11 -11  -2    0.79    0.69
  11 -11   2   -0.24    0.70
  44   0  -3   -0.21    0.71
 -42   0   3   -0.26    0.38
  42   0  -3   -0.08    0.64
  40   0  -3    0.53    0.68
 -40   0   3    0.33    0.50
 -38   0   3   -0.19    0.34
  38   0  -3    0.76    0.63
  36   0  -3    0.31    0.58
 -36   0   3    0.14    0.41
 -34   0   3   -0.09    0.35
  34   0  -3   -0.44    0.50
 -32   0   3   -0.04    0.30
  32   0  -3   -0.10    0.46
 -32   0   3    0.09    0.35
  32   0  -3   -0.43    0.47
 -30   0   3    0.42    0.38
  30   0  -3    0.13    0.48
 -30   0   3    0.20    0.33
  30   0  -3    0.45    0.53
 -28   0   3   -0.22    0.26
 -28   0   3    0.02    0.29
  28   0  -3    0.91    0.49
  28   0  -3    0.15    0.54
 -26   0   3   -0.13    0.26
  26   0  -3    0.07    0.42
 -26   0   3    0.27    0.30
  26   0  -3    0.86    0.55
 -24   0   3   -0.23    0.22
  24   0  -3    0.06    0.46
  24   0  -3   -0.26    0.35
 -24   0   3   -0.01    0.26
  22   0  -3   -0.54    0.33
 -22   0   3   -0.13    0.20
  22   0  -3   -0.12    0.44
 -22   0   3    0.26    0.25
 -20   0   3    0.12    0.19
  20   0  -3   -0.58    0.38
 -20   0   3   -0.11    0.19
  20   0  -3    0.09    0.33
 -18   0   3    0.19    0.19
  18   0  -3   -0.14    0.28
 -18   0   3   -0.20    0.18
  18   0  -3   -0.04    0.35
  16   0  -3    0.48    0.40
 -16   0   3   -0.07    0.13
  16   0  -3   -0.04    0.24
 -16   0   3   -0.20    0.13
  14   0  -3    0.18    0.23
 -14   0   3   -0.04    0.14
  14   0  -3    0.13    0.30
 -14   0   3    0.07    0.17
  12   0  -3   -0.13    0.13
 -12   0   3   -0.06    0.16
  12   0  -3    0.21    0.21
 -12   0   3    0.11    0.15
  10   0  -3   -0.23    0.30
  10   0  -3    0.24    0.20
 -10   0   3    0.23    0.17
   8   0  -3   -0.24    0.30
   8   0  -3   -0.09    0.15
  -8   0   3    0.08    0.15
   6   0  -3    0.13    0.06
  -6   0   3   -0.13    0.11
   4   0  -3   -0.36    0.24
  -4   0   3   -0.12    0.12
   2   0  -3   -0.04    0.23
  -2   0   3   -0.13    0.08
  -2   0   3    0.05    0.08
   0   0   3    0.22    0.16
   0   0  -3   -0.20    0.19
   0   0  -3    0.08    0.14
   0   0   3    0.04    0.08
   2   0   3    0.03    0.14
   2   0   3   -0.07    0.08
  -2   0  -3    0.01    0.17
  -2   0  -3    0.09    0.14
   4   0   3   -0.20    0.11
   4   0   3    0.12    0.09
  -4   0  -3   -0.01    0.14
  -4   0  -3   -0.15    0.10
  -6   0  -3   -0.11    0.09
  -6   0  -3   -0.09    0.13
   6   0   3    0.08    0.10
  -8   0  -3   -0.14    0.08
   8   0   3    0.13    0.12
  -8   0  -3    0.00    0.13
  10   0   3    0.03    0.13
 -10   0  -3   -0.01    0.14
 -10   0  -3   -0.02    0.13
  12   0   3    0.35    0.20
 -12   0  -3    0.19    0.16
  14   0   3   -0.01    0.16
 -14   0  -3   -0.12    0.14
  16   0   3    0.14    0.22
 -16   0  -3   -0.13    0.12
 -18   0  -3    0.02    0.15
  18   0   3   -0.04    0.22
 -20   0  -3   -0.04    0.09
  20   0   3    0.12    0.30
 -22   0  -3    0.03    0.11
  22   0   3   -0.44    0.24
 -24   0  -3    0.04    0.21
  24   0   3   -0.35    0.34
 -26   0  -3    0.09    0.29
  26   0   3   -0.06    0.39
 -28   0  -3   -0.23    0.31
 -28   0  -3   -0.19    0.23
  28   0   3    0.14    0.40
  30   0   3    0.27    0.45
 -30   0  -3    0.31    0.31
 -30   0  -3   -0.39    0.29
 -32   0  -3    0.16    0.29
  32   0   3   -0.24    0.44
 -34   0  -3   -0.12    0.32
  34   0   3   -0.31    0.53
  36   0   3   -0.70    0.58
 -36   0  -3    0.24    0.40
  38   0   3   -0.13    0.70
 -38   0  -3   -0.08    0.34
  40   0   3   -0.56    0.74
 -40   0  -3   -0.38    0.40
 -43  -1   3    0.49    0.51
  43  -1  -3    0.14    0.70
  43   1  -3    2.10    0.90
 -43   1   3   -0.43    0.45
  41  -1  -3    1.37    0.70
 -41  -1   3    0.87    0.57
 -41   1   3    0.31    0.56
  41   1  -3    1.10    0.69
  39  -1  -3    2.90    0.77
 -39  -1   3    2.85    0.77
 -39   1   3    1.91    0.66
  39   1  -3    2.84    0.95
 -37  -1   3    1.88    0.59
  37  -1  -3    2.44    0.76
  37   1  -3   -0.63    0.50
 -37   1   3    2.11    0.67
  35  -1  -3    1.12    0.56
 -35  -1   3    1.40    0.53
 -35  -1   3    0.60    0.45
  35   1  -3    1.32    0.67
 -35   1   3    1.48    0.59
  33  -1  -3    6.84    1.00
  33  -1  -3    4.97    0.85
 -33  -1   3    5.09    0.81
 -33  -1   3    6.67    0.96
  33   1  -3    4.98    0.91
 -33   1   3    5.98    0.94
 -31  -1   3    3.06    0.66
 -31  -1   3    1.83    0.53
  31  -1  -3    2.00    0.54
  31  -1  -3    3.41    0.80
  31   1  -3    2.84    0.73
 -31   1   3    2.17    0.62
  29  -1  -3    9.70    1.16
 -29  -1   3   10.32    1.11
  29  -1  -3   11.76    1.11
 -29  -1   3   10.71    1.18
 -29   1   3   11.67    1.09
  29   1  -3   11.86    1.14
 -29   1   3   11.49    1.24
  29   1  -3    9.56    1.22
  27  -1  -3   30.92    1.78
  27  -1  -3   30.51    1.90
 -27  -1   3   29.83    1.78
 -27  -1   3   30.59    1.88
  27   1  -3   32.92    1.83
 -27   1   3   28.29    1.72
  27   1  -3   28.44    1.96
 -27   1   3   28.73    1.88
 -25  -1   3    2.74    0.50
  25  -1  -3    1.91    0.45
 -25  -1   3    2.11    0.50
  25  -1  -3    0.80    0.57
 -25   1   3    2.00    0.51
 -25   1   3    2.60    0.49
  25   1  -3    2.19    0.65
  25   1  -3    2.16    0.55
 -23  -1   3   11.49    1.15
 -23  -1   3   10.72    0.87
  23  -1  -3   14.12    0.94
  23  -1  -3   10.48    1.08
 -23   1   3   11.19    1.11
  23   1  -3   10.51    1.04
  23   1  -3   13.34    1.25
 -23   1   3   10.22    0.85
 -21  -1   3   23.92    1.39
  21  -1  -3   23.49    1.51
  21  -1  -3   23.28    1.35
 -21  -1   3   24.20    1.51
  21   1  -3   24.91    1.54
  21   1  -3   23.45    1.47
 -21   1   3   23.08    1.49
  19  -1  -3    3.00    0.59
  19  -1  -3    3.91    0.48
 -19  -1   3    3.78    0.58
 -19  -1   3    4.13    0.52
  19   1  -3    3.32    0.58
 -19   1   3    4.52    0.65
  19   1  -3    2.84    0.58
 -17  -1   3    0.20    0.24
  17  -1  -3   -0.16    0.18
 -17  -1   3    0.15    0.17
  17  -1  -3   -0.21    0.34
 -17   1   3   -0.14    0.17
  17   1  -3    0.37    0.33
 -17   1   3    0.08    0.18
  17   1  -3    0.36    0.33
  15  -1  -3    1.80    0.45
 -15  -1   3    0.82    0.24
 -15  -1   3    1.37    0.35
  15  -1  -3    1.85    0.30
 -15   1   3    1.20    0.29
  15   1  -3    1.54    0.41
 -15   1   3    0.93    0.32
  13  -1  -3    0.45    0.19
 -13  -1   3    0.09    0.18
 -13  -1   3    0.12    0.13
  13  -1  -3    0.38    0.35
  13   1  -3    0.45    0.27
  13   1  -3    0.41    0.14
 -13   1   3    0.57    0.21
 -13   1   3    0.24    0.20
 -11  -1   3    1.70    0.29
  11  -1  -3    2.03    0.26
  11   1  -3    1.79    0.41
 -11   1   3    1.97    0.33
   9  -1  -3  208.56    8.56
  -9   1   3  197.82    8.73
   9   1  -3  201.29    8.78
   7  -1  -3   13.70    0.60
  -7  -1   3    8.00    0.84
  -7   1   3   11.43    0.75
   7   1  -3   11.41    0.80
   5  -1  -3   29.38    1.18
   5  -1  -3   27.68    1.46
   5   1  -3   24.31    1.40
  -5   1   3   23.94    1.37
  -3  -1   3    5.40    0.57
   3  -1  -3    5.78    0.64
   3   1  -3    4.60    0.36
  -3   1   3    5.19    0.53
  -1  -1   3  302.04   12.80
   1  -1  -3  310.39   12.85
  -1  -1   3  297.77   12.89
  -1   1   3  294.62   12.86
   1   1  -3  305.12   12.87
   1   1  -3  301.50   12.72
  -1  -1  -3  230.99    9.75
  -1  -1  -3  226.45    9.84
   1  -1   3  226.14    9.73
   1  -1   3  216.47    9.80
  -1   1  -3  224.31    9.79
  -1   1  -3  228.52    9.66
   1   1   3  242.19    9.58
  -3  -1  -3  110.07    4.87
   3  -1   3  110.70    4.97
   3  -1   3  110.94    4.89
   3   1   3  120.65    4.78
  -3   1  -3  111.26    4.82
  -3   1  -3  105.06    4.94
   5  -1   3    2.37    0.34
   5  -1   3    2.77    0.39
  -5  -1  -3    3.17    0.36
  -5   1  -3    2.92    0.41
   5   1   3    3.41    0.33
   7  -1   3    0.23    0.15
   7  -1   3    0.10    0.16
  -7  -1  -3   -0.04    0.08
  -7  -1  -3    0.64    0.18
   7   1   3    0.32    0.17
  -7   1  -3    0.38    0.20
  -7   1  -3    0.08    0.10
   9  -1   3   10.73    0.66
  -9  -1  -3    9.90    0.58
  -9   1  -3    9.50    0.67
   9   1   3    7.44    0.59
  -9   1  -3   10.37    0.61
 -11  -1  -3   76.44    3.39
  11  -1   3   80.29    3.51
  11   1   3   77.47    3.50
 -11   1  -3   76.50    3.48
 -13  -1  -3    0.51    0.21
  13  -1   3    1.16    0.26
  13   1   3    0.46    0.29
 -13   1  -3    0.47    0.18
 -15  -1  -3   30.96    1.63
  15  -1   3   30.87    1.58
  15   1   3   28.89    1.62
 -15   1  -3   31.45    1.60
 -17  -1  -3   12.08    0.84
  17  -1   3   12.71    0.85
  17   1   3   11.54    0.91
 -17   1  -3   12.09    0.82
  19  -1   3   11.55    0.80
 -19   1  -3    8.87    0.85
  19   1   3    8.97    0.88
 -21  -1  -3    3.64    0.53
  21  -1   3    3.69    0.54
  21   1   3    4.77    0.67
 -21   1  -3    4.59    0.60
  23  -1   3   22.87    1.43
 -23  -1  -3   22.15    1.40
  23   1   3   22.27    1.50
 -23   1  -3   26.33    1.47
 -25  -1  -3    0.71    0.35
  25  -1   3    0.38    0.34
 -25   1  -3    0.20    0.30
  25   1   3    0.23    0.43
 -27  -1  -3    5.04    0.71
 -27  -1  -3    2.60    0.64
  27  -1   3    3.23    0.58
  27   1   3    3.35    0.76
 -27   1  -3    3.45    0.59
 -29  -1  -3   14.64    1.42
  29  -1   3    9.25    1.07
 -29  -1  -3   11.57    1.14
  29   1   3   13.49    1.36
 -29   1  -3   14.51    1.12
 -31  -1  -3    2.23    0.54
 -31  -1  -3    0.95    0.52
  31  -1   3    2.10    0.59
 -31   1  -3    1.47    0.47
  31   1   3    1.34    0.62
 -33  -1  -3    0.29    0.37
  33  -1   3   -0.56    0.46
 -33  -1  -3   -0.04    0.40
  33   1   3   -0.44    0.58
 -33   1  -3    0.12    0.35
 -35  -1  -3    0.11    0.32
  35  -1   3   -0.26    0.56
  35   1   3    0.52    0.68
 -35   1  -3    0.42    0.41
 -37  -1  -3    1.04    0.47
  37  -1   3    0.85    0.65
  37   1   3    0.93    0.79
 -37   1  -3    0.44    0.44
 -39  -1  -3    0.47    0.41
  39  -1   3    0.69    0.75
 -39   1  -3    0.39    0.48
  39   1   3    0.97    0.79
  42  -2  -3    2.01    0.81
 -42  -2   3    1.20    0.58
  42   2  -3    1.89    0.86
 -42   2   3    1.85    0.84
 -40  -2   3    4.03    0.83
  40  -2  -3    1.84    0.72
 -40   2   3    2.43    0.84
  40   2  -3    3.78    1.00
  38  -2  -3    1.96    0.68
 -38  -2   3    1.83    0.68
 -38  -2   3    1.66    0.60
  38   2  -3    3.84    1.02
 -38   2   3    2.57    0.81
  36  -2  -3    5.34    0.91
 -36  -2   3    6.34    0.94
 -36  -2   3    5.67    0.98
 -36   2   3    3.25    0.81
  36   2  -3    6.01    1.13
  34  -2  -3    1.91    0.72
 -34  -2   3    2.42    0.58
 -34  -2   3    3.50    0.76
  34  -2  -3    1.70    0.60
 -34   2   3    1.45    0.63
  34   2  -3    1.60    0.76
  32  -2  -3    6.29    0.99
 -32  -2   3    5.44    0.92
  32  -2  -3    4.49    0.75
 -32  -2   3    6.37    0.86
  32   2  -3    3.72    0.88
 -32   2   3    6.60    1.05
 -30  -2   3    5.09    0.86
  30  -2  -3    7.40    1.03
  30  -2  -3    3.49    0.62
 -30  -2   3    6.39    0.79
  30   2  -3    4.42    0.94
 -30   2   3    5.24    0.91
 -28  -2   3   19.96    1.48
 -28  -2   3   17.51    1.23
  28  -2  -3   16.70    1.22
  28  -2  -3   18.10    1.44
  28   2  -3   16.70    1.66
 -28   2   3   18.94    1.50
  28   2  -3   19.90    1.30
 -26  -2   3   31.01    1.76
 -26  -2   3   31.54    1.97
  26  -2  -3   28.61    1.91
  26  -2  -3   32.01    1.73
  26   2  -3   31.20    2.08
  26   2  -3   30.94    1.77
 -26   2   3   30.49    1.98
 -24  -2   3   14.67    1.03
  24  -2  -3   15.46    1.03
  24  -2  -3   15.14    1.26
 -24  -2   3   15.66    1.44
  24   2  -3   15.79    1.10
 -24   2   3   15.91    1.50
 -24   2   3   14.96    0.99
  24   2  -3   15.73    1.49
 -22  -2   3    7.82    0.95
 -22  -2   3    8.62    0.83
  22  -2  -3   10.94    1.12
  22  -2  -3    8.64    0.70
  22   2  -3    8.47    1.07
 -22   2   3    9.08    1.03
  22   2  -3   10.64    0.95
 -22   2   3    9.54    0.72
 -20  -2   3   17.13    1.04
  20  -2  -3   18.82    1.02
  20  -2  -3   18.18    1.27
 -20  -2   3   16.12    1.24
 -20   2   3   17.78    1.27
  20   2  -3   16.03    1.28
  20   2  -3   15.67    1.09
 -20   2   3   16.85    1.02
  18  -2  -3   19.06    1.10
 -18  -2   3   20.84    1.17
  18  -2  -3   21.51    1.38
 -18  -2   3   22.65    1.42
 -18   2   3   22.09    1.17
 -18   2   3   20.40    1.39
  18   2  -3   19.48    1.25
 -16  -2   3   28.29    1.71
  16  -2  -3   30.60    1.44
 -16  -2   3   30.74    1.50
  16  -2  -3   27.48    1.68
 -16   2   3   29.49    1.74
  16   2  -3   27.60    1.59
 -16   2   3   29.52    1.50
 -14  -2   3    2.59    0.47
  14  -2  -3    1.92    0.26
  14  -2  -3    2.50    0.54
 -14  -2   3    2.11    0.30
 -14   2   3    1.88    0.31
 -12  -2   3  122.44    5.66
  12  -2  -3  126.46    5.33
  12  -2  -3  123.44    5.60
 -12  -2   3  124.45    5.38
 -12   2   3  124.56    5.44
   8  -2  -3  151.90    6.90
   8  -2  -3  159.32    6.66
  -8   2   3  159.94    6.81
  -6  -2   3   70.91    3.23
   6  -2  -3   65.62    2.92
   6  -2  -3   68.93    3.17
  -6   2   3   66.44    3.09
   4  -2  -3    3.21    0.47
  -4  -2   3    2.99    0.46
   4  -2  -3    3.14    0.27
   4   2  -3    2.75    0.19
  -4   2   3    3.79    0.44
  -2  -2   3   89.77    4.45
   2  -2  -3   96.70    4.24
   2  -2  -3  102.06    4.42
   2   2  -3  104.33    4.17
   0  -2  -3   93.73    4.09
   0  -2   3   92.23    4.16
   0  -2   3   87.87    4.16
   0   2  -3   86.51    4.15
   0   2  -3   94.72    3.88
   2  -2   3    0.69    0.24
  -2  -2  -3    1.12    0.33
   2  -2   3    0.37    0.21
  -2  -2  -3    0.77    0.28
  -2   2  -3    0.67    0.13
  -2   2  -3    0.49    0.24
   4  -2   3    6.35    0.62
  -4  -2  -3    6.78    0.59
  -4  -2  -3    6.12    0.66
   4   2   3    5.11    0.49
  -4   2  -3    6.31    0.65
  -4   2  -3    6.39    0.39
   6  -2   3   29.24    1.81
   6  -2   3   39.63    1.87
  -6  -2  -3   37.52    1.92
  -6  -2  -3   35.96    1.72
  -6   2  -3   36.93    1.87
  -6   2  -3   37.88    1.69
   6   2   3   36.36    1.78
   8  -2   3   16.31    1.02
  -8  -2  -3   15.93    1.03
  -8  -2  -3   16.38    0.85
   8  -2   3   15.76    0.97
   8   2   3   14.95    0.96
  10  -2   3   24.97    1.40
 -10  -2  -3   25.91    1.18
  10  -2   3   26.05    1.38
 -10  -2  -3   24.62    1.43
  10   2   3   24.55    1.39
 -10   2  -3   22.88    1.26
 -12  -2  -3   39.48    2.01
 -12  -2  -3   39.37    1.69
  12  -2   3   36.99    1.96
  12   2   3   36.78    1.99
 -12   2  -3   38.43    1.87
 -14  -2  -3   41.09    2.14
  14  -2   3   42.20    2.13
 -14   2  -3   41.28    2.05
  14   2   3   43.38    2.21
 -16  -2  -3    4.02    0.55
  16  -2   3    3.88    0.54
  16   2   3    4.22    0.68
 -16   2  -3    3.60    0.49
  18  -2   3   15.20    1.03
 -18  -2  -3   16.25    1.04
  18   2   3   14.90    1.15
 -18   2  -3   15.10    1.00
  20  -2   3    9.99    0.87
 -20  -2  -3    8.97    0.83
 -20   2  -3    7.81    0.77
  20   2   3    5.79    0.84
  22  -2   3   18.11    1.19
 -22  -2  -3   16.38    1.14
  22   2   3   17.14    1.51
 -22   2  -3   16.72    1.14
  24  -2   3    4.63    0.66
 -24  -2  -3    3.53    0.58
  24   2   3    4.84    0.88
 -24   2  -3    4.59    0.66
 -26  -2  -3    4.56    0.65
  26  -2   3    4.17    0.66
 -26  -2  -3    4.24    0.82
  26   2   3    3.65    0.82
 -26   2  -3    5.21    0.73
  28  -2   3    4.13    0.74
 -28  -2  -3    4.71    0.85
 -28  -2  -3    7.33    0.86
  28   2   3    4.78    0.93
 -28   2  -3    5.10    0.78
 -30  -2  -3   12.28    1.21
 -30  -2  -3   10.91    1.34
  30  -2   3   10.12    1.09
 -30   2  -3   14.86    1.34
  30   2   3   13.43    1.44
 -32  -2  -3    1.07    0.46
 -32  -2  -3    2.48    0.66
  32  -2   3    1.62    0.55
 -32   2  -3    1.81    0.57
  32   2   3    0.51    0.66
 -34  -2  -3    0.73    0.41
  34  -2   3    0.80    0.58
 -34  -2  -3    0.71    0.53
  34   2   3    0.87    0.72
 -34   2  -3    1.82    0.58
  36  -2   3    0.72    0.63
 -36  -2  -3    0.47    0.46
 -36  -2  -3   -0.18    0.45
  36   2   3   -0.41    0.66
 -36   2  -3   -0.14    0.35
 -38  -2  -3    2.48    0.69
  38  -2   3    1.53    0.80
  38   2   3    2.83    0.98
 -38   2  -3    2.44    0.69
 -41  -3   3    0.87    0.52
 -41  -3   3    1.22    0.65
  41  -3  -3    0.55    0.66
 -41   3   3    1.18    0.69
 -39  -3   3    0.96    0.51
 -39  -3   3    1.70    0.70
  39  -3  -3    0.66    0.62
 -39   3   3    0.90    0.68
  37  -3  -3    2.18    0.66
 -37  -3   3    3.59    0.89
  37  -3  -3    1.86    0.81
 -37  -3   3    3.13    0.67
 -37   3   3    3.43    0.89
 -35  -3   3    2.20    0.72
  35  -3  -3    2.25    0.83
  35  -3  -3    1.16    0.54
 -35  -3   3    1.12    0.47
 -35   3   3    0.64    0.53
  33  -3  -3    2.40    0.79
  33  -3  -3    3.69    0.68
 -33  -3   3    4.19    0.89
 -33  -3   3    4.65    0.74
 -33   3   3    2.53    0.75
 -31  -3   3    5.48    0.77
  31  -3  -3    4.69    0.94
 -31  -3   3    3.66    0.83
  31  -3  -3    4.18    0.66
 -31   3   3    4.53    0.96
 -29  -3   3    1.10    0.40
  29  -3  -3    1.72    0.68
  29  -3  -3    0.97    0.38
 -29  -3   3    0.92    0.52
 -29   3   3    2.07    0.65
 -27  -3   3   17.20    1.69
  27  -3  -3   17.89    1.52
  27  -3  -3   19.03    1.25
 -27  -3   3   21.82    1.30
 -27   3   3   22.79    1.67
  25  -3  -3   41.92    2.41
  25  -3  -3   40.59    2.10
 -25  -3   3   41.99    2.14
 -25  -3   3   39.48    2.48
 -25   3   3   40.86    2.52
  25   3  -3   41.16    2.18
 -23  -3   3   12.06    1.26
 -23  -3   3   10.30    0.78
  23  -3  -3   11.25    0.80
  23  -3  -3    9.97    1.16
  23   3  -3   10.66    1.01
  21  -3  -3    0.78    0.46
 -21  -3   3    0.56    0.24
  21  -3  -3    0.26    0.23
 -21  -3   3    1.04    0.45
 -21   3   3   -0.18    0.12
  21   3  -3    0.41    0.28
 -21   3   3    0.71    0.22
  19  -3  -3    4.49    0.47
 -19  -3   3    3.13    0.63
  19  -3  -3    3.97    0.68
 -19  -3   3    4.24    0.47
  19   3  -3    4.69    0.62
 -19   3   3    1.89    0.50
 -19   3   3    5.02    0.46
  17  -3  -3    7.04    0.85
  17  -3  -3    6.14    0.55
 -17  -3   3    6.13    0.48
 -17  -3   3    5.38    0.80
 -17   3   3    5.91    0.47
  17   3  -3    7.17    0.76
  15  -3  -3   10.61    0.66
 -15  -3   3    9.51    0.62
  15  -3  -3    8.66    0.94
 -15  -3   3    9.72    1.00
  15   3  -3   12.09    0.84
 -15   3   3   10.12    0.65
  13  -3  -3    2.02    0.29
 -13  -3   3    1.60    0.24
 -13  -3   3    0.80    0.31
  13  -3  -3    1.94    0.47
 -13   3   3    2.41    0.32
  13   3  -3    1.57    0.38
 -11  -3   3   22.44    0.93
 -11  -3   3   12.79    1.12
  11  -3  -3   19.89    1.00
 -11   3   3   14.63    0.99
  11   3  -3   21.72    1.20
   9  -3  -3  121.21    5.48
  -9  -3   3  132.03    5.80
   9  -3  -3  125.59    5.70
  -9  -3   3  128.83    5.35
   9   3  -3  125.12    5.68
   7  -3  -3  292.00   12.56
   7  -3  -3  293.44   12.73
  -7  -3   3  295.04   12.83
   7   3  -3  305.19   12.77
   5  -3  -3  159.32    6.77
   5  -3  -3  160.52    6.91
  -5  -3   3  150.39    6.98
   5   3  -3  156.41    6.96
  -3  -3   3   34.26    1.82
   3  -3  -3   32.05    1.73
   3  -3  -3   33.92    1.66
   3   3  -3   34.27    1.81
   1  -3  -3   21.39    1.20
  -1  -3   3   20.92    1.35
  -1  -3   3   18.78    1.23
   1   3  -3   22.21    0.97
   1  -3   3   10.93    0.91
   1  -3   3   13.27    0.88
  -1  -3  -3   12.25    0.81
  -1  -3  -3   13.02    0.96
  -1   3  -3    9.86    0.82
  -1   3  -3   14.13    0.65
   3  -3   3   25.02    1.51
  -3  -3  -3   24.72    1.51
  -3  -3  -3   24.68    1.33
   3  -3   3   25.24    1.42
  -3   3  -3   25.14    1.46
  -3   3  -3   27.17    1.22
  -5  -3  -3    0.73    0.27
   5  -3   3    0.30    0.27
  -5  -3  -3    0.68    0.27
   5  -3   3    0.27    0.20
  -5   3  -3    0.48    0.15
  -7  -3  -3   10.81    0.84
   7  -3   3    7.93    0.85
  -7  -3  -3   11.29    0.68
   7  -3   3   11.38    0.76
  -7   3  -3    9.06    0.60
   9  -3   3   21.69    1.22
   9  -3   3   21.39    1.34
  -9  -3  -3   21.99    1.33
  -9  -3  -3   20.68    1.10
  -9   3  -3   20.33    1.12
  11  -3   3    1.62    0.32
 -11  -3  -3    1.19    0.22
  11  -3   3    0.81    0.31
 -11  -3  -3    1.08    0.37
  11   3   3    0.90    0.38
 -11   3  -3    0.81    0.23
  13  -3   3   39.06    1.95
 -13  -3  -3   33.54    1.87
  13   3   3   29.70    1.87
 -13   3  -3   33.12    1.72
  15  -3   3   75.83    3.53
 -15  -3  -3   76.10    3.49
  15   3   3   66.20    3.53
 -15   3  -3   69.80    3.36
 -17  -3  -3    1.16    0.35
  17  -3   3    1.65    0.44
  17   3   3    0.91    0.46
 -17   3  -3    1.22    0.32
  19  -3   3   14.04    1.06
 -19  -3  -3   13.55    1.00
  19   3   3   13.13    1.33
 -19   3  -3   13.09    0.95
 -21  -3  -3    4.11    0.61
  21  -3   3    4.28    0.62
 -21   3  -3    4.83    0.68
  21   3   3    4.30    0.81
 -23  -3  -3    3.04    0.57
  23  -3   3    3.55    0.63
 -23   3  -3    2.42    0.52
  23   3   3    3.70    0.85
  25  -3   3    2.04    0.49
 -25  -3  -3    2.45    0.67
 -25  -3  -3    3.07    0.56
 -25   3  -3    2.28    0.54
  25   3   3    2.16    0.74
 -27  -3  -3    3.69    0.79
 -27  -3  -3    3.88    0.64
  27  -3   3    2.44    0.58
  27   3   3    2.30    0.76
 -29  -3  -3    2.46    0.54
 -29  -3  -3    2.23    0.72
  29  -3   3    3.82    0.71
  29   3   3    3.06    0.80
 -29   3  -3    2.95    0.63
 -31  -3  -3    0.15    0.37
  31  -3   3    0.06    0.44
 -31  -3  -3    0.10    0.34
  31   3   3    0.75    0.61
 -31   3  -3    0.43    0.44
 -33  -3  -3   17.66    1.32
  33  -3   3   14.30    1.43
 -33  -3  -3   13.25    1.62
 -33   3  -3   13.07    1.46
  33   3   3   13.96    1.64
  35  -3   3   -0.75    0.35
 -35  -3  -3   -0.15    0.33
 -35  -3  -3    0.00    0.51
 -35   3  -3   -0.24    0.37
  35   3   3    0.33    0.64
 -37  -3  -3    1.16    0.69
 -37  -3  -3    1.14    0.51
  37  -3   3    0.73    0.65
  37   3   3    0.77    0.77
 -37   3  -3    1.02    0.62
 -40  -4   3    0.34    0.60
  40  -4  -3   -0.39    0.55
 -40   4   3    0.47    0.59
  38  -4  -3   -0.18    0.52
  38  -4  -3   -0.94    0.60
 -38  -4   3   -0.29    0.46
 -38   4   3   -0.16    0.47
  36  -4  -3   -0.69    0.59
  36  -4  -3   -0.86    0.38
 -36  -4   3    0.01    0.46
 -36   4   3    0.50    0.51
 -34  -4   3    2.60    0.59
  34  -4  -3    2.13    0.60
 -34  -4   3    2.26    0.74
  34  -4  -3    3.30    0.92
 -34   4   3    3.70    0.92
 -32  -4   3    1.03    0.41
  32  -4  -3    0.10    0.40
 -32  -4   3   -0.32    0.44
  32  -4  -3    1.93    0.76
 -32   4   3    1.86    0.67
  30  -4  -3    4.56    0.69
  30  -4  -3    4.72    0.94
 -30  -4   3    4.64    0.68
 -30  -4   3    4.48    0.91
 -30   4   3    3.81    0.87
 -28  -4   3    4.93    0.65
  28  -4  -3    3.29    0.83
  28  -4  -3    4.21    0.63
 -28  -4   3    5.51    0.98
 -28   4   3    4.69    0.88
 -26  -4   3    4.70    0.89
 -26  -4   3    5.01    0.62
  26  -4  -3    5.22    0.64
  26  -4  -3    5.69    0.97
 -26   4   3    6.32    0.99
  24  -4  -3   20.33    1.27
 -24  -4   3   22.05    1.71
  24  -4  -3   21.90    1.63
 -24  -4   3   20.50    1.24
  24   4  -3   22.88    1.40
 -24   4   3   22.64    1.71
  22  -4  -3    0.54    0.57
  22  -4  -3    0.71    0.31
 -22  -4   3    0.85    0.26
 -22  -4   3    0.59    0.42
  22   4  -3    1.00    0.37
 -20  -4   3   17.66    1.41
 -20  -4   3   17.75    1.01
  20  -4  -3   18.04    1.36
  20  -4  -3   16.11    1.06
  20   4  -3   18.53    1.20
 -18  -4   3   -0.19    0.19
 -18  -4   3    0.36    0.17
  18  -4  -3    0.45    0.46
  18  -4  -3    0.37    0.22
  18   4  -3    0.39    0.29
  16  -4  -3    2.59    0.60
 -16  -4   3    2.69    0.32
  16  -4  -3    2.55    0.41
  16   4  -3    2.92    0.53
  14  -4  -3    1.06    0.30
 -14  -4   3    1.26    0.42
  14  -4  -3    1.24    0.46
 -14  -4   3    1.57    0.22
  14   4  -3    1.63    0.42
  12  -4  -3   -0.17    0.31
  12  -4  -3    0.12    0.19
 -12  -4   3    0.06    0.09
 -12  -4   3    0.20    0.25
  12   4  -3   -0.10    0.22
 -10  -4   3   24.57    1.05
 -10  -4   3   21.31    1.49
  10  -4  -3   22.45    1.46
  10  -4  -3   22.71    1.30
  10   4  -3   23.09    1.41
  -8  -4   3   11.45    0.94
   8  -4  -3   11.35    0.81
   8  -4  -3   12.72    0.94
   8   4  -3   11.56    0.90
   6  -4  -3   38.73    2.07
   6  -4  -3   39.85    2.00
  -6  -4   3   38.81    2.15
   6   4  -3   39.55    2.10
  -4  -4   3   56.88    3.05
   4  -4  -3   62.02    2.96
   4  -4  -3   62.59    3.01
   4   4  -3   66.61    3.10
  -2  -4   3   36.69    2.16
   2  -4  -3   40.40    1.97
   2  -4  -3   35.42    1.93
  -2  -4   3   38.53    2.02
   2   4  -3   35.14    2.01
   0  -4   3    0.74    0.29
   0  -4  -3    0.41    0.30
   0  -4   3    1.01    0.47
   2  -4   3    0.37    0.23
   2  -4   3    0.41    0.36
  -2  -4  -3    1.10    0.32
  -2  -4  -3    0.31    0.33
  -2   4  -3    0.54    0.17
   4  -4   3   14.88    1.19
  -4  -4  -3   15.16    1.15
   4  -4   3   14.57    1.00
  -4  -4  -3   16.09    0.96
  -4   4  -3   15.62    0.87
  -6  -4  -3    1.28    0.32
   6  -4   3    1.48    0.35
   6  -4   3    0.67    0.34
  -6  -4  -3    1.29    0.44
  -6   4  -3    0.84    0.23
   8  -4   3    0.04    0.29
  -8  -4  -3    0.31    0.23
   8  -4   3   -0.20    0.17
  -8  -4  -3    0.09    0.24
  -8   4  -3    0.20    0.16
 -10  -4  -3    1.38    0.38
 -10  -4  -3    1.81    0.34
  10  -4   3    1.50    0.45
  10  -4   3    2.20    0.40
 -10   4  -3    1.66    0.34
  12  -4   3    6.14    0.61
 -12  -4  -3    4.25    0.68
  12  -4   3    4.34    0.69
 -12  -4  -3    5.91    0.51
 -12   4  -3    3.67    0.51
 -14  -4  -3    4.75    0.69
  14  -4   3    5.49    0.58
 -14   4  -3    3.49    0.51
 -16  -4  -3   24.42    1.46
 -16   4  -3   20.78    1.35
  18  -4   3    1.41    0.47
 -18  -4  -3    0.56    0.31
 -18   4  -3    1.58    0.42
 -20  -4  -3    0.80    0.33
  20  -4   3    1.25    0.45
  20   4   3    0.94    0.60
 -20   4  -3    0.96    0.37
  22  -4   3    0.02    0.35
 -22  -4  -3    0.74    0.44
 -22  -4  -3    0.17    0.29
  22   4   3   -0.04    0.52
 -22   4  -3    0.51    0.30
 -24  -4  -3    4.54    0.87
 -24  -4  -3    4.72    0.66
  24  -4   3    6.34    0.85
  24   4   3    3.98    0.91
 -24   4  -3    2.83    0.61
 -26  -4  -3   -0.04    0.40
 -26  -4  -3    0.85    0.38
  26  -4   3   -0.12    0.34
 -26   4  -3    0.65    0.42
  26   4   3   -0.46    0.53
 -28  -4  -3   -0.38    0.34
  28  -4   3   -0.05    0.38
 -28  -4  -3    0.05    0.29
 -28   4  -3    0.17    0.34
  28   4   3    1.01    0.64
 -30  -4  -3    1.55    0.61
  30  -4   3    2.03    0.65
 -30  -4  -3    1.22    0.45
  30   4   3    1.73    0.69
 -30   4  -3    2.48    0.66
 -32  -4  -3   -0.03    0.49
 -32  -4  -3    0.13    0.39
  32  -4   3    0.00    0.40
 -32   4  -3   -0.09    0.37
  32   4   3    0.11    0.59
  34  -4   3    1.64    0.66
 -34  -4  -3    1.66    0.76
 -34  -4  -3    2.18    0.59
 -34   4  -3    2.87    0.75
  34   4   3    3.10    0.96
  36  -4   3    0.92    0.67
 -36  -4  -3    3.21    0.74
 -36  -4  -3    3.14    0.91
  36   4   3    2.59    0.98
 -36   4  -3    3.16    0.83
  39  -5  -3   -0.08    0.83
 -39  -5   3   -0.10    0.59
  39  -5  -3   -0.38    0.56
 -39   5   3    0.70    0.68
 -37  -5   3    1.25    0.81
  37  -5  -3    0.99    0.90
  37  -5  -3   -0.03    0.48
 -37   5   3    1.72    0.75
  35  -5  -3    0.75    0.46
 -35  -5   3    0.16    0.60
  35  -5  -3   -0.33    0.71
 -35   5   3    0.78    0.60
  33  -5  -3    3.34    0.92
 -33  -5   3    1.13    0.65
  33  -5  -3    3.12    0.65
 -31  -5   3   -0.47    0.42
  31  -5  -3   -0.12    0.35
  31  -5  -3    0.07    0.62
  29  -5  -3   -0.18    0.34
  29  -5  -3    0.13    0.53
 -29  -5   3   -0.05    0.47
  27  -5  -3    0.17    0.52
 -27  -5   3    0.62    0.52
  27  -5  -3    0.53    0.36
 -25  -5   3    0.75    0.48
  25  -5  -3    0.48    0.53
  25  -5  -3    0.00    0.30
  23  -5  -3    1.76    0.62
 -23  -5   3    0.88    0.52
  23  -5  -3    0.62    0.32
  21  -5  -3    1.99    0.65
  21  -5  -3    0.07    0.26
 -21  -5   3   -0.24    0.31
  21   5  -3    0.06    0.32
  19  -5  -3    8.78    0.86
 -19  -5   3    7.70    1.09
 -19  -5   3    9.08    0.66
  19  -5  -3    8.38    1.08
  19   5  -3   10.35    1.04
  17  -5  -3   15.87    1.09
 -17  -5   3   16.05    0.88
  17   5  -3   17.53    1.20
 -15  -5   3   16.88    1.59
  15  -5  -3   14.15    1.02
 -15  -5   3   15.23    0.79
  15   5  -3   15.16    1.12
 -13  -5   3    9.11    0.49
  13  -5  -3    7.64    0.83
 -13  -5   3    7.40    1.01
  13   5  -3    9.29    0.98
  11  -5  -3   -0.21    0.19
  11  -5  -3    0.15    0.38
 -11  -5   3    0.19    0.08
 -11  -5   3    0.10    0.29
  11   5  -3    0.34    0.30
  -9  -5   3    3.59    0.64
   9  -5  -3    3.46    0.54
   9  -5  -3    4.15    0.68
   9   5  -3    3.66    0.61
  -7  -5   3    0.67    0.35
   7  -5  -3    0.68    0.38
   7  -5  -3    0.38    0.27
   7   5  -3    0.17    0.27
  -5  -5   3    6.43    0.81
   5  -5  -3    5.81    0.72
   5  -5  -3    4.21    0.65
  -3  -5   3    1.49    0.56
   3  -5  -3    1.71    0.47
  -3  -5   3    1.29    0.16
  -3  -5   3    1.33    0.39
   3  -5  -3    1.12    0.37
  -1  -5   3   38.98    2.38
   1  -5  -3   39.74    2.18
  -1  -5   3   40.32    2.16
   1  -5  -3   38.86    2.09
  -1  -5  -3   23.39    1.35
   1  -5   3   20.06    1.35
   1  -5   3   21.08    1.59
  -1  -5  -3   22.03    1.51
  -3  -5  -3    9.53    0.75
   3  -5   3   10.15    0.80
  -3  -5  -3    7.57    0.96
   3  -5   3    7.71    1.02
   5  -5   3    5.32    0.85
  -5  -5  -3    5.99    0.65
  -5  -5  -3    5.27    0.81
   5  -5   3    5.53    0.68
  -5   5  -3    6.04    0.62
   7  -5   3    2.94    0.50
  -7  -5  -3    3.74    0.49
  -7  -5  -3    1.81    0.51
   7  -5   3    2.49    0.59
  -7   5  -3    3.96    0.51
  -9  -5  -3    1.06    0.39
  -9  -5  -3    2.17    0.39
   9  -5   3    2.35    0.43
  -9   5  -3    1.58    0.36
  11  -5   3   -0.08    0.19
 -11  -5  -3    0.32    0.26
  11  -5   3   -0.15    0.13
 -11  -5  -3    0.05    0.28
 -11   5  -3    0.23    0.23
  13  -5   3   -0.15    0.12
  13  -5   3    0.27    0.25
 -13  -5  -3    0.23    0.27
 -13   5  -3    0.15    0.22
  15  -5   3   11.67    1.27
 -15  -5  -3   12.46    1.18
 -15   5  -3    9.37    0.99
 -17  -5  -3   15.28    1.17
  17  -5   3   15.76    1.48
 -17   5  -3   15.47    1.16
  19  -5   3    3.29    0.66
 -19  -5  -3    3.12    0.77
 -19  -5  -3    3.75    0.65
 -19   5  -3    3.23    0.62
  21  -5   3    0.46    0.37
 -21  -5  -3    0.22    0.25
 -21  -5  -3    0.18    0.37
 -21   5  -3    0.51    0.36
  23  -5   3    0.41    0.43
 -23  -5  -3    0.25    0.42
 -23  -5  -3    0.17    0.30
 -23   5  -3    0.30    0.37
  25  -5   3    4.21    0.76
 -25  -5  -3    2.35    0.76
 -25  -5  -3    4.91    0.72
 -25   5  -3    3.47    0.72
 -27  -5  -3    2.00    0.59
  27  -5   3    0.89    0.43
 -27  -5  -3    0.69    0.37
 -27   5  -3    0.62    0.40
 -29  -5  -3   -0.11    0.44
  29  -5   3    0.79    0.50
 -29  -5  -3    0.47    0.37
 -29   5  -3    0.59    0.49
 -31  -5  -3    2.00    0.80
 -31  -5  -3    0.80    0.40
  31  -5   3    1.59    0.59
 -31   5  -3    0.96    0.49
 -33  -5  -3    0.65    0.67
  33  -5   3    0.48    0.59
 -33  -5  -3    1.28    0.51
 -33   5  -3   -0.08    0.44
 -35  -5  -3    0.97    0.75
 -35  -5  -3    0.54    0.43
  35  -5   3   -0.32    0.54
 -35   5  -3   -0.32    0.48
  36  -6  -3    7.65    1.03
 -36  -6   3    8.21    1.50
  36  -6  -3    6.72    1.34
  34  -6  -3    6.09    0.91
 -34  -6   3    5.85    1.24
  34  -6  -3    7.25    1.32
 -32  -6   3    0.38    0.61
  32  -6  -3    0.11    0.44
  32  -6  -3    0.23    0.69
  30  -6  -3    1.25    0.78
 -30  -6   3    0.95    0.65
  30  -6  -3    1.38    0.50
 -28  -6   3   -0.03    0.46
  28  -6  -3    0.02    0.35
  28  -6  -3   -0.18    0.58
  26  -6  -3    1.31    0.44
  26  -6  -3    1.04    0.69
 -26  -6   3    0.46    0.58
 -24  -6   3    4.52    0.95
  24  -6  -3    4.93    0.71
  24  -6  -3    4.75    0.99
  22  -6  -3    6.53    1.03
  22  -6  -3    7.69    0.87
 -22  -6   3    6.62    1.11
  20  -6  -3   -0.31    0.51
  20  -6  -3    0.53    0.38
 -20  -6   3    0.46    0.43
 -18  -6   3   40.90    2.78
  18  -6  -3   50.63    2.52
  18  -6  -3   45.55    2.71
  16  -6  -3  121.72    5.58
  16  -6  -3  120.88    5.78
 -16  -6   3  115.89    5.93
  14  -6  -3    3.38    0.79
  14  -6  -3    3.25    0.59
 -14  -6   3    3.47    0.82
  12  -6  -3   25.40    1.69
  12  -6  -3   25.55    1.59
 -12  -6   3   22.89    1.75
 -10  -6   3    0.98    0.43
  10  -6  -3    0.71    0.53
  10  -6  -3    0.92    0.39
   8  -6  -3    0.11    0.39
   8  -6  -3    0.78    0.35
  -8  -6   3    0.12    0.31
   6  -6  -3    3.57    0.70
  -6  -6   3    4.21    0.75
   6  -6  -3    4.53    0.71
  -4  -6   3    1.25    0.45
   4  -6  -3    1.68    0.48
   4  -6  -3    1.00    0.42
  -4  -6   3    0.17    0.22
  -2  -6   3    0.43    0.32
   2  -6  -3   -0.05    0.28
   2  -6  -3   -0.11    0.35
  -2  -6   3    0.11    0.24
   0  -6  -3   12.42    1.23
   0  -6  -3    9.27    1.12
   0  -6   3   10.88    1.10
   0  -6  -3   11.46    1.10
  -2  -6  -3   58.11    2.96
   2  -6   3   61.39    3.05
  -2  -6  -3   58.99    3.20
   4  -6   3    5.10    0.71
  -4  -6  -3    5.71    0.72
  -4  -6  -3    5.24    0.86
   6  -6   3   17.30    1.16
  -6  -6  -3   14.29    1.40
  -6  -6  -3   16.08    1.09
  -8  -6  -3   14.61    1.03
   8  -6   3   17.59    1.14
  -8  -6  -3   17.68    1.31
  -8   6  -3   13.87    1.06
  10  -6   3    0.19    0.25
 -10  -6  -3    0.35    0.33
  10  -6   3    0.27    0.37
 -10  -6  -3    0.05    0.31
 -10   6  -3    0.15    0.28
  12  -6   3    7.37    1.09
 -12  -6  -3    6.73    0.92
 -12   6  -3    7.72    0.90
 -14  -6  -3    4.86    0.93
 -14  -6  -3    3.70    0.69
  14  -6   3    3.93    0.76
 -14   6  -3    3.80    0.67
 -16  -6  -3    3.60    0.77
 -16  -6  -3    3.49    0.65
  16  -6   3    2.78    0.73
 -16   6  -3    2.47    0.59
  18  -6   3    5.42    0.93
 -18  -6  -3    5.08    0.74
 -18  -6  -3    5.61    0.97
 -18   6  -3    4.86    0.80
  20  -6   3    2.10    0.68
 -20  -6  -3    1.99    0.51
 -20  -6  -3    2.33    0.75
 -20   6  -3    1.46    0.51
 -22  -6  -3    9.68    1.41
  22  -6   3    9.11    1.20
 -22  -6  -3   11.07    1.14
 -22   6  -3    8.35    1.12
  24  -6   3    6.81    1.05
 -24  -6  -3    8.17    0.99
 -24  -6  -3    5.75    1.13
 -24   6  -3    4.95    0.90
 -26  -6  -3    2.16    0.78
 -26  -6  -3    3.61    0.66
  26  -6   3    3.86    0.78
 -26   6  -3    1.94    0.63
 -28  -6  -3    0.07    0.34
  28  -6   3    0.48    0.46
 -28  -6  -3    0.90    0.63
 -28   6  -3    0.26    0.45
 -30  -6  -3    1.30    0.51
  30  -6   3    2.18    0.70
 -30  -6  -3    0.55    0.56
 -30   6  -3    2.17    0.76
 -32  -6  -3    0.65    0.44
  32  -6   3    1.27    0.59
 -32  -6  -3    0.72    0.71
  32  -6   3    1.54    0.61
 -32   6  -3    0.34    0.57
  35  -7  -3    4.65    0.89
 -35  -7   3    2.78    1.05
  35  -7  -3    5.28    1.23
  33  -7  -3    4.53    1.18
 -33  -7   3    4.01    1.09
  33  -7  -3    3.36    0.75
 -31  -7   3    1.79    0.79
  31  -7  -3    1.64    0.58
  31  -7  -3   -0.60    0.65
  29  -7  -3    0.08    0.39
 -29  -7   3   -0.37    0.43
  29  -7  -3    0.65    0.76
  27  -7  -3    5.15    0.83
  27  -7  -3    3.79    0.98
 -27  -7   3    5.69    1.16
  25  -7  -3    3.61    0.69
  25  -7  -3    2.34    0.87
 -25  -7   3    2.93    0.94
  23  -7  -3    6.36    0.89
  23  -7  -3    6.13    1.06
 -23  -7   3    5.48    1.20
  21  -7  -3    0.10    0.37
  21  -7  -3    1.18    0.69
 -21  -7   3   -0.48    0.48
 -19  -7   3   18.37    1.96
  19  -7  -3   20.00    1.44
  19  -7  -3   20.02    1.68
  17  -7  -3    4.43    0.77
  17  -7  -3    3.46    0.86
 -17  -7   3    4.41    0.98
  15  -7  -3   39.30    2.36
 -15  -7   3   37.04    2.60
  15  -7  -3   46.34    2.60
  13  -7  -3   -0.38    0.40
 -13  -7   3    0.29    0.45
  13  -7  -3    0.24    0.42
  11  -7  -3    1.31    0.60
  11  -7  -3    1.72    0.52
 -11  -7   3    1.20    0.54
   9  -7  -3   10.99    1.03
   9  -7  -3   14.23    1.43
  -9  -7   3   12.76    1.42
   9  -7  -3    9.28    1.12
   7  -7  -3    0.02    0.31
   7  -7  -3    0.37    0.30
  -7  -7   3    0.75    0.51
   7  -7  -3    1.15    0.51
  -7  -7   3    0.16    0.29
   5  -7  -3    4.03    0.74
   5  -7  -3    2.55    0.55
  -5  -7   3    3.95    0.71
   5  -7  -3    3.42    0.75
  -5  -7   3    1.84    0.64
  -3  -7   3    4.26    0.75
   3  -7  -3    2.84    0.64
  -3  -7   3    2.83    0.79
   3  -7  -3    3.23    0.64
   3  -7  -3    3.84    0.74
   1  -7  -3    4.14    0.78
   1  -7  -3    5.28    0.80
  -1  -7   3    5.95    1.07
  -1  -7   3    4.54    0.75
   1  -7  -3    5.37    0.81
  -1  -7  -3   14.82    1.17
  -1  -7  -3   13.19    1.39
   1  -7   3   14.52    1.16
  -1  -7  -3   12.45    1.38
   1  -7   3   14.39    1.60
  -1  -7  -3   13.53    1.38
  -3  -7  -3   13.50    1.45
  -3  -7  -3   16.76    1.58
  -3  -7  -3   15.81    1.19
   3  -7   3   18.48    1.92
   3  -7   3   15.26    1.19
   5  -7   3   10.75    1.41
   5  -7   3   13.56    1.26
  -5  -7  -3   13.01    1.43
  -5  -7  -3   14.64    1.10
  -5  -7  -3   13.26    1.42
  -7  -7  -3    0.47    0.40
   7  -7   3    0.24    0.45
  -7  -7  -3    0.22    0.36
   7  -7   3    0.53    0.34
  -7  -7  -3    0.44    0.45
  -9  -7  -3   10.65    1.18
  -9  -7  -3    9.04    1.21
  -9  -7  -3   10.77    0.89
   9  -7   3   13.08    1.56
  11  -7   3    1.69    0.68
 -11  -7  -3    5.00    0.84
 -11  -7  -3    4.68    0.93
 -13  -7  -3    2.29    0.59
  13  -7   3    1.56    0.64
 -13  -7  -3    1.74    0.64
 -13   7  -3    1.57    0.50
 -15  -7  -3   11.25    1.25
 -15  -7  -3   13.41    1.58
  15  -7   3   12.57    1.49
 -15   7  -3   13.54    1.37
  17  -7   3    1.68    0.66
 -17  -7  -3    1.07    0.62
 -17  -7  -3    1.31    0.49
 -17   7  -3    2.23    0.62
 -19  -7  -3    0.04    0.44
  19  -7   3   -0.09    0.45
 -19  -7  -3    0.06    0.31
 -19   7  -3   -0.07    0.35
  21  -7   3    3.10    0.83
 -21  -7  -3    1.66    0.68
 -21  -7  -3    1.39    0.50
 -21   7  -3    2.06    0.67
 -23  -7  -3    1.43    0.49
 -23  -7  -3    1.02    0.64
  23  -7   3    1.04    0.56
 -23   7  -3    2.11    0.67
 -25  -7  -3    3.76    0.66
  25  -7   3    2.64    0.75
 -25  -7  -3    3.30    0.92
 -25   7  -3    2.00    0.65
 -27  -7  -3    0.15    0.48
 -27  -7  -3    0.07    0.37
  27  -7   3   -0.48    0.41
 -27   7  -3    0.69    0.56
  29  -7   3    0.82    0.58
 -29  -7  -3    3.20    0.66
 -29  -7  -3    2.55    0.83
 -29   7  -3    1.93    0.76
 -31  -7  -3   -0.10    0.52
  31  -7   3    0.43    0.60
 -31  -7  -3    0.17    0.40
 -31   7  -3    0.40    0.56
 -32  -8   3    1.65    0.90
  32  -8  -3    1.85    1.00
  32  -8  -3    2.22    0.72
  30  -8  -3    0.06    0.73
  30  -8  -3    1.21    0.55
 -30  -8   3   -0.03    0.63
  28  -8  -3    0.71    0.74
  28  -8  -3   -0.10    0.48
 -28  -8   3    0.00    0.63
  26  -8  -3    1.84    0.83
 -26  -8   3    3.01    0.97
  26  -8  -3    1.41    0.63
  24  -8  -3    0.30    0.66
  24  -8  -3    0.42    0.48
 -24  -8   3    0.50    0.68
  22  -8  -3    1.04    0.52
 -22  -8   3   -0.13    0.56
  22  -8  -3    0.55    0.60
 -20  -8   3    5.97    1.22
  20  -8  -3    7.80    1.25
  20  -8  -3    8.32    1.10
  18  -8  -3    1.89    0.61
 -18  -8   3    3.08    0.92
  18  -8  -3    3.66    0.92
 -16  -8   3    0.36    0.58
  16  -8  -3   -0.31    0.46
  16  -8  -3    0.42    0.45
  14  -8  -3   13.91    1.56
 -14  -8   3   11.04    1.47
  14  -8  -3   11.85    1.38
  12  -8  -3    0.83    0.51
 -12  -8   3    2.72    0.79
  12  -8  -3    1.92    0.69
  10  -8  -3    0.07    0.45
  10  -8  -3   -0.05    0.34
 -10  -8   3    0.01    0.38
  -8  -8   3    3.65    0.92
   8  -8  -3    3.67    0.79
   8  -8  -3    4.92    0.88
  -8  -8   3    5.50    0.93
   6  -8  -3    0.92    0.39
  -6  -8   3    1.16    0.65
   6  -8  -3    2.57    0.73
   6  -8  -3    0.83    0.51
  -6  -8   3    1.13    0.53
   4  -8  -3    0.16    0.44
   4  -8  -3    0.82    0.39
  -4  -8   3   -0.17    0.51
  -4  -8   3    0.93    0.48
   4  -8  -3    0.89    0.54
   2  -8  -3    8.13    1.21
  -2  -8   3   11.05    1.25
  -2  -8   3   11.95    1.63
   2  -8  -3    8.97    1.15
   2  -8  -3    9.80    1.15
   0  -8  -3    2.70    0.73
   0  -8   3    2.98    0.83
   0  -8  -3    1.97    0.60
   0  -8  -3    3.36    0.70
   0  -8  -3    2.99    0.73
   0  -8   3    4.11    0.75
  -2  -8  -3    2.73    0.71
   2  -8   3    2.91    0.86
  -2  -8  -3    1.64    0.64
  -2  -8  -3    2.47    0.68
  -2  -8  -3    2.43    0.63
   2  -8   3    3.12    0.66
  -4  -8  -3    4.80    0.87
  -4  -8  -3    4.58    0.77
  -4  -8  -3    4.11    0.85
   4  -8   3    5.45    1.06
  -4  -8  -3    5.00    0.95
   4  -8   3    4.97    0.79
  -6  -8  -3    1.27    0.58
  -6  -8  -3    1.34    0.50
  -6  -8  -3    1.34    0.55
   6  -8   3    1.16    0.62
  -8  -8  -3    1.24    0.52
   8  -8   3    0.48    0.55
  -8  -8  -3    0.82    0.55
  -8  -8  -3    0.77    0.65
  10  -8   3    0.88    0.58
 -10  -8  -3    0.85    0.55
 -10  -8  -3   -0.15    0.35
  12  -8   3    7.27    1.27
 -12  -8  -3    7.63    1.21
 -12  -8  -3    7.21    1.03
 -14  -8  -3    0.20    0.45
 -14  -8  -3    0.51    0.41
  14  -8   3    0.39    0.58
  16  -8   3    0.62    0.60
 -16  -8  -3    0.10    0.52
 -16  -8  -3    0.80    0.48
 -18  -8  -3   -0.34    0.30
  18  -8   3    0.14    0.56
 -18  -8  -3   -0.22    0.47
 -20  -8  -3    1.89    0.76
 -20  -8  -3    0.03    0.37
  20  -8   3    0.00    0.47
 -22  -8  -3    0.09    0.49
  22  -8   3    1.14    0.62
 -22  -8  -3    0.40    0.40
 -24  -8  -3   -0.31    0.33
  24  -8   3   -0.20    0.52
 -24  -8  -3    0.12    0.52
 -24   8  -3   -0.02    0.69
  26  -8   3   -0.15    0.59
 -26  -8  -3    0.86    0.64
 -26  -8  -3    0.38    0.42
 -26   8  -3    0.54    0.63
 -28  -8  -3    0.32    0.68
  28  -8   3    0.26    0.66
 -28   8  -3   -0.26    0.48
  27  -9  -3    1.65    0.69
 -27  -9   3    1.04    0.89
  27  -9  -3    1.73    0.90
  25  -9  -3    0.27    0.76
  25  -9  -3    0.55    0.61
 -25  -9   3    2.43    1.08
 -23  -9   3   -0.18    0.59
  23  -9  -3    0.57    0.66
  23  -9  -3    0.21    0.52
  21  -9  -3    1.67    0.64
  21  -9  -3    0.91    0.65
 -21  -9   3    1.68    0.81
 -19  -9   3    0.80    0.60
  19  -9  -3   -0.52    0.44
  19  -9  -3    1.51    0.71
  17  -9  -3   -0.19    0.43
  17  -9  -3    0.05    0.60
 -17  -9   3    0.45    0.54
 -15  -9   3   -0.34    0.45
  15  -9  -3   -0.11    0.59
  15  -9  -3   -0.44    0.49
  13  -9  -3    0.93    0.65
  13  -9  -3    1.17    0.65
 -13  -9   3    2.33    0.80
 -11  -9   3    0.97    0.65
  11  -9  -3   -0.38    0.47
  11  -9  -3    0.77    0.57
 -11  -9   3    0.43    0.52
   9  -9  -3    0.67    0.54
  -9  -9   3    0.60    0.49
  -9  -9   3    0.77    0.58
   9  -9  -3    1.12    0.63
  -7  -9   3    2.02    0.80
   7  -9  -3    1.34    0.63
   7  -9  -3    1.63    0.65
  -7  -9   3    2.02    0.69
  -5  -9   3   -0.34    0.52
   5  -9  -3    0.10    0.50
  -5  -9   3   -0.49    0.32
   5  -9  -3   -0.02    0.49
  -3  -9   3   -0.24    0.48
   3  -9  -3   -0.36    0.42
   3  -9  -3    0.96    0.54
  -3  -9   3    0.22    0.42
   3  -9  -3    0.46    0.51
   3  -9  -3    0.15    0.34
   1  -9  -3    0.14    0.35
   1  -9  -3    0.09    0.50
  -1  -9   3    0.22    0.38
   1  -9  -3    0.36    0.49
  -1  -9   3    0.09    0.65
   1  -9  -3   -0.33    0.39
  -1  -9  -3    0.78    0.50
  -1  -9  -3    1.24    0.53
  -1  -9  -3    0.09    0.48
  -1  -9  -3    0.72    0.52
   1  -9   3    0.89    0.66
   1  -9   3    0.88    0.77
  -3  -9  -3    0.03    0.39
  -3  -9  -3    1.07    0.54
   3  -9   3    0.87    0.66
  -3  -9  -3    0.38    0.48
  -3  -9  -3    0.11    0.51
  -5  -9  -3    0.33    0.47
  -5  -9  -3    0.15    0.47
   5  -9   3    1.07    0.66
  -5  -9  -3   -0.20    0.48
  -5  -9  -3   -0.12    0.42
  -7  -9  -3   -0.29    0.39
   7  -9   3    0.26    0.47
  -7  -9  -3   -0.19    0.38
  -9  -9  -3    1.06    0.66
  -9  -9  -3    0.84    0.53
   9  -9   3    0.52    0.60
  11  -9   3   -0.25    0.55
 -11  -9  -3   -0.12    0.47
 -11  -9  -3    1.01    0.51
  13  -9   3   -0.50    0.48
 -13  -9  -3   -0.28    0.45
 -13  -9  -3   -0.03    0.37
 -15  -9  -3    0.59    0.47
 -15  -9  -3   -0.37    0.51
  15  -9   3    0.45    0.63
  17  -9   3    0.03    0.61
 -17  -9  -3    0.86    0.64
  19  -9   3    0.19    0.52
 -19  -9  -3    0.51    0.66
  21  -9   3    0.58    0.66
 -21  -9  -3    0.62    0.61
 -23  -9  -3    0.41    0.57
  23  -9   3   -0.44    0.52
  22 -10  -3   -0.17    0.49
  22 -10  -3    0.20    0.69
 -22 -10   3   -0.04    0.64
  20 -10  -3    0.27    0.57
 -20 -10   3    0.44    0.71
  20 -10  -3    0.32    0.66
  18 -10  -3    0.09    0.54
 -18 -10   3    1.09    0.72
  18 -10  -3    0.78    0.79
  16 -10  -3    0.94    0.70
  16 -10  -3    1.57    0.74
 -16 -10   3    1.15    0.73
  14 -10  -3    1.73    0.82
  14 -10  -3    1.81    0.80
 -14 -10   3    1.31    0.74
 -14 -10   3    1.53    0.76
  12 -10  -3    1.02    0.67
 -12 -10   3    0.26    0.54
 -12 -10   3    0.45    0.58
  12 -10  -3    0.13    0.63
  10 -10  -3    0.18    0.60
 -10 -10   3    0.00    0.45
 -10 -10   3    0.09    0.51
  10 -10  -3    0.51    0.64
  -8 -10   3    4.78    1.03
   8 -10  -3    5.42    1.06
  -8 -10   3    6.21    1.37
   6 -10  -3    1.67    0.73
  -6 -10   3   -0.23    0.45
  -6 -10   3    0.72    0.69
   6 -10  -3    1.20    0.77
   4 -10  -3    0.27    0.51
   4 -10  -3   -0.25    0.54
  -4 -10   3   -0.58    0.54
   4 -10  -3   -0.20    0.49
  -4 -10   3   -0.13    0.42
  -2 -10   3    1.13    0.77
   2 -10  -3    0.62    0.56
   2 -10  -3    1.27    0.63
   2 -10  -3   -0.08    0.52
   0 -10   3    2.33    0.93
   0 -10  -3    0.72    0.63
   0 -10  -3    0.92    0.59
   0 -10  -3    1.19    0.64
  -2 -10  -3    1.07    0.61
  -2 -10  -3    0.44    0.58
  -2 -10  -3    0.22    0.50
  -2 -10  -3    0.53    0.62
   2 -10   3    0.53    0.64
  -4 -10  -3    0.37    0.57
   4 -10   3    1.17    0.75
  -4 -10  -3    2.42    0.84
   6 -10   3    2.32    0.95
  -6 -10  -3    1.46    0.77
  -6 -10  -3    1.02    0.63
   8 -10   3    0.05    0.62
  -8 -10  -3    0.11    0.59
  -8 -10  -3   -0.02    0.53
  10 -10   3    0.59    0.77
 -10 -10  -3    0.38    0.62
  12 -10   3    2.25    0.94
 -12 -10  -3    1.69    0.83
 -14 -10  -3    0.15    0.56
  14 -10   3    0.22    0.60
 -16 -10  -3    0.28    0.65
  16 -10   3    0.96    0.76
  18 -10   3   -0.21    0.66
 -18 -10  -3    0.18    0.61
 -13 -11   3    0.01    0.54
 -13 -11   3    0.05    0.66
  13 -11  -3   -0.03    0.72
 -11 -11   3    1.04    0.83
  11 -11  -3    2.20    0.93
 -11 -11   3    0.05    0.62
  11 -11  -3    1.44    0.84
  -9 -11   3    2.41    0.85
   9 -11  -3    2.96    0.99
  -9 -11   3    2.90    0.94
   9 -11  -3    1.54    0.85
  -7 -11   3    0.98    0.69
   7 -11  -3   -0.58    0.57
  -7 -11   3    0.26    0.54
   7 -11  -3    0.36    0.63
   5 -11  -3    3.24    0.96
  -5 -11   3    1.80    0.93
   5 -11  -3    0.51    0.68
  -3 -11   3   -0.08    0.67
   3 -11  -3    1.36    0.73
   3 -11  -3    1.01    0.76
   1 -11  -3    0.03    0.60
  -1 -11   3    0.99    0.82
   1 -11  -3    0.56    0.66
   1 -11   3    0.99    0.75
  -1 -11  -3   -0.04    0.57
  -1 -11  -3    1.24    0.71
   3 -11   3   -0.06    0.64
  -3 -11  -3    0.56    0.66
  -5 -11  -3    1.48    0.75
  -5 -11  -3    2.26    0.94
   5 -11   3    1.31    0.83
  -7 -11  -3    2.00    0.89
  -7 -11  -3    1.24    0.71
   7 -11   3   -0.65    0.61
  -9 -11  -3    0.52    0.65
   9 -11   3    0.45    0.79
  -9 -11  -3    0.27    0.63
  42   0  -4    1.07    0.82
 -42   0   4    0.12    0.54
 -40   0   4    4.20    0.99
  40   0  -4    3.17    0.94
  38   0  -4    1.62    0.74
 -38   0   4    0.82    0.54
  36   0  -4   -0.41    0.55
 -36   0   4    1.03    0.55
 -34   0   4    2.05    0.61
  34   0  -4    0.99    0.62
 -32   0   4   78.34    4.10
  32   0  -4   79.00    4.04
  32   0  -4   76.52    3.95
 -32   0   4   80.31    4.02
 -30   0   4    1.58    0.53
  30   0  -4    2.12    0.70
  30   0  -4    1.53    0.61
 -30   0   4    1.24    0.49
 -28   0   4    8.73    1.03
  28   0  -4    6.66    0.93
 -28   0   4    7.15    0.95
  28   0  -4    7.48    1.03
  26   0  -4    6.06    0.93
 -26   0   4    8.60    1.00
  26   0  -4    6.87    0.94
 -26   0   4    6.44    0.86
  24   0  -4   11.28    1.09
 -24   0   4    9.06    1.04
 -24   0   4   13.25    1.24
  24   0  -4   11.48    1.18
  22   0  -4   45.42    2.50
  22   0  -4   48.14    2.61
 -22   0   4   50.82    2.59
 -22   0   4   48.41    2.58
 -20   0   4    8.74    0.92
  20   0  -4   10.69    1.11
 -20   0   4   10.77    1.02
  20   0  -4    9.60    0.92
 -18   0   4    8.71    0.89
 -18   0   4    8.16    0.87
  18   0  -4    9.34    1.03
  18   0  -4   10.89    0.94
 -16   0   4   37.43    2.04
  16   0  -4   40.86    2.17
 -16   0   4   37.71    2.08
  16   0  -4   39.47    1.99
 -14   0   4  136.41    6.21
  14   0  -4  137.04    6.24
  14   0  -4  140.12    6.06
  12   0  -4   20.41    1.21
  12   0  -4   26.38    1.49
 -12   0   4   24.99    1.41
  10   0  -4   12.99    0.99
   8   0  -4    0.13    0.09
  -8   0   4   -0.15    0.14
  -6   0   4   -0.03    0.14
  -4   0   4   37.53    1.71
   4   0  -4   37.68    1.95
   2   0  -4   42.08    2.04
  -2   0   4   41.01    1.83
   2   0  -4   39.27    2.05
   0   0  -4   61.71    2.91
   0   0  -4   62.77    2.89
   0   0   4   61.37    2.68
   0   0   4   59.68    2.96
  -2   0  -4   46.39    2.26
  -2   0  -4   43.57    2.25
   2   0   4   48.86    2.36
   2   0   4   47.41    2.08
   4   0   4    6.85    0.42
  -4   0  -4    6.40    0.64
   4   0   4    5.66    0.67
  -6   0  -4   20.98    1.18
   6   0   4   19.65    1.28
   6   0   4   21.27    1.04
  -6   0  -4   19.95    1.16
  -8   0  -4  350.70   15.11
  -8   0  -4  359.26   15.11
 -10   0  -4    2.50    0.40
 -10   0  -4    1.90    0.36
  10   0   4    2.68    0.35
 -12   0  -4   12.77    0.83
  12   0   4   13.31    0.81
 -12   0  -4   12.80    0.86
  14   0   4    8.32    0.65
 -14   0  -4    8.75    0.69
 -16   0  -4   35.54    1.86
  16   0   4   35.29    1.82
 -18   0  -4    0.94    0.31
  18   0   4    0.86    0.35
  20   0   4   10.42    0.82
 -20   0  -4    8.27    0.83
 -22   0  -4   56.32    2.80
  22   0   4   53.94    2.78
  24   0   4    0.57    0.37
 -24   0  -4    1.61    0.43
  26   0   4   59.46    3.07
 -26   0  -4   58.60    3.03
  28   0   4    4.62    0.83
 -28   0  -4    5.56    0.79
 -30   0  -4    0.33    0.33
  30   0   4   -0.27    0.48
  32   0   4    6.54    0.99
 -32   0  -4    6.94    0.95
  34   0   4    1.43    0.67
 -34   0  -4    1.89    0.56
 -36   0  -4    0.37    0.40
  36   0   4    1.11    0.67
  38   0   4   -0.60    0.68
 -38   0  -4    0.39    0.40
  43  -1  -4    1.24    0.76
 -43  -1   4    0.09    0.55
 -43   1   4    1.62    0.70
  43   1  -4    2.38    0.93
  41  -1  -4   -0.47    0.59
 -41  -1   4    0.26    0.48
  41   1  -4    1.56    0.75
 -41   1   4    0.37    0.48
 -39  -1   4    1.01    0.59
  39  -1  -4    0.78    0.68
 -39   1   4    1.22    0.66
  39   1  -4    1.97    0.78
 -37  -1   4    0.23    0.40
  37  -1  -4    0.36    0.62
  37   1  -4    1.09    0.70
 -37   1   4   -0.13    0.47
 -35  -1   4    6.14    0.94
 -35  -1   4    5.97    0.96
  35  -1  -4    4.73    0.97
  35  -1  -4    4.48    0.86
 -35   1   4    5.11    0.99
  35   1  -4    4.24    0.89
 -33  -1   4    6.10    0.96
  33  -1  -4    6.10    0.91
  33  -1  -4    4.82    0.95
 -33  -1   4    6.84    0.97
  33   1  -4    4.42    0.99
 -33   1   4    4.68    0.93
  31  -1  -4    9.33    1.23
 -31  -1   4   13.33    1.31
  31  -1  -4    8.55    1.03
 -31  -1   4   10.40    1.23
  31   1  -4    9.25    1.21
  31   1  -4   10.28    1.13
 -31   1   4    9.44    1.20
  29  -1  -4   11.94    1.34
  29  -1  -4   10.49    1.12
 -29  -1   4   10.52    1.14
 -29  -1   4    8.92    1.15
  29   1  -4   11.97    1.20
 -29   1   4   11.43    1.13
 -29   1   4   11.71    1.30
  29   1  -4   10.03    1.25
 -27  -1   4    2.31    0.55
  27  -1  -4    2.68    0.76
  27  -1  -4    2.56    0.61
 -27  -1   4    1.33    0.49
  27   1  -4    1.83    0.70
 -27   1   4    2.25    0.63
  27   1  -4    2.37    0.64
 -27   1   4    2.32    0.54
  25  -1  -4   11.00    1.25
 -25  -1   4   13.08    1.04
  25  -1  -4   12.24    1.10
 -25  -1   4   14.47    1.34
  25   1  -4   13.57    1.28
 -25   1   4   11.91    0.98
 -25   1   4   13.00    1.32
  25   1  -4   13.10    1.30
  23  -1  -4    3.52    0.82
  23  -1  -4    3.61    0.59
 -23  -1   4    4.51    0.73
 -23  -1   4    5.10    0.69
 -23   1   4    3.23    0.56
  23   1  -4    3.92    0.72
  23   1  -4    3.78    0.75
 -23   1   4    4.35    0.72
 -21  -1   4    3.86    0.66
  21  -1  -4    2.79    0.72
 -21  -1   4    3.34    0.55
  21  -1  -4    2.64    0.49
 -21   1   4    3.07    0.60
  21   1  -4    3.83    0.66
 -21   1   4    2.32    0.48
  21   1  -4    2.81    0.61
  19  -1  -4    1.26    0.56
 -19  -1   4    1.43    0.36
  19  -1  -4    1.06    0.34
 -19  -1   4    1.43    0.40
 -19   1   4    1.50    0.38
  19   1  -4    1.76    0.49
  19   1  -4    1.07    0.45
 -19   1   4    0.90    0.35
 -17  -1   4    9.56    1.00
  17  -1  -4   10.34    0.73
  17  -1  -4    9.66    1.06
 -17  -1   4    8.56    0.83
  17   1  -4    9.23    0.97
 -17   1   4    9.88    0.91
  17   1  -4    9.64    0.92
  15  -1  -4   54.47    2.37
 -15  -1   4   46.81    2.59
 -15  -1   4   47.13    2.43
  15  -1  -4   48.46    2.61
  15   1  -4   53.16    2.61
  13  -1  -4   68.35    3.05
  13  -1  -4   64.65    3.33
 -13  -1   4   66.95    3.32
  13   1  -4   71.15    3.32
  11  -1  -4   54.05    2.84
  11  -1  -4   58.29    2.56
 -11  -1   4   55.00    2.84
  11   1  -4   59.92    2.85
  -9  -1   4   -0.11    0.21
   9  -1  -4   -0.08    0.08
   9  -1  -4    0.09    0.15
  -9   1   4   -0.32    0.09
   9   1  -4   -0.08    0.21
  -7   1   4    2.24    0.38
   3  -1  -4   23.20    1.34
  -3  -1   4   21.21    1.31
  -3  -1   4   22.60    1.20
   3   1  -4   22.20    1.17
   3   1  -4   22.03    1.29
   1  -1  -4   63.52    2.99
  -1  -1   4   63.39    2.88
  -1  -1   4   63.92    3.03
  -1   1   4   62.63    2.66
   1   1  -4   61.23    2.98
   1   1  -4   61.35    2.84
   1  -1   4    3.58    0.51
  -1  -1  -4    4.36    0.52
   1  -1   4    3.56    0.41
  -1   1  -4    3.13    0.48
   1   1   4    4.15    0.28
  -1   1  -4    3.35    0.40
   3  -1   4    0.41    0.22
  -3  -1  -4    0.27    0.21
  -3  -1  -4    0.33    0.24
   3  -1   4    0.11    0.15
  -3   1  -4    0.42    0.16
   3   1   4    0.89    0.30
  -3   1  -4    0.69    0.27
   3   1   4    0.38    0.14
   5  -1   4   41.45    2.16
  -5  -1  -4   43.09    2.04
  -5  -1  -4   42.05    2.14
   5  -1   4   41.98    2.01
  -5   1  -4   40.00    2.10
   5   1   4   41.51    1.90
  -7  -1  -4    7.57    0.57
   7  -1   4    7.76    0.78
  -7  -1  -4    7.41    0.73
  -7   1  -4    7.97    0.65
  -7   1  -4    7.43    0.55
   7   1   4    6.99    0.52
  -9  -1  -4  151.96    6.63
  -9  -1  -4  153.01    6.78
   9  -1   4  157.58    6.88
   9  -1   4  148.92    6.63
  -9   1  -4  152.24    6.63
  -9   1  -4  152.49    6.74
 -11  -1  -4   16.51    1.07
  11  -1   4   16.46    0.98
 -11  -1  -4   16.79    0.95
  11   1   4   15.35    0.96
 -11   1  -4   18.06    0.99
 -11   1  -4   16.29    1.04
  13  -1   4   20.47    1.18
 -13  -1  -4   21.59    1.11
 -13  -1  -4   19.92    1.25
 -13   1  -4   20.34    1.17
  13   1   4   21.59    1.21
  15  -1   4    3.20    0.43
 -15  -1  -4    1.46    0.35
  15   1   4    2.51    0.46
 -15   1  -4    3.38    0.44
  17  -1   4    2.78    0.46
  17   1   4    3.00    0.53
 -17   1  -4    1.99    0.41
  19  -1   4   -0.19    0.21
 -19  -1  -4    0.12    0.12
 -19   1  -4    0.14    0.22
  19   1   4    0.02    0.36
  21  -1   4   21.94    1.42
 -21  -1  -4   24.21    1.46
 -21   1  -4   26.71    1.49
  21   1   4   24.36    1.53
 -23  -1  -4   -0.03    0.23
  23  -1   4    0.63    0.40
  23   1   4   -0.22    0.37
 -23   1  -4    0.18    0.28
 -25  -1  -4    2.41    0.51
  25  -1   4    2.76    0.54
 -25   1  -4    2.31    0.52
  25   1   4    1.30    0.60
  27  -1   4    8.68    0.97
 -27  -1  -4   11.71    1.13
  27   1   4   11.44    1.22
 -27   1  -4   11.78    1.14
  29  -1   4    8.06    0.99
 -29  -1  -4    8.26    0.98
 -29   1  -4    9.02    1.03
  29   1   4    8.67    1.10
 -31  -1  -4    0.27    0.46
  31  -1   4    0.43    0.51
 -31  -1  -4   -0.01    0.29
  31   1   4    0.87    0.66
 -31   1  -4    0.48    0.34
 -33  -1  -4    2.47    0.60
  33  -1   4    1.60    0.67
 -33  -1  -4    1.60    0.78
 -33   1  -4    1.60    0.59
  33   1   4    2.83    0.81
  35  -1   4    0.18    0.64
 -35  -1  -4    1.49    0.54
 -35   1  -4    1.13    0.52
  35   1   4    2.19    0.88
 -37  -1  -4    0.71    0.46
  37  -1   4    0.07    0.66
 -37   1  -4    0.40    0.40
  37   1   4    0.62    0.72
  42  -2  -4   -0.37    0.62
 -42  -2   4    0.05    0.47
  42   2  -4    1.26    0.78
 -42   2   4    0.47    0.65
 -40  -2   4    0.15    0.49
  40  -2  -4   -0.34    0.56
  40   2  -4   -0.05    0.62
 -40   2   4   -0.32    0.42
 -38  -2   4    0.41    0.43
 -38  -2   4    0.02    0.47
  38  -2  -4   -0.09    0.55
 -38   2   4    0.25    0.54
  38   2  -4    0.44    0.57
 -36  -2   4    2.71    0.74
  36  -2  -4    0.82    0.60
  36  -2  -4    0.98    0.70
 -36  -2   4    0.64    0.46
 -36   2   4    1.28    0.66
  36   2  -4    0.94    0.69
  34  -2  -4    0.69    0.54
 -34  -2   4    0.83    0.44
  34  -2  -4   -0.42    0.62
 -34  -2   4    0.81    0.51
  34   2  -4   -0.01    0.57
 -34   2   4   -0.14    0.40
 -32  -2   4    0.53    0.45
 -32  -2   4    1.34    0.49
  32  -2  -4    0.27    0.63
  32  -2  -4    1.42    0.51
  32   2  -4    1.38    0.70
 -32   2   4    1.03    0.54
  30  -2  -4    5.27    0.74
  30  -2  -4    6.03    1.03
 -30  -2   4    5.80    0.82
 -30  -2   4    5.07    0.89
 -30   2   4    3.19    0.76
  30   2  -4    3.16    0.85
  30   2  -4    6.53    1.04
 -28  -2   4    0.81    0.36
  28  -2  -4    0.65    0.62
 -28  -2   4    0.48    0.42
  28  -2  -4    0.79    0.43
  28   2  -4    1.25    0.50
  28   2  -4    0.75    0.57
 -28   2   4    0.80    0.55
 -26  -2   4    3.98    0.63
  26  -2  -4    6.85    0.76
 -26  -2   4    2.82    0.67
  26  -2  -4    3.89    0.81
 -26   2   4    4.25    0.62
  26   2  -4    4.56    0.73
  26   2  -4    5.32    0.88
 -26   2   4    3.10    0.76
  24  -2  -4    6.24    0.70
  24  -2  -4    5.63    0.92
 -24  -2   4    6.21    0.74
 -24  -2   4    7.49    1.01
 -24   2   4    7.49    0.77
 -24   2   4    5.56    0.88
  24   2  -4    5.76    0.81
  22  -2  -4    1.22    0.36
  22  -2  -4    3.05    0.74
 -22  -2   4    1.77    0.40
 -22  -2   4    2.13    0.56
  22   2  -4    1.29    0.47
 -22   2   4    0.83    0.30
 -22   2   4    1.12    0.43
  20  -2  -4    3.19    0.45
  20  -2  -4    3.25    0.73
 -20  -2   4    4.48    0.71
 -20  -2   4    2.68    0.46
  20   2  -4    4.25    0.66
  18  -2  -4   16.29    1.34
 -18  -2   4   18.16    1.12
 -18  -2   4   18.05    1.32
  18  -2  -4   20.85    1.06
  18   2  -4   19.42    1.29
 -16  -2   4    1.22    0.38
  16  -2  -4    1.35    0.25
 -16  -2   4    1.43    0.30
  16  -2  -4    1.28    0.50
  16   2  -4    0.87    0.36
 -16   2   4    0.68    0.25
  14  -2  -4    6.82    0.47
  14  -2  -4    6.91    0.84
 -14  -2   4    5.83    0.76
 -14  -2   4    5.32    0.55
 -14   2   4    6.55    0.65
  14   2  -4    7.63    0.83
  12  -2  -4   28.77    1.26
 -12  -2   4   26.51    1.61
  12  -2  -4   27.04    1.61
  12   2  -4   24.88    1.54
 -12   2   4   24.03    1.43
 -10  -2   4    7.02    0.86
  10  -2  -4   10.76    0.52
  10  -2  -4    8.00    0.89
  10   2  -4   10.09    0.79
 -10   2   4    7.91    0.76
  -8  -2   4    4.48    0.66
   8  -2  -4    6.26    0.33
   8  -2  -4    6.48    0.80
   8   2  -4    4.85    0.63
   6  -2  -4    1.93    0.48
  -6  -2   4    1.11    0.34
   6  -2  -4    2.43    0.15
   6   2  -4    2.03    0.26
   6   2  -4    1.79    0.42
  -4  -2   4    1.98    0.44
  -4  -2   4    1.57    0.36
   4  -2  -4    2.16    0.14
   4  -2  -4    2.24    0.45
   4   2  -4    2.50    0.26
  -2  -2   4   -0.03    0.19
  -2  -2   4    0.02    0.20
   2  -2  -4    0.08    0.08
   2  -2  -4    0.01    0.27
   2   2  -4    0.22    0.22
  -2   2   4   -0.30    0.13
   2   2  -4   -0.04    0.09
   0  -2   4    7.54    0.78
   0  -2   4   10.16    0.78
   0  -2  -4    9.10    0.76
   0   2  -4    9.64    0.76
   0   2  -4    8.88    0.52
   2  -2   4    1.09    0.31
  -2  -2  -4    0.83    0.34
  -2   2  -4    1.41    0.20
  -2   2  -4    1.69    0.40
   4  -2   4    4.88    0.61
   4  -2   4    3.77    0.51
  -4  -2  -4    4.14    0.53
   4   2   4    4.25    0.45
  -4   2  -4    3.60    0.54
  -4   2  -4    4.34    0.39
   6  -2   4   15.55    1.01
   6  -2   4   16.38    1.06
  -6  -2  -4   15.02    0.93
  -6   2  -4   15.00    1.03
   6   2   4   15.18    0.92
  -8  -2  -4    1.64    0.38
   8  -2   4    2.04    0.43
   8  -2   4    1.72    0.38
  -8  -2  -4    2.56    0.36
  -8   2  -4    1.85    0.28
  -8   2  -4    1.53    0.38
  10  -2   4   56.59    2.84
 -10  -2  -4   60.01    2.90
  10  -2   4   58.88    2.81
 -10  -2  -4   57.68    2.62
 -10   2  -4   58.37    2.66
  10   2   4   53.28    2.73
 -12  -2  -4   22.52    1.09
 -12  -2  -4   20.54    1.32
  12  -2   4   21.67    1.27
  12   2   4   19.56    1.27
 -12   2  -4   20.27    1.16
 -14  -2  -4    0.67    0.17
  14  -2   4    0.46    0.25
 -14  -2  -4    0.86    0.34
 -14   2  -4    0.53    0.23
  14   2   4    0.51    0.38
  16  -2   4    0.89    0.33
 -16  -2  -4    0.78    0.32
 -16   2  -4    0.91    0.27
  16   2   4    1.15    0.48
  18  -2   4    1.50    0.37
 -18  -2  -4    1.19    0.37
 -18   2  -4    1.40    0.34
  18   2   4    2.56    0.60
  20  -2   4   22.30    1.33
 -20  -2  -4   18.45    1.29
  20   2   4   19.85    1.48
 -20   2  -4   20.54    1.28
 -22  -2  -4    6.89    0.80
  22  -2   4    7.57    0.82
 -22   2  -4    5.21    0.69
  22   2   4    5.47    0.89
 -24  -2  -4    2.89    0.56
  24  -2   4    2.26    0.50
  24   2   4    2.35    0.69
 -24   2  -4    2.48    0.52
  26  -2   4    1.84    0.51
 -26  -2  -4    0.88    0.40
 -26   2  -4    1.27    0.44
  26   2   4    1.21    0.66
 -28  -2  -4    3.66    0.64
  28  -2   4    2.59    0.64
 -28   2  -4    3.82    0.67
  28   2   4    3.14    0.82
  30  -2   4   12.47    1.25
 -30  -2  -4   11.33    1.19
 -30  -2  -4   11.57    1.46
  30   2   4   11.56    1.43
 -30   2  -4   13.13    1.31
 -32  -2  -4    0.27    0.51
  32  -2   4   -0.07    0.52
 -32  -2  -4    0.60    0.37
 -32   2  -4    0.24    0.39
  32   2   4   -0.31    0.53
 -34  -2  -4    0.11    0.41
  34  -2   4   -0.32    0.51
 -34  -2  -4    0.78    0.61
  34   2   4    0.74    0.66
 -34   2  -4   -0.16    0.37
  36  -2   4   -0.80    0.47
 -36  -2  -4    0.52    0.49
 -36   2  -4    0.50    0.44
  36   2   4   -0.77    0.61
 -38  -2  -4    1.65    0.63
  38  -2   4    1.14    0.79
  38   2   4    1.48    0.83
 -38   2  -4    2.02    0.67
  41  -3  -4    1.62    0.74
 -41  -3   4    1.54    0.74
 -41   3   4    1.99    0.78
 -39  -3   4    0.51    0.61
 -39  -3   4    0.77    0.57
  39  -3  -4    0.49    0.59
 -39   3   4    1.05    0.74
 -37  -3   4    0.03    0.49
  37  -3  -4    0.57    0.56
 -37  -3   4   -0.42    0.32
  37  -3  -4   -0.47    0.64
 -37   3   4   -0.08    0.53
  35  -3  -4    0.44    0.47
 -35  -3   4    0.85    0.57
  35  -3  -4    0.63    0.72
 -35  -3   4    0.04    0.38
 -35   3   4   -0.09    0.42
  33  -3  -4    0.74    0.50
  33  -3  -4    0.80    0.69
 -33  -3   4    1.81    0.70
 -33  -3   4    1.25    0.47
 -33   3   4    1.19    0.67
  31  -3  -4    1.62    0.69
  31  -3  -4    1.79    0.53
 -31  -3   4    1.79    0.65
 -31  -3   4    2.75    0.57
 -31   3   4    2.83    0.78
  29  -3  -4   -0.29    0.54
  29  -3  -4    0.49    0.36
 -29  -3   4    0.06    0.28
 -29  -3   4    0.50    0.45
 -29   3   4    0.32    0.40
  27  -3  -4    1.49    0.69
  27  -3  -4    0.95    0.40
 -27  -3   4    0.06    0.37
 -27  -3   4    0.54    0.33
 -27   3   4    1.16    0.58
  27   3  -4    1.22    0.47
  25  -3  -4    7.37    1.10
 -25  -3   4    6.19    1.03
 -25  -3   4   10.36    0.95
  25  -3  -4    8.31    0.79
  25   3  -4    9.20    1.00
 -25   3   4    6.83    1.05
  23  -3  -4   25.57    1.78
  23  -3  -4   24.18    1.37
 -23  -3   4   25.30    1.44
 -23  -3   4   21.10    1.66
  23   3  -4   27.24    1.61
 -21  -3   4    0.37    0.34
  21  -3  -4    1.21    0.62
  21  -3  -4   -0.06    0.21
 -21  -3   4    0.25    0.22
  21   3  -4    1.04    0.42
 -21   3   4    0.20    0.21
 -19  -3   4    0.58    0.38
 -19  -3   4    0.83    0.25
  19  -3  -4    0.31    0.47
  19  -3  -4    0.68    0.25
 -19   3   4    1.09    0.30
  19   3  -4    1.04    0.40
  17  -3  -4   11.89    0.73
 -17  -3   4   13.13    0.79
  17  -3  -4   13.00    1.21
 -17  -3   4   11.00    1.20
 -17   3   4   10.95    0.80
  17   3  -4   12.71    0.97
  15  -3  -4    0.39    0.41
 -15  -3   4    0.21    0.14
  15  -3  -4    0.15    0.14
 -15  -3   4    0.10    0.25
  15   3  -4    0.24    0.29
 -15   3   4    0.08    0.19
  13  -3  -4   26.94    1.29
  13   3  -4   26.52    1.60
 -13   3   4   26.28    1.45
  11  -3  -4    1.01    0.44
  11  -3  -4    1.40    0.22
 -11  -3   4    1.15    0.36
  11   3  -4    2.04    0.47
 -11   3   4    1.27    0.30
   9  -3  -4    8.51    0.89
   9  -3  -4    8.36    0.51
  -9  -3   4    7.78    0.89
   9   3  -4    8.84    0.90
   7  -3  -4   31.33    1.45
   7  -3  -4   29.96    1.75
  -7  -3   4   30.74    1.80
   7   3  -4   30.37    1.75
  -5  -3   4   28.04    1.74
   5  -3  -4   29.46    1.45
   5  -3  -4   34.44    1.76
   5   3  -4   31.05    1.75
  -3  -3   4    1.09    0.38
   3  -3  -4    1.38    0.25
   3  -3  -4    1.34    0.43
  -3  -3   4    1.74    0.42
   3   3  -4    1.64    0.12
   3   3  -4    0.93    0.33
   1  -3  -4   30.00    1.64
  -1  -3   4   30.80    1.77
  -1  -3   4   27.57    1.67
   1   3  -4   30.16    1.33
  -1  -3  -4    0.88    0.40
  -1  -3  -4    0.55    0.33
   1  -3   4    0.22    0.25
   1  -3   4    0.47    0.35
  -1   3  -4    0.36    0.29
  -1   3  -4    0.56    0.13
  -3  -3  -4   16.43    1.09
   3  -3   4   18.41    1.19
  -3  -3  -4   17.34    1.25
   3  -3   4   19.29    1.24
  -3   3  -4   17.13    1.19
  -3   3  -4   18.71    0.91
  -5  -3  -4    1.06    0.37
   5  -3   4    0.91    0.36
  -5  -3  -4    0.82    0.34
   5  -3   4    1.40    0.35
  -5   3  -4    1.15    0.37
  -5   3  -4    1.18    0.20
  -7  -3  -4   14.35    0.92
   7  -3   4   14.51    1.01
  -7  -3  -4   13.17    1.05
   7  -3   4   13.97    1.06
  -9  -3  -4    5.74    0.57
   9  -3   4    4.40    0.63
   9  -3   4    5.84    0.75
  -9  -3  -4    6.54    0.83
   9   3   4    5.83    0.67
  -9   3  -4    6.09    0.48
  11  -3   4    1.43    0.41
 -11  -3  -4    2.20    0.47
 -11  -3  -4    2.31    0.34
  11  -3   4    1.48    0.39
  11   3   4    1.39    0.45
 -11   3  -4    2.12    0.35
  13  -3   4    2.08    0.46
  13  -3   4    3.41    0.54
 -13  -3  -4    1.76    0.48
 -13  -3  -4    3.22    0.32
  13   3   4    2.21    0.56
 -13   3  -4    2.89    0.42
 -15  -3  -4    0.86    0.37
  15  -3   4    0.34    0.27
  15   3   4    0.49    0.47
 -15   3  -4    0.14    0.19
 -17  -3  -4   32.79    1.85
  17  -3   4   33.06    1.85
  17   3   4   28.23    1.89
 -17   3  -4   29.79    1.69
 -19  -3  -4    7.01    0.84
  19  -3   4    7.89    0.87
 -19   3  -4    5.25    0.66
  19   3   4    5.38    0.93
  21  -3   4    0.10    0.28
 -21  -3  -4    0.16    0.28
  21   3   4   -0.82    0.47
 -21   3  -4    0.11    0.27
  23  -3   4    4.47    0.67
 -23  -3  -4    3.77    0.62
 -23   3  -4    4.53    0.66
  23   3   4    4.62    0.89
  25  -3   4    1.01    0.46
 -25  -3  -4    1.06    0.38
  25   3   4    0.23    0.58
 -25   3  -4    1.20    0.45
  27  -3   4    4.59    0.74
 -27  -3  -4    2.82    0.58
 -27   3  -4    3.23    0.62
  27   3   4    3.07    0.87
 -29  -3  -4    1.25    0.64
  29  -3   4    1.26    0.50
 -29  -3  -4    2.03    0.56
 -29   3  -4    2.64    0.64
  29   3   4    2.29    0.82
 -31  -3  -4    4.36    0.97
 -31  -3  -4    3.09    0.64
  31  -3   4    3.32    0.71
 -31   3  -4    4.88    0.84
  31   3   4    3.61    0.97
  33  -3   4   -0.19    0.46
 -33  -3  -4    0.66    0.57
 -33  -3  -4    0.03    0.36
  33   3   4    0.53    0.68
 -33   3  -4    0.25    0.39
  35  -3   4    4.54    0.91
 -35  -3  -4    5.52    1.12
 -35  -3  -4    5.21    0.88
 -35   3  -4    4.22    0.87
  35   3   4    3.54    1.01
 -37  -3  -4    0.63    0.45
 -37  -3  -4    0.09    0.57
  37  -3   4   -0.28    0.56
 -37   3  -4   -0.31    0.47
  37   3   4    0.00    0.70
 -40  -4   4    5.37    1.23
  40  -4  -4    3.98    0.89
  40  -4  -4    2.86    1.12
 -40   4   4    5.04    1.13
 -38  -4   4    0.72    0.64
  38  -4  -4   -0.01    0.57
  38  -4  -4   -0.47    0.68
 -38   4   4    1.37    0.67
 -36  -4   4    2.59    0.77
  36  -4  -4    1.50    0.82
  36  -4  -4    1.31    0.58
 -36   4   4    1.96    0.77
  34  -4  -4   -0.52    0.36
  34  -4  -4   -0.49    0.61
 -34  -4   4    0.65    0.59
 -34   4   4    0.11    0.45
  32  -4  -4    2.93    0.86
  32  -4  -4    2.92    0.60
 -32  -4   4    3.95    0.91
  30  -4  -4    1.97    0.74
  30  -4  -4    4.01    0.62
 -30  -4   4    2.11    0.74
  28  -4  -4    3.62    0.57
 -28  -4   4    2.66    0.72
  28  -4  -4    3.91    0.91
 -28  -4   4    4.73    0.95
 -26  -4   4   -0.19    0.33
 -26  -4   4    0.09    0.26
  26  -4  -4    0.24    0.33
  26  -4  -4   -0.14    0.55
  26   4  -4   -0.16    0.29
  24  -4  -4   15.43    1.53
 -24  -4   4   11.23    0.85
  24  -4  -4   10.84    0.84
 -24  -4   4   10.84    1.32
  24   4  -4   12.67    1.20
  22  -4  -4   35.31    1.76
 -22  -4   4   33.94    1.76
 -22  -4   4   30.56    2.16
  22  -4  -4   33.14    2.16
  22   4  -4   33.42    1.97
 -20  -4   4    5.28    0.90
  20  -4  -4    5.49    0.95
 -20  -4   4    5.17    0.55
  20  -4  -4    4.57    0.53
  20   4  -4    4.86    0.74
  18  -4  -4    4.22    0.49
  18  -4  -4    4.53    0.82
 -18  -4   4    4.40    0.47
  18   4  -4    4.19    0.69
  16  -4  -4    8.05    0.61
  16   4  -4    9.42    1.01
  14  -4  -4    3.33    0.41
 -14  -4   4    2.50    0.29
 -14  -4   4    3.05    0.64
  14   4  -4    3.38    0.63
  12  -4  -4   19.41    1.38
  12  -4  -4   17.83    1.02
 -12  -4   4   18.87    1.37
  12   4  -4   18.14    1.27
  10  -4  -4    5.05    0.76
 -10  -4   4    4.81    0.75
  10  -4  -4    4.47    0.49
  10   4  -4    4.14    0.64
   8  -4  -4    7.41    0.65
   8  -4  -4    6.97    0.86
  -8  -4   4    7.06    0.86
   8   4  -4    8.93    1.00
   6  -4  -4   10.97    1.03
   6  -4  -4    9.62    0.70
  -6  -4   4    9.63    1.00
   6   4  -4   12.80    1.16
   4  -4  -4   46.56    2.33
  -4  -4   4   53.12    2.61
   4  -4  -4   47.88    2.49
  -4  -4   4   45.36    2.64
   4   4  -4   49.34    2.57
  -2  -4   4   26.25    1.64
   2  -4  -4   29.47    1.61
   2  -4  -4   25.40    1.46
  -2  -4   4   26.07    1.75
   2   4  -4   29.90    1.70
   0  -4  -4   15.52    1.12
   0  -4  -4   18.69    1.33
   0  -4   4   17.05    1.30
   0  -4   4   17.89    1.22
   0   4  -4   18.75    0.89
   2  -4   4   40.96    2.40
  -2  -4  -4   41.24    2.40
  -2  -4  -4   42.15    2.18
   2  -4   4   42.28    2.28
  -2   4  -4   44.05    1.97
  -2   4  -4   44.03    2.36
   4  -4   4    8.56    0.89
  -4  -4  -4    9.10    0.83
  -4  -4  -4    7.86    0.99
   4  -4   4    8.44    1.01
  -4   4  -4    9.17    0.58
  -6  -4  -4    7.69    0.92
   6  -4   4    6.87    0.77
   6  -4   4    5.43    0.79
  -6  -4  -4    7.11    0.72
  -8  -4  -4    1.37    0.45
   8  -4   4    1.39    0.47
  -8  -4  -4    1.53    0.41
   8  -4   4    1.24    0.37
  -8   4  -4    2.16    0.33
 -10  -4  -4    9.09    0.78
 -10  -4  -4    7.08    0.90
  10  -4   4    9.18    0.89
  10  -4   4    9.35    1.05
 -10   4  -4    7.96    0.73
 -12  -4  -4    2.33    0.57
 -12  -4  -4    1.40    0.33
  12  -4   4    1.38    0.45
  12  -4   4    1.16    0.37
 -12   4  -4    1.09    0.30
  14  -4   4    0.88    0.33
  14  -4   4    0.20    0.32
 -14  -4  -4    0.17    0.30
 -14   4  -4    0.26    0.22
 -16  -4  -4    9.94    1.10
  16  -4   4   10.08    1.13
 -16   4  -4   12.04    0.88
  18  -4   4   11.64    1.18
 -18  -4  -4   11.82    1.18
 -18   4  -4   11.97    0.94
  20  -4   4    9.12    1.02
 -20  -4  -4    9.24    1.00
 -20   4  -4   10.52    1.04
  20   4   4    9.45    1.18
 -22  -4  -4    0.55    0.35
  22  -4   4   -0.08    0.36
  22   4   4    0.19    0.51
 -22   4  -4    0.24    0.30
  24  -4   4    6.15    0.88
 -24  -4  -4    5.72    0.79
 -24   4  -4    5.20    0.79
  24   4   4    5.05    0.94
 -26  -4  -4    0.20    0.45
 -26  -4  -4    0.18    0.30
  26  -4   4    0.68    0.46
  26   4   4    0.00    0.56
 -26   4  -4    0.29    0.39
  28  -4   4    1.06    0.49
 -28  -4  -4    2.53    0.82
 -28  -4  -4    0.99    0.43
  28   4   4    1.58    0.75
 -28   4  -4    0.92    0.46
 -30  -4  -4   -0.12    0.33
 -30  -4  -4   -0.53    0.44
  30  -4   4    0.67    0.52
 -30   4  -4    0.08    0.38
  30   4   4    0.18    0.62
 -32  -4  -4    0.40    0.42
 -32  -4  -4    0.10    0.52
  32  -4   4    1.34    0.65
  32   4   4   -0.51    0.60
 -32   4  -4    0.75    0.52
 -34  -4  -4    0.82    0.50
  34  -4   4    0.67    0.68
 -34  -4  -4    1.31    0.79
  34   4   4    1.68    0.86
 -34   4  -4    1.75    0.67
 -36  -4  -4    2.44    0.70
 -36  -4  -4    1.61    0.75
  36  -4   4    1.82    0.70
  36   4   4    2.24    0.90
 -39  -5   4    2.60    0.92
  39  -5  -4    3.16    0.81
  39  -5  -4    1.58    0.96
 -37  -5   4    3.19    0.93
  37  -5  -4    3.28    1.06
  37  -5  -4    1.58    0.66
  35  -5  -4    0.39    0.79
 -35  -5   4    0.13    0.57
  35  -5  -4   -0.33    0.42
  33  -5  -4    0.86    0.68
  33  -5  -4    1.28    0.51
 -33  -5   4    1.39    0.66
  31  -5  -4    1.82    0.51
 -31  -5   4    1.52    0.72
  31  -5  -4    0.81    0.69
  29  -5  -4    7.96    1.27
  29  -5  -4    8.61    0.92
 -29  -5   4    9.53    1.40
  27  -5  -4    0.94    0.72
  27  -5  -4    1.42    0.44
 -27  -5   4    0.46    0.49
  25  -5  -4    4.41    0.91
 -25  -5   4    4.26    0.87
  25  -5  -4    5.69    0.66
  23  -5  -4    0.66    0.32
 -23  -5   4    1.32    0.55
  23  -5  -4    0.65    0.59
  23   5  -4    0.70    0.42
  21  -5  -4   25.70    1.85
  21  -5  -4   26.21    1.47
 -21  -5   4   26.22    1.92
  21   5  -4   25.07    1.66
  19  -5  -4    5.32    0.62
  19  -5  -4    5.86    0.98
 -19  -5   4    6.80    1.02
  19   5  -4    7.33    0.94
 -17  -5   4    0.74    0.46
  17  -5  -4    1.28    0.60
  17  -5  -4    0.46    0.28
  17   5  -4    1.05    0.42
 -15  -5   4    3.30    0.73
  15  -5  -4    3.42    0.50
  15   5  -4    3.95    0.68
  13  -5  -4   17.08    1.54
 -13  -5   4   14.55    1.45
  13  -5  -4   15.17    1.01
  13   5  -4   15.44    1.19
  11  -5  -4    6.29    0.93
 -11  -5   4    7.00    0.97
  11  -5  -4    8.91    0.81
  11   5  -4    9.45    1.06
   9  -5  -4    9.34    1.11
  -9  -5   4    9.61    1.10
   9  -5  -4    9.57    0.76
   9   5  -4    9.40    1.04
   7  -5  -4    6.56    0.69
   7  -5  -4    5.33    0.77
  -7  -5   4    3.89    0.69
   7   5  -4    6.04    0.82
   5  -5  -4    2.08    0.56
  -5  -5   4    0.49    0.48
   5  -5  -4    0.78    0.34
  -5  -5   4    2.11    0.49
   5   5  -4    1.43    0.45
  -3  -5   4   13.06    1.42
   3  -5  -4   12.67    1.18
   3  -5  -4   11.97    0.94
  -3  -5   4   13.09    1.26
   3   5  -4   13.52    1.31
   1  -5  -4   12.68    1.13
  -1  -5   4   12.34    1.19
   1  -5  -4   11.30    0.91
  -1  -5   4    9.52    1.22
  -1  -5  -4   12.11    1.09
   1  -5   4    9.70    1.16
  -1  -5  -4   11.65    1.22
   1  -5   4   10.50    1.05
  -3  -5  -4    1.60    0.45
  -3  -5  -4    0.88    0.41
   3  -5   4    0.43    0.43
   3  -5   4    0.86    0.36
  -3   5  -4    1.03    0.24
  -5  -5  -4   18.18    1.36
  -5  -5  -4   15.82    1.13
   5  -5   4   17.24    1.23
   5  -5   4   17.51    1.42
  -5   5  -4   18.79    1.04
  -7  -5  -4   -0.04    0.34
   7  -5   4   -0.18    0.29
   7  -5   4   -0.21    0.21
  -7  -5  -4    0.16    0.29
  -7   5  -4    0.05    0.19
   9  -5   4   13.75    0.98
  -9  -5  -4    9.29    1.11
  -9  -5  -4   10.88    0.88
   9  -5   4   12.42    1.30
  -9   5  -4   11.39    0.83
  11  -5   4    1.17    0.45
 -11  -5  -4    0.95    0.50
  11  -5   4    1.53    0.40
 -11  -5  -4    0.92    0.41
 -11   5  -4    0.64    0.28
  13  -5   4   16.18    1.11
 -13  -5  -4   13.27    1.34
  13  -5   4   14.99    1.50
 -13   5  -4   14.05    1.02
  15  -5   4    1.37    0.48
 -15  -5  -4    2.02    0.54
 -15   5  -4    2.19    0.46
  17  -5   4    3.56    0.72
 -17  -5  -4    3.74    0.70
 -17   5  -4    4.27    0.65
 -19  -5  -4    3.03    0.60
  19  -5   4    3.69    0.74
 -19   5  -4    3.50    0.66
  21  -5   4    4.53    0.85
 -21  -5  -4    3.02    0.66
 -21   5  -4    2.77    0.61
 -23  -5  -4    2.01    0.55
  23  -5   4    1.32    0.51
 -23  -5  -4    1.46    0.68
 -23   5  -4    2.03    0.56
  25  -5   4    0.34    0.39
 -25  -5  -4    0.84    0.56
 -25  -5  -4    0.43    0.36
 -25   5  -4    0.19    0.36
 -27  -5  -4    0.69    0.43
 -27  -5  -4    0.17    0.48
  27  -5   4   -0.09    0.36
 -27   5  -4    0.82    0.46
  29  -5   4    0.83    0.58
 -29  -5  -4    0.24    0.37
 -29  -5  -4    1.68    0.73
 -29   5  -4    0.21    0.41
  31  -5   4    0.62    0.50
 -31  -5  -4    0.37    0.39
 -31  -5  -4    0.74    0.57
 -31   5  -4    1.01    0.50
 -33  -5  -4    0.91    0.66
  33  -5   4   -1.31    0.39
 -33  -5  -4   -0.27    0.36
 -33   5  -4   -0.03    0.42
  36  -6  -4    0.20    0.72
  36  -6  -4   -0.16    0.50
 -36  -6   4    0.38    0.66
  34  -6  -4    0.30    0.47
 -34  -6   4   -0.38    0.54
  34  -6  -4   -0.27    0.75
  32  -6  -4   -0.02    0.70
  32  -6  -4   -0.66    0.34
 -32  -6   4   -0.01    0.49
 -30  -6   4    0.10    0.56
  30  -6  -4   -0.94    0.49
  30  -6  -4    1.06    0.48
  28  -6  -4    0.97    0.44
  28  -6  -4    0.39    0.67
 -28  -6   4    0.50    0.53
  26  -6  -4    2.39    0.83
  26  -6  -4    3.55    0.64
 -26  -6   4    2.68    0.82
  24  -6  -4   -0.12    0.28
 -24  -6   4   -0.16    0.40
  24  -6  -4    0.43    0.65
  22  -6  -4    6.43    0.79
 -22  -6   4    5.89    1.06
  22  -6  -4    5.27    1.03
  22   6  -4    6.86    0.99
  20  -6  -4    4.14    0.90
  20  -6  -4    3.28    0.56
 -20  -6   4    4.22    0.94
  20   6  -4    4.97    0.80
  18  -6  -4    4.85    0.68
 -18  -6   4    4.42    0.89
  18  -6  -4    4.08    0.86
  18   6  -4    4.59    0.83
  16  -6  -4   -0.61    0.46
  16  -6  -4    0.59    0.31
 -16  -6   4    0.34    0.43
  16   6  -4    0.51    0.40
  14  -6  -4    8.18    0.87
 -14  -6   4    8.06    1.16
  14  -6  -4    6.68    1.06
  14   6  -4    8.06    1.05
  12  -6  -4    0.98    0.39
 -12  -6   4    0.27    0.40
  12  -6  -4    1.27    0.62
  12   6  -4    1.19    0.49
  10  -6  -4    7.85    0.86
 -10  -6   4    6.75    1.02
  10  -6  -4    9.44    1.12
  10   6  -4    6.66    0.93
   8  -6  -4    0.18    0.50
  -8  -6   4    0.02    0.32
   8  -6  -4    0.15    0.26
  -6  -6   4    0.45    0.32
   6  -6  -4   -0.11    0.27
  -6  -6   4   -0.57    0.33
   6  -6  -4   -0.25    0.36
  -4  -6   4    0.00    0.45
   4  -6  -4   -0.34    0.40
   4  -6  -4   -0.59    0.24
  -4  -6   4    1.02    0.41
   2  -6  -4    2.17    0.54
   2  -6  -4    1.74    0.50
  -2  -6   4    2.16    0.70
  -2  -6   4    3.24    0.61
   0  -6  -4   -0.08    0.28
   0  -6  -4   -0.28    0.39
   0  -6  -4    0.14    0.38
   0  -6   4   -0.70    0.33
   0  -6   4    0.04    0.28
   2  -6   4    5.00    0.73
   2  -6   4    4.13    0.83
  -2  -6  -4    3.52    0.76
  -2  -6  -4    4.18    0.68
  -4  -6  -4   -0.46    0.34
  -4  -6  -4    0.71    0.39
   4  -6   4   -0.11    0.27
   4  -6   4   -0.52    0.30
  -6  -6  -4    3.95    0.66
  -6  -6  -4    5.35    0.91
   6  -6   4    5.04    0.90
   6  -6   4    5.65    0.77
  -6   6  -4    4.84    0.61
  -8  -6  -4    0.22    0.37
   8  -6   4    0.28    0.30
   8  -6   4    0.05    0.33
  -8  -6  -4   -0.37    0.31
  -8   6  -4    0.06    0.25
  10  -6   4    2.27    0.67
 -10  -6  -4    2.67    0.63
  10  -6   4    3.96    0.71
 -10   6  -4    3.25    0.57
  12  -6   4    0.87    0.49
 -12  -6  -4    0.29    0.37
 -12   6  -4    0.05    0.27
  14  -6   4    1.25    0.55
 -14  -6  -4    0.38    0.37
 -14   6  -4    1.58    0.46
 -16  -6  -4    0.77    0.45
  16  -6   4    0.43    0.43
 -16   6  -4    1.22    0.46
 -18  -6  -4   -0.16    0.32
  18  -6   4    0.08    0.41
 -18   6  -4    0.15    0.33
 -20  -6  -4    1.76    0.67
 -20  -6  -4    0.92    0.46
  20  -6   4    1.19    0.54
 -20   6  -4    1.04    0.43
 -22  -6  -4    0.51    0.37
  22  -6   4    0.26    0.48
 -22  -6  -4    1.15    0.58
 -22   6  -4    0.59    0.42
  24  -6   4    1.02    0.53
 -24  -6  -4    0.64    0.61
 -24  -6  -4    1.33    0.51
 -24   6  -4    0.88    0.49
 -26  -6  -4    0.30    0.56
  26  -6   4   -0.55    0.36
 -26  -6  -4    0.55    0.42
 -26   6  -4    0.26    0.43
 -28  -6  -4   -0.20    0.32
 -28  -6  -4    0.61    0.57
  28  -6   4    0.02    0.44
 -28   6  -4   -0.11    0.36
  30  -6   4    1.41    0.56
 -30  -6  -4   -0.25    0.34
 -30  -6  -4   -0.21    0.57
 -30   6  -4   -0.03    0.47
 -32  -6  -4    0.02    0.42
 -32  -6  -4    0.34    0.66
  32  -6   4    0.50    0.53
 -32   6  -4    0.24    0.51
  33  -7  -4    1.42    0.86
  33  -7  -4   -0.81    0.43
 -33  -7   4    0.35    0.61
  31  -7  -4    0.27    0.45
 -31  -7   4   -0.28    0.47
  31  -7  -4    0.51    0.76
  29  -7  -4    0.30    0.43
  29  -7  -4   -0.24    0.70
 -29  -7   4    1.49    0.81
 -27  -7   4   -0.14    0.46
  27  -7  -4    0.28    0.40
  27  -7  -4   -0.32    0.57
  25  -7  -4    0.15    0.39
  25  -7  -4   -0.80    0.53
 -25  -7   4   -0.43    0.42
  23  -7  -4    2.10    0.83
  23  -7  -4    0.61    0.43
 -23  -7   4    0.69    0.58
  21  -7  -4    4.05    0.95
 -21  -7   4    4.35    1.05
  21  -7  -4    3.68    0.69
 -19  -7   4    0.83    0.61
  19  -7  -4    0.36    0.37
  19  -7  -4    0.95    0.62
 -17  -7   4    1.18    0.54
  17  -7  -4   -0.30    0.52
  17  -7  -4    0.20    0.33
  15  -7  -4    0.35    0.54
 -15  -7   4    0.63    0.53
  15  -7  -4    0.08    0.35
 -13  -7   4    2.99    0.76
  13  -7  -4    1.76    0.68
  13  -7  -4    2.41    0.61
  11  -7  -4   -0.17    0.48
 -11  -7   4   -0.01    0.38
  11  -7  -4   -0.43    0.26
   9  -7  -4    0.01    0.31
   9  -7  -4   -0.23    0.43
  -9  -7   4    0.09    0.36
   7  -7  -4    1.48    0.61
  -7  -7   4    2.51    0.65
   7  -7  -4    0.00    0.36
  -7  -7   4    0.15    0.45
   5  -7  -4    0.33    0.43
  -5  -7   4   -0.15    0.30
   5  -7  -4    0.03    0.38
  -5  -7   4   -0.61    0.36
   3  -7  -4    0.75    0.48
  -3  -7   4    0.41    0.36
   3  -7  -4    0.83    0.45
  -3  -7   4    0.35    0.58
  -1  -7   4   -0.16    0.44
   1  -7  -4   -0.03    0.40
   1  -7  -4    0.33    0.41
   1  -7  -4   -0.55    0.28
  -1  -7   4   -0.18    0.29
  -1  -7  -4    0.40    0.44
   1  -7   4    0.38    0.46
  -1  -7  -4   -0.43    0.33
   1  -7   4    0.05    0.33
  -1  -7  -4    0.11    0.37
  -3  -7  -4   -0.24    0.33
  -3  -7  -4   -0.14    0.40
   3  -7   4    0.50    0.35
   3  -7   4   -0.34    0.32
  -5  -7  -4    0.02    0.39
   5  -7   4    0.29    0.34
  -5  -7  -4    0.35    0.41
   5  -7   4   -0.13    0.38
   7  -7   4    0.91    0.52
  -7  -7  -4   -0.16    0.30
  -7  -7  -4    0.67    0.42
   7  -7   4    0.03    0.35
   9  -7   4    0.99    0.55
  -9  -7  -4    1.07    0.53
  11  -7   4    0.91    0.56
 -11  -7  -4    0.08    0.33
 -13  -7  -4    2.36    0.69
  13  -7   4    0.99    0.67
  15  -7   4    0.12    0.46
 -15  -7  -4    0.33    0.45
 -15  -7  -4   -0.32    0.31
  17  -7   4    0.07    0.46
 -17  -7  -4    0.22    0.38
 -17  -7  -4   -0.09    0.46
 -17   7  -4    0.56    0.42
  19  -7   4    1.43    0.61
 -19  -7  -4    0.71    0.58
 -19  -7  -4    2.32    0.63
 -19   7  -4    2.43    0.62
  21  -7   4    0.09    0.41
 -21  -7  -4   -0.47    0.31
 -21  -7  -4   -0.22    0.42
 -21   7  -4    0.23    0.42
 -23  -7  -4    0.75    0.53
  23  -7   4    1.20    0.67
 -23  -7  -4    0.30    0.41
 -23   7  -4    0.58    0.48
 -25  -7  -4    0.36    0.45
 -25  -7  -4    0.16    0.53
  25  -7   4   -0.51    0.43
 -25   7  -4   -0.12    0.44
 -27  -7  -4    1.16    0.75
  27  -7   4   -0.24    0.51
 -27  -7  -4    0.02    0.37
 -27   7  -4   -0.21    0.42
 -29  -7  -4   -0.09    0.52
 -29  -7  -4    0.04    0.41
  29  -7   4   -0.28    0.45
 -29   7  -4    0.02    0.52
  30  -8  -4    0.17    0.73
 -30  -8   4    1.12    0.72
  28  -8  -4    2.10    0.98
 -28  -8   4    2.99    1.03
  26  -8  -4    0.67    0.51
  26  -8  -4    0.46    0.69
 -26  -8   4    0.58    0.67
  24  -8  -4    1.04    0.70
 -24  -8   4    1.64    0.82
  24  -8  -4    1.51    0.51
  22  -8  -4    7.91    1.28
  22  -8  -4   10.82    1.16
 -22  -8   4    9.67    1.53
 -20  -8   4    0.94    0.65
  20  -8  -4    1.21    0.74
  20  -8  -4    1.34    0.54
 -18  -8   4    1.01    0.62
  18  -8  -4    0.80    0.71
  18  -8  -4    0.74    0.46
  16  -8  -4    0.48    0.41
  16  -8  -4   -0.07    0.60
 -16  -8   4    0.61    0.49
  14  -8  -4    5.15    0.90
  14  -8  -4    5.19    0.97
 -14  -8   4    4.37    0.95
 -12  -8   4    0.63    0.53
  12  -8  -4    0.02    0.41
  12  -8  -4   -0.93    0.46
  10  -8  -4    4.78    0.84
 -10  -8   4    4.59    1.00
 -10  -8   4    5.54    0.99
  10  -8  -4    6.55    1.07
   8  -8  -4    0.09    0.51
  -8  -8   4   -0.49    0.43
  -8  -8   4   -0.32    0.36
   8  -8  -4   -0.02    0.35
  -6  -8   4    1.08    0.61
   6  -8  -4    1.96    0.55
   6  -8  -4    1.86    0.64
  -6  -8   4    0.74    0.47
   6  -8  -4    0.41    0.45
   4  -8  -4    2.94    0.71
   4  -8  -4    1.99    0.63
  -4  -8   4    1.12    0.52
   4  -8  -4    2.42    0.65
  -4  -8   4    2.57    0.75
  -2  -8   4    2.80    0.83
   2  -8  -4    3.52    0.74
  -2  -8   4    4.34    0.84
   2  -8  -4    3.67    0.90
   2  -8  -4    4.11    0.80
   2  -8  -4    3.60    0.78
   0  -8  -4   -0.14    0.38
   0  -8  -4   -0.39    0.28
   0  -8  -4    0.21    0.43
   0  -8   4    0.29    0.39
   0  -8  -4    0.48    0.49
   0  -8   4   -0.12    0.48
  -2  -8  -4    4.90    0.84
  -2  -8  -4    3.59    0.84
  -2  -8  -4    4.36    0.93
   2  -8   4    3.86    1.03
  -2  -8  -4    4.69    0.91
   2  -8   4    4.69    0.82
  -4  -8  -4    0.29    0.48
   4  -8   4   -0.43    0.42
  -4  -8  -4    0.25    0.43
  -4  -8  -4   -0.17    0.37
  -4  -8  -4    0.62    0.48
  -6  -8  -4    2.21    0.70
  -6  -8  -4    0.74    0.53
  -6  -8  -4    1.22    0.54
   6  -8   4    1.55    0.73
  -8  -8  -4    0.11    0.43
   8  -8   4   -0.58    0.44
  -8  -8  -4    0.45    0.49
 -10  -8  -4    1.65    0.65
  10  -8   4    2.07    0.71
 -10  -8  -4    3.83    0.88
  12  -8   4    0.18    0.50
 -12  -8  -4    0.10    0.51
 -12  -8  -4   -0.35    0.36
 -14  -8  -4   -0.29    0.35
  14  -8   4    0.77    0.60
 -14  -8  -4    0.19    0.43
  16  -8   4    2.22    0.80
 -16  -8  -4    2.19    0.68
 -16  -8  -4    1.82    0.72
 -18  -8  -4    1.16    0.51
  18  -8   4    1.08    0.68
 -18  -8  -4    1.23    0.71
  20  -8   4    3.72    0.92
 -20  -8  -4    2.04    0.81
 -20  -8  -4    2.25    0.66
 -22  -8  -4   -0.01    0.41
  22  -8   4    0.65    0.57
 -22  -8  -4    0.60    0.52
  24  -8   4    0.03    0.49
 -24  -8  -4    0.09    0.41
 -24  -8  -4   -0.63    0.47
 -26  -8  -4    0.26    0.59
 -26  -8  -4   -0.04    0.42
  26  -8   4    0.21    0.53
 -27  -9   4   -0.44    0.63
  27  -9  -4    0.40    0.86
 -25  -9   4    1.38    0.84
  25  -9  -4    1.58    0.91
  23  -9  -4    1.04    0.82
 -23  -9   4    1.80    0.85
  21  -9  -4    0.69    0.73
 -21  -9   4    0.15    0.64
  19  -9  -4   -0.28    0.57
 -19  -9   4    0.81    0.64
 -17  -9   4   -0.31    0.47
  17  -9  -4    0.64    0.69
  15  -9  -4    0.32    0.59
  15  -9  -4    0.63    0.69
 -15  -9   4    0.19    0.53
 -13  -9   4    1.14    0.69
  13  -9  -4    3.17    0.77
 -13  -9   4    3.40    1.00
  13  -9  -4    2.26    0.84
 -11  -9   4    2.01    0.79
  11  -9  -4    3.51    0.84
 -11  -9   4    3.49    0.92
  11  -9  -4    3.15    0.74
  -9  -9   4    0.57    0.63
  -9  -9   4    1.73    0.69
   9  -9  -4    0.88    0.52
   9  -9  -4    0.79    0.68
   7  -9  -4    2.59    0.73
   7  -9  -4    2.15    0.77
  -7  -9   4    2.14    0.79
  -7  -9   4    1.45    0.61
  -5  -9   4    3.42    0.98
   5  -9  -4    5.30    0.97
   5  -9  -4    4.71    0.95
  -5  -9   4    4.54    0.93
   3  -9  -4    1.21    0.56
  -3  -9   4    0.62    0.60
   3  -9  -4    1.15    0.58
   3  -9  -4    0.43    0.56
  -3  -9   4    1.47    0.57
   3  -9  -4    1.75    0.70
   1  -9  -4    2.23    0.70
  -1  -9   4    3.53    0.76
   1  -9  -4    2.01    0.71
   1  -9  -4    1.94    0.74
  -1  -9   4    1.55    0.75
   1  -9  -4    1.84    0.68
  -1  -9  -4    1.90    0.70
  -1  -9  -4    1.42    0.65
   1  -9   4    1.67    0.77
  -1  -9  -4    2.26    0.70
  -1  -9  -4    1.77    0.65
  -3  -9  -4    0.62    0.62
  -3  -9  -4    1.49    0.64
   3  -9   4    1.12    0.73
  -3  -9  -4    1.39    0.61
  -3  -9  -4    0.93    0.56
   5  -9   4    1.90    0.84
  -5  -9  -4    1.12    0.65
  -5  -9  -4    1.79    0.70
  -5  -9  -4    1.19    0.60
  -7  -9  -4    3.12    0.86
   7  -9   4    0.16    0.51
  -7  -9  -4    3.06    0.80
  -9  -9  -4    1.28    0.66
  -9  -9  -4    2.08    0.73
   9  -9   4    0.84    0.68
  11  -9   4    0.37    0.64
 -11  -9  -4    0.39    0.49
 -11  -9  -4    0.39    0.56
 -13  -9  -4   -0.39    0.42
  13  -9   4    0.01    0.53
 -13  -9  -4    1.00    0.61
 -15  -9  -4    0.53    0.53
  15  -9   4   -0.42    0.50
 -15  -9  -4    0.08    0.48
 -17  -9  -4    4.79    1.10
  17  -9   4    7.97    1.44
 -17  -9  -4    5.73    0.98
 -19  -9  -4    0.15    0.47
  19  -9   4    0.57    0.63
 -19  -9  -4   -0.06    0.54
 -21  -9  -4    1.13    0.55
 -21  -9  -4    0.69    0.67
  21  -9   4    0.58    0.57
  20 -10  -4    0.33    0.80
 -20 -10   4    0.93    0.82
  18 -10  -4   -0.84    0.57
 -18 -10   4   -0.11    0.62
 -16 -10   4   -0.49    0.51
 -16 -10   4    0.11    0.66
  16 -10  -4   -0.40    0.56
 -14 -10   4    0.66    0.61
  14 -10  -4    0.60    0.66
 -14 -10   4    1.50    0.71
  12 -10  -4    0.28    0.68
 -12 -10   4   -0.18    0.50
 -12 -10   4   -0.32    0.49
 -10 -10   4    0.20    0.53
 -10 -10   4    0.27    0.55
  10 -10  -4    1.21    0.73
   8 -10  -4   -0.26    0.59
  -8 -10   4    0.46    0.53
  -8 -10   4   -0.29    0.44
   6 -10  -4   -0.14    0.57
  -6 -10   4    0.66    0.64
  -6 -10   4    0.25    0.48
   4 -10  -4    1.40    0.73
  -4 -10   4    1.18    0.60
  -4 -10   4    1.81    0.80
   4 -10  -4    1.07    0.65
   2 -10  -4    0.44    0.55
  -2 -10   4    0.03    0.52
   2 -10  -4    0.90    0.62
   0 -10   4    1.04    0.70
   0 -10  -4    0.95    0.67
   0 -10  -4    0.35    0.61
   0 -10  -4    2.33    0.94
  -2 -10  -4    0.08    0.54
  -2 -10  -4    0.05    0.74
  -2 -10  -4    0.46    0.59
  -2 -10  -4    1.45    0.71
   2 -10   4    0.70    0.66
  -4 -10  -4    0.52    0.56
  -4 -10  -4   -0.37    0.54
  -4 -10  -4   -0.14    0.47
   4 -10   4    0.84    0.71
   6 -10   4    1.49    0.80
  -6 -10  -4    0.69    0.63
  -6 -10  -4    0.58    0.58
  -6 -10  -4   -0.20    0.49
  -8 -10  -4   -0.27    0.47
  -8 -10  -4    0.47    0.60
   8 -10   4    0.45    0.64
  -8 -10  -4    0.08    0.55
 -10 -10  -4   -0.01    0.53
 -10 -10  -4   -0.32    0.70
  10 -10   4   -0.06    0.51
  12 -10   4    0.86    0.72
 -12 -10  -4    0.01    0.57
  14 -10   4    0.17    0.64
 -14 -10  -4    0.30    0.63
 -16 -10  -4   -0.51    0.53
  16 -10   4   -1.14    0.54
 -11 -11   4    0.74    0.72
  11 -11  -4    0.26    0.72
 -11 -11   4    0.13    0.51
   9 -11  -4   -0.02    0.65
  -9 -11   4   -0.11    0.54
  -9 -11   4   -0.06    0.61
   7 -11  -4   -0.29    0.54
   7 -11  -4   -0.12    0.61
  -7 -11   4    0.00    0.61
  -5 -11   4   -0.07    0.66
   5 -11  -4    0.72    0.71
  -3 -11   4   -0.19    0.51
   3 -11  -4    0.17    0.64
  -1 -11   4    0.29    0.73
   1 -11  -4    0.13    0.57
   1 -11   4    0.12    0.59
   3 -11   4   -0.18    0.69
   5 -11   4   -0.41    0.63
  -5 -11  -4    0.14    0.58
  42   0  -5   -0.11    0.65
 -42   0   5    0.20    0.57
 -40   0   5    0.01    0.51
  40   0  -5    0.06    0.62
  38   0  -5   -0.82    0.53
 -38   0   5    0.00    0.47
 -36   0   5    0.24    0.48
  36   0  -5    0.46    0.60
 -34   0   5    0.02    0.40
  34   0  -5   -0.60    0.49
  34   0  -5    0.31    0.56
  32   0  -5    0.22    0.58
  32   0  -5    0.62    0.56
 -32   0   5   -0.29    0.30
 -32   0   5   -0.18    0.37
  30   0  -5   -0.38    0.50
  30   0  -5    0.43    0.54
 -30   0   5   -0.10    0.32
 -30   0   5    0.30    0.44
  28   0  -5    0.02    0.48
  28   0  -5   -0.21    0.53
 -28   0   5   -0.10    0.30
 -28   0   5    0.06    0.34
 -26   0   5    0.54    0.36
 -26   0   5   -0.44    0.25
  26   0  -5   -0.15    0.48
  26   0  -5   -0.37    0.49
  24   0  -5   -0.37    0.56
 -24   0   5   -0.24    0.27
 -24   0   5    0.23    0.32
  24   0  -5   -0.67    0.40
 -22   0   5   -0.20    0.25
  22   0  -5   -0.30    0.51
  22   0  -5    0.29    0.43
 -22   0   5   -0.13    0.23
  20   0  -5    0.26    0.37
  20   0  -5   -0.23    0.50
 -20   0   5    0.22    0.27
 -18   0   5   -0.20    0.22
  18   0  -5    0.02    0.29
  18   0  -5    0.62    0.52
 -16   0   5    0.18    0.27
  16   0  -5   -0.77    0.35
  16   0  -5   -0.13    0.24
  14   0  -5    0.24    0.42
 -14   0   5   -0.01    0.20
 -12   0   5   -0.16    0.21
  12   0  -5    0.69    0.41
 -10   0   5    0.56    0.27
  10   0  -5    0.20    0.34
  -8   0   5   -0.08    0.21
   8   0  -5    0.21    0.22
  -6   0   5    0.04    0.19
   6   0  -5    0.11    0.34
  -6   0   5   -0.07    0.11
   4   0  -5   -0.03    0.26
   4   0  -5   -0.08    0.13
  -4   0   5    0.13    0.18
  -4   0   5   -0.27    0.09
  -2   0   5    0.02    0.11
  -2   0   5   -0.01    0.10
   2   0  -5   -0.03    0.22
   2   0  -5    0.10    0.15
   0   0   5   -0.02    0.09
   0   0   5    0.05    0.21
   0   0  -5    0.13    0.19
   0   0  -5    0.06    0.23
   2   0   5   -0.11    0.10
  -2   0  -5    0.00    0.23
   2   0   5    0.13    0.25
  -2   0  -5    0.03    0.19
  -4   0  -5   -0.13    0.19
   4   0   5    0.09    0.11
  -4   0  -5   -0.25    0.15
   4   0   5    0.08    0.22
   6   0   5    0.01    0.12
  -6   0  -5   -0.12    0.21
  -6   0  -5    0.32    0.22
   6   0   5    0.40    0.29
  -8   0  -5   -0.22    0.19
  -8   0  -5   -0.04    0.19
   8   0   5   -0.05    0.14
 -10   0  -5    1.20    0.33
  10   0   5    0.84    0.24
  12   0   5    0.10    0.19
 -12   0  -5   -0.25    0.14
 -12   0  -5   -0.31    0.18
 -14   0  -5    0.02    0.21
  14   0   5    0.16    0.24
 -14   0  -5    0.10    0.21
  16   0   5    0.12    0.27
 -16   0  -5    0.02    0.22
  18   0   5    0.23    0.31
 -18   0  -5    0.38    0.29
 -20   0  -5    0.40    0.29
  20   0   5    0.00    0.35
  22   0   5    0.16    0.36
 -22   0  -5   -0.10    0.22
  24   0   5    0.31    0.43
 -24   0  -5    0.42    0.30
 -26   0  -5   -0.12    0.25
  26   0   5    0.32    0.47
  28   0   5    0.10    0.46
 -28   0  -5    0.75    0.40
 -30   0  -5   -0.05    0.29
  30   0   5    0.21    0.56
 -32   0  -5    0.14    0.38
  32   0   5    1.02    0.65
 -34   0  -5    0.23    0.44
  34   0   5   -0.69    0.58
  36   0   5   -1.03    0.61
 -36   0  -5    0.03    0.38
  43  -1  -5   -0.20    0.64
 -43  -1   5   -0.77    0.43
 -43   1   5   -1.05    0.50
  43   1  -5   -0.11    0.66
 -41  -1   5    0.63    0.61
  41  -1  -5    0.12    0.62
 -41   1   5    0.19    0.60
  41   1  -5    1.54    0.76
  39  -1  -5   -0.73    0.51
 -39  -1   5    0.54    0.52
  39   1  -5   -0.26    0.59
 -39   1   5   -0.56    0.34
  37  -1  -5    3.92    0.88
  37  -1  -5    3.69    1.00
 -37  -1   5    3.03    0.75
 -37   1   5    4.57    0.97
  37   1  -5    4.70    1.05
 -35  -1   5    7.02    1.11
 -35  -1   5    6.61    1.04
  35  -1  -5    5.13    0.97
  35  -1  -5    5.61    1.04
 -35   1   5    5.60    1.04
  35   1  -5    6.10    1.07
  33  -1  -5    4.77    0.84
 -33  -1   5    2.87    0.72
 -33  -1   5    2.88    0.77
  33  -1  -5    3.82    0.94
 -33   1   5    2.63    0.73
  33   1  -5    3.59    0.76
  33   1  -5    2.86    0.77
  31  -1  -5    0.76    0.55
 -31  -1   5    0.61    0.44
 -31  -1   5   -0.04    0.38
  31  -1  -5    0.11    0.61
  31   1  -5    1.56    0.61
  31   1  -5    0.91    0.61
 -31   1   5    0.73    0.48
  29  -1  -5   16.25    1.37
 -29  -1   5   19.45    1.52
 -29  -1   5   16.74    1.39
  29  -1  -5   18.90    1.59
 -29   1   5   19.89    1.88
  29   1  -5   15.97    1.56
  29   1  -5   20.97    1.51
 -29   1   5   21.39    1.44
 -27  -1   5    8.71    1.12
  27  -1  -5   10.91    1.11
  27  -1  -5    9.30    1.28
 -27  -1   5   11.34    1.19
  27   1  -5   10.27    1.21
 -27   1   5   10.79    1.11
 -27   1   5   10.25    1.25
  27   1  -5   14.20    1.36
  25  -1  -5   -0.30    0.59
 -25  -1   5    1.17    0.47
  25  -1  -5    0.39    0.46
 -25  -1   5    0.24    0.32
  25   1  -5    0.87    0.55
 -25   1   5    1.37    0.50
  25   1  -5    0.31    0.48
 -25   1   5    1.69    0.48
 -23  -1   5   12.50    1.30
  23  -1  -5   14.59    1.09
  23  -1  -5   15.74    1.55
 -23  -1   5   14.23    1.10
  23   1  -5   13.39    1.26
 -23   1   5   14.37    1.13
  23   1  -5   16.42    1.27
  21  -1  -5    1.42    0.61
 -21  -1   5    1.18    0.46
  21  -1  -5    0.95    0.42
 -21  -1   5    1.45    0.41
 -21   1   5    1.40    0.42
  21   1  -5    1.22    0.53
  19  -1  -5   26.17    1.44
  19  -1  -5   23.90    1.70
 -19  -1   5   26.26    1.67
 -19   1   5   23.11    1.52
  19   1  -5   24.73    1.65
 -17  -1   5   15.79    1.20
  17  -1  -5   15.69    1.01
  17  -1  -5   13.69    1.37
  17   1  -5   14.89    1.22
 -17   1   5   16.56    1.14
  15  -1  -5    0.95    0.53
  15  -1  -5    1.18    0.31
 -15  -1   5    1.52    0.44
  15   1  -5    1.55    0.49
 -15   1   5    1.20    0.38
  13  -1  -5   24.08    1.25
 -13  -1   5   23.55    1.53
  13  -1  -5   21.54    1.56
  13   1  -5   27.12    1.59
 -13   1   5   25.02    1.49
 -11  -1   5   88.46    4.25
 -11   1   5   85.80    4.15
  11   1  -5   90.53    4.24
   9  -1  -5    1.92    0.53
  -9  -1   5    1.88    0.48
  -9   1   5    1.76    0.40
   9   1  -5    1.99    0.47
  -7  -1   5    6.84    0.85
   7  -1  -5   12.23    1.10
  -7   1   5    9.40    0.91
  -5  -1   5    0.06    0.20
  -5  -1   5   -0.25    0.19
   5  -1  -5    0.39    0.39
  -5   1   5    0.42    0.24
   5   1  -5   -0.01    0.23
   5   1  -5   -0.21    0.15
  -3  -1   5   32.28    1.93
  -3  -1   5   33.28    1.74
   3  -1  -5   37.54    1.96
   3  -1  -5   34.26    1.94
   3   1  -5   37.47    1.94
  -3   1   5   33.66    1.91
   3   1  -5   35.65    1.77
  -1  -1   5   15.29    1.18
  -1  -1   5   18.82    1.07
   1  -1  -5   19.22    1.26
   1  -1  -5   18.91    1.20
   1   1  -5   15.90    1.18
  -1   1   5   18.95    1.25
   1   1  -5   18.05    1.08
  -1   1   5   20.90    0.86
  -1  -1  -5    3.70    0.57
  -1  -1  -5    2.63    0.49
   1  -1   5    3.50    0.60
   1  -1   5    3.98    0.45
   1   1   5    3.94    0.30
  -1   1  -5    3.65    0.58
  -1   1  -5    2.07    0.35
   3  -1   5  190.32    8.19
  -3  -1  -5  189.47    8.40
  -3  -1  -5  189.39    8.30
   3  -1   5  194.53    8.47
   3   1   5  193.43    8.03
   3   1   5  179.75    8.46
  -3   1  -5  189.13    8.38
  -5  -1  -5    0.44    0.31
   5  -1   5    0.59    0.31
  -5  -1  -5    0.81    0.29
   5   1   5    0.64    0.20
  -5   1  -5    0.86    0.25
  -5   1  -5    0.42    0.29
   7  -1   5    0.45    0.21
  -7  -1  -5    0.82    0.30
  -7  -1  -5    0.46    0.26
   7  -1   5    0.67    0.32
  -7   1  -5    1.08    0.36
   7   1   5    1.00    0.25
  -7   1  -5    0.60    0.22
  -9  -1  -5    3.38    0.55
   9  -1   5    4.22    0.66
  -9  -1  -5    3.08    0.49
   9  -1   5    2.71    0.41
  -9   1  -5    3.10    0.55
   9   1   5    3.03    0.40
  -9   1  -5    2.12    0.39
  11  -1   5    5.86    0.60
 -11  -1  -5    6.67    0.69
 -11  -1  -5    6.28    0.76
 -11   1  -5    7.22    0.79
  11   1   5    6.14    0.60
 -11   1  -5    6.13    0.64
  13  -1   5    6.98    0.67
 -13  -1  -5    8.17    0.63
 -13  -1  -5    7.00    0.78
 -13   1  -5    6.98    0.68
  13   1   5    8.15    0.75
  15  -1   5    6.33    0.65
 -15  -1  -5    6.05    0.61
 -15  -1  -5    4.49    0.62
 -15   1  -5    3.95    0.53
  15   1   5    5.30    0.66
 -17  -1  -5    1.94    0.43
  17  -1   5    3.54    0.52
 -17   1  -5    4.95    0.59
  17   1   5    4.03    0.62
 -19  -1  -5    2.68    0.51
  19  -1   5    2.17    0.44
  19   1   5    2.33    0.57
 -19   1  -5    1.94    0.42
  21  -1   5   28.59    1.64
 -21  -1  -5   27.60    1.65
 -21   1  -5   27.03    1.61
  21   1   5   25.18    1.67
 -23  -1  -5    5.79    0.78
  23  -1   5    7.35    0.85
  23   1   5    6.70    0.90
 -23   1  -5    6.23    0.82
  25  -1   5    9.21    1.01
 -25  -1  -5    8.21    0.95
 -25   1  -5    7.24    0.90
  25   1   5   10.48    1.16
  27  -1   5   -0.14    0.41
 -27  -1  -5    0.10    0.32
  27   1   5   -0.82    0.42
 -27   1  -5    0.00    0.26
  29  -1   5    1.10    0.57
 -29  -1  -5    2.70    0.63
 -29   1  -5    1.46    0.50
  29   1   5    3.29    0.84
  31  -1   5    0.19    0.53
 -31  -1  -5   -0.15    0.30
  31   1   5   -0.08    0.58
 -31   1  -5   -0.23    0.29
  33  -1   5    0.26    0.65
 -33  -1  -5    0.44    0.42
  33   1   5   -0.20    0.63
 -33   1  -5   -0.01    0.35
 -35  -1  -5    0.77    0.51
  35  -1   5   -0.30    0.58
 -35   1  -5    0.59    0.53
  35   1   5   -0.65    0.63
 -42  -2   5    0.08    0.55
  42  -2  -5    0.03    0.68
 -42   2   5    0.11    0.62
  40  -2  -5    0.02    0.63
 -40  -2   5    0.20    0.53
 -40   2   5    0.35    0.55
 -38  -2   5    5.03    0.97
 -38  -2   5    3.78    0.89
  38  -2  -5    6.04    1.16
  38  -2  -5    4.86    0.95
 -38   2   5    5.10    1.03
 -36  -2   5    0.63    0.56
 -36  -2   5    2.74    0.72
  36  -2  -5    0.75    0.61
  36  -2  -5    1.35    0.81
 -36   2   5    1.08    0.65
  34  -2  -5    0.61    0.71
 -34  -2   5    0.86    0.49
 -34  -2   5    0.60    0.49
  34  -2  -5    1.71    0.63
 -34   2   5    0.93    0.57
 -32  -2   5   -0.48    0.28
  32  -2  -5   -0.48    0.45
 -32  -2   5   -0.25    0.35
  32  -2  -5   -0.77    0.58
 -32   2   5    0.65    0.49
  30  -2  -5    9.11    1.25
 -30  -2   5    6.48    0.93
 -30  -2   5    5.87    0.98
  30  -2  -5    6.94    0.89
  30   2  -5    6.33    0.94
 -30   2   5    7.12    1.13
 -28  -2   5   20.01    1.62
 -28  -2   5   21.70    1.49
  28  -2  -5   21.23    1.41
  28  -2  -5   21.01    1.74
  28   2  -5   21.99    1.56
  26  -2  -5   17.10    1.66
 -26  -2   5   16.83    1.60
 -26  -2   5   15.90    1.19
  26  -2  -5   15.84    1.15
 -26   2   5   14.25    1.12
  26   2  -5   16.47    1.33
 -24  -2   5    0.68    0.40
  24  -2  -5    1.34    0.46
  24  -2  -5    0.16    0.64
 -24  -2   5    1.92    0.48
 -24   2   5    1.74    0.44
  24   2  -5    2.03    0.59
 -22  -2   5    2.81    0.53
  22  -2  -5    2.36    0.47
 -22  -2   5    3.38    0.69
  22  -2  -5    1.48    0.72
  22   2  -5    2.65    0.63
 -22   2   5    3.49    0.55
 -20  -2   5    8.09    0.82
  20  -2  -5    7.03    0.68
 -20  -2   5    8.30    1.05
  20  -2  -5    8.16    1.09
 -20   2   5    7.74    0.83
  20   2  -5   10.26    1.12
  18  -2  -5   13.14    0.85
 -18  -2   5   12.66    1.31
  18  -2  -5   12.34    1.36
 -18   2   5   13.13    0.97
  18   2  -5   15.68    1.40
 -16  -2   5    1.02    0.40
  16  -2  -5    1.83    0.32
  16  -2  -5    2.08    0.63
  16   2  -5    1.09    0.43
 -16   2   5    1.46    0.38
  14  -2  -5    0.94    0.53
 -14  -2   5    0.93    0.39
  14  -2  -5    1.30    0.26
  14   2  -5    1.83    0.52
 -14   2   5    0.79    0.32
  12  -2  -5   22.22    1.09
 -12  -2   5   23.40    1.50
  12   2  -5   21.38    1.45
 -12   2   5   21.95    1.35
  10  -2  -5   28.58    1.79
  10  -2  -5   28.95    1.31
  10   2  -5   29.82    1.72
 -10   2   5   27.31    1.63
   8  -2  -5   80.02    3.95
  -8  -2   5   81.23    3.99
  -8   2   5   81.64    3.87
   8   2  -5   83.21    3.95
   6  -2  -5    9.82    1.03
  -6  -2   5   11.84    1.10
  -6   2   5   10.81    0.84
   6   2  -5    9.40    0.97
   6   2  -5    9.81    0.65
   4  -2  -5   22.10    1.47
  -4  -2   5   21.65    1.44
   4   2  -5   24.39    1.17
  -4   2   5   23.59    1.40
   4   2  -5   20.17    1.39
   2  -2  -5    0.90    0.45
  -2  -2   5    1.00    0.37
   2  -2  -5    1.59    0.45
   2   2  -5    1.24    0.23
   2   2  -5    1.22    0.40
  -2   2   5    1.75    0.42
   0  -2  -5    5.45    0.69
   0  -2   5    4.52    0.65
   0  -2  -5    5.05    0.70
   0   2  -5    5.56    0.73
   0   2  -5    5.49    0.48
   2  -2   5    3.08    0.48
   2  -2   5    3.56    0.59
  -2  -2  -5    2.53    0.50
  -2   2  -5    3.24    0.36
  -2   2  -5    3.81    0.62
   4  -2   5   60.17    2.93
  -4  -2  -5   63.96    3.11
   4  -2   5   60.06    3.05
  -4  -2  -5   59.10    2.90
   4   2   5   57.97    2.73
  -4   2  -5   60.86    3.04
   6  -2   5   10.19    0.80
  -6  -2  -5    9.12    0.95
   6  -2   5   11.76    1.09
  -6  -2  -5   10.45    0.77
  -6   2  -5    8.73    0.63
   6   2   5    9.67    0.70
  -6   2  -5   10.18    0.85
   8  -2   5    0.01    0.20
  -8  -2  -5   -0.11    0.18
  -8  -2  -5    0.14    0.21
   8  -2   5   -0.01    0.24
  -8   2  -5    0.05    0.25
  -8   2  -5    0.07    0.16
   8   2   5    0.00    0.11
  10  -2   5    0.85    0.29
  10  -2   5    0.68    0.33
 -10  -2  -5   -0.04    0.15
 -10  -2  -5    0.51    0.25
  10   2   5    0.14    0.32
 -10   2  -5    0.75    0.23
 -10   2  -5    0.28    0.28
  12  -2   5   23.73    1.44
  12  -2   5   27.24    1.65
 -12  -2  -5   25.48    1.34
 -12   2  -5   23.95    1.34
  12   2   5   23.53    1.45
 -14  -2  -5    9.35    0.66
  14  -2   5    9.99    0.93
 -14   2  -5    9.13    0.72
  14   2   5    9.82    0.98
  16  -2   5    0.77    0.34
 -16  -2  -5   -0.01    0.13
  16   2   5    1.86    0.53
 -16   2  -5    0.87    0.31
 -18  -2  -5    0.07    0.24
  18  -2   5    0.71    0.33
 -18   2  -5    1.19    0.35
  18   2   5    1.07    0.54
  20  -2   5   18.48    1.29
 -20  -2  -5   20.03    1.36
  20   2   5   17.76    1.42
 -20   2  -5   20.71    1.29
 -22  -2  -5    3.59    0.63
  22  -2   5    3.95    0.62
  22   2   5    3.33    0.74
 -22   2  -5    4.51    0.66
  24  -2   5    2.85    0.56
 -24  -2  -5    3.73    0.64
 -24   2  -5    3.23    0.61
  24   2   5    1.91    0.68
  26  -2   5    4.27    0.71
 -26  -2  -5    4.32    0.70
 -26   2  -5    3.60    0.63
  26   2   5    4.79    0.96
 -28  -2  -5    1.01    0.46
  28  -2   5    1.57    0.57
 -28   2  -5    1.56    0.51
  28   2   5    0.98    0.67
  30  -2   5    0.75    0.50
 -30  -2  -5    1.16    0.48
 -30   2  -5    0.65    0.42
  30   2   5    0.62    0.65
 -32  -2  -5    0.54    0.59
  32  -2   5    0.15    0.50
 -32  -2  -5    0.06    0.39
  32   2   5   -0.92    0.51
 -32   2  -5    0.18    0.38
 -34  -2  -5   -0.04    0.42
  34  -2   5   -0.84    0.53
 -34  -2  -5    0.04    0.49
  34   2   5   -0.30    0.65
 -34   2  -5    0.36    0.39
  36  -2   5    1.18    0.78
 -36  -2  -5    1.60    0.61
  36   2   5   -0.10    0.78
 -36   2  -5   -0.05    0.43
 -41  -3   5    0.37    0.56
  41  -3  -5    0.30    0.67
 -39  -3   5    2.03    0.82
  39  -3  -5    2.47    0.95
  39  -3  -5    1.40    0.71
  37  -3  -5   -0.60    0.66
  37  -3  -5    0.98    0.61
 -37  -3   5    0.37    0.48
  35  -3  -5   -0.50    0.46
  35  -3  -5    0.57    0.77
 -35  -3   5   -0.28    0.39
 -33  -3   5    4.14    0.89
  33  -3  -5    3.61    0.71
 -33  -3   5    4.58    0.98
  33  -3  -5    3.69    0.96
  31  -3  -5    0.75    0.46
 -31  -3   5    0.95    0.45
  31  -3  -5    0.20    0.72
 -31  -3   5    1.27    0.57
 -29  -3   5    2.27    0.66
  29  -3  -5    1.05    0.46
  29  -3  -5    1.81    0.83
 -29  -3   5    2.90    0.58
  29   3  -5    1.48    0.56
 -27  -3   5   12.01    1.46
  27  -3  -5   16.31    1.68
  27  -3  -5   14.95    1.09
 -27  -3   5   15.93    1.17
  27   3  -5   16.24    1.49
  25  -3  -5    2.51    0.51
 -25  -3   5    2.26    0.66
  25  -3  -5    1.29    0.78
 -25  -3   5    4.56    0.65
  25   3  -5    4.05    0.75
 -23  -3   5    0.30    0.26
  23  -3  -5   -0.18    0.25
  23  -3  -5    0.03    0.64
 -23  -3   5   -0.07    0.29
 -23   3   5   -0.06    0.23
  23   3  -5    0.13    0.36
  21  -3  -5    8.27    0.67
 -21  -3   5    9.94    1.20
  21  -3  -5    6.59    1.03
 -21  -3   5    8.20    0.81
  21   3  -5    8.57    1.05
 -21   3   5    8.42    0.83
  19  -3  -5    0.91    0.61
 -19  -3   5    0.57    0.26
 -19  -3   5    0.20    0.37
  19  -3  -5   -0.04    0.21
  19   3  -5    0.31    0.35
 -19   3   5    0.46    0.26
  17  -3  -5    0.30    0.20
  17  -3  -5    0.82    0.54
 -17  -3   5    0.77    0.39
 -17   3   5    1.16    0.34
  17   3  -5    0.98    0.43
  15  -3  -5    1.43    0.25
  15  -3  -5    0.29    0.23
 -15  -3   5    1.38    0.44
  15   3  -5    1.85    0.51
  13  -3  -5   11.94    0.67
  13  -3  -5   12.28    1.30
  13   3  -5   13.35    1.07
 -13   3   5   13.63    0.94
  11  -3  -5    4.45    0.80
 -11  -3   5    3.50    0.62
  11  -3  -5    3.45    0.30
  11   3  -5    3.95    0.68
 -11   3   5    3.87    0.55
   9  -3  -5    3.41    0.67
  -9  -3   5    3.11    0.63
   9  -3  -5    3.96    0.27
   9   3  -5    3.35    0.61
  -9   3   5    4.44    0.61
   9   3  -5    3.53    0.29
   7  -3  -5   32.10    1.96
   7  -3  -5   33.39    1.50
  -7  -3   5   34.01    2.00
   7   3  -5   36.16    1.51
   7   3  -5   31.60    1.93
   5  -3  -5    0.58    0.45
  -5  -3   5    0.09    0.29
   5  -3  -5    0.68    0.14
  -5  -3   5    0.61    0.33
   5   3  -5    1.14    0.42
   5   3  -5    0.93    0.13
  -3  -3   5    9.30    1.00
   3  -3  -5    7.89    0.90
   3  -3  -5    7.51    0.46
  -3  -3   5    8.90    0.98
   3   3  -5    7.36    0.42
   1  -3  -5    5.95    0.77
  -1  -3   5    4.95    0.71
  -1  -3   5    5.88    0.77
   1   3  -5    5.89    0.79
   1   3  -5    6.35    0.38
   1  -3   5   26.20    1.61
   1  -3   5   25.12    1.57
  -1  -3  -5   23.44    1.50
  -1   3  -5   25.18    1.20
  -1   3  -5   26.15    1.60
   3  -3   5    0.01    0.27
  -3  -3  -5   -0.15    0.20
   3  -3   5    0.17    0.26
  -3  -3  -5   -0.60    0.30
  -3   3  -5    0.03    0.24
  -3   3  -5   -0.02    0.10
   5  -3   5    2.70    0.54
  -5  -3  -5    2.77    0.63
   5  -3   5    4.49    0.66
  -5  -3  -5    3.45    0.56
  -5   3  -5    3.22    0.64
  -7  -3  -5   18.25    1.32
  -7  -3  -5   16.78    1.09
   7  -3   5   18.77    1.25
   7  -3   5   17.73    1.22
  -7   3  -5   16.10    0.94
  -7   3  -5   15.80    1.21
   9  -3   5    2.61    0.52
  -9  -3  -5    3.03    0.48
   9  -3   5    2.00    0.48
  -9  -3  -5    4.07    0.69
  -9   3  -5    2.70    0.38
   9   3   5    3.23    0.54
  11  -3   5    0.06    0.28
  11  -3   5    1.14    0.42
 -11  -3  -5    0.28    0.23
 -11  -3  -5    0.55    0.34
 -11   3  -5    0.33    0.19
  11   3   5   -0.01    0.34
  13  -3   5    4.44    0.69
 -13  -3  -5    3.77    0.66
  13  -3   5    4.34    0.64
  13   3   5    3.49    0.68
 -13   3  -5    4.44    0.52
  15  -3   5   10.13    1.06
 -15  -3  -5   10.66    1.12
  15   3   5    9.78    1.07
 -15   3  -5   10.97    0.81
 -17  -3  -5    0.41    0.31
  17  -3   5    1.71    0.44
  17   3   5    0.67    0.56
 -17   3  -5    0.45    0.29
 -19  -3  -5   18.79    1.37
  19  -3   5   20.17    1.36
 -19   3  -5   17.20    1.21
  19   3   5   18.37    1.48
 -21  -3  -5    0.30    0.34
  21  -3   5    0.43    0.36
 -21   3  -5    0.36    0.31
  21   3   5    0.21    0.56
 -23  -3  -5    0.38    0.33
  23  -3   5    0.56    0.39
  23   3   5   -0.34    0.51
 -23   3  -5    0.83    0.38
 -25  -3  -5    2.27    0.54
  25  -3   5    2.94    0.61
  25   3   5    2.29    0.74
 -25   3  -5    1.94    0.52
  27  -3   5    0.09    0.45
 -27  -3  -5    0.61    0.39
 -27   3  -5    0.39    0.38
  27   3   5    0.93    0.70
  29  -3   5    0.95    0.56
 -29  -3  -5    1.08    0.47
 -29   3  -5    0.84    0.44
  29   3   5    1.16    0.73
 -31  -3  -5    2.09    0.79
 -31  -3  -5    3.12    0.70
  31  -3   5    2.70    0.70
  31   3   5    3.48    0.94
 -31   3  -5    3.13    0.69
 -33  -3  -5    1.01    0.65
 -33  -3  -5    1.73    0.56
  33  -3   5    1.20    0.68
  33   3   5    3.15    0.96
 -33   3  -5    1.48    0.56
  35  -3   5   -0.08    0.59
 -35  -3  -5    0.66    0.64
 -35  -3  -5    0.43    0.42
  35   3   5    0.00    0.66
 -35   3  -5    0.19    0.40
  40  -4  -5    0.74    0.91
  40  -4  -5    0.41    0.64
 -40  -4   5    0.96    0.66
  38  -4  -5   -1.06    0.47
  38  -4  -5   -0.54    0.77
 -38  -4   5    0.40    0.61
  36  -4  -5   -0.12    0.70
 -36  -4   5    0.04    0.50
  36  -4  -5    0.41    0.55
  34  -4  -5   -1.02    0.54
  34  -4  -5   -0.79    0.38
 -34  -4   5   -0.16    0.44
  32  -4  -5    1.03    0.50
  32  -4  -5    0.88    0.78
 -32  -4   5    1.06    0.64
  30  -4  -5    4.17    0.66
  30  -4  -5    3.59    0.91
 -30  -4   5    3.89    0.91
  28  -4  -5   -1.13    0.59
  28  -4  -5   -0.24    0.30
 -28  -4   5    0.28    0.42
  28   4  -5    0.05    0.42
 -26  -4   5    4.08    0.91
  26  -4  -5    3.85    0.93
  26  -4  -5    4.48    0.60
  26   4  -5    5.81    0.86
  24  -4  -5    8.66    1.24
 -24  -4   5    6.43    1.07
  24  -4  -5    9.05    0.79
  24   4  -5    7.65    1.02
 -22  -4   5    0.65    0.43
  22  -4  -5   -0.05    0.25
  22  -4  -5   -0.28    0.62
  22   4  -5    0.25    0.37
 -20  -4   5    0.11    0.38
  20  -4  -5    0.39    0.24
  20  -4  -5    0.33    0.60
  20   4  -5    0.22    0.33
  18  -4  -5    1.92    0.71
  18  -4  -5    4.18    0.46
 -18   4   5    5.09    0.63
  18   4  -5    5.12    0.81
  16  -4  -5    1.28    0.26
 -16  -4   5    0.19    0.21
 -16   4   5    1.22    0.35
  16   4  -5    0.94    0.42
 -14  -4   5    0.05    0.19
  14  -4  -5    0.43    0.18
  14  -4  -5   -0.21    0.20
  14   4  -5    0.10    0.29
  12  -4  -5    1.94    0.28
  12  -4  -5    2.17    0.65
 -12  -4   5    1.62    0.50
  12   4  -5    1.92    0.54
  10  -4  -5    2.75    0.72
  10  -4  -5    1.94    0.27
 -10  -4   5    0.87    0.39
  10   4  -5    1.88    0.52
   8  -4  -5    6.33    0.88
   8  -4  -5    5.45    0.48
  -8  -4   5    4.85    0.81
   8   4  -5    6.28    0.88
   6  -4  -5    3.46    0.67
  -6  -4   5    3.89    0.67
   6  -4  -5    3.18    0.38
  -6  -4   5    2.18    0.58
   6   4  -5    2.22    0.52
  -4  -4   5    5.00    0.86
   4  -4  -5    3.77    0.45
  -4  -4   5    4.30    0.70
   4  -4  -5    5.10    0.78
   4   4  -5    4.43    0.70
  -2  -4   5    0.41    0.48
   2  -4  -5    0.47    0.44
   2  -4  -5    0.76    0.27
  -2  -4   5    0.92    0.38
   2   4  -5    1.08    0.38
   2   4  -5    1.31    0.16
   0  -4   5    7.47    0.99
   0  -4  -5    6.04    0.95
   0  -4  -5    7.73    0.90
   0  -4   5    6.65    0.85
   0   4  -5    7.41    0.92
   0   4  -5    7.86    0.45
  -2  -4  -5    7.59    1.02
   2  -4   5    7.05    0.86
  -2  -4  -5    6.53    0.82
   2  -4   5    6.35    0.92
  -2   4  -5    6.57    0.91
  -2   4  -5    6.98    0.46
   4  -4   5    3.61    0.67
   4  -4   5    3.87    0.65
  -4  -4  -5    3.83    0.64
  -4  -4  -5    4.42    0.77
  -4   4  -5    4.42    0.42
  -4   4  -5    5.57    0.80
   6  -4   5    3.38    0.63
   6  -4   5    3.98    0.73
  -6  -4  -5    3.23    0.61
  -6  -4  -5    3.35    0.72
  -6   4  -5    3.94    0.42
  -8  -4  -5    0.10    0.36
  -8  -4  -5   -0.35    0.28
   8  -4   5    0.24    0.30
   8  -4   5   -0.24    0.29
  -8   4  -5   -0.12    0.14
 -10  -4  -5   10.15    0.81
 -10  -4  -5    9.96    1.12
  10  -4   5   11.24    1.11
  10  -4   5   12.04    1.21
 -10   4  -5    9.17    0.70
  12  -4   5   12.75    1.28
  12  -4   5   11.05    1.13
 -12  -4  -5   12.28    1.26
 -12   4  -5   10.68    0.80
  14  -4   5    1.45    0.49
  14  -4   5    2.85    0.56
 -14  -4  -5    1.79    0.57
 -14   4  -5    1.44    0.35
 -16  -4  -5    0.74    0.41
  16  -4   5    0.61    0.39
 -16   4  -5    0.80    0.31
 -18  -4  -5   10.88    1.19
  18  -4   5   10.45    1.16
 -18   4  -5   10.15    0.98
  18   4   5    8.99    1.12
 -20  -4  -5    1.42    0.52
  20  -4   5    1.09    0.45
 -20   4  -5    1.54    0.43
  20   4   5    1.91    0.63
 -22  -4  -5    1.85    0.53
  22  -4   5    0.55    0.43
  22   4   5    0.64    0.59
 -22   4  -5    0.43    0.34
  24  -4   5    0.51    0.43
 -24  -4  -5   -0.44    0.25
 -24   4  -5    0.12    0.30
  24   4   5    0.58    0.58
  26  -4   5    0.25    0.40
 -26  -4  -5    0.56    0.39
 -26   4  -5    0.81    0.42
  26   4   5    0.24    0.58
  28  -4   5   -0.26    0.39
 -28  -4  -5   -0.09    0.35
 -28   4  -5   -0.04    0.35
  28   4   5   -0.04    0.58
 -30  -4  -5   -0.36    0.47
  30  -4   5    0.45    0.55
 -30  -4  -5   -0.23    0.34
  30   4   5    0.50    0.66
 -30   4  -5    0.36    0.37
 -32  -4  -5    1.83    0.60
  32  -4   5    2.90    0.81
 -32  -4  -5    1.97    0.82
 -32   4  -5    1.11    0.57
  32   4   5    2.42    0.91
  34  -4   5   -0.63    0.56
 -34  -4  -5    0.39    0.63
 -34  -4  -5    0.90    0.54
  34   4   5    0.00    0.70
 -34   4  -5    0.57    0.51
  39  -5  -5    1.14    0.95
 -39  -5   5    1.47    0.82
  37  -5  -5   -0.96    0.76
 -37  -5   5   -0.67    0.50
  35  -5  -5    0.45    0.81
  35  -5  -5    0.15    0.49
 -35  -5   5    0.73    0.68
 -33  -5   5    0.12    0.52
  33  -5  -5    0.16    0.43
  33  -5  -5   -0.60    0.67
  31  -5  -5    0.02    0.35
  31  -5  -5    0.07    0.74
 -31  -5   5    0.79    0.61
  29  -5  -5   -0.04    0.72
  29  -5  -5    0.69    0.42
 -29  -5   5    1.34    0.72
  27  -5  -5    0.79    0.66
 -27  -5   5   -0.38    0.46
  27  -5  -5    0.62    0.38
 -25  -5   5    0.78    0.53
  25  -5  -5    0.89    0.35
  25  -5  -5    0.36    0.60
  25   5  -5    1.19    0.52
  23  -5  -5    1.02    0.35
 -23  -5   5    1.04    0.57
  23  -5  -5    1.82    0.85
  23   5  -5    1.40    0.56
  21  -5  -5    3.41    0.87
  21  -5  -5    4.13    0.54
 -21  -5   5    2.75    0.79
  21   5  -5    4.43    0.82
 -19  -5   5    4.57    0.90
  19  -5  -5    5.90    1.08
  19  -5  -5    6.38    0.63
  19   5  -5    5.84    0.92
  17  -5  -5    0.23    0.59
 -17  -5   5    0.25    0.40
  17  -5  -5    0.97    0.29
  17   5  -5    1.32    0.53
  15  -5  -5    1.32    0.65
 -15  -5   5    0.99    0.56
  15  -5  -5    2.12    0.37
  15   5  -5    2.76    0.63
 -13  -5   5   -0.03    0.34
  13  -5  -5   -0.02    0.19
  13  -5  -5    0.00    0.50
  13   5  -5    0.49    0.39
 -11  -5   5    1.77    0.57
  11  -5  -5    2.80    0.41
  11  -5  -5    2.03    0.66
  11   5  -5    2.30    0.58
  -9  -5   5    8.84    1.11
   9  -5  -5    8.36    0.76
   9  -5  -5    9.52    1.17
   9   5  -5    8.50    1.05
   7  -5  -5    6.96    0.70
  -7  -5   5    8.29    1.13
  -7  -5   5    5.51    0.84
   7  -5  -5    8.73    1.07
   7   5  -5    9.20    1.09
   5  -5  -5    2.27    0.43
   5  -5  -5    2.94    0.69
  -5  -5   5    1.32    0.47
  -5  -5   5    3.16    0.78
   5   5  -5    2.97    0.64
  -3  -5   5    0.81    0.52
   3  -5  -5    0.10    0.46
  -3  -5   5    0.07    0.29
   3  -5  -5    0.84    0.31
   3   5  -5    0.36    0.31
   1  -5  -5    2.09    0.43
   1  -5  -5    2.52    0.69
   1  -5  -5    2.06    0.57
  -1  -5   5    2.14    0.68
  -1  -5   5    2.36    0.58
  -1  -5  -5    0.98    0.48
   1  -5   5    0.89    0.41
   1  -5   5    0.80    0.53
  -1  -5  -5    0.40    0.48
  -1   5  -5    0.01    0.17
  -3  -5  -5    2.89    0.62
  -3  -5  -5    1.79    0.59
   3  -5   5    2.80    0.67
   3  -5   5    3.19    0.64
  -3   5  -5    3.08    0.38
   5  -5   5    1.21    0.53
  -5  -5  -5    1.66    0.57
   5  -5   5    2.24    0.55
  -5  -5  -5    3.15    0.60
   7  -5   5   -0.19    0.35
  -7  -5  -5    0.03    0.41
   7  -5   5    0.48    0.35
  -7  -5  -5   -0.62    0.29
  -7   5  -5    0.44    0.23
  -9  -5  -5    0.32    0.43
  -9  -5  -5    0.21    0.35
   9  -5   5    0.12    0.42
   9  -5   5   -0.24    0.25
  -9   5  -5    0.37    0.24
 -11  -5  -5   -0.04    0.30
  11  -5   5    0.07    0.34
  11  -5   5    0.01    0.29
 -11   5  -5   -0.08    0.17
 -13  -5  -5   18.08    1.67
  13  -5   5   18.25    1.44
  13  -5   5   18.74    1.38
 -13   5  -5   15.53    1.11
 -15  -5  -5    3.80    0.77
  15  -5   5    3.23    0.69
 -15   5  -5    2.52    0.51
 -17  -5  -5   -0.01    0.37
  17  -5   5   -0.26    0.27
 -17   5  -5    0.07    0.23
  19  -5   5    2.60    0.67
 -19  -5  -5    3.22    0.64
 -19   5  -5    2.96    0.60
  21  -5   5    1.86    0.62
 -21  -5  -5    1.60    0.52
 -21   5  -5    1.54    0.47
 -23  -5  -5    0.34    0.38
  23  -5   5    0.42    0.42
 -23   5  -5    0.34    0.38
 -25  -5  -5    0.21    0.41
  25  -5   5   -0.31    0.40
 -25   5  -5    0.44    0.39
  27  -5   5   -0.23    0.41
 -27  -5  -5    0.24    0.52
 -27  -5  -5    0.36    0.40
 -27   5  -5    3.71    0.92
 -29  -5  -5    1.82    0.78
 -29  -5  -5    0.99    0.53
  29  -5   5    0.69    0.51
 -29   5  -5    0.76    0.47
 -31  -5  -5    1.44    0.58
 -31  -5  -5    3.25    1.02
  31  -5   5    0.76    0.62
 -31   5  -5    1.88    0.64
 -36  -6   5    1.91    0.95
  36  -6  -5    1.89    1.09
 -34  -6   5    1.11    0.81
  34  -6  -5    0.65    0.91
 -32  -6   5    0.46    0.59
  32  -6  -5    1.47    0.90
  30  -6  -5    2.98    1.04
 -30  -6   5    1.87    0.82
  28  -6  -5    0.10    0.58
  28  -6  -5    0.06    0.64
 -28  -6   5    0.15    0.55
  26  -6  -5   -0.48    0.59
 -26  -6   5    0.62    0.65
  26  -6  -5    0.10    0.31
  24  -6  -5    3.02    0.96
  24  -6  -5    1.77    0.46
 -24  -6   5    3.04    0.81
  24   6  -5    2.04    0.66
  22  -6  -5    1.25    0.79
  22  -6  -5    1.09    0.36
 -22  -6   5    0.26    0.52
  22   6  -5    0.73    0.48
  20  -6  -5    1.02    0.64
 -20  -6   5    2.73    0.76
  20  -6  -5    1.95    0.43
  20   6  -5    1.51    0.56
  18  -6  -5   21.68    1.27
 -18  -6   5   20.05    2.02
  18  -6  -5   16.82    1.75
  18   6  -5   19.98    1.54
 -16  -6   5    0.56    0.55
  16  -6  -5    0.99    0.33
  16  -6  -5    0.58    0.62
  16   6  -5    0.04    0.39
  14  -6  -5    6.49    1.09
  14  -6  -5    7.07    0.76
 -14  -6   5    6.31    1.02
  14   6  -5    9.43    1.18
 -12  -6   5    3.14    0.73
  12  -6  -5    4.40    0.59
  12  -6  -5    3.13    0.84
  12   6  -5    3.38    0.72
 -10  -6   5    3.41    0.77
  10  -6  -5    5.20    0.97
  10  -6  -5    4.49    0.64
  10   6  -5    5.06    0.88
   8  -6  -5   13.00    0.98
  -8  -6   5   11.58    1.31
  -8  -6   5   16.15    1.70
   8  -6  -5   12.20    1.32
   8   6  -5   15.33    1.55
  -6  -6   5   -0.21    0.39
   6  -6  -5   -0.21    0.25
   6  -6  -5    0.73    0.51
  -6  -6   5    0.30    0.35
   6   6  -5    0.22    0.37
   4  -6  -5    8.56    1.07
  -4  -6   5    4.71    0.95
  -4  -6   5    6.29    0.93
   4  -6  -5    6.77    0.82
  -2  -6   5    1.64    0.54
  -2  -6   5    1.99    0.65
   2  -6  -5    2.17    0.65
   2  -6  -5    1.85    0.48
   2  -6  -5    2.72    0.72
   0  -6  -5   11.14    1.40
   0  -6  -5   13.00    1.26
   0  -6   5    9.36    1.35
   0  -6  -5   10.64    1.08
   0  -6   5   10.47    1.17
  -2  -6  -5    1.31    0.56
   2  -6   5    1.33    0.64
  -2  -6  -5    1.09    0.52
   2  -6   5    1.10    0.46
  -4  -6  -5    1.54    0.59
   4  -6   5    1.40    0.60
   4  -6   5    1.67    0.53
  -4  -6  -5    1.52    0.53
   6  -6   5    0.61    0.46
  -6  -6  -5    0.34    0.39
  -6  -6  -5    0.91    0.48
   6  -6   5    0.34    0.34
  -8  -6  -5   -0.03    0.36
   8  -6   5    1.42    0.47
  -8  -6  -5    0.88    0.48
   8  -6   5    1.26    0.56
  10  -6   5   21.21    1.98
 -10  -6  -5   18.73    1.83
  10  -6   5   20.86    2.27
  12  -6   5    5.26    0.96
 -12  -6  -5    4.80    0.89
 -12   6  -5    5.19    0.73
 -14  -6  -5   -0.30    0.34
  14  -6   5    0.18    0.45
 -14   6  -5    0.11    0.29
 -16  -6  -5    5.26    0.92
  16  -6   5    4.71    0.87
 -16   6  -5    4.90    0.74
  18  -6   5    1.55    0.56
 -18  -6  -5    1.75    0.62
 -18   6  -5    0.77    0.38
  20  -6   5   -0.33    0.40
 -20  -6  -5    0.26    0.39
 -20   6  -5    0.10    0.34
  22  -6   5   -0.37    0.34
 -22  -6  -5    0.30    0.42
 -22   6  -5    0.25    0.35
  24  -6   5    0.81    0.49
 -24  -6  -5    1.18    0.55
 -24  -6  -5    0.13    0.46
 -24   6  -5    0.11    0.37
 -26  -6  -5   -0.10    0.42
  26  -6   5    0.03    0.46
 -26  -6  -5    0.24    0.57
 -26   6  -5   -0.11    0.38
  28  -6   5    0.89    0.60
 -28  -6  -5    0.02    0.68
 -28  -6  -5    1.04    0.50
 -28   6  -5    1.33    0.58
 -30  -6  -5    1.68    0.81
 -30  -6  -5    1.13    0.57
  30  -6   5    2.36    0.74
 -30   6  -5    1.73    0.66
  33  -7  -5    0.38    0.89
 -33  -7   5    0.53    0.67
  31  -7  -5   -0.01    0.84
 -31  -7   5    0.05    0.67
  29  -7  -5    1.44    0.88
 -29  -7   5    0.92    0.74
 -27  -7   5    0.31    0.53
  27  -7  -5    0.67    0.85
 -25  -7   5    0.99    0.67
  25  -7  -5    0.10    0.64
  23  -7  -5    0.49    0.63
 -23  -7   5    0.35    0.50
  21  -7  -5    9.22    1.43
 -21  -7   5    5.65    1.16
  21   7  -5    9.46    1.24
 -19  -7   5    1.57    0.67
  19  -7  -5    0.89    0.68
  19   7  -5    2.72    0.74
  17  -7  -5    7.42    1.20
 -17  -7   5    9.00    1.34
  17   7  -5    9.84    1.28
 -15  -7   5    6.16    1.08
  15  -7  -5    7.39    1.22
  13  -7  -5    0.11    0.50
  13  -7  -5    1.09    0.68
 -13  -7   5    0.04    0.46
  11  -7  -5    8.90    0.98
  11  -7  -5    6.52    1.12
 -11  -7   5    7.74    1.17
   9  -7  -5    1.07    0.59
   9  -7  -5    1.33    0.43
  -9  -7   5    0.71    0.49
  -9  -7   5   -0.01    0.38
  -7  -7   5    0.07    0.40
   7  -7  -5    0.17    0.56
  -7  -7   5    0.35    0.51
   7  -7  -5   -0.09    0.27
   5  -7  -5    5.30    0.93
   5  -7  -5    4.86    0.77
  -5  -7   5    6.46    1.19
  -5  -7   5    4.64    0.87
  -3  -7   5    0.15    0.49
  -3  -7   5    0.08    0.35
   3  -7  -5    0.18    0.35
   3  -7  -5    0.47    0.53
   3  -7  -5    0.08    0.42
   1  -7  -5    4.62    0.77
  -1  -7   5    3.56    0.75
  -1  -7   5    2.85    0.80
   1  -7  -5    5.28    0.99
   1  -7  -5    4.20    0.81
   1  -7   5    0.36    0.48
  -1  -7  -5    0.93    0.48
   1  -7   5    0.24    0.39
  -1  -7  -5    1.10    0.46
  -1  -7  -5    0.86    0.53
  -3  -7  -5    8.29    1.03
  -3  -7  -5    9.50    1.34
   3  -7   5    8.16    1.30
   3  -7   5    6.58    0.99
   5  -7   5    1.97    0.56
   5  -7   5    1.02    0.59
  -5  -7  -5    0.31    0.47
  -5  -7  -5    1.29    0.58
   7  -7   5    3.30    0.89
  -7  -7  -5    3.67    0.82
  -9  -7  -5   -0.25    0.38
   9  -7   5    0.35    0.48
 -11  -7  -5    0.76    0.51
  11  -7   5    0.75    0.57
  13  -7   5    0.88    0.60
 -13  -7  -5    1.51    0.61
  15  -7   5    1.54    0.69
 -15  -7  -5    1.09    0.52
  17  -7   5    0.33    0.54
 -17  -7  -5    0.06    0.40
 -19  -7  -5    1.49    0.69
 -19  -7  -5    1.98    0.64
  19  -7   5    1.90    0.67
 -21  -7  -5    0.31    0.46
  21  -7   5   -0.09    0.47
 -21  -7  -5    0.52    0.50
 -23  -7  -5    0.27    0.44
 -23  -7  -5    0.07    0.48
  23  -7   5   -0.51    0.44
  25  -7   5    0.64    0.66
 -25  -7  -5    0.12    0.42
 -25  -7  -5    0.28    0.56
 -27  -7  -5    1.02    0.78
 -27  -7  -5    1.60    0.61
  27  -7   5    1.40    0.67
  30  -8  -5    0.02    0.86
 -30  -8   5    0.18    0.67
 -28  -8   5    0.30    0.65
  28  -8  -5    0.70    0.91
  26  -8  -5   -1.04    0.69
 -26  -8   5   -0.30    0.51
  24  -8  -5    0.34    0.68
 -24  -8   5    0.75    0.67
 -22  -8   5    1.00    0.73
  22  -8  -5   -0.48    0.67
  20  -8  -5    2.25    0.86
 -20  -8   5    0.98    0.67
  18  -8  -5    0.57    0.72
 -18  -8   5    0.75    0.64
 -16  -8   5    0.94    0.63
  16  -8  -5   -0.12    0.62
  14  -8  -5    0.33    0.61
 -14  -8   5    1.31    0.66
 -12  -8   5    1.15    0.72
  12  -8  -5    0.38    0.70
 -12  -8   5   -0.22    0.44
 -10  -8   5    0.28    0.55
  10  -8  -5    0.54    0.64
 -10  -8   5    2.09    0.69
  -8  -8   5    0.25    0.54
   8  -8  -5   -0.86    0.39
  -8  -8   5    0.58    0.45
  -6  -8   5    0.18    0.44
   6  -8  -5    0.33    0.56
  -6  -8   5   -0.24    0.52
  -4  -8   5    2.62    0.71
   4  -8  -5    4.04    0.86
  -4  -8   5    1.51    0.69
   4  -8  -5    2.84    0.82
  -2  -8   5    0.22    0.50
   2  -8  -5    0.35    0.49
   2  -8  -5    0.69    0.53
  -2  -8   5    0.31    0.40
   0  -8   5   -0.16    0.34
   0  -8   5    0.78    0.62
   0  -8  -5    0.34    0.43
   0  -8  -5    0.23    0.52
  -2  -8  -5    1.65    0.94
  -2  -8  -5    2.09    0.69
   2  -8   5    0.71    0.57
  -2  -8  -5    1.69    0.66
   2  -8   5    1.82    0.63
  -4  -8  -5    1.21    0.58
  -4  -8  -5    0.73    0.51
  -4  -8  -5    1.23    0.65
   4  -8   5    0.47    0.61
   6  -8   5    1.46    0.73
  -6  -8  -5    1.38    0.61
  -8  -8  -5   -0.01    0.43
   8  -8   5    0.58    0.67
  10  -8   5   -0.41    0.42
 -10  -8  -5    0.91    0.41
  12  -8   5    0.65    0.58
 -12  -8  -5    1.12    0.58
 -12  -8  -5    0.67    0.52
  14  -8   5    2.31    0.83
 -14  -8  -5    2.37    0.85
 -14  -8  -5    2.88    0.82
 -16  -8  -5   -0.20    0.40
 -16  -8  -5   -0.15    0.50
  16  -8   5    0.05    0.55
 -18  -8  -5    1.44    0.69
  18  -8   5    0.72    0.59
 -18  -8  -5    0.56    0.49
 -20  -8  -5    0.36    0.49
 -20  -8  -5    0.48    0.63
  20  -8   5    0.43    0.50
  22  -8   5    0.01    0.55
 -22  -8  -5    0.22    0.58
 -22  -8  -5   -0.04    0.45
  24  -8   5   -0.24    0.48
 -24  -8  -5   -0.18    0.39
 -24  -8  -5    0.10    0.53
 -25  -9   5    0.10    0.62
  25  -9  -5   -0.46    0.79
  23  -9  -5   -0.55    0.60
 -23  -9   5   -0.28    0.63
 -21  -9   5   -0.24    0.60
  21  -9  -5   -0.31    0.82
 -19  -9   5   -0.09    0.59
  19  -9  -5   -0.69    0.65
 -17  -9   5    0.48    0.55
  17  -9  -5    0.29    0.75
 -15  -9   5    0.31    0.53
  15  -9  -5    0.16    0.69
 -15  -9   5    0.13    0.57
 -13  -9   5   -0.30    0.46
  13  -9  -5   -0.19    0.52
 -13  -9   5    0.36    0.57
 -11  -9   5    0.09    0.47
  11  -9  -5    0.21    0.58
 -11  -9   5    0.15    0.58
  -9  -9   5   -0.56    0.37
  -9  -9   5    0.04    0.55
   9  -9  -5    0.46    0.58
  -7  -9   5   -0.44    0.40
  -7  -9   5   -0.04    0.43
   7  -9  -5    0.24    0.62
   5  -9  -5    0.16    0.54
   5  -9  -5   -0.52    0.48
  -5  -9   5   -0.06    0.41
  -5  -9   5   -0.27    0.46
  -3  -9   5   -0.24    0.38
   3  -9  -5    0.22    0.56
  -3  -9   5   -0.28    0.51
   3  -9  -5    0.13    0.53
   3  -9  -5    0.55    0.46
   1  -9  -5   -0.04    0.48
  -1  -9   5   -0.04    0.43
   1  -9  -5   -0.83    0.46
  -1  -9   5   -0.72    0.46
   1  -9  -5    0.42    0.49
  -1  -9  -5   -0.49    0.37
   1  -9   5   -0.44    0.41
  -1  -9  -5   -0.35    0.44
  -1  -9  -5   -0.69    0.52
  -3  -9  -5    0.76    0.62
   3  -9   5    0.90    0.77
  -3  -9  -5    0.70    0.55
  -5  -9  -5   -0.07    0.47
   5  -9   5    0.74    0.63
  -5  -9  -5   -0.71    0.42
  -7  -9  -5    1.30    0.69
   7  -9   5    0.34    0.70
  -7  -9  -5    1.28    0.70
  -9  -9  -5   -0.08    0.49
  -9  -9  -5    0.82    0.64
   9  -9   5    0.43    0.59
 -11  -9  -5   -0.08    0.51
  11  -9   5    0.30    0.67
 -11  -9  -5    0.49    0.60
  13  -9   5    0.56    0.69
 -13  -9  -5   -0.11    0.46
 -13  -9  -5   -0.26    0.49
 -15  -9  -5    1.24    0.77
 -15  -9  -5    0.63    0.58
  15  -9   5    0.60    0.66
 -17  -9  -5    0.46    0.49
 -17  -9  -5    0.88    0.76
  17  -9   5    0.97    0.75
  19  -9   5    0.46    0.68
 -19  -9  -5    1.41    0.80
 -19  -9  -5    0.60    0.52
  18 -10  -5    0.47    0.74
 -18 -10   5    0.25    0.62
 -18 -10   5    0.58    0.65
 -16 -10   5   -0.39    0.48
 -16 -10   5    0.52    0.62
  16 -10  -5   -0.16    0.69
  14 -10  -5    0.75    0.82
 -14 -10   5    0.24    0.62
 -14 -10   5    0.36    0.62
 -12 -10   5   -0.61    0.42
 -12 -10   5   -0.34    0.53
  12 -10  -5    0.67    0.71
  10 -10  -5    0.32    0.68
 -10 -10   5    1.25    0.83
 -10 -10   5    1.20    0.67
   8 -10  -5    0.34    0.68
  -8 -10   5    0.82    0.64
  -8 -10   5   -0.51    0.54
  -6 -10   5    0.01    0.46
  -6 -10   5   -0.09    0.55
   6 -10  -5    0.49    0.64
   6 -10  -5   -0.36    0.54
  -4 -10   5   -0.13    0.59
   4 -10  -5   -0.06    0.54
   4 -10  -5    0.40    0.65
  -4 -10   5    0.26    0.51
   2 -10  -5   -0.20    0.56
  -2 -10   5   -0.18    0.49
   2 -10  -5    0.54    0.59
   0 -10  -5    0.30    0.52
   0 -10   5   -0.30    0.49
   0 -10  -5    0.75    0.62
   0 -10  -5    0.16    0.65
  -2 -10  -5    0.08    0.56
  -2 -10  -5    0.97    0.56
   2 -10   5    1.72    0.82
   4 -10   5    0.22    0.56
  -4 -10  -5   -0.35    0.49
  -4 -10  -5   -0.02    0.50
  -6 -10  -5    0.33    0.55
   6 -10   5   -0.14    0.60
  -6 -10  -5   -0.01    0.57
  -8 -10  -5    0.31    0.57
  -8 -10  -5   -0.31    0.50
   8 -10   5    0.20    0.62
 -10 -10  -5    0.28    0.57
 -10 -10  -5    0.25    0.59
  10 -10   5    0.68    0.71
 -12 -10  -5   -0.11    0.54
 -12 -10  -5    1.30    0.76
  12 -10   5    0.52    0.65
  42   0  -6    1.04    0.71
 -42   0   6   -0.20    0.56
  40   0  -6    0.68    0.70
 -40   0   6    1.07    0.65
 -38   0   6   -0.12    0.44
  38   0  -6    0.74    0.66
  36   0  -6    1.08    0.64
 -36   0   6    0.45    0.50
  36   0  -6    0.85    0.60
 -34   0   6   30.48    2.27
  34   0  -6   29.39    2.14
 -34   0   6   30.72    2.17
  34   0  -6   30.12    2.14
 -32   0   6    7.56    1.09
  32   0  -6   10.04    1.29
  32   0  -6    8.80    1.17
 -30   0   6    0.99    0.50
  30   0  -6    0.13    0.53
  30   0  -6    0.80    0.59
  28   0  -6   11.94    1.30
  28   0  -6   13.68    1.49
 -28   0   6   12.49    1.39
 -26   0   6    5.33    0.86
  26   0  -6    5.21    1.01
  26   0  -6    6.54    0.90
  24   0  -6    6.06    1.04
 -24   0   6    5.22    0.85
  24   0  -6    5.89    0.86
  22   0  -6    1.10    0.46
  22   0  -6    0.32    0.54
 -22   0   6    0.35    0.33
  20   0  -6   -0.26    0.52
 -20   0   6    0.02    0.32
 -18   0   6   10.00    1.11
  18   0  -6    9.53    1.14
 -16   0   6   30.52    1.85
  16   0  -6   26.57    1.84
  14   0  -6   64.91    3.44
 -14   0   6   67.72    3.43
  12   0  -6    6.52    0.91
 -12   0   6    8.27    0.95
   8   0  -6   13.70    1.15
  -8   0   6   14.67    1.10
  -8   0   6   12.90    0.78
  -4   0   6   17.20    0.91
  -4   0   6   16.82    1.25
   4   0  -6   17.96    1.20
   4   0  -6   21.47    1.34
  -2   0   6   -0.05    0.11
   2   0  -6    0.46    0.28
  -2   0   6   -0.14    0.21
   2   0  -6    0.32    0.36
   0   0  -6    0.69    0.36
   0   0   6    0.84    0.17
   0   0   6    0.57    0.32
   0   0  -6    0.75    0.30
  -2   0  -6    1.18    0.35
  -2   0  -6    1.14    0.39
   2   0   6    0.67    0.36
   2   0   6    1.16    0.21
   4   0   6   64.04    3.30
  -4   0  -6   62.53    3.16
  -4   0  -6   63.71    3.13
   4   0   6   63.34    2.83
  -6   0  -6   96.50    4.60
   6   0   6   99.98    4.79
  -6   0  -6   97.04    4.56
   8   0   6   21.28    1.10
  -8   0  -6   19.43    1.28
  -8   0  -6   19.06    1.30
 -10   0  -6   33.03    1.84
 -10   0  -6   32.74    1.81
  10   0   6   30.69    1.60
  14   0   6    8.54    0.78
 -14   0  -6    9.25    0.92
 -14   0  -6    6.78    0.82
 -16   0  -6    2.90    0.51
  16   0   6    3.54    0.56
  18   0   6    9.02    0.89
 -18   0  -6    9.72    0.98
 -20   0  -6    1.74    0.44
  20   0   6    3.18    0.61
  22   0   6   12.08    1.13
 -22   0  -6   12.06    1.17
 -24   0  -6    4.01    0.67
  24   0   6    5.48    0.84
  26   0   6    0.15    0.48
 -26   0  -6    0.23    0.34
  28   0   6    1.08    0.61
 -28   0  -6    1.57    0.56
  30   0   6    1.28    0.71
 -30   0  -6    1.07    0.49
 -32   0  -6    0.94    0.52
  32   0   6   -0.10    0.65
 -34   0  -6   -0.16    0.35
  34   0   6    0.07    0.71
 -41  -1   6    0.05    0.50
  41  -1  -6    0.72    0.73
  39  -1  -6    0.25    0.65
 -39  -1   6   -0.18    0.46
 -37  -1   6    0.89    0.61
  37  -1  -6    0.61    0.74
  37  -1  -6    1.28    0.71
 -37  -1   6    1.55    0.80
  35  -1  -6    4.58    0.99
  35  -1  -6    4.72    0.92
 -35  -1   6    4.29    0.92
 -35  -1   6    2.98    0.80
  35   1  -6    6.84    1.20
 -33  -1   6    4.90    0.89
  33  -1  -6    3.67    0.91
  33  -1  -6    5.47    0.93
 -33  -1   6    5.36    0.98
  33   1  -6    4.33    0.83
 -31  -1   6    6.04    0.97
  31  -1  -6    6.58    0.99
  31  -1  -6    6.10    1.11
 -31  -1   6    6.69    1.06
  31   1  -6    6.05    1.00
  29  -1  -6    1.16    0.69
  29  -1  -6    1.55    0.59
 -29  -1   6    2.42    0.67
  29   1  -6    1.44    0.62
 -29   1   6    1.80    0.57
 -27  -1   6   -0.09    0.36
  27  -1  -6    0.73    0.64
  27  -1  -6    0.62    0.47
  27   1  -6    0.24    0.52
 -27   1   6   -0.25    0.32
  25  -1  -6    0.26    0.44
 -25  -1   6   -0.02    0.35
  25  -1  -6   -0.58    0.60
 -25   1   6   -0.01    0.32
  25   1  -6   -0.33    0.45
 -23  -1   6   -0.08    0.27
  23  -1  -6   -0.27    0.38
  23  -1  -6    0.37    0.60
  23   1  -6   -0.21    0.50
 -23   1   6    0.11    0.31
  21  -1  -6    4.38    0.66
 -21  -1   6    4.28    0.80
  21  -1  -6    6.53    1.05
  21   1  -6    3.17    0.77
 -21   1   6    3.91    0.71
 -19  -1   6    0.05    0.32
  19  -1  -6    0.61    0.61
  19  -1  -6    0.07    0.31
 -19   1   6    0.14    0.31
  19   1  -6   -0.63    0.41
  17  -1  -6   11.64    0.87
 -17  -1   6   15.10    1.42
  17  -1  -6   12.63    1.35
  17   1  -6   16.44    1.52
 -17   1   6   13.67    1.09
  15  -1  -6    2.48    0.72
 -15  -1   6    2.53    0.56
 -15   1   6    2.66    0.55
  15   1  -6    2.10    0.59
 -13  -1   6   11.77    1.23
  13  -1  -6   13.94    1.39
 -13   1   6   12.30    1.18
  13   1  -6   13.14    1.29
  11  -1  -6    2.12    0.68
 -11  -1   6    3.26    0.61
 -11   1   6    2.13    0.51
  11   1  -6    3.64    0.68
  -9  -1   6    3.65    0.67
   9  -1  -6    4.65    0.78
   9   1  -6    1.60    0.42
  -9   1   6    3.54    0.60
   7  -1  -6   12.45    1.21
  -7  -1   6   11.60    0.84
  -7   1   6   13.18    1.04
   7   1  -6   13.49    1.27
  -5  -1   6    6.85    0.88
  -5  -1   6    6.52    0.63
   5  -1  -6    6.37    0.88
  -5   1   6    5.75    0.78
   5   1  -6    5.97    0.82
  -3  -1   6   12.60    0.84
  -3  -1   6   13.30    1.08
   3  -1  -6   13.69    1.06
   3  -1  -6   13.91    1.09
  -3   1   6   12.96    1.05
   3   1  -6   13.04    1.05
   1  -1  -6    3.11    0.57
  -1  -1   6    2.56    0.55
   1  -1  -6    2.65    0.58
  -1  -1   6    2.54    0.39
   1   1  -6    4.11    0.68
  -1   1   6    3.05    0.23
  -1   1   6    2.19    0.49
   1   1  -6    3.08    0.47
   1  -1   6   21.20    1.18
  -1  -1  -6   19.78    1.35
   1  -1   6   22.80    1.48
  -1  -1  -6   20.46    1.39
   1   1   6   22.01    1.01
  -1   1  -6   20.42    1.24
  -1   1  -6   20.26    1.40
  -3  -1  -6    9.89    1.01
   3  -1   6   11.81    1.20
  -3  -1  -6   10.17    0.99
  -3   1  -6    8.88    0.74
   3   1   6   10.90    0.61
  -3   1  -6   10.04    1.03
   3   1   6   10.30    1.10
   5  -1   6    2.83    0.58
  -5  -1  -6    2.29    0.50
   5  -1   6    2.68    0.40
  -5  -1  -6    2.54    0.51
  -5   1  -6    2.13    0.40
  -5   1  -6    2.05    0.51
   5   1   6    2.11    0.31
   7  -1   6   16.76    1.02
   7  -1   6   17.02    1.30
  -7  -1  -6   18.30    1.17
  -7  -1  -6   15.98    1.19
  -7   1  -6   16.94    1.22
  -7   1  -6   17.45    1.09
   9  -1   6   14.83    1.41
   9  -1   6   12.44    0.86
  -9  -1  -6   16.15    1.05
  -9  -1  -6   13.78    1.09
  -9   1  -6   13.08    0.93
  -9   1  -6   12.47    1.05
   9   1   6   14.05    0.87
 -11  -1  -6    0.03    0.25
  11  -1   6    0.49    0.25
 -11  -1  -6    0.49    0.32
  11   1   6    0.08    0.28
 -11   1  -6    0.50    0.25
 -11   1  -6    0.37    0.31
  13  -1   6    3.05    0.46
 -13  -1  -6    2.08    0.48
 -13  -1  -6    2.48    0.51
  13   1   6    2.90    0.51
 -13   1  -6    3.01    0.57
 -13   1  -6    2.34    0.45
 -15  -1  -6    0.07    0.29
  15  -1   6    0.19    0.28
 -15  -1  -6    0.53    0.28
 -15   1  -6    0.04    0.19
  15   1   6    0.32    0.35
  17  -1   6    3.01    0.51
 -17  -1  -6    3.58    0.65
 -17   1  -6    3.33    0.54
  17   1   6    3.12    0.61
 -19  -1  -6    8.68    0.96
  19  -1   6    9.01    0.90
 -19   1  -6   10.15    0.96
  19   1   6   11.54    1.08
  21  -1   6    0.49    0.40
 -21  -1  -6    0.67    0.34
 -21   1  -6    0.72    0.32
  21   1   6    0.23    0.44
 -23  -1  -6    0.31    0.32
  23  -1   6   -0.02    0.37
 -23   1  -6    0.19    0.31
  23   1   6    0.28    0.49
  25  -1   6    0.32    0.43
 -25  -1  -6   -0.18    0.31
  25   1   6    0.43    0.54
 -25   1  -6    0.36    0.37
  27  -1   6    0.96    0.55
 -27  -1  -6    1.47    0.52
 -27   1  -6    0.86    0.47
  27   1   6    1.75    0.68
 -29  -1  -6    0.99    0.49
  29  -1   6    0.33    0.49
  29   1   6    0.14    0.63
 -29   1  -6    0.65    0.42
  31  -1   6   -0.70    0.52
 -31  -1  -6    0.23    0.42
 -31   1  -6    0.26    0.38
  31   1   6   -0.17    0.63
 -33  -1  -6    0.14    0.39
  33  -1   6   -0.55    0.62
 -33   1  -6    0.31    0.42
  33   1   6    0.55    0.78
  35  -1   6   -0.90    0.64
  35   1   6    0.37    0.76
  42  -2  -6   -0.43    0.72
  40  -2  -6    0.79    1.19
  40  -2  -6    1.48    0.77
  38  -2  -6    1.22    0.66
  38  -2  -6   -0.15    0.72
 -38  -2   6   -0.04    0.50
  36  -2  -6    2.81    0.77
 -36  -2   6    2.12    0.75
 -36  -2   6    1.33    0.62
  36  -2  -6    1.41    0.83
 -34  -2   6   -0.58    0.36
  34  -2  -6    0.69    0.69
 -34  -2   6    0.12    0.39
  34  -2  -6    0.21    0.54
 -32  -2   6    0.55    0.47
 -32  -2   6    0.17    0.39
  32  -2  -6    0.04    0.50
  32  -2  -6   -0.36    0.66
  32   2  -6    1.58    0.60
  30  -2  -6    1.55    0.60
 -30  -2   6    1.49    0.53
 -30  -2   6    1.28    0.55
  30  -2  -6    1.03    0.78
  30   2  -6    1.23    0.56
  28  -2  -6   -0.24    0.60
 -28  -2   6    1.06    0.53
  28  -2  -6    0.85    0.51
 -28  -2   6    1.22    0.47
  28   2  -6    0.65    0.52
  26  -2  -6    1.24    0.49
  26  -2  -6    1.09    0.77
 -26  -2   6    0.73    0.47
 -26   2   6    0.60    0.40
  26   2  -6    0.91    0.53
  24  -2  -6    0.50    0.68
 -24  -2   6    0.00    0.36
  24  -2  -6   -0.54    0.37
 -24   2   6    0.51    0.35
  24   2  -6   -0.44    0.42
  22  -2  -6   14.93    1.06
 -22  -2   6   12.83    1.41
  22  -2  -6   15.23    1.64
  22   2  -6   17.99    1.63
 -22   2   6   13.69    1.13
  20  -2  -6   -0.45    0.30
  20  -2  -6   -0.08    0.68
 -20  -2   6   -0.15    0.30
 -20   2   6    0.02    0.28
  20   2  -6   -0.06    0.39
 -18  -2   6    5.71    0.88
  18  -2  -6    4.77    0.97
  18  -2  -6    4.92    0.56
 -18   2   6    4.26    0.69
  18   2  -6    3.83    0.76
  16  -2  -6   -0.14    0.26
  16  -2  -6    0.88    0.29
 -16  -2   6    0.55    0.40
 -16   2   6   -0.23    0.23
  16   2  -6   -0.29    0.36
 -14  -2   6   11.11    1.24
  14  -2  -6   11.50    0.71
  14   2  -6   12.03    1.27
 -14   2   6   11.61    1.10
  12  -2  -6    7.80    1.08
  12  -2  -6    4.67    0.38
 -12  -2   6    7.03    0.93
  12   2  -6    7.41    0.96
 -12   2   6    6.47    0.79
  10  -2  -6    0.99    0.56
 -10   2   6    1.72    0.45
  10   2  -6    1.15    0.42
   8  -2  -6    2.74    0.73
  -8  -2   6    3.28    0.62
  -8   2   6    2.26    0.48
   8   2  -6    3.02    0.64
   8   2  -6    2.30    0.39
  -6  -2   6    2.13    0.48
   6  -2  -6    1.82    0.63
  -6  -2   6    3.24    0.63
   6   2  -6    2.80    0.40
  -6   2   6    3.61    0.64
  -4  -2   6   12.26    1.21
   4  -2  -6    8.39    1.03
  -4   2   6   11.09    1.09
   4   2  -6    9.01    0.66
   4   2  -6   10.27    1.15
   2  -2  -6   15.32    1.18
   2  -2  -6   12.31    1.29
  -2  -2   6   13.92    1.14
  -2  -2   6   15.39    1.05
  -2   2   6   15.11    1.16
   2   2  -6   15.02    0.89
   2   2  -6   14.66    1.14
   0  -2  -6    0.27    0.37
   0  -2  -6   -0.32    0.29
   0  -2   6   -0.37    0.21
   0  -2   6   -0.13    0.23
   0   2  -6   -0.08    0.09
   0   2  -6   -0.01    0.25
   0   2   6   -0.24    0.22
  -2  -2  -6    6.03    0.87
   2  -2   6    7.46    0.79
  -2  -2  -6    7.87    0.88
   2  -2   6    9.05    1.03
   2   2   6    6.65    0.50
  -2   2  -6    8.11    0.98
  -2   2  -6    7.82    0.58
   4  -2   6   16.69    1.33
  -4  -2  -6   17.97    1.24
   4  -2   6   18.07    1.19
  -4  -2  -6   22.03    1.46
  -4   2  -6   16.54    1.29
   4   2   6   18.88    1.03
  -4   2  -6   20.21    1.08
  -6  -2  -6    0.41    0.34
  -6  -2  -6    0.45    0.32
   6  -2   6    0.07    0.24
   6  -2   6    0.21    0.32
   6   2   6    0.50    0.28
  -6   2  -6    0.21    0.17
  -6   2  -6    0.52    0.35
  -8  -2  -6    1.48    0.41
   8  -2   6    0.55    0.29
   8  -2   6    0.23    0.34
  -8  -2  -6    1.03    0.46
   8   2   6    0.74    0.33
  -8   2  -6    1.44    0.30
  -8   2  -6    0.50    0.34
  10  -2   6    3.15    0.65
  10  -2   6    2.18    0.46
 -10  -2  -6    1.25    0.42
 -10  -2  -6    3.85    0.55
 -10   2  -6    2.90    0.43
 -10   2  -6    2.61    0.58
  10   2   6    2.77    0.51
  12  -2   6    0.01    0.25
 -12  -2  -6    0.20    0.21
 -12  -2  -6    0.36    0.29
  12  -2   6   -0.16    0.30
 -12   2  -6   -0.25    0.25
  12   2   6   -0.12    0.37
 -12   2  -6    0.20    0.20
  14  -2   6    2.92    0.52
 -14  -2  -6    1.90    0.51
  14   2   6    1.45    0.52
 -14   2  -6    2.42    0.45
 -16  -2  -6    0.24    0.29
  16  -2   6    0.59    0.32
  16   2   6   -0.66    0.38
 -16   2  -6    0.46    0.28
  18  -2   6   21.84    1.39
 -18  -2  -6   22.23    1.50
 -18   2  -6   21.52    1.35
  18   2   6   18.92    1.48
  20  -2   6    1.09    0.42
 -20  -2  -6    1.14    0.48
  20   2   6    1.17    0.58
 -20   2  -6    2.16    0.45
 -22  -2  -6    0.18    0.32
  22  -2   6   -0.16    0.29
 -22   2  -6    0.11    0.31
  22   2   6   -0.10    0.50
  24  -2   6    0.32    0.37
 -24  -2  -6   -0.04    0.33
  24   2   6   -0.67    0.52
 -24   2  -6   -0.16    0.30
  26  -2   6    1.11    0.55
 -26  -2  -6    0.07    0.34
  26   2   6    0.28    0.59
 -26   2  -6    0.47    0.39
  28  -2   6    0.25    0.51
 -28  -2  -6    0.07    0.35
  28   2   6    1.36    0.75
 -28   2  -6   -0.02    0.32
 -30  -2  -6    0.11    0.37
  30  -2   6    0.14    0.55
 -30   2  -6    0.24    0.41
  30   2   6    0.06    0.69
 -32  -2  -6    0.56    0.45
  32  -2   6   -0.55    0.50
 -32   2  -6   -0.06    0.42
  32   2   6    0.95    0.78
 -34  -2  -6   -0.03    0.58
 -34  -2  -6    0.17    0.40
  34  -2   6   -0.44    0.52
  34   2   6    0.04    0.84
 -34   2  -6    0.14    0.41
  41  -3  -6    0.18    0.87
 -41  -3   6    2.76    0.93
 -39  -3   6   -0.01    0.52
  39  -3  -6   -0.27    0.88
 -37  -3   6   -1.08    0.38
  37  -3  -6    1.58    0.90
 -35  -3   6    0.23    0.49
  35  -3  -6    0.08    0.75
  35  -3  -6   -0.24    0.48
 -33  -3   6    0.27    0.50
  33  -3  -6    0.26    0.52
  33  -3  -6   -0.47    0.67
 -31  -3   6    0.54    0.49
  31  -3  -6   -0.94    0.56
  31  -3  -6   -0.70    0.36
  31   3  -6    0.31    0.49
  29  -3  -6   -0.49    0.39
  29  -3  -6   -0.26    0.58
 -29  -3   6    0.18    0.38
  29   3  -6    0.08    0.39
  27  -3  -6   -0.25    0.39
  27  -3  -6   -0.11    0.72
 -27  -3   6    0.02    0.39
  27   3  -6    0.59    0.48
 -25  -3   6    4.15    0.88
  25  -3  -6    4.43    0.63
  25  -3  -6    2.62    0.93
  25   3  -6    2.52    0.66
  23  -3  -6    4.86    1.09
  23  -3  -6    5.17    0.64
 -23  -3   6    4.15    0.81
  23   3  -6    6.40    0.93
 -23   3   6    6.49    0.79
  21  -3  -6    0.41    0.33
 -21  -3   6    0.35    0.38
  21  -3  -6    0.29    0.64
  21   3  -6    0.52    0.43
 -21   3   6    0.57    0.34
  19  -3  -6    0.27    0.67
  19  -3  -6   -0.23    0.25
 -19  -3   6    0.16    0.30
 -19   3   6    0.29    0.30
  19   3  -6    0.10    0.33
  17  -3  -6    0.01    0.23
  17  -3  -6   -0.09    0.20
 -17  -3   6   -0.43    0.23
  17   3  -6    0.23    0.42
 -17   3   6    0.41    0.28
 -15  -3   6   -0.09    0.17
  15  -3  -6    0.25    0.21
  15  -3  -6   -0.17    0.19
 -15   3   6    1.25    0.41
  15   3  -6    1.31    0.47
  13  -3  -6    2.10    0.75
  13  -3  -6    1.15    0.23
 -13   3   6    1.67    0.45
  13   3  -6    0.99    0.44
  11  -3  -6    2.71    0.26
 -11  -3   6    3.42    0.71
  11  -3  -6    3.52    0.77
 -11   3   6    2.94    0.57
  11   3  -6    2.75    0.35
  11   3  -6    3.10    0.65
   9  -3  -6   11.77    1.29
  -9  -3   6   11.83    1.24
   9   3  -6   15.65    0.81
   9   3  -6   14.38    1.18
  -9   3   6   16.04    1.14
   7  -3  -6    0.32    0.50
  -7  -3   6    0.99    0.41
  -7  -3   6    0.06    0.36
  -7   3   6    1.53    0.47
   7   3  -6    1.68    0.53
   7   3  -6    0.62    0.19
  -5  -3   6    3.15    0.61
   5  -3  -6    3.21    0.76
  -5  -3   6    1.92    0.55
   5   3  -6    3.55    0.33
   3  -3  -6   41.73    2.56
   3  -3  -6   42.14    2.47
  -3  -3   6   44.08    2.53
  -3  -3   6   47.94    2.50
   3   3  -6   47.18    2.05
   3   3  -6   44.18    2.52
   1  -3  -6   16.64    1.59
   1  -3  -6   15.96    1.26
  -1  -3   6   13.33    1.26
  -1  -3   6   15.28    1.26
   1   3  -6   16.29    1.25
   1   3  -6   16.37    0.84
   1  -3   6    2.15    0.57
   1  -3   6    1.70    0.50
  -1  -3  -6    1.56    0.53
  -1  -3  -6    1.87    0.56
  -1   3  -6    2.61    0.31
  -1   3  -6    1.98    0.57
   3  -3   6    7.25    0.86
   3  -3   6    7.13    0.87
  -3  -3  -6    3.75    0.71
  -3   3  -6    7.04    0.87
   5  -3   6    3.17    0.61
  -5  -3  -6    1.87    0.51
   5  -3   6    3.38    0.67
  -5   3  -6    2.74    0.60
  -5   3  -6    3.59    0.40
  -7  -3  -6    0.36    0.24
   7  -3   6    0.35    0.33
   7  -3   6    0.36    0.31
  -7  -3  -6    0.12    0.31
  -7   3  -6    0.05    0.17
  -7   3  -6    0.02    0.33
   9  -3   6    1.33    0.47
  -9  -3  -6   -0.02    0.17
   9  -3   6    0.84    0.39
  -9  -3  -6    1.36    0.41
   9   3   6    0.86    0.40
  -9   3  -6    0.89    0.44
  -9   3  -6    1.10    0.28
  11  -3   6    1.81    0.48
 -11  -3  -6    1.23    0.42
 -11  -3  -6    2.33    0.46
  11  -3   6    1.90    0.58
 -11   3  -6    1.73    0.36
  11   3   6    2.34    0.54
  13  -3   6    5.16    0.76
 -13  -3  -6    8.13    1.07
  13  -3   6    9.04    1.06
  13   3   6    8.58    0.94
 -13   3  -6    7.97    0.77
  15  -3   6    1.58    0.45
 -15  -3  -6    0.80    0.44
 -15   3  -6    0.15    0.23
  17  -3   6   11.29    1.10
 -17  -3  -6   11.83    1.24
  17   3   6    8.79    1.10
 -17   3  -6   11.93    0.90
  19  -3   6    0.17    0.36
 -19  -3  -6    0.29    0.34
  19   3   6   -0.73    0.44
 -19   3  -6    0.52    0.33
  21  -3   6    3.07    0.62
 -21  -3  -6    4.75    0.82
  21   3   6    3.79    0.85
 -21   3  -6    2.45    0.54
  23  -3   6    0.62    0.44
 -23  -3  -6    0.88    0.48
 -23   3  -6    1.04    0.39
  23   3   6    1.64    0.69
 -25  -3  -6    0.01    0.36
  25  -3   6    0.26    0.43
  25   3   6    1.00    0.69
 -25   3  -6    0.59    0.38
 -27  -3  -6    0.30    0.41
  27  -3   6    0.37    0.48
  27   3   6    0.30    0.64
 -27   3  -6    0.66    0.42
 -29  -3  -6   -0.05    0.34
  29  -3   6    0.04    0.47
  29   3   6   -0.26    0.60
 -29   3  -6    1.04    0.48
 -31  -3  -6    1.79    0.64
  31  -3   6    1.69    0.71
 -31   3  -6    0.57    0.46
  31   3   6    2.11    0.89
  33  -3   6   -0.06    0.60
 -33  -3  -6    0.45    0.47
 -33  -3  -6    1.16    0.78
  33   3   6    0.77    0.78
 -33   3  -6   -0.23    0.37
  38  -4  -6    0.13    0.88
 -38  -4   6    0.32    0.55
  36  -4  -6    0.64    0.89
 -36  -4   6    0.38    0.54
  34  -4  -6    1.36    0.91
 -34  -4   6    1.14    0.69
  32  -4  -6   -0.18    0.78
 -32  -4   6    0.31    0.54
 -30  -4   6   -0.05    0.43
  30  -4  -6    0.72    0.80
  28  -4  -6   -0.20    0.66
 -28  -4   6    0.50    0.49
  28   4  -6    1.25    0.57
  26  -4  -6    1.60    0.87
 -26  -4   6    1.86    0.65
  26   4  -6    2.14    0.66
  24  -4  -6   12.49    1.37
 -24  -4   6   10.59    1.36
  24  -4  -6    8.71    1.31
  24   4  -6   13.23    1.41
 -22  -4   6   -0.05    0.37
  22  -4  -6    0.17    0.32
  22  -4  -6   -0.29    0.58
  22   4  -6    0.57    0.45
  20  -4  -6    0.69    0.33
 -20  -4   6    0.27    0.41
  20  -4  -6    0.96    0.77
  20   4  -6   -0.30    0.31
 -20   4   6    0.24    0.31
  18  -4  -6    3.33    0.46
  18  -4  -6    1.90    0.77
 -18  -4   6    3.51    0.76
  18   4  -6    3.84    0.77
 -18   4   6    3.50    0.60
 -16  -4   6    0.22    0.34
  16  -4  -6    0.62    0.63
  16  -4  -6    0.79    0.27
  16   4  -6    0.48    0.38
 -16   4   6    0.73    0.35
 -14  -4   6   -0.03    0.21
  14  -4  -6   -0.11    0.67
 -14   4   6    0.60    0.37
  14   4  -6    0.78    0.41
  12  -4  -6    4.38    0.93
 -12  -4   6    4.66    0.79
  12   4  -6    4.53    0.79
 -10  -4   6    3.39    0.71
  10  -4  -6    3.67    0.87
  10   4  -6    2.85    0.67
  -8  -4   6    1.87    0.57
   8  -4  -6    2.36    0.74
  -8  -4   6    0.72    0.41
   8   4  -6    0.93    0.47
  -6  -4   6    3.79    0.68
   6  -4  -6    3.28    0.73
  -6  -4   6    5.03    0.83
   6   4  -6    3.51    0.71
   4  -4  -6    3.16    0.78
  -4  -4   6    3.78    0.73
  -4  -4   6    2.11    0.55
   4  -4  -6    3.04    0.33
   2  -4  -6    5.75    0.89
   2  -4  -6    4.23    0.44
  -2  -4   6    4.79    0.79
  -2  -4   6    4.43    0.81
   2   4  -6    4.74    0.33
   0  -4   6    0.33    0.32
   0  -4  -6    0.15    0.23
   0  -4   6    0.02    0.31
   0  -4  -6   -0.40    0.44
   0   4  -6   -0.11    0.10
   0   4  -6   -0.15    0.28
  -2  -4  -6   -0.24    0.20
   2  -4   6    0.16    0.36
   2  -4   6   -0.09    0.27
  -2  -4  -6    0.77    0.52
  -2   4  -6    0.56    0.42
  -2   4  -6    0.29    0.15
  -4  -4  -6    3.37    0.67
  -4  -4  -6    0.86    0.41
   4  -4   6    3.54    0.67
   4  -4   6    2.67    0.60
  -4   4  -6    3.11    0.69
   6  -4   6    5.02    0.84
  -6  -4  -6    3.88    0.85
  -6  -4  -6    6.75    0.86
   6  -4   6    6.88    0.93
  -6   4  -6    5.42    0.90
  -6   4  -6    6.88    0.59
   8  -4   6    1.93    0.55
  -8  -4  -6    0.74    0.43
  -8  -4  -6    1.91    0.59
   8  -4   6    0.06    0.30
  -8   4  -6    0.49    0.23
 -10  -4  -6    0.00    0.34
 -10  -4  -6    0.03    0.48
  10  -4   6   -0.24    0.31
  10  -4   6   -0.15    0.31
 -10   4  -6    0.59    0.23
  12  -4   6    3.31    0.70
  12  -4   6    2.46    0.63
 -12  -4  -6    2.87    0.71
 -12   4  -6    2.77    0.45
  14  -4   6    8.96    1.09
 -14  -4  -6    9.79    1.21
  14  -4   6    9.24    1.09
 -14   4  -6    8.86    0.84
 -16  -4  -6    0.26    0.36
  16  -4   6    0.00    0.35
 -16   4  -6   -0.16    0.21
 -18  -4  -6    2.30    0.59
  18  -4   6    2.04    0.59
 -18   4  -6    1.51    0.44
  18   4   6    1.70    0.58
  20  -4   6    4.24    0.79
 -20  -4  -6    2.67    0.63
  20   4   6    2.37    0.72
 -20   4  -6    2.87    0.56
 -22  -4  -6    2.49    0.64
  22  -4   6    2.08    0.57
  22   4   6    1.34    0.66
 -22   4  -6    1.23    0.46
  24  -4   6    1.89    0.62
 -24  -4  -6    0.85    0.44
 -24   4  -6    0.90    0.43
  24   4   6    0.98    0.66
 -26  -4  -6    0.42    0.40
  26  -4   6   -0.15    0.37
 -26   4  -6    0.24    0.39
  26   4   6    0.51    0.62
 -28  -4  -6   -0.11    0.35
  28  -4   6   -0.30    0.45
 -28   4  -6    0.00    0.35
  28   4   6   -0.45    0.53
  30  -4   6    0.47    0.59
 -30  -4  -6    1.09    0.56
 -30   4  -6    0.80    0.53
  30   4   6    0.13    0.67
 -32  -4  -6    0.25    0.43
 -32  -4  -6   -0.05    0.64
  32  -4   6   -0.85    0.49
 -32   4  -6   -0.15    0.40
  32   4   6   -0.26    0.62
  37  -5  -6   -0.67    0.72
 -37  -5   6   -0.15    0.56
 -35  -5   6    1.16    0.70
  35  -5  -6   -0.16    0.84
  33  -5  -6   -0.03    0.75
 -33  -5   6    0.36    0.60
  31  -5  -6    0.55    0.76
 -31  -5   6    0.32    0.59
 -29  -5   6   -0.30    0.44
  29  -5  -6   -0.37    0.65
  27  -5  -6    7.60    1.34
 -27  -5   6    5.39    1.13
  27   5  -6    8.14    1.12
  25  -5  -6    3.65    1.05
 -25  -5   6    5.49    1.07
  25   5  -6    4.58    0.87
 -23  -5   6    0.33    0.51
  23  -5  -6    1.28    0.84
  23   5  -6    1.26    0.58
 -21  -5   6    2.83    0.75
  21  -5  -6    3.08    0.99
  21   5  -6    4.35    0.85
  19  -5  -6    0.12    0.59
 -19  -5   6    0.06    0.36
  19   5  -6    1.47    0.56
 -17  -5   6    2.87    0.75
  17  -5  -6    2.93    0.94
  17   5  -6    3.03    0.72
 -15  -5   6   -0.16    0.30
  15  -5  -6    0.80    0.71
  15   5  -6   -0.19    0.33
  13  -5  -6    4.44    0.99
 -13  -5   6    5.27    0.90
  13   5  -6    3.20    0.72
 -11  -5   6    0.16    0.35
  11  -5  -6    0.70    0.70
  11   5  -6    0.42    0.38
  -9  -5   6    0.51    0.46
   9  -5  -6    1.71    0.72
  -9  -5   6    0.32    0.39
   9   5  -6   -0.16    0.30
   7  -5  -6    2.46    0.74
  -7  -5   6   -0.11    0.38
  -7  -5   6    0.52    0.36
   7   5  -6    0.84    0.45
   5  -5  -6    7.50    1.08
  -5  -5   6    7.76    1.03
  -5  -5   6    7.87    1.10
   5   5  -6   10.39    1.23
  -3  -5   6    1.16    0.51
  -3  -5   6    1.46    0.59
   3  -5  -6    1.14    0.54
   3  -5  -6    0.47    0.59
   3   5  -6    0.51    0.37
  -1  -5   6    0.80    0.48
   1  -5  -6    0.03    0.39
   1  -5  -6    1.29    0.62
  -1  -5   6    0.91    0.43
   1   5  -6    0.40    0.28
   1  -5   6   -0.12    0.31
  -1  -5  -6   -0.41    0.33
  -1  -5  -6   -0.35    0.43
   1  -5   6    0.07    0.32
  -1   5  -6   -0.10    0.33
   3  -5   6   -0.61    0.22
  -3  -5  -6   -0.32    0.48
  -3  -5  -6    0.50    0.43
   3  -5   6    0.07    0.31
  -3   5  -6    0.45    0.38
   5  -5   6    2.29    0.60
  -5  -5  -6    3.51    0.76
  -5  -5  -6    4.95    0.93
   5  -5   6    3.02    0.70
  -7  -5  -6    6.86    0.89
  -7  -5  -6    5.48    0.95
   7  -5   6    4.51    0.83
   7  -5   6    5.99    0.87
  -7   5  -6    6.10    0.67
   9  -5   6    8.77    1.09
  -9  -5  -6   10.74    1.31
   9  -5   6    7.77    1.10
  -9   5  -6    9.17    0.82
  11  -5   6   -0.27    0.30
  11  -5   6    0.23    0.39
 -11  -5  -6   -0.29    0.31
 -11   5  -6   -0.14    0.21
  13  -5   6    8.42    1.14
 -13  -5  -6    7.06    1.08
  13  -5   6    9.76    1.64
 -13   5  -6    6.86    0.76
  15  -5   6    2.39    0.68
 -15  -5  -6    5.44    0.96
 -15   5  -6    3.01    0.54
  17  -5   6   -0.31    0.35
 -17  -5  -6    0.01    0.34
 -17   5  -6   -0.10    0.25
  19  -5   6    0.31    0.41
 -19  -5  -6    0.50    0.41
 -19   5  -6    0.72    0.37
 -21  -5  -6    0.34    0.42
  21  -5   6    0.02    0.42
 -21   5  -6   -0.07    0.29
  23  -5   6    0.57    0.51
 -23  -5  -6    0.03    0.41
 -23   5  -6    0.10    0.35
 -25  -5  -6    0.35    0.48
  25  -5   6    0.53    0.51
 -25   5  -6    1.26    0.52
 -27  -5  -6    0.10    0.46
  27  -5   6    0.26    0.47
 -27   5  -6    0.02    0.38
  29  -5   6    1.25    0.58
 -29  -5  -6    1.83    0.83
 -29  -5  -6    2.06    0.67
 -29   5  -6    2.06    0.69
  36  -6  -6    1.07    1.07
 -36  -6   6   -0.55    0.56
 -34  -6   6   -0.39    0.47
  34  -6  -6    0.36    0.95
  32  -6  -6   -0.48    0.70
 -32  -6   6    0.04    0.55
  30  -6  -6    0.12    0.74
 -30  -6   6    0.00    0.56
 -28  -6   6    0.64    0.60
  28  -6  -6    1.20    0.81
 -26  -6   6    0.12    0.43
  26  -6  -6   -0.13    0.76
 -24  -6   6    2.11    0.68
  24  -6  -6    1.47    0.83
  24   6  -6    1.54    0.61
 -22  -6   6    0.20    0.43
  22  -6  -6    0.31    0.71
  22   6  -6    0.16    0.38
  20  -6  -6    0.51    0.70
 -20  -6   6    0.36    0.51
  20   6  -6   -0.04    0.37
 -18  -6   6   -0.31    0.40
  18  -6  -6    0.56    0.68
  18   6  -6   -0.13    0.38
 -16  -6   6    1.48    0.58
  16  -6  -6    2.43    0.89
  16   6  -6    1.50    0.60
  14  -6  -6    0.38    0.65
 -14  -6   6   -0.02    0.38
  14   6  -6    0.14    0.36
  12  -6  -6    1.25    0.70
 -12  -6   6    2.37    0.66
  12   6  -6    2.58    0.69
  10  -6  -6    0.24    0.64
 -10  -6   6    0.76    0.54
 -10  -6   6    0.51    0.42
  10   6  -6    0.53    0.45
   8  -6  -6    1.04    0.64
  -8  -6   6    0.37    0.43
  -8  -6   6   -0.35    0.33
   8   6  -6    0.06    0.35
  -6  -6   6    2.14    0.71
  -6  -6   6    2.95    0.72
   6  -6  -6    2.40    0.79
   6   6  -6    2.66    0.67
  -4  -6   6    2.18    0.62
  -4  -6   6    2.69    0.76
   4  -6  -6    0.65    0.63
   4   6  -6    2.25    0.67
  -2  -6   6    0.78    0.60
   2  -6  -6    2.36    0.73
   2  -6  -6    1.07    0.61
  -2  -6   6    1.49    0.54
   2   6  -6    1.95    0.65
   0  -6   6    0.59    0.45
   0  -6   6   -0.02    0.47
   0  -6  -6    0.80    0.56
   0  -6  -6    0.41    0.57
  -2  -6  -6    0.14    0.37
   2  -6   6    0.13    0.46
  -2  -6  -6    0.19    0.49
   2  -6   6    0.09    0.38
  -4  -6  -6   -0.07    0.41
  -4  -6  -6    0.30    0.49
   4  -6   6    0.56    0.45
   4  -6   6    0.00    0.33
   6  -6   6    0.73    0.44
  -6  -6  -6    1.53    0.59
  -6  -6  -6    1.16    0.56
   6  -6   6    1.64    0.60
   8  -6   6    0.49    0.43
  -8  -6  -6    0.31    0.44
   8  -6   6    0.07    0.37
  10  -6   6   -0.39    0.42
 -10  -6  -6   -0.10    0.40
 -12  -6  -6    0.73    0.50
  12  -6   6    0.79    0.55
 -14  -6  -6    0.47    0.48
  14  -6   6    0.35    0.50
 -16  -6  -6    0.46    0.45
  16  -6   6    0.43    0.48
 -18  -6  -6    0.29    0.43
  18  -6   6    0.26    0.45
  20  -6   6    0.84    0.61
 -20  -6  -6    0.56    0.45
  22  -6   6    0.76    0.56
 -22  -6  -6    0.50    0.47
 -22   6  -6    0.63    0.40
 -24  -6  -6   -0.38    0.34
  24  -6   6   -0.01    0.53
 -24   6  -6    0.17    0.34
  26  -6   6   -0.23    0.47
 -26  -6  -6    0.27    0.65
 -26  -6  -6   -0.18    0.43
 -26   6  -6   -0.19    0.36
 -28  -6  -6    0.33    0.48
  28  -6   6   -0.74    0.42
 -28  -6  -6   -0.10    0.61
 -28   6  -6   -0.07    0.39
 -33  -7   6    1.18    0.80
  33  -7  -6    0.26    0.98
 -31  -7   6   -0.09    0.54
  31  -7  -6   -0.52    0.86
  29  -7  -6   -0.92    0.83
 -29  -7   6    0.08    0.52
 -27  -7   6    0.64    0.60
  27  -7  -6    1.26    0.99
  25  -7  -6   -0.01    0.66
 -25  -7   6   -0.44    0.41
 -23  -7   6    0.13    0.55
  23  -7  -6   -1.01    0.67
  23   7  -6   -0.48    0.42
  21  -7  -6    0.16    0.75
 -21  -7   6    0.29    0.50
  21   7  -6    0.77    0.57
 -19  -7   6    0.18    0.51
  19  -7  -6   -0.03    0.74
  19   7  -6   -0.15    0.48
  17  -7  -6    0.40    0.67
 -17  -7   6    0.27    0.51
  17   7  -6    0.20    0.51
 -15  -7   6    1.34    0.60
  15  -7  -6    1.91    0.89
  15   7  -6    1.95    0.65
 -13  -7   6    0.79    0.55
  13  -7  -6    2.79    0.93
  13   7  -6    1.94    0.66
 -11  -7   6    0.67    0.53
 -11  -7   6    0.30    0.46
  11  -7  -6    0.17    0.59
  11   7  -6    0.41    0.46
  -9  -7   6    0.01    0.49
   9  -7  -6    0.43    0.66
  -9  -7   6   -0.24    0.29
   7  -7  -6   -0.83    0.48
  -7  -7   6   -0.78    0.34
  -7  -7   6    0.21    0.38
   5  -7  -6    0.02    0.55
  -5  -7   6    0.67    0.49
  -5  -7   6   -0.04    0.40
   3  -7  -6   -0.35    0.37
  -3  -7   6   -0.25    0.43
   3  -7  -6   -0.44    0.51
  -3  -7   6    0.13    0.41
   1  -7  -6   -0.32    0.48
  -1  -7   6    0.91    0.49
   1  -7  -6    0.35    0.55
  -1  -7   6    0.18    0.47
   1  -7   6    0.38    0.61
  -1  -7  -6    1.15    0.59
  -1  -7  -6    0.29    0.53
   1  -7   6    0.16    0.35
   3  -7   6    0.50    0.47
  -3  -7  -6    0.48    0.56
   3  -7   6   -0.43    0.37
  -3  -7  -6   -0.18    0.41
  -5  -7  -6    2.20    0.69
  -5  -7  -6    1.02    0.91
   5  -7   6    1.37    0.58
   5  -7   6    3.00    0.89
   7  -7   6    3.33    0.87
  -7  -7  -6    2.97    0.80
  -9  -7  -6    2.13    0.75
   9  -7   6    2.61    0.80
 -11  -7  -6    2.12    0.79
  11  -7   6    4.30    0.98
  13  -7   6    4.03    0.99
 -13  -7  -6    3.47    0.84
 -15  -7  -6    0.48    0.53
  15  -7   6    0.10    0.46
 -17  -7  -6    0.11    0.44
  17  -7   6    0.19    0.54
 -19  -7  -6   -0.05    0.40
  19  -7   6   -0.77    0.34
  21  -7   6    0.69    0.53
 -21  -7  -6    0.25    0.48
  23  -7   6   -0.16    0.42
 -23  -7  -6    0.77    0.52
 -23  -7  -6    0.13    0.60
  25  -7   6    2.24    0.79
 -25  -7  -6    1.57    0.68
 -25  -7  -6    3.10    0.94
 -28  -8   6    0.28    0.68
  28  -8  -6   -0.39    0.77
  26  -8  -6    0.61    0.86
 -26  -8   6    1.05    0.72
  24  -8  -6    3.37    1.20
 -24  -8   6    2.36    0.98
  22  -8  -6   -0.98    0.66
 -22  -8   6   -0.27    0.57
  20  -8  -6    0.90    0.87
 -20  -8   6    0.47    0.59
  18  -8  -6    0.71    0.82
 -18  -8   6    1.78    0.75
  16  -8  -6    1.15    0.79
 -16  -8   6    1.02    0.63
  14  -8  -6   -0.32    0.58
 -14  -8   6   -0.09    0.40
 -14  -8   6    0.29    0.45
 -12  -8   6    1.22    0.60
 -12  -8   6   -0.26    0.48
  12  -8  -6    1.57    0.77
 -10  -8   6   -0.46    0.46
 -10  -8   6    0.56    0.53
  10  -8  -6   -0.10    0.63
  -8  -8   6   -0.23    0.53
   8  -8  -6    0.38    0.63
  -8  -8   6    0.25    0.50
  -6  -8   6    1.60    0.60
   6  -8  -6    0.56    0.66
  -6  -8   6   -0.01    0.47
   4  -8  -6    0.73    0.66
  -4  -8   6    1.05    0.55
   4  -8  -6    0.74    0.66
  -4  -8   6    0.96    0.69
  -2  -8   6    0.59    0.46
  -2  -8   6    0.64    0.68
   2  -8  -6   -0.17    0.45
   2  -8  -6   -0.34    0.55
   0  -8   6    0.37    0.60
   0  -8   6    0.02    0.40
   0  -8  -6    0.32    0.46
   0  -8  -6   -0.49    0.52
  -2  -8  -6   -0.58    0.41
   2  -8   6   -0.25    0.38
   2  -8   6   -0.40    0.44
  -2  -8  -6    0.09    0.54
  -4  -8  -6    0.67    0.54
   4  -8   6    1.58    0.75
   6  -8   6    1.26    0.74
  -6  -8  -6    1.87    0.74
  -8  -8  -6    0.87    0.60
   8  -8   6   -0.12    0.55
  10  -8   6    2.49    0.92
 -10  -8  -6    0.44    0.56
 -12  -8  -6    0.18    0.53
  12  -8   6    0.01    0.50
  14  -8   6    4.12    1.04
 -14  -8  -6    2.96    0.85
  16  -8   6    0.88    0.64
 -16  -8  -6   -0.11    0.49
 -18  -8  -6    0.12    0.61
 -18  -8  -6   -0.26    0.47
  18  -8   6    0.10    0.51
 -20  -8  -6    0.05    0.45
  20  -8   6    0.38    0.52
 -20  -8  -6   -0.52    0.55
  23  -9  -6    0.61    0.98
 -23  -9   6    0.25    0.61
 -21  -9   6    0.91    0.76
  21  -9  -6   -0.14    0.87
  19  -9  -6   -0.23    0.85
 -19  -9   6   -0.50    0.50
 -17  -9   6   -0.05    0.48
  17  -9  -6    0.77    0.76
 -17  -9   6    0.43    0.60
 -15  -9   6    1.05    0.68
  15  -9  -6   -0.70    0.73
 -15  -9   6    0.48    0.60
 -13  -9   6    0.51    0.60
  13  -9  -6   -0.61    0.67
 -13  -9   6    0.47    0.52
 -11  -9   6    0.62    0.54
 -11  -9   6    0.49    0.57
  11  -9  -6    0.63    0.73
  -9  -9   6    0.52    0.62
  -9  -9   6    0.27    0.49
   9  -9  -6    0.61    0.75
   7  -9  -6   -0.74    0.42
   7  -9  -6   -0.33    0.60
  -7  -9   6   -0.13    0.42
  -7  -9   6   -0.02    0.47
   5  -9  -6   -0.41    0.46
  -5  -9   6    0.38    0.53
  -5  -9   6    0.55    0.52
   5  -9  -6    0.25    0.65
   3  -9  -6    0.55    0.63
  -3  -9   6    0.73    0.56
   3  -9  -6    1.81    0.79
  -3  -9   6    2.81    0.89
   1  -9  -6   -0.17    0.55
   1  -9  -6   -0.27    0.48
  -1  -9   6    0.46    0.53
  -1  -9   6    0.52    0.70
   1  -9   6   -0.30    0.62
  -1  -9  -6   -0.06    0.43
  -3  -9  -6    1.37    0.71
   3  -9   6    1.55    0.78
   5  -9   6    0.14    0.58
  -5  -9  -6    0.02    0.52
   7  -9   6    0.05    0.63
  -7  -9  -6    0.13    0.57
   9  -9   6   -0.61    0.52
  -9  -9  -6   -0.45    0.50
  -9  -9  -6   -1.03    0.39
  11  -9   6    0.57    0.70
 -11  -9  -6   -0.16    0.53
 -11  -9  -6    0.31    0.54
 -13  -9  -6    2.06    0.79
 -13  -9  -6    2.65    0.90
  13  -9   6    3.88    1.06
  15  -9   6    3.01    1.00
 -15  -9  -6    1.50    0.78
 -15  -9  -6    1.46    0.71
 -16 -10   6   -0.33    0.55
  16 -10  -6    0.51    0.87
 -16 -10   6    0.31    0.65
 -14 -10   6   -0.19    0.60
 -14 -10   6    0.17    0.67
  14 -10  -6   -1.15    0.69
 -12 -10   6    0.00    0.57
  12 -10  -6   -1.65    0.64
 -12 -10   6    0.02    0.52
 -10 -10   6   -0.17    0.43
 -10 -10   6    0.36    0.56
  10 -10  -6   -0.98    0.69
  -8 -10   6    0.52    0.55
   8 -10  -6    0.45    0.70
   8 -10  -6   -0.08    0.67
  -8 -10   6   -0.34    0.47
   6 -10  -6    0.18    0.74
   6 -10  -6    0.47    0.66
  -6 -10   6   -0.14    0.46
  -6 -10   6    0.39    0.69
   4 -10  -6    0.23    0.69
   4 -10  -6    0.07    0.57
  -4 -10   6    0.33    0.58
   2 -10  -6    0.34    0.60
   2 -10  -6   -1.36    0.55
  -2 -10   6    1.22    0.77
   0 -10  -6    0.78    0.62
   0 -10   6    0.39    0.66
   0 -10  -6    0.79    0.61
  -2 -10  -6    0.13    0.54
   2 -10   6   -0.16    0.51
  -2 -10  -6    0.26    0.60
  -4 -10  -6    0.78    0.62
  -4 -10  -6   -0.15    0.52
   4 -10   6    0.53    0.72
  -6 -10  -6    0.40    0.60
  -6 -10  -6    0.21    0.67
   6 -10   6   -0.38    0.61
   8 -10   6    0.04    0.71
  -8 -10  -6    0.41    0.66
  -8 -10  -6   -0.34    0.51
  40   0  -7    0.56    0.67
  38   0  -7    1.41    0.67
  38   0  -7    0.87    0.68
  36   0  -7    0.78    0.57
  36   0  -7    1.29    0.65
  34   0  -7    0.34    0.51
  34   0  -7    0.70    0.62
 -34   0   7    0.00    0.48
  32   0  -7    0.51    0.55
 -32   0   7    0.82    0.52
 -30   0   7    0.16    0.44
  30   0  -7    0.10    0.57
 -28   0   7    0.63    0.47
  28   0  -7    0.83    0.61
  26   0  -7    0.00    0.48
 -26   0   7    0.45    0.44
 -24   0   7    0.48    0.40
  24   0  -7    0.11    0.59
 -22   0   7   -0.10    0.34
  22   0  -7   -0.49    0.56
 -20   0   7   -0.17    0.28
  20   0  -7    0.26    0.61
 -18   0   7    0.57    0.43
  18   0  -7   -0.66    0.43
 -16   0   7    0.28    0.35
  16   0  -7   -0.09    0.50
  14   0  -7    0.38    0.24
 -12   0   7   -0.27    0.29
  12   0  -7    0.39    0.16
  10   0  -7    0.42    0.43
 -10   0   7    0.28    0.32
 -10   0   7   -0.35    0.14
  -8   0   7   -0.10    0.15
  -8   0   7    0.11    0.33
   8   0  -7   -0.25    0.37
   6   0  -7   -0.42    0.27
   6   0  -7   -0.35    0.26
  -6   0   7   -0.42    0.12
  -6   0   7    0.07    0.28
  -4   0   7   -0.27    0.11
   4   0  -7   -0.42    0.22
  -4   0   7    0.03    0.16
   4   0  -7    0.44    0.43
   2   0  -7    0.30    0.32
   2   0  -7   -0.40    0.22
  -2   0   7   -0.05    0.11
  -2   0   7    0.45    0.35
   0   0   7    0.10    0.27
   0   0   7    0.17    0.13
   0   0  -7    0.28    0.30
   0   0  -7   -0.04    0.32
  -2   0  -7    0.00    0.31
  -2   0  -7   -0.26    0.24
   2   0   7    0.15    0.14
   2   0   7    0.12    0.30
  -4   0  -7    0.10    0.28
   4   0   7    0.15    0.36
   4   0   7   -0.11    0.09
  -4   0  -7   -0.21    0.26
   6   0   7    0.03    0.17
   6   0   7    0.12    0.36
  -6   0  -7   -0.09    0.30
  -6   0  -7   -0.13    0.25
  -8   0  -7   -0.07    0.27
  -8   0  -7    0.19    0.28
   8   0   7    0.12    0.20
  10   0   7   -0.24    0.22
 -10   0  -7    0.14    0.31
 -10   0  -7    0.24    0.27
  12   0   7    0.13    0.27
 -12   0  -7   -0.09    0.24
 -12   0  -7   -0.04    0.29
  14   0   7    1.30    0.39
 -14   0  -7    3.57    0.63
 -16   0  -7   -0.20    0.22
 -16   0  -7    0.18    0.32
  16   0   7   -0.02    0.34
  18   0   7    0.58    0.40
 -18   0  -7    0.14    0.29
 -20   0  -7    0.32    0.29
  20   0   7   -0.59    0.36
  22   0   7    0.58    0.48
 -22   0  -7   -0.10    0.31
 -24   0  -7   -0.01    0.34
  24   0   7    0.54    0.51
  26   0   7    0.00    0.52
 -26   0  -7   -0.15    0.34
  28   0   7   -0.39    0.56
 -28   0  -7    0.21    0.41
 -30   0  -7    0.19    0.40
  30   0   7   -1.32    0.52
 -32   0  -7    0.63    0.49
  32   0   7    0.10    0.74
  39  -1  -7    0.47    0.66
  37  -1  -7    2.55    0.86
 -37  -1   7    2.03    0.75
  35  -1  -7    1.84    0.81
 -35  -1   7    0.75    0.57
  35   1  -7    1.98    0.68
 -33  -1   7    0.20    0.48
  33  -1  -7    0.86    0.61
  33  -1  -7    1.56    0.84
  33   1  -7    1.40    0.63
 -31  -1   7   -0.10    0.37
  31  -1  -7   -0.09    0.48
  31  -1  -7    0.57    0.66
 -31   1   7    0.37    0.50
  31   1  -7    0.60    0.53
 -29  -1   7    3.08    0.77
  29  -1  -7    2.68    0.88
  29  -1  -7    2.88    0.69
  29   1  -7    3.83    0.88
 -29   1   7    3.55    0.77
  27  -1  -7   -0.54    0.63
  27  -1  -7    1.01    0.52
 -27  -1   7    0.15    0.40
  27   1  -7    0.32    0.52
 -27   1   7    0.38    0.41
  25  -1  -7    4.76    1.05
  25  -1  -7    4.67    0.73
 -25  -1   7    5.06    0.91
 -25   1   7    4.92    0.85
  25   1  -7    7.50    1.12
  23  -1  -7    0.81    0.40
 -23  -1   7    0.18    0.35
  23  -1  -7    0.51    0.72
  23   1  -7    0.87    0.51
 -23   1   7    0.65    0.41
  21  -1  -7    0.38    0.70
 -21  -1   7   -0.02    0.33
 -21   1   7    0.18    0.36
  21   1  -7   -0.25    0.44
 -19  -1   7    1.34    0.51
  19  -1  -7    1.20    0.79
 -19   1   7    2.24    0.59
  19   1  -7    2.29    0.72
  17  -1  -7    0.68    0.63
 -17  -1   7    0.87    0.47
  17   1  -7    0.71    0.56
 -17   1   7    0.41    0.36
  15  -1  -7    0.35    0.20
 -15  -1   7    0.47    0.40
 -15   1   7    0.42    0.37
  15   1  -7   -0.03    0.39
 -13  -1   7    8.35    1.04
 -13   1   7    9.12    1.09
  13   1  -7    7.93    1.06
  11  -1  -7    0.14    0.50
 -11  -1   7    0.54    0.39
  11   1  -7    0.30    0.17
 -11   1   7    0.05    0.33
  -9  -1   7    0.01    0.23
   9  -1  -7   -0.05    0.49
  -9  -1   7    0.33    0.32
   9   1  -7    0.13    0.33
   9   1  -7   -0.44    0.19
  -9   1   7   -0.15    0.26
  -7  -1   7    1.30    0.33
   7  -1  -7    1.36    0.61
   7   1  -7    1.05    0.48
  -7   1   7    1.16    0.48
   7   1  -7    1.11    0.38
   5  -1  -7   -0.17    0.25
   5  -1  -7   -0.10    0.40
  -5  -1   7   -0.32    0.27
  -5  -1   7   -0.32    0.18
   5   1  -7   -0.38    0.30
  -5   1   7    0.05    0.29
   5   1  -7    0.04    0.26
  -3  -1   7    6.49    0.63
  -3  -1   7    6.04    0.86
   3  -1  -7    5.01    0.79
   3  -1  -7    5.77    0.85
   3   1  -7    4.90    0.80
   3   1  -7    5.91    0.71
  -3   1   7    5.91    0.85
  -1  -1   7    7.76    1.04
   1  -1  -7   11.45    1.18
   1  -1  -7    8.67    1.03
  -1  -1   7    7.45    0.70
  -1   1   7    8.40    0.46
   1   1  -7    8.57    1.07
   1   1  -7    9.06    0.86
  -1  -1  -7   -0.12    0.23
  -1  -1  -7   -0.10    0.28
   1  -1   7    0.13    0.35
   1  -1   7   -0.04    0.11
   1   1   7   -0.23    0.16
  -1   1  -7   -0.24    0.30
  -1   1  -7    0.67    0.30
   1   1   7   -0.26    0.14
   3  -1   7    0.09    0.30
   3  -1   7    0.11    0.20
  -3  -1  -7   -0.31    0.27
  -3  -1  -7    0.06    0.30
   3   1   7   -0.05    0.29
   3   1   7   -0.01    0.18
  -3   1  -7    0.15    0.33
  -3   1  -7    0.16    0.24
  -5  -1  -7    0.11    0.31
  -5  -1  -7    0.05    0.26
   5  -1   7    0.10    0.35
   5  -1   7    0.11    0.19
  -5   1  -7   -0.17    0.20
  -5   1  -7   -0.18    0.30
   5   1   7   -0.25    0.18
  -7  -1  -7    5.33    0.81
  -7  -1  -7    6.56    0.84
   7  -1   7    6.40    0.64
   7  -1   7    7.71    1.01
  -7   1  -7    4.46    0.62
  -7   1  -7    4.91    0.79
   7   1   7    5.64    0.56
   9  -1   7    4.14    0.53
   9  -1   7    5.58    0.93
  -9  -1  -7    5.34    0.77
  -9  -1  -7    4.93    0.75
   9   1   7    5.37    0.59
  -9   1  -7    6.11    0.89
  -9   1  -7    4.64    0.63
 -11  -1  -7    0.05    0.27
  11  -1   7    0.19    0.25
 -11  -1  -7   -0.15    0.29
 -11   1  -7   -0.11    0.31
 -11   1  -7    0.27    0.26
  11   1   7   -0.38    0.29
  13  -1   7    0.06    0.27
 -13  -1  -7    0.57    0.38
 -13  -1  -7    0.93    0.39
 -13   1  -7    0.17    0.27
  13   1   7    0.67    0.39
 -13   1  -7    0.87    0.41
  15  -1   7    2.93    0.52
 -15  -1  -7    4.35    0.73
  15   1   7    4.54    0.66
 -15   1  -7    3.61    0.71
 -15   1  -7    4.25    0.62
  17  -1   7    0.11    0.33
 -17  -1  -7    0.49    0.34
  17   1   7    0.36    0.42
 -17   1  -7    0.38    0.29
 -19  -1  -7    0.87    0.45
  19  -1   7   -0.09    0.34
 -19   1  -7    0.72    0.35
  19   1   7    0.46    0.47
  21  -1   7   -0.28    0.34
 -21  -1  -7    0.83    0.43
  21   1   7    0.74    0.52
 -21   1  -7    0.20    0.32
 -23  -1  -7    0.64    0.40
  23  -1   7    1.16    0.54
  23   1   7    0.94    0.59
 -23   1  -7    0.98    0.41
 -25  -1  -7    0.52    0.42
  25  -1   7    0.38    0.49
  25   1   7    0.20    0.59
 -25   1  -7    0.60    0.39
  27  -1   7   -0.53    0.51
 -27  -1  -7   -0.16    0.35
 -27   1  -7   -0.03    0.39
  27   1   7    0.38    0.60
 -29  -1  -7   -0.11    0.39
  29  -1   7    0.17    0.55
 -29   1  -7    0.82    0.52
  29   1   7   -0.39    0.64
 -31  -1  -7    0.44    0.48
  31  -1   7   -0.50    0.57
  31   1   7   -0.08    0.69
 -31   1  -7   -0.12    0.44
  40  -2  -7    2.08    0.94
 -40  -2   7    1.89    1.15
 -38  -2   7    0.33    0.55
  38  -2  -7    1.30    0.77
  36  -2  -7   -0.77    0.60
 -36  -2   7    0.07    0.50
 -34  -2   7    0.63    0.60
  34  -2  -7    0.98    0.70
  34   2  -7    1.49    0.62
 -32  -2   7   -0.20    0.35
  32  -2  -7    0.47    0.75
  32   2  -7    0.72    0.55
 -30  -2   7    0.40    0.48
  30  -2  -7    0.40    0.68
  30   2  -7    2.40    0.71
  28  -2  -7    0.93    0.69
 -28  -2   7    0.93    0.54
  28   2  -7    1.31    0.61
  26  -2  -7    0.96    0.80
 -26  -2   7    0.82    0.56
  26   2  -7    1.14    0.60
 -26   2   7    0.33    0.43
 -24  -2   7    0.11    0.39
  24  -2  -7   -0.03    0.63
 -24   2   7   -0.07    0.36
 -22  -2   7    3.40    0.79
  22  -2  -7    2.98    0.93
  22   2  -7    3.69    0.83
 -22   2   7    3.76    0.72
 -20  -2   7    2.41    0.70
  20  -2  -7    1.60    0.77
 -20   2   7    2.21    0.56
  20   2  -7    2.76    0.76
 -18  -2   7    1.60    0.57
  18  -2  -7    2.25    0.85
  18   2  -7    1.45    0.62
 -18   2   7    0.90    0.47
 -16  -2   7    0.23    0.33
  16  -2  -7    0.11    0.23
 -16   2   7    0.97    0.41
  16   2  -7    0.56    0.45
 -14  -2   7    7.39    1.06
 -14   2   7    5.54    0.82
  14   2  -7    7.77    1.12
 -12  -2   7   -0.04    0.14
  12  -2  -7    1.06    0.70
 -12   2   7    0.97    0.40
  12   2  -7    0.30    0.41
 -10  -2   7   -0.08    0.16
  10  -2  -7   -0.06    0.55
  10   2  -7    0.16    0.17
 -10   2   7    0.47    0.34
  10   2  -7    0.05    0.17
   8  -2  -7    2.54    0.79
  -8  -2   7    2.01    0.46
  -8  -2   7    0.61    0.39
   8   2  -7    1.03    0.30
   8   2  -7    0.14    0.15
  -8   2   7    1.77    0.53
  -6  -2   7    1.28    0.48
   6  -2  -7    1.00    0.60
  -6  -2   7    0.62    0.30
   6   2  -7    0.73    0.43
   6   2  -7    0.20    0.16
  -6   2   7    0.81    0.45
   4  -2  -7    5.98    0.90
  -4  -2   7    6.07    0.72
  -4  -2   7    6.19    0.90
   4  -2  -7    5.88    0.97
  -4   2   7    7.41    0.97
   4   2  -7    6.69    0.95
   2  -2  -7    5.42    0.87
  -2  -2   7    3.83    0.76
  -2  -2   7    4.60    0.62
   2  -2  -7    4.45    0.81
   2   2  -7    3.60    0.72
   2   2  -7    5.23    0.57
  -2   2   7    4.63    0.78
   0  -2  -7   -0.66    0.33
   0  -2  -7   -0.46    0.24
   0  -2   7    0.43    0.38
   0  -2   7    0.00    0.23
   0   2  -7    0.13    0.19
   0   2  -7    0.14    0.32
   0   2   7    0.43    0.36
  -2  -2  -7   13.91    1.18
  -2  -2  -7   17.96    1.37
   2  -2   7   17.29    1.36
   2  -2   7   18.18    1.13
  -2   2  -7   12.84    1.36
  -2   2  -7   14.98    0.98
  -4  -2  -7    2.50    0.62
  -4  -2  -7    3.09    0.62
   4  -2   7    2.78    0.50
   4  -2   7    3.07    0.70
  -4   2  -7    3.10    0.45
  -4   2  -7    2.33    0.57
   4   2   7    2.06    0.38
   6  -2   7    1.94    0.59
  -6  -2  -7    2.18    0.62
  -6  -2  -7    2.39    0.56
   6  -2   7    2.91    0.50
  -6   2  -7    2.59    0.43
   6   2   7    2.09    0.42
  -6   2  -7    3.18    0.69
   8  -2   7    5.84    0.72
  -8  -2  -7    4.44    0.71
   8  -2   7    5.41    0.94
  -8  -2  -7    5.15    0.86
  -8   2  -7    5.59    0.91
  -8   2  -7    4.61    0.58
   8   2   7    6.09    0.66
 -10  -2  -7    8.78    0.94
  10  -2   7    8.10    1.12
 -10  -2  -7    6.53    0.96
  10  -2   7    9.16    0.91
 -10   2  -7    7.21    0.76
 -10   2  -7    6.82    0.98
  10   2   7    7.84    0.81
  12  -2   7   -0.08    0.33
  12  -2   7    0.14    0.27
 -12  -2  -7   -0.12    0.30
 -12  -2  -7    0.53    0.31
 -12   2  -7    0.01    0.22
 -12   2  -7   -0.26    0.31
  12   2   7    0.06    0.38
  14  -2   7    0.53    0.33
 -14  -2  -7    1.10    0.45
  14   2   7    0.45    0.47
 -14   2  -7    1.61    0.41
 -16  -2  -7    1.82    0.51
  16  -2   7    2.03    0.48
 -16   2  -7    1.28    0.40
  16   2   7    2.20    0.64
 -18  -2  -7    2.24    0.57
  18  -2   7    2.57    0.56
  18   2   7    2.33    0.67
 -18   2  -7    2.13    0.49
 -20  -2  -7    1.57    0.49
  20  -2   7   -0.16    0.35
 -20   2  -7    0.93    0.36
  20   2   7    0.43    0.57
  22  -2   7    0.23    0.42
 -22  -2  -7    0.55    0.42
  22   2   7   -0.30    0.53
 -22   2  -7    0.04    0.34
  24  -2   7   -0.27    0.43
 -24  -2  -7    0.35    0.36
 -24   2  -7    0.06    0.33
  24   2   7   -0.38    0.52
 -26  -2  -7    0.18    0.40
  26  -2   7    0.11    0.49
 -26   2  -7    0.07    0.36
  26   2   7    0.35    0.61
  28  -2   7   -0.08    0.50
 -28  -2  -7   -0.03    0.32
  28   2   7   -1.14    0.57
 -28   2  -7   -0.15    0.38
  30  -2   7   -0.09    0.54
 -30  -2  -7    0.55    0.49
 -30   2  -7    0.33    0.43
  30   2   7    0.41    0.74
 -32  -2  -7   -0.35    0.43
  32  -2   7   -0.98    0.55
 -32   2  -7    0.52    0.47
  32   2   7   -0.22    0.66
  39  -3  -7    0.09    0.82
 -39  -3   7    0.57    0.71
 -37  -3   7    0.58    0.63
  37  -3  -7   -0.41    0.77
 -35  -3   7   -0.06    0.54
  35  -3  -7   -1.52    0.65
  33  -3  -7   -0.61    0.75
 -33  -3   7    1.18    0.62
  31  -3  -7   -0.73    0.69
 -31  -3   7    0.14    0.51
  31   3  -7    1.09    0.60
  29  -3  -7    2.19    0.94
 -29  -3   7    1.41    0.68
  29   3  -7    2.91    0.78
  27  -3  -7    0.90    0.79
 -27  -3   7    0.38    0.44
  27   3  -7    0.68    0.53
 -25  -3   7    0.01    0.42
  25  -3  -7    0.01    0.74
  25   3  -7   -0.34    0.44
 -23  -3   7    2.77    0.73
  23  -3  -7    1.86    0.83
  23   3  -7    2.00    0.67
 -23   3   7    1.60    0.52
 -21  -3   7   -0.10    0.36
  21  -3  -7   -0.76    0.57
  21   3  -7    0.04    0.35
 -21   3   7   -0.18    0.27
  19  -3  -7   -0.37    0.63
 -19  -3   7   -0.25    0.30
 -19   3   7    0.10    0.32
  19   3  -7    0.46    0.47
  17  -3  -7   -1.06    0.63
 -17  -3   7    0.12    0.31
 -17   3   7   -0.01    0.30
  17   3  -7    0.24    0.43
  15  -3  -7    1.12    0.78
 -15  -3   7    0.20    0.36
 -15   3   7    0.32    0.35
  15   3  -7   -0.20    0.37
  13  -3  -7    4.12    0.93
 -13   3   7    2.82    0.61
  13   3  -7    3.37    0.80
 -11  -3   7    0.00    0.23
  11  -3  -7   -0.19    0.57
  11   3  -7   -0.06    0.34
 -11   3   7   -0.09    0.28
  -9  -3   7    6.49    1.01
   9  -3  -7    5.81    1.05
  -9  -3   7    4.93    0.79
   9   3  -7    6.92    0.62
  -9   3   7    6.61    0.89
   9   3  -7    3.11    0.70
  -7  -3   7    2.14    0.64
   7  -3  -7    2.55    0.78
  -7  -3   7    1.70    0.55
   7   3  -7    2.04    0.31
  -7   3   7    3.12    0.63
  -5  -3   7    1.01    0.44
  -5  -3   7    0.00    0.31
   5  -3  -7    0.71    0.43
   5  -3  -7   -0.01    0.57
  -5   3   7    0.78    0.44
   5   3  -7    0.55    0.20
   5   3  -7   -0.02    0.17
   3  -3  -7    1.99    0.61
  -3  -3   7    0.75    0.39
   3  -3  -7    0.65    0.57
  -3  -3   7    1.41    0.49
   3   3  -7    2.15    0.30
   3   3  -7    2.36    0.64
   1  -3  -7    1.15    0.60
  -1  -3   7    1.75    0.48
   1  -3  -7    1.85    0.61
  -1  -3   7    3.24    0.70
   1   3  -7    3.44    0.71
  -1  -3  -7   29.78    1.93
   1  -3   7   26.34    1.68
  -1  -3  -7   24.31    1.69
   1  -3   7   27.84    1.86
  -1   3  -7   26.26    1.36
  -1   3  -7   26.91    1.83
  -3  -3  -7    0.82    0.48
  -3  -3  -7    0.66    0.43
   3  -3   7    0.93    0.43
   3  -3   7    1.52    0.53
  -3   3  -7    0.92    0.24
  -3   3  -7    1.35    0.51
   5  -3   7    2.88    0.70
  -5  -3  -7    3.40    0.68
  -5  -3  -7    2.87    0.66
   5  -3   7    3.34    0.61
  -5   3  -7    3.97    0.79
  -5   3  -7    3.24    0.43
   7  -3   7    1.28    0.46
   7  -3   7    2.41    0.62
  -7  -3  -7    2.23    0.61
  -7  -3  -7    3.04    0.61
  -7   3  -7    2.50    0.39
  -7   3  -7    2.01    0.63
   9  -3   7    1.29    0.52
  -9  -3  -7    1.04    0.50
  -9  -3  -7    1.65    0.49
   9  -3   7    1.83    0.47
  -9   3  -7    1.88    0.61
   9   3   7    0.94    0.40
  -9   3  -7    0.42    0.24
  11  -3   7    0.96    0.51
  11  -3   7    0.87    0.40
 -11  -3  -7    1.62    0.55
  11   3   7    1.81    0.51
 -11   3  -7    0.90    0.30
 -11   3  -7    0.34    0.43
  13  -3   7    5.43    0.77
 -13  -3  -7    5.60    0.89
  13  -3   7    5.65    0.97
 -13   3  -7    4.90    0.63
  13   3   7    5.30    0.76
 -15  -3  -7    6.64    1.03
  15  -3   7    7.11    0.88
  15   3   7    9.89    1.06
 -15   3  -7    7.57    0.80
  17  -3   7    0.26    0.37
 -17  -3  -7    0.31    0.39
  17   3   7    0.08    0.46
 -17   3  -7    0.21    0.27
 -19  -3  -7    0.37    0.38
  19  -3   7    0.37    0.41
  19   3   7    0.48    0.52
 -19   3  -7    0.64    0.35
  21  -3   7    0.15    0.40
 -21  -3  -7    0.51    0.43
 -21   3  -7    0.15    0.31
  21   3   7    0.54    0.61
  23  -3   7    0.96    0.50
 -23  -3  -7   -0.02    0.38
  23   3   7    0.02    0.58
 -23   3  -7    0.29    0.37
 -25  -3  -7    0.19    0.42
  25  -3   7   -0.39    0.40
 -25   3  -7   -0.11    0.29
  25   3   7   -0.19    0.62
 -27  -3  -7    0.15    0.38
  27  -3   7   -0.38    0.45
  27   3   7    0.64    0.63
 -27   3  -7    0.42    0.39
  29  -3   7   -0.41    0.54
 -29  -3  -7    0.66    0.54
 -29   3  -7   -0.11    0.37
  29   3   7    1.22    0.76
 -31  -3  -7    0.13    0.42
  31  -3   7   -0.45    0.49
  31   3   7    0.54    0.70
 -31   3  -7    0.47    0.43
 -38  -4   7   -0.06    0.57
  38  -4  -7   -1.37    0.82
  36  -4  -7    1.56    0.98
 -36  -4   7    0.13    0.51
 -34  -4   7    0.36    0.54
  34  -4  -7   -1.11    0.79
 -32  -4   7    0.75    0.61
  32  -4  -7   -0.03    0.84
 -30  -4   7    0.48    0.53
  30  -4  -7    0.18    0.75
  30   4  -7    1.59    0.67
 -28  -4   7    0.25    0.48
  28  -4  -7   -0.15    0.75
  28   4  -7    0.20    0.46
  26  -4  -7   -1.08    0.68
 -26  -4   7    0.75    0.50
  26   4  -7   -0.27    0.43
  24  -4  -7   -0.84    0.65
 -24  -4   7   -0.17    0.32
  24   4  -7    0.59    0.49
 -22  -4   7    1.93    0.71
  22  -4  -7   -0.16    0.65
  22   4  -7    1.32    0.59
  20  -4  -7    0.46    0.67
 -20  -4   7    0.19    0.44
  20   4  -7    0.11    0.40
 -20   4   7    0.37    0.38
 -18  -4   7    0.57    0.46
  18  -4  -7   -0.09    0.62
  18   4  -7    0.84    0.53
 -18   4   7    0.79    0.41
 -16  -4   7    3.66    0.79
  16  -4  -7    4.00    1.02
  16   4  -7    3.72    0.80
 -16   4   7    3.85    0.71
 -14  -4   7   -0.21    0.30
  14  -4  -7   -0.76    0.60
  14   4  -7    0.14    0.37
 -14   4   7   -0.19    0.30
  12  -4  -7   -0.39    0.68
 -12  -4   7   -0.04    0.34
  12   4  -7    0.23    0.38
 -10  -4   7   -0.12    0.30
  10  -4  -7    1.98    0.82
 -10  -4   7    0.34    0.41
  10   4  -7    1.23    0.56
  -8  -4   7    0.42    0.45
  -8  -4   7   -0.18    0.32
   8  -4  -7    0.58    0.67
   8   4  -7    0.70    0.44
  -6  -4   7    6.89    0.99
   6  -4  -7    5.95    1.05
  -6  -4   7    5.42    0.93
   6   4  -7    2.89    0.69
  -4  -4   7    0.41    0.44
   4  -4  -7   -0.20    0.61
   4  -4  -7    0.31    0.29
  -4  -4   7    0.53    0.40
   4   4  -7    0.02    0.20
  -2  -4   7   -0.21    0.37
   2  -4  -7    0.69    0.61
  -2  -4   7   -0.21    0.28
   2  -4  -7    0.03    0.24
   2   4  -7   -0.07    0.40
   0  -4   7    0.41    0.42
   0  -4  -7   -0.23    0.36
   0  -4  -7    0.54    0.56
   0  -4   7    0.94    0.45
   0   4  -7    0.52    0.48
   2  -4   7    6.28    0.96
  -2  -4  -7    7.58    1.13
   2  -4   7    6.93    1.01
  -2  -4  -7    8.10    1.02
  -2   4  -7    6.04    0.96
  -4  -4  -7    4.48    0.83
   4  -4   7    6.56    0.91
   4  -4   7    5.91    0.95
  -4  -4  -7    4.54    0.89
  -4   4  -7    8.47    1.17
  -4   4  -7    6.94    0.59
   6  -4   7   14.68    1.42
  -6  -4  -7   18.54    1.80
  -6  -4  -7   14.25    1.22
   6  -4   7   16.35    1.58
  -6   4  -7   16.93    0.97
  -6   4  -7   15.10    1.62
  -8  -4  -7    5.24    0.93
   8  -4   7    4.64    0.88
  -8  -4  -7    4.66    0.74
   8  -4   7    4.77    0.80
  -8   4  -7    5.09    0.57
  -8   4  -7    4.95    0.94
 -10  -4  -7   -0.39    0.28
  10  -4   7    0.23    0.38
  10  -4   7    0.01    0.33
 -10   4  -7    0.25    0.23
  12  -4   7    4.28    0.77
 -12  -4  -7    4.22    0.88
  12  -4   7    4.25    0.85
 -12   4  -7    3.67    0.55
  14  -4   7    3.93    0.74
 -14  -4  -7    6.01    0.97
  14  -4   7    6.69    1.02
 -14   4  -7    6.26    0.72
  16  -4   7   -0.35    0.36
 -16  -4  -7   -0.13    0.36
 -16   4  -7   -0.41    0.20
 -18  -4  -7   -0.30    0.29
  18  -4   7    0.72    0.41
 -18   4  -7   -0.17    0.24
 -20  -4  -7    3.39    0.79
  20  -4   7    2.79    0.67
 -20   4  -7    2.73    0.57
  20   4   7    2.93    0.72
 -22  -4  -7    2.08    0.64
  22  -4   7    1.51    0.52
 -22   4  -7    1.28    0.45
  22   4   7    2.21    0.69
  24  -4   7    0.40    0.48
 -24  -4  -7    0.57    0.47
 -24   4  -7    0.31    0.38
  24   4   7   -0.17    0.49
 -26  -4  -7   -0.04    0.38
  26  -4   7    0.05    0.47
  26   4   7   -0.08    0.56
 -26   4  -7   -0.02    0.35
 -28  -4  -7    0.71    0.54
  28  -4   7    0.81    0.56
  28   4   7    0.42    0.69
 -28   4  -7    0.59    0.45
  37  -5  -7    0.00    0.94
 -37  -5   7    1.00    0.73
 -35  -5   7    0.29    0.65
  35  -5  -7   -0.79    0.73
  33  -5  -7    1.86    0.97
 -33  -5   7    0.91    0.72
  31  -5  -7   -1.75    0.51
 -31  -5   7    1.06    0.70
  29  -5  -7    0.37    0.83
 -29  -5   7    0.31    0.50
  29   5  -7    0.58    0.61
  27  -5  -7    0.29    0.80
 -27  -5   7    0.07    0.55
  27   5  -7    0.49    0.50
  25  -5  -7   -0.04    0.69
 -25  -5   7    0.40    0.49
  25   5  -7   -0.33    0.43
  23  -5  -7   -0.03    0.73
 -23  -5   7   -0.10    0.36
  23   5  -7    0.51    0.50
 -21  -5   7    0.51    0.53
  21  -5  -7    0.40    0.75
  21   5  -7    0.99    0.54
 -19  -5   7    0.01    0.42
  19  -5  -7    1.34    0.84
  19   5  -7    0.37    0.46
  17  -5  -7    0.54    0.73
 -17  -5   7    1.59    0.59
  17   5  -7    1.61    0.62
  15  -5  -7    1.10    0.77
 -15  -5   7    1.54    0.61
  15   5  -7    1.87    0.69
  13  -5  -7    3.22    0.96
 -13  -5   7    3.20    0.76
  13   5  -7    3.21    0.77
  11  -5  -7    2.13    0.79
 -11  -5   7    1.27    0.55
 -11  -5   7    1.59    0.63
  11   5  -7    3.04    0.77
  -9  -5   7    2.73    0.73
  -9  -5   7    2.12    0.66
   9  -5  -7    1.99    0.84
   9   5  -7    2.97    0.71
  -7  -5   7    5.71    1.01
   7  -5  -7    7.07    1.13
  -7  -5   7    7.65    1.11
   7   5  -7    9.04    1.22
   5  -5  -7    0.07    0.41
  -5  -5   7    0.36    0.48
   5  -5  -7    0.60    0.67
  -5  -5   7    0.57    0.45
   5   5  -7   -0.15    0.31
  -3  -5   7    3.83    0.80
   3  -5  -7    1.79    0.70
   3  -5  -7    1.43    0.67
  -3  -5   7    1.47    0.60
   3   5  -7    3.23    0.76
   1  -5  -7    0.40    0.60
  -1  -5   7   -0.50    0.33
   1  -5  -7   -0.50    0.40
  -1  -5   7   -0.07    0.33
   1   5  -7    0.04    0.39
   1  -5   7    0.23    0.41
  -1  -5  -7   -0.22    0.41
  -1  -5  -7    0.60    0.59
   1  -5   7   -0.29    0.37
  -1   5  -7    0.04    0.35
  -3  -5  -7    0.68    0.52
   3  -5   7    1.93    0.61
   3  -5   7    1.19    0.51
  -3  -5  -7    2.20    0.67
  -3   5  -7    2.77    0.73
   5  -5   7    6.58    1.03
   5  -5   7    4.78    0.88
  -5  -5  -7    5.62    0.99
  -5  -5  -7    5.04    0.86
  -5   5  -7    4.57    0.89
   7  -5   7   -0.01    0.43
  -7  -5  -7    0.59    0.75
  -7  -5  -7   -0.23    0.35
   7  -5   7    0.13    0.41
  -9  -5  -7   -0.11    0.36
   9  -5   7   -0.27    0.36
   9  -5   7   -0.17    0.37
 -11  -5  -7    3.87    0.89
  11  -5   7    3.47    0.74
  11  -5   7    2.68    0.73
  13  -5   7    1.69    0.59
 -13  -5  -7    1.69    0.65
 -15  -5  -7    0.44    0.48
  15  -5   7   -0.11    0.43
 -15   5  -7    0.70    0.35
 -17  -5  -7    2.74    0.73
  17  -5   7    2.50    0.70
 -17   5  -7    2.44    0.54
 -19  -5  -7    1.13    0.54
  19  -5   7    0.48    0.52
 -19   5  -7    0.29    0.34
 -21  -5  -7    0.09    0.48
  21  -5   7    0.39    0.50
 -21   5  -7    0.74    0.41
  23  -5   7    0.28    0.49
 -23  -5  -7   -0.19    0.42
 -23   5  -7   -0.28    0.32
 -25  -5  -7    0.04    0.51
  25  -5   7    0.37    0.45
 -25   5  -7    0.42    0.41
  27  -5   7    0.05    0.53
 -27  -5  -7   -0.08    0.46
 -27   5  -7    0.01    0.40
 -34  -6   7    0.05    0.64
  34  -6  -7   -0.59    0.89
 -32  -6   7    0.39    0.70
  32  -6  -7    0.62    0.88
  30  -6  -7    2.25    1.05
 -30  -6   7    1.36    0.76
  28  -6  -7   -0.69    0.82
 -28  -6   7   -0.25    0.38
  26  -6  -7    0.72    0.90
 -26  -6   7    0.80    0.63
  26   6  -7    1.25    0.62
 -24  -6   7    0.80    0.60
  24  -6  -7    0.56    0.88
  24   6  -7    0.12    0.50
  22  -6  -7    2.10    1.04
 -22  -6   7    1.25    0.62
  22   6  -7    1.25    0.63
  20  -6  -7    1.80    0.87
 -20  -6   7    0.78    0.55
  20   6  -7    0.99    0.55
 -18  -6   7    0.65    0.52
  18  -6  -7   -0.34    0.78
  18   6  -7    0.59    0.49
  16  -6  -7    0.38    0.75
 -16  -6   7    0.36    0.51
  16   6  -7    0.32    0.42
  14  -6  -7    1.13    0.75
 -14  -6   7    2.85    0.77
  14   6  -7    2.19    0.68
  12  -6  -7    4.83    1.03
 -12  -6   7    5.18    1.02
 -12  -6   7    4.08    0.88
  12   6  -7    6.94    1.14
 -10  -6   7    8.05    1.21
 -10  -6   7    8.24    1.28
  10  -6  -7   10.18    1.35
  10   6  -7    9.28    1.28
  -8  -6   7    0.56    0.60
   8  -6  -7    0.30    0.66
  -8  -6   7    1.44    0.60
   8   6  -7    1.70    0.63
   6  -6  -7   -0.19    0.57
  -6  -6   7    0.34    0.43
  -6  -6   7    0.44    0.51
   6   6  -7    0.51    0.44
   4  -6  -7    0.08    0.57
  -4  -6   7    0.40    0.43
  -4  -6   7    0.85    0.57
   4  -6  -7   -0.63    0.35
   4   6  -7   -0.19    0.38
  -2  -6   7    0.20    0.42
   2  -6  -7    0.46    0.56
   2  -6  -7    0.33    0.46
  -2  -6   7    0.45    0.42
   2   6  -7    0.50    0.47
   0  -6  -7   -0.23    0.53
   0  -6   7    0.39    0.44
   0  -6  -7   -0.03    0.40
   0  -6   7    0.38    0.50
   0   6  -7    0.03    0.39
  -2  -6  -7    0.51    0.62
   2  -6   7    0.23    0.46
   2  -6   7    2.01    0.60
  -2  -6  -7    0.97    0.62
   4  -6   7   -0.10    0.34
  -4  -6  -7   -0.36    0.51
   4  -6   7   -0.46    0.33
  -4  -6  -7    0.56    0.54
   6  -6   7   26.30    2.02
  -6  -6  -7   26.01    2.01
   6  -6   7   23.91    1.86
   8  -6   7    6.17    1.12
  -8  -6  -7    5.36    1.11
   8  -6   7    8.50    1.16
  10  -6   7    7.52    1.19
 -10  -6  -7    6.81    1.12
  12  -6   7   -0.18    0.47
 -12  -6  -7    0.03    0.54
  14  -6   7   -0.19    0.44
 -14  -6  -7   -0.22    0.44
  16  -6   7    0.04    0.49
 -16  -6  -7    0.98    0.62
  18  -6   7    0.65    0.57
 -18  -6  -7   -0.62    0.39
 -20  -6  -7    1.21    0.61
  20  -6   7    0.99    0.60
  22  -6   7   -0.99    0.41
 -22  -6  -7    0.09    0.44
 -24  -6  -7    2.31    0.74
  24  -6   7    1.84    0.70
 -31  -7   7    1.14    0.80
  31  -7  -7    2.55    1.15
 -29  -7   7    0.39    0.71
  29  -7  -7    1.03    1.06
 -27  -7   7   -0.01    0.50
  27  -7  -7    0.77    0.86
 -25  -7   7   -0.42    0.43
  25  -7  -7    0.77    0.80
  25   7  -7    0.13    0.54
  23  -7  -7    1.88    0.91
 -23  -7   7    0.03    0.49
  23   7  -7    2.75    0.79
  21  -7  -7   -0.27    0.70
 -21  -7   7   -0.01    0.54
  21   7  -7   -0.27    0.45
  19  -7  -7   -0.40    0.76
 -19  -7   7   -0.29    0.48
  19   7  -7    0.85    0.63
 -17  -7   7    2.12    0.76
  17  -7  -7    0.72    0.83
  17   7  -7    1.70    0.69
 -15  -7   7    0.63    0.51
 -15  -7   7    0.17    0.51
  15  -7  -7    0.91    0.82
  15   7  -7    0.41    0.52
 -13  -7   7    0.53    0.48
  13  -7  -7   -0.55    0.58
 -13  -7   7    0.72    0.54
  13   7  -7   -0.04    0.47
 -11  -7   7    0.62    0.50
 -11  -7   7    1.14    0.70
  11  -7  -7    0.78    0.78
  11   7  -7    0.52    0.56
   9  -7  -7   -0.40    0.62
  -9  -7   7    0.29    0.41
  -9  -7   7    0.15    0.49
   9   7  -7    0.40    0.51
  -7  -7   7    4.91    1.07
   7  -7  -7    7.14    1.21
  -7  -7   7    5.71    1.06
   7   7  -7    4.89    1.04
   5  -7  -7   -0.17    0.58
   5  -7  -7   -1.07    0.42
  -5  -7   7    0.72    0.53
  -5  -7   7    0.73    0.58
  -3  -7   7   -0.18    0.40
   3  -7  -7    0.15    0.58
  -3  -7   7    0.50    0.49
   3  -7  -7    0.00    0.51
  -1  -7   7   -0.11    0.42
   1  -7  -7    0.45    0.54
  -1  -7   7    0.31    0.45
   1  -7  -7    0.05    0.57
  -1  -7  -7    3.05    0.83
   1  -7   7    2.80    0.93
  -1  -7  -7    3.35    0.91
   1  -7   7    2.29    0.70
  -3  -7  -7    2.67    0.79
   3  -7   7    0.57    0.59
  -3  -7  -7    2.30    0.74
   3  -7   7    2.72    0.76
   5  -7   7    1.15    0.63
  -5  -7  -7    1.45    0.69
   5  -7   7    1.91    0.62
   7  -7   7    0.54    0.54
  -7  -7  -7    0.71    0.57
  -9  -7  -7    0.78    0.57
   9  -7   7    1.23    0.65
  11  -7   7    2.51    0.84
 -11  -7  -7    3.98    0.92
  13  -7   7   -0.63    0.45
 -13  -7  -7    0.18    0.49
 -15  -7  -7    0.90    0.54
  15  -7   7    0.24    0.49
 -17  -7  -7    0.80    0.57
  17  -7   7    0.23    0.50
 -19  -7  -7    0.69    0.56
  19  -7   7   -0.60    0.49
 -21  -7  -7    0.61    0.58
  21  -7   7    0.42    0.58
 -26  -8   7   -0.06    0.64
  26  -8  -7   -0.15    0.95
 -24  -8   7    0.32    0.68
  24  -8  -7   -1.78    0.70
 -22  -8   7    1.39    0.84
  22  -8  -7   -0.56    0.88
  22   8  -7    0.08    0.55
  20  -8  -7    1.34    0.91
 -20  -8   7    1.57    0.76
  20   8  -7    0.46    0.56
 -18  -8   7    0.49    0.58
  18  -8  -7    0.78    0.97
  16  -8  -7   -0.45    0.83
 -16  -8   7   -0.47    0.44
 -16  -8   7   -0.40    0.45
 -14  -8   7   -0.15    0.51
  14  -8  -7    1.48    0.92
 -14  -8   7    0.06    0.44
 -12  -8   7   -0.10    0.44
  12  -8  -7   -1.43    0.51
 -12  -8   7   -0.11    0.44
 -10  -8   7    0.57    0.56
  10  -8  -7    0.60    0.70
 -10  -8   7   -0.53    0.39
  -8  -8   7    0.12    0.43
  -8  -8   7   -0.18    0.46
   8  -8  -7   -0.77    0.60
  -6  -8   7    2.02    0.84
   6  -8  -7    2.51    0.89
  -6  -8   7    3.26    0.85
   6  -8  -7    1.96    0.82
   4  -8  -7   -0.64    0.58
   4  -8  -7    0.11    0.49
  -4  -8   7   -0.46    0.47
  -4  -8   7   -0.50    0.33
   2  -8  -7    0.14    0.63
  -2  -8   7    0.09    0.49
  -2  -8   7    0.20    0.58
   2  -8  -7    1.02    0.67
   0  -8   7    1.48    0.65
   0  -8  -7    0.46    0.59
   0  -8  -7    1.34    0.73
   0  -8   7    0.66    0.66
  -2  -8  -7    2.19    0.84
   2  -8   7    2.16    0.87
   2  -8   7    4.11    0.92
  -4  -8  -7   -0.68    0.42
   4  -8   7    0.00    0.54
  -6  -8  -7    0.59    0.62
   6  -8   7    0.60    0.67
   8  -8   7    0.08    0.56
  -8  -8  -7    0.91    0.66
 -10  -8  -7   -0.20    0.43
  10  -8   7   -0.24    0.56
 -12  -8  -7    0.14    0.56
  12  -8   7    0.60    0.63
 -14  -8  -7   -0.35    0.46
  14  -8   7    1.07    0.71
 -16  -8  -7   -0.04    0.51
  16  -8   7    0.05    0.63
  18  -8   7   -0.49    0.53
 -18  -8  -7    0.42    0.63
 -21  -9   7   -0.12    0.53
  21  -9  -7    0.41    1.06
 -19  -9   7    0.06    0.56
  19  -9  -7   -0.01    0.82
 -19  -9   7    0.19    0.64
 -17  -9   7    0.74    0.59
 -17  -9   7   -0.39    0.50
  17  -9  -7   -0.71    0.76
 -15  -9   7   -0.51    0.38
 -15  -9   7    0.19    0.58
  15  -9  -7   -0.41    0.79
 -13  -9   7    0.28    0.48
  13  -9  -7   -0.42    0.61
 -13  -9   7   -0.25    0.56
  11  -9  -7   -0.88    0.76
 -11  -9   7   -0.38    0.50
 -11  -9   7   -0.15    0.47
  -9  -9   7    0.36    0.58
   9  -9  -7   -0.38    0.74
  -9  -9   7   -0.01    0.43
  -7  -9   7    0.11    0.48
   7  -9  -7    0.01    0.58
   7  -9  -7   -0.22    0.71
  -7  -9   7    0.20    0.60
   5  -9  -7    0.26    0.72
  -5  -9   7    0.34    0.53
  -5  -9   7   -0.54    0.53
   5  -9  -7    0.23    0.58
   3  -9  -7    0.60    0.62
  -3  -9   7    1.31    0.83
  -3  -9   7    0.59    0.55
   3  -9  -7    0.31    0.72
   1  -9  -7   -0.24    0.49
   1  -9  -7   -0.50    0.65
  -1  -9   7    0.28    0.66
   1  -9   7    2.55    0.97
  -1  -9  -7    1.89    0.79
  -3  -9  -7    0.04    0.57
   3  -9   7    0.61    0.67
   5  -9   7    0.45    0.69
  -5  -9  -7   -0.44    0.48
   7  -9   7   -0.16    0.54
  -7  -9  -7    0.32    0.60
  -9  -9  -7    0.61    0.69
   9  -9   7   -0.81    0.46
 -11  -9  -7    0.57    0.65
  11  -9   7   -0.51    0.52
  13  -9   7   -0.02    0.56
  10 -10  -7   -0.54    0.54
 -10 -10   7   -0.01    0.53
  10 -10  -7   -0.11    0.83
 -10 -10   7    0.21    0.60
   8 -10  -7   -0.24    0.59
  -8 -10   7   -0.33    0.46
  -8 -10   7   -0.18    0.56
   8 -10  -7    0.13    0.80
  -6 -10   7    0.21    0.54
   6 -10  -7    0.97    0.86
   6 -10  -7   -0.09    0.55
  -6 -10   7   -0.65    0.53
  -4 -10   7    1.30    0.88
   4 -10  -7    0.41    0.54
   4 -10  -7    0.77    0.85
  -2 -10   7   -0.50    0.56
   2 -10  -7   -0.63    0.43
   0 -10  -7    1.19    0.73
   0 -10   7    1.38    0.90
   0 -10  -7    1.12    0.72
  -2 -10  -7    0.45    0.64
   2 -10   7   -0.05    0.61
  -2 -10  -7    0.32    0.63
  38   0  -8    0.94    0.65
  36   0  -8    2.78    0.86
 -34   0   8    0.13    0.53
  34   0  -8    0.60    0.66
 -32   0   8   -0.08    0.46
  32   0  -8    0.76    0.63
 -30   0   8    0.87    0.55
  30   0  -8    1.76    0.73
 -28   0   8    2.49    0.71
  28   0  -8    2.86    0.83
  26   0  -8    0.26    0.54
 -26   0   8    0.20    0.44
  24   0  -8    4.76    1.02
 -24   0   8    5.40    0.98
 -22   0   8    3.07    0.76
  22   0  -8    4.38    0.94
 -20   0   8   13.30    1.46
  20   0  -8   13.34    1.56
  18   0  -8   -0.54    0.46
 -18   0   8    0.39    0.45
  16   0  -8    3.96    0.94
 -16   0   8    5.28    0.91
 -14   0   8    4.19    0.81
 -12   0   8    5.73    0.92
  10   0  -8   27.57    2.00
 -10   0   8   30.89    2.01
   8   0  -8    8.35    0.97
  -8   0   8    6.32    0.97
   8   0  -8    6.95    1.08
   6   0  -8   18.70    1.46
   6   0  -8   16.58    1.30
   4   0  -8    1.53    0.57
   4   0  -8    1.02    0.41
   2   0  -8    3.34    0.64
   2   0  -8    2.96    0.68
   0   0   8    6.71    0.47
   0   0   8    5.38    0.92
   0   0  -8    3.70    0.77
   0   0  -8    4.97    0.75
   2   0   8   -0.15    0.34
  -2   0  -8   -0.34    0.32
  -2   0  -8    0.32    0.33
   2   0   8    0.19    0.17
  -4   0  -8    0.98    0.47
   4   0   8    0.59    0.45
  -4   0  -8    0.07    0.33
   4   0   8    0.49    0.20
   6   0   8    4.37    0.48
  -6   0  -8    4.81    0.82
  -6   0  -8    3.76    0.67
   6   0   8    3.07    0.79
  -8   0  -8    9.04    1.00
  -8   0  -8    7.86    1.05
   8   0   8    8.32    0.73
  10   0   8    0.42    0.30
 -10   0  -8    0.55    0.43
 -10   0  -8    0.38    0.32
  12   0   8    9.94    0.88
 -12   0  -8   10.45    1.12
 -12   0  -8   10.74    1.21
 -14   0  -8   -0.07    0.34
  14   0   8   -0.43    0.29
 -14   0  -8    0.41    0.31
  16   0   8    4.20    0.67
 -16   0  -8    6.04    0.84
  18   0   8    1.15    0.51
 -18   0  -8    2.16    0.55
  20   0   8   -0.23    0.43
 -20   0  -8    0.46    0.39
 -22   0  -8    0.29    0.36
  22   0   8   -0.53    0.45
 -24   0  -8    1.09    0.50
  24   0   8    1.25    0.65
 -26   0  -8    0.02    0.40
  26   0   8    0.45    0.64
 -28   0  -8    0.06    0.37
  28   0   8   -1.26    0.55
  30   0   8    2.19    0.87
 -30   0  -8    3.10    0.78
  39  -1  -8    1.11    0.72
  37  -1  -8    1.86    0.84
 -37  -1   8    0.34    0.57
  37   1  -8    2.32    0.76
 -35  -1   8   -0.22    0.49
  35  -1  -8   -0.47    0.54
  35   1  -8    1.33    0.61
  33  -1  -8    0.49    0.68
 -33  -1   8    1.49    0.65
  33   1  -8    2.13    0.74
 -31  -1   8    0.41    0.52
  31  -1  -8    0.10    0.64
 -31   1   8   -0.19    0.46
  31   1  -8    0.18    0.51
 -29  -1   8    0.26    0.50
  29  -1  -8    0.44    0.61
 -29   1   8    0.39    0.45
  29   1  -8   -0.01    0.50
  27  -1  -8    0.24    0.65
 -27  -1   8    0.78    0.56
  27   1  -8    0.12    0.54
 -27   1   8    0.71    0.48
  25  -1  -8    2.22    0.89
 -25  -1   8    3.58    0.79
  25   1  -8    3.10    0.85
 -25   1   8    2.62    0.73
 -23  -1   8    1.11    0.54
  23  -1  -8    1.24    0.76
 -23   1   8    1.89    0.61
  23   1  -8    0.75    0.57
  21  -1  -8    0.48    0.72
 -21  -1   8    0.69    0.48
  21   1  -8    1.41    0.65
 -21   1   8    1.75    0.59
  19  -1  -8    0.55    0.72
 -19  -1   8    0.90    0.50
  19   1  -8    1.29    0.69
 -19   1   8    1.40    0.56
 -17  -1   8    2.07    0.68
  17  -1  -8    1.44    0.72
 -17   1   8    1.72    0.58
  17   1  -8    0.48    0.63
  15  -1  -8    0.14    0.57
 -15  -1   8    0.82    0.50
 -15   1   8    0.72    0.41
  15   1  -8    0.34    0.48
 -13  -1   8    3.21    0.72
  13  -1  -8    1.17    0.67
 -13   1   8    4.00    0.83
 -11  -1   8    2.54    0.48
  11  -1  -8    3.00    0.82
 -11  -1   8    3.61    0.75
  11   1  -8    3.08    0.59
 -11   1   8    3.78    0.81
  -9  -1   8    1.66    0.39
   9  -1  -8    1.64    0.67
   9   1  -8    1.75    0.59
   9   1  -8    1.83    0.47
  -9   1   8    1.26    0.52
  -7  -1   8    0.58    0.29
   7  -1  -8    0.52    0.37
   7  -1  -8    0.09    0.53
  -7  -1   8   -0.06    0.16
  -7   1   8    1.38    0.56
   7   1  -8    0.73    0.38
   7   1  -8    1.05    0.53
  -5  -1   8    3.15    0.47
   5  -1  -8    3.49    0.69
   5  -1  -8    3.14    0.77
   5   1  -8    2.21    0.65
   5   1  -8    2.78    0.54
  -5   1   8    1.99    0.59
  -3  -1   8    0.46    0.38
   3  -1  -8    0.48    0.39
  -3  -1   8    0.13    0.21
   3  -1  -8    0.14    0.48
  -3   1   8    0.19    0.22
   3   1  -8    0.00    0.43
   3   1  -8    0.03    0.27
  -1  -1   8   10.10    1.24
   1  -1  -8   10.41    1.19
   1  -1  -8   10.07    1.22
   1   1  -8    8.03    1.09
   1   1  -8   10.04    1.00
   1  -1   8    0.40    0.22
   1  -1   8    0.94    0.48
  -1  -1  -8    0.23    0.32
  -1  -1  -8    0.62    0.45
   1   1   8    0.07    0.19
  -1   1  -8    0.71    0.36
  -1   1  -8   -0.03    0.40
   3  -1   8    1.21    0.50
  -3  -1  -8   -0.22    0.35
   3  -1   8    0.19    0.21
  -3  -1  -8    0.23    0.35
   3   1   8   -0.06    0.35
  -3   1  -8    0.40    0.31
  -3   1  -8    0.70    0.48
   5  -1   8    4.89    0.55
  -5  -1  -8    6.28    0.92
  -5  -1  -8    3.31    0.65
   5  -1   8    5.36    0.98
  -5   1  -8    4.81    0.85
  -5   1  -8    3.67    0.60
   7  -1   8    0.40    0.48
   7  -1   8    0.52    0.27
  -7  -1  -8    0.84    0.46
  -7  -1  -8    0.83    0.47
  -7   1  -8    1.03    0.39
  -7   1  -8    1.13    0.51
  -9  -1  -8    4.37    0.79
   9  -1   8    4.54    0.91
  -9  -1  -8    3.71    0.71
   9  -1   8    4.21    0.54
  -9   1  -8    3.51    0.58
  -9   1  -8    3.37    0.75
   9   1   8    4.39    0.58
 -11  -1  -8    3.40    0.70
 -11  -1  -8    3.52    0.72
  11  -1   8    3.98    0.54
 -11   1  -8    3.58    0.62
  11   1   8    3.04    0.56
 -11   1  -8    3.09    0.69
  13  -1   8   -0.08    0.27
 -13  -1  -8   -0.11    0.29
  13   1   8   -0.17    0.34
 -13   1  -8    0.03    0.25
 -13   1  -8   -0.38    0.31
  15  -1   8    0.28    0.33
 -15  -1  -8    0.88    0.46
  15   1   8    1.10    0.48
 -15   1  -8    1.07    0.54
 -15   1  -8    0.43    0.31
  17  -1   8    0.51    0.39
 -17  -1  -8    0.95    0.46
 -17   1  -8    1.23    0.42
  17   1   8    1.43    0.54
 -19  -1  -8    0.53    0.39
  19  -1   8   -0.34    0.37
 -19   1  -8    0.46    0.34
  19   1   8   -0.06    0.45
 -21  -1  -8   -0.10    0.33
  21  -1   8    0.02    0.42
  21   1   8    0.24    0.54
 -21   1  -8    0.05    0.33
 -23  -1  -8    0.53    0.40
  23  -1   8    0.29    0.51
 -23   1  -8    0.33    0.39
  23   1   8    0.36    0.56
 -25  -1  -8    0.96    0.52
  25  -1   8    1.19    0.61
  25   1   8   -0.59    0.52
 -25   1  -8   -0.05    0.33
 -27  -1  -8   -0.16    0.40
  27  -1   8   -0.64    0.52
  27   1   8   -0.15    0.65
 -27   1  -8   -0.14    0.37
 -29  -1  -8    0.41    0.49
  29  -1   8    0.42    0.67
 -29   1  -8    0.31    0.42
  29   1   8    0.26    0.71
  38  -2  -8    0.03    0.69
 -38  -2   8    0.32    0.60
  36  -2  -8    1.25    0.90
 -36  -2   8    0.39    0.59
  36   2  -8    0.88    0.97
 -34  -2   8    0.29    0.56
  34  -2  -8    2.94    1.00
  34   2  -8    0.81    0.58
  32  -2  -8    0.94    0.83
 -32  -2   8    0.01    0.49
  32   2  -8   -0.39    0.42
 -30  -2   8   -0.28    0.40
  30  -2  -8   -0.24    0.67
  30   2  -8    1.13    0.60
  28  -2  -8    1.39    0.84
 -28  -2   8    0.64    0.57
 -28   2   8    2.32    0.69
  28   2  -8    1.23    0.64
 -26  -2   8   -0.11    0.42
  26  -2  -8    0.41    0.70
  26   2  -8   -0.19    0.47
 -26   2   8    0.46    0.41
 -24  -2   8    1.94    0.73
  24  -2  -8    2.05    0.79
  24   2  -8    2.68    0.78
 -24   2   8    2.01    0.62
  22  -2  -8    1.60    0.85
 -22  -2   8    1.98    0.66
 -22   2   8    4.00    0.80
  22   2  -8    2.06    0.74
 -20  -2   8   -0.19    0.36
  20  -2  -8    0.47    0.62
  20   2  -8   -0.01    0.47
 -20   2   8    0.05    0.36
 -18  -2   8    0.45    0.40
  18  -2  -8    0.43    0.60
  18   2  -8   -0.11    0.43
 -18   2   8    0.22    0.36
  16  -2  -8   -0.12    0.63
 -16  -2   8   -0.06    0.36
 -16   2   8   -0.41    0.29
  16   2  -8   -0.22    0.37
  14  -2  -8    0.21    0.66
 -14  -2   8    0.07    0.37
 -14   2   8   -0.04    0.31
  14   2  -8    0.29    0.50
 -12  -2   8    1.86    0.61
 -12  -2   8    5.83    0.77
  12  -2  -8    4.33    1.04
 -12   2   8    5.74    0.93
  12   2  -8    3.77    0.88
  12   2  -8    4.90    0.65
 -10  -2   8    4.31    0.69
  10  -2  -8    6.20    1.06
 -10   2   8    5.06    0.89
  10   2  -8    4.39    0.65
   8  -2  -8    5.07    1.01
  -8  -2   8    4.96    0.69
  -8  -2   8    4.20    0.84
   8   2  -8    5.32    0.66
   8   2  -8    1.95    0.55
  -8   2   8    7.66    1.07
  -6  -2   8    1.05    0.54
   6  -2  -8    0.45    0.41
   6  -2  -8    1.32    0.65
  -6  -2   8    0.80    0.41
   6   2  -8    1.17    0.37
  -6   2   8    0.71    0.46
   6   2  -8    1.26    0.58
  -4  -2   8    5.61    0.96
  -4  -2   8    5.05    0.72
   4  -2  -8    7.32    1.07
   4  -2  -8    6.12    0.99
   4   2  -8    6.37    0.71
   4   2  -8    8.07    1.15
  -4   2   8    6.41    0.99
  -2  -2   8    6.78    1.05
   2  -2  -8    5.98    0.93
   2  -2  -8    8.33    1.15
  -2  -2   8    7.88    0.85
   2   2  -8    8.11    0.79
   2   2  -8    6.61    1.00
  -2   2   8    5.98    0.97
   0  -2   8    3.83    0.82
   0  -2  -8    2.42    0.67
   0  -2  -8    2.13    0.66
   0  -2   8    2.25    0.50
   0   2  -8    1.94    0.66
   0   2   8    2.50    0.70
   0   2  -8    2.72    0.48
   2  -2   8    3.56    0.78
   2  -2   8    4.22    0.62
  -2  -2  -8    4.31    0.79
  -2  -2  -8    4.54    0.89
  -2   2  -8    4.46    0.86
  -2   2  -8    4.44    0.58
   4  -2   8    4.55    0.90
   4  -2   8    2.80    0.51
  -4  -2  -8    4.16    0.80
  -4  -2  -8    4.29    0.75
  -4   2  -8    4.06    0.83
  -4   2  -8    3.36    0.52
   6  -2   8    2.69    0.51
  -6  -2  -8    3.30    0.68
  -6  -2  -8    1.91    0.59
   6  -2   8    3.83    0.86
  -6   2  -8    2.70    0.75
  -6   2  -8    3.54    0.54
   8  -2   8    1.31    0.42
   8  -2   8    1.91    0.68
  -8  -2  -8    3.06    0.66
  -8  -2  -8    2.06    0.69
  -8   2  -8    3.06    0.75
  -8   2  -8    2.02    0.43
 -10  -2  -8    0.10    0.38
  10  -2   8   -0.03    0.36
 -10  -2  -8   -0.09    0.33
  10  -2   8    0.17    0.28
 -10   2  -8   -0.17    0.22
 -10   2  -8   -0.08    0.37
 -12  -2  -8    2.83    0.68
  12  -2   8    1.94    0.70
  12  -2   8    2.43    0.51
 -12   2  -8    3.70    0.82
 -12   2  -8    3.19    0.54
 -14  -2  -8    3.38    0.74
  14  -2   8    1.69    0.42
 -14   2  -8    1.95    0.62
 -14   2  -8    2.25    0.51
  16  -2   8    0.77    0.42
 -16  -2  -8    1.79    0.59
 -16   2  -8    1.01    0.40
 -18  -2  -8    0.51    0.45
  18  -2   8   -0.14    0.33
 -18   2  -8    0.05    0.32
  20  -2   8    1.28    0.53
 -20  -2  -8    1.51    0.52
 -20   2  -8    2.11    0.52
  20   2   8    0.40    0.90
 -22  -2  -8    0.37    0.44
  22  -2   8   -0.55    0.35
  22   2   8    0.25    0.86
 -22   2  -8    0.30    0.39
 -24  -2  -8    0.18    0.44
  24  -2   8    0.02    0.48
  24   2   8   -0.95    0.61
 -24   2  -8   -0.36    0.34
 -26  -2  -8    0.33    0.42
  26  -2   8    0.64    0.60
 -26   2  -8    1.11    0.50
  28  -2   8   -0.88    0.49
 -28  -2  -8    0.99    0.57
 -28   2  -8   -0.34    0.38
  37  -3  -8   -1.41    0.68
 -37  -3   8    0.59    0.67
  35  -3  -8   -0.33    0.83
 -35  -3   8    0.12    0.55
 -33  -3   8   -0.58    0.46
  33  -3  -8    0.65    0.85
  33   3  -8   -0.42    0.46
 -31  -3   8   -0.21    0.42
  31  -3  -8   -0.29    0.75
  31   3  -8    1.01    0.67
  29  -3  -8    0.83    0.81
 -29  -3   8   -0.16    0.37
  29   3  -8    0.70    0.63
 -27  -3   8    0.11    0.43
  27  -3  -8   -0.90    0.68
  27   3  -8   -0.28    0.46
  25  -3  -8    0.53    0.84
 -25  -3   8    0.00    0.46
  25   3  -8    0.60    0.55
 -25   3   8   -0.32    0.58
  23  -3  -8    0.74    0.72
 -23  -3   8    0.67    0.58
  23   3  -8   -0.31    0.40
 -23   3   8    0.16    0.42
 -21  -3   8    0.88    0.55
  21  -3  -8    0.00    0.75
  21   3  -8    0.97    0.62
 -21   3   8    0.53    0.41
 -19  -3   8   -0.44    0.31
  19  -3  -8    0.01    0.65
  19   3  -8   -0.04    0.40
 -19   3   8   -0.38    0.28
 -17  -3   8   -0.07    0.40
  17  -3  -8    0.87    0.78
  17   3  -8   -0.37    0.33
 -17   3   8   -0.41    0.26
 -15  -3   8    0.97    0.50
  15  -3  -8    1.29    0.78
  15   3  -8    1.98    0.71
 -15   3   8    1.08    0.51
  13  -3  -8   -0.16    0.69
 -13  -3   8    0.22    0.38
 -13   3   8    0.05    0.31
  13   3  -8    1.17    0.55
 -11  -3   8   -0.11    0.31
 -11  -3   8    0.15    0.37
  11  -3  -8    0.92    0.68
  11   3  -8   -0.27    0.39
 -11   3   8    0.35    0.37
  -9  -3   8    1.35    0.60
  -9  -3   8    3.21    0.66
   9  -3  -8    1.79    0.83
   9   3  -8    2.86    0.71
  -9   3   8    3.16    0.71
   7  -3  -8    0.38    0.46
   7  -3  -8    0.97    0.62
  -7  -3   8    1.06    0.49
  -7  -3   8    0.42    0.39
   7   3  -8    1.04    0.52
  -7   3   8    0.72    0.49
   5  -3  -8    3.25    0.80
   5  -3  -8    2.91    0.77
  -5  -3   8    3.76    0.77
  -5  -3   8    2.12    0.60
  -5   3   8    3.81    0.78
   5   3  -8    2.92    0.77
  -3  -3   8    4.71    0.77
   3  -3  -8    4.80    0.90
   3  -3  -8    5.57    0.99
  -3  -3   8    7.22    1.07
   3   3  -8    4.83    0.94
   3   3  -8    6.63    0.65
   1  -3  -8    8.06    1.17
  -1  -3   8    7.18    0.93
  -1  -3   8    9.42    1.25
   1  -3  -8    7.24    1.03
   1   3  -8    8.24    1.19
   1   3  -8    7.87    0.69
   1  -3   8    1.70    0.50
   1  -3   8    1.60    0.59
  -1  -3  -8    2.33    0.68
  -1  -3  -8    2.23    0.67
  -1   3  -8    2.12    0.66
  -1   3  -8    3.38    0.44
  -3  -3  -8    7.69    1.17
   3  -3   8    9.36    1.03
   3  -3   8    6.25    1.06
  -3  -3  -8    7.39    1.04
  -3   3  -8    8.06    1.16
  -3   3  -8    8.09    0.65
  -5  -3  -8    3.34    0.77
   5  -3   8    3.51    0.82
   5  -3   8    3.05    0.61
  -5  -3  -8    1.82    0.58
  -5   3  -8    3.39    0.47
  -5   3  -8    2.45    0.71
   7  -3   8    0.11    0.32
   7  -3   8    0.28    0.47
  -7  -3  -8    0.55    0.47
  -7  -3  -8    0.52    0.42
  -7   3  -8    0.39    0.25
  -7   3  -8    0.66    0.52
   9  -3   8   -0.31    0.41
   9  -3   8   -0.04    0.30
  -9  -3  -8   -0.07    0.42
  -9  -3  -8    0.26    0.42
  -9   3  -8    0.32    0.44
  -9   3  -8   -0.09    0.21
 -11  -3  -8    0.84    0.49
  11  -3   8    1.16    0.57
  11  -3   8    1.94    0.51
 -11   3  -8    0.98    0.55
 -11   3  -8    1.72    0.39
 -13  -3  -8   -0.44    0.33
  13  -3   8    0.09    0.47
  13  -3   8    0.00    0.32
 -13   3  -8    0.38    0.27
  15  -3   8    0.52    0.38
 -15  -3  -8    0.29    0.38
 -15   3  -8    0.21    0.29
  17  -3   8    4.55    0.74
 -17  -3  -8    5.52    0.94
 -17   3  -8    6.38    0.80
 -19  -3  -8    2.34    0.67
  19  -3   8    3.70    0.72
 -19   3  -8    2.19    0.54
 -21  -3  -8    0.13    0.41
  21  -3   8    0.70    0.46
 -21   3  -8    0.19    0.38
 -23  -3  -8   -0.51    0.37
  23  -3   8   -0.67    0.37
 -23   3  -8    0.32    0.39
  25  -3   8   -0.40    0.44
 -25  -3  -8   -0.10    0.35
 -25   3  -8    0.31    0.39
  27  -3   8   -0.31    0.51
 -27  -3  -8    0.04    0.46
 -27   3  -8    0.25    0.44
 -36  -4   8    0.16    0.61
  36  -4  -8    2.66    1.15
  34  -4  -8   -1.10    0.80
 -34  -4   8   -0.15    0.58
  32  -4  -8    0.93    1.00
 -32  -4   8    0.60    0.64
  32   4  -8    0.20    0.51
 -30  -4   8    0.32    0.58
  30  -4  -8    0.76    0.89
  30   4  -8    0.26    0.53
  28  -4  -8    0.11    0.74
 -28  -4   8    0.17    0.51
  28   4  -8    0.69    0.58
 -26  -4   8    1.31    0.68
  26  -4  -8    0.43    0.86
  26   4  -8    0.65    0.56
 -24  -4   8    0.26    0.43
  24  -4  -8    0.06    0.85
  24   4  -8   -0.08    0.44
 -22  -4   8   -0.06    0.46
  22  -4  -8   -0.05    0.75
  22   4  -8    0.41    0.49
  20  -4  -8    0.12    0.77
 -20  -4   8    0.31    0.41
  20   4  -8   -0.36    0.42
 -20   4   8    0.26    0.37
 -18  -4   8    0.55    0.49
  18  -4  -8    1.16    0.74
  18   4  -8    0.77    0.55
 -18   4   8    1.81    0.57
 -16  -4   8    0.45    0.46
  16  -4  -8   -0.58    0.62
  16   4  -8    0.41    0.51
 -16   4   8    0.55    0.44
 -14  -4   8   -0.48    0.30
  14  -4  -8   -0.23    0.64
  14   4  -8   -0.51    0.35
 -14   4   8    0.07    0.36
  12  -4  -8    1.37    0.75
 -12  -4   8    1.53    0.56
 -12  -4   8    0.99    0.52
  12   4  -8    1.78    0.68
 -10  -4   8    1.75    0.59
 -10  -4   8    2.24    0.60
  10  -4  -8    0.99    0.72
  10   4  -8    1.66    0.61
   8  -4  -8    1.92    0.84
  -8  -4   8    0.69    0.46
  -8  -4   8    1.05    0.50
   8   4  -8    1.31    0.60
  -6  -4   8    2.28    0.63
   6  -4  -8    1.67    0.70
   6  -4  -8    0.95    0.56
  -6  -4   8    1.53    0.65
   6   4  -8    2.79    0.72
   4  -4  -8    7.57    1.14
  -4  -4   8    7.68    1.05
  -4  -4   8    8.13    1.20
   4  -4  -8    6.21    1.08
   4   4  -8    9.87    1.30
  -2  -4   8    0.16    0.39
   2  -4  -8   -0.14    0.37
   2  -4  -8    0.27    0.58
  -2  -4   8    0.72    0.47
   2   4  -8    0.29    0.41
   0  -4  -8    3.10    0.84
   0  -4  -8    4.13    0.89
   0  -4   8    3.57    0.79
   0  -4   8    4.06    0.79
   0   4  -8    5.93    1.03
   2  -4   8    1.05    0.58
  -2  -4  -8    0.53    0.49
   2  -4   8    1.06    0.47
  -2  -4  -8    0.25    0.52
  -2   4  -8    1.13    0.57
   4  -4   8    7.54    1.12
   4  -4   8    5.88    0.95
  -4  -4  -8    6.44    0.94
  -4  -4  -8    6.99    1.09
  -4   4  -8    6.41    1.05
   6  -4   8    0.71    0.49
  -6  -4  -8    0.91    0.48
   6  -4   8    0.09    0.38
  -6  -4  -8    0.80    0.47
  -6   4  -8   -0.02    0.42
   8  -4   8    0.11    0.43
   8  -4   8   -0.02    0.33
  -8  -4  -8    0.26    0.45
  -8   4  -8    0.25    0.46
  10  -4   8    0.43    0.50
 -10  -4  -8    0.81    0.52
  10  -4   8    0.65    0.44
 -10   4  -8    0.81    0.31
  12  -4   8   -0.24    0.34
  12  -4   8    0.47    0.46
 -12  -4  -8    0.86    0.52
 -12   4  -8    0.45    0.28
  14  -4   8    1.05    0.61
 -14  -4  -8    0.65    0.53
  14  -4   8    0.81    0.47
 -14   4  -8    0.77    0.35
 -16  -4  -8   -0.45    0.32
  16  -4   8   -0.14    0.35
 -16   4  -8   -0.11    0.27
 -18  -4  -8    0.13    0.46
  18  -4   8   -0.16    0.39
 -18   4  -8    0.53    0.36
 -20  -4  -8    1.52    0.60
  20  -4   8    1.29    0.53
 -20   4  -8    1.83    0.51
  22  -4   8    1.50    0.60
 -22  -4  -8    2.04    0.67
 -22   4  -8    1.36    0.47
  24  -4   8    1.84    0.64
 -24  -4  -8    2.43    0.73
 -24   4  -8    1.59    0.54
 -26  -4  -8    0.09    0.48
  26  -4   8   -0.73    0.44
 -26   4  -8    0.21    0.40
  35  -5  -8   -0.07    0.97
 -35  -5   8    0.50    0.63
  33  -5  -8    0.10    0.97
 -33  -5   8    0.06    0.52
 -31  -5   8    0.19    0.63
  31  -5  -8   -0.04    0.95
 -29  -5   8    0.02    0.49
  29  -5  -8    0.17    0.82
  29   5  -8    1.26    0.67
  27  -5  -8    1.61    0.90
 -27  -5   8    1.77    0.73
  27   5  -8    1.66    0.70
  25  -5  -8    0.12    0.75
 -25  -5   8    1.09    0.60
  25   5  -8    0.45    0.59
  23  -5  -8    0.21    0.82
 -23  -5   8    0.08    0.50
  23   5  -8   -0.48    0.43
 -21  -5   8    0.05    0.46
  21  -5  -8    0.14    0.79
  21   5  -8    0.37    0.52
 -19  -5   8    0.39    0.43
  19  -5  -8    0.73    0.93
  19   5  -8    0.93    0.55
  17  -5  -8    0.04    0.70
 -17  -5   8    0.79    0.59
  17   5  -8    1.17    0.64
 -15  -5   8    0.70    0.59
  15  -5  -8    0.25    0.72
  15   5  -8    0.72    0.56
 -13  -5   8    3.19    0.83
 -13  -5   8    4.55    0.90
  13  -5  -8    1.95    0.87
  13   5  -8    3.58    0.88
 -11  -5   8    0.36    0.47
 -11  -5   8    0.15    0.45
  11  -5  -8    1.05    0.82
  11   5  -8    0.11    0.41
  -9  -5   8   -0.09    0.40
   9  -5  -8    0.84    0.78
  -9  -5   8    0.03    0.41
   9   5  -8   -0.25    0.35
   7  -5  -8    1.33    0.61
  -7  -5   8    0.47    0.44
  -7  -5   8    0.48    0.46
   7  -5  -8    0.63    0.70
   7   5  -8    0.71    0.57
   5  -5  -8    0.92    0.60
  -5  -5   8    1.15    0.54
  -5  -5   8    1.64    0.65
   5  -5  -8    0.65    0.65
   5   5  -8    1.17    0.57
  -3  -5   8   -0.17    0.37
  -3  -5   8   -0.28    0.34
   3  -5  -8   -0.22    0.53
   3  -5  -8    0.05    0.43
   3   5  -8   -0.08    0.37
   1  -5  -8    0.38    0.56
  -1  -5   8    0.52    0.50
  -1  -5   8    0.26    0.40
   1  -5  -8    0.33    0.48
   1   5  -8   -0.48    0.34
   1  -5   8    5.30    0.92
  -1  -5  -8    5.84    0.97
   1  -5   8    5.82    0.98
  -1  -5  -8    8.04    1.22
  -1   5  -8    7.71    1.22
  -3  -5  -8    1.50    0.67
  -3  -5  -8    0.78    0.55
   3  -5   8    0.96    0.55
   3  -5   8   -0.09    0.43
  -3   5  -8    0.77    0.52
   5  -5   8    7.05    1.07
   5  -5   8    6.91    1.12
  -5  -5  -8    8.62    1.09
  -5  -5  -8    6.85    1.16
  -5   5  -8    7.18    1.18
  -7  -5  -8    0.03    0.44
   7  -5   8    0.37    0.47
   7  -5   8    0.23    0.41
   9  -5   8    1.30    0.54
   9  -5   8    1.32    0.64
  -9  -5  -8    0.96    0.60
 -11  -5  -8    0.68    0.55
  11  -5   8    0.68    0.54
  11  -5   8    0.20    0.46
  13  -5   8   -0.20    0.36
 -13  -5  -8    0.81    0.61
 -15  -5  -8    0.46    0.54
  15  -5   8    0.28    0.41
  17  -5   8   -0.74    0.33
 -17  -5  -8   -0.27    0.41
 -19  -5  -8    1.10    0.64
 -21  -5  -8    0.24    0.51
  21  -5   8   -0.07    0.43
  23  -5   8    0.31    0.47
 -23  -5  -8   -0.08    0.48
  25  -5   8    0.11    0.55
 -25  -5  -8    0.67    0.58
 -32  -6   8    0.44    0.64
  32  -6  -8   -1.32    0.86
  30  -6  -8    0.06    1.00
 -30  -6   8   -0.48    0.46
  28  -6  -8   -0.12    0.81
 -28  -6   8   -0.15    0.49
  28   6  -8   -0.37    0.50
  26  -6  -8   -0.16    0.75
 -26  -6   8    0.08    0.56
  26   6  -8   -0.34    0.53
  24  -6  -8   -0.34    0.85
 -24  -6   8   -0.30    0.38
  24   6  -8   -0.08    0.52
  22  -6  -8   -1.08    0.63
 -22  -6   8    0.31    0.54
  22   6  -8   -0.12    0.48
 -20  -6   8    0.16    0.48
  20  -6  -8   -0.01    0.73
  20   6  -8    0.27    0.56
 -18  -6   8    0.15    0.47
  18  -6  -8   -0.41    0.65
  18   6  -8    0.40    0.53
  16  -6  -8   -0.31    0.79
 -16  -6   8   -0.26    0.43
  16   6  -8    0.45    0.53
 -14  -6   8   -0.18    0.35
  14  -6  -8    0.98    0.77
 -14  -6   8    0.01    0.47
  14   6  -8    0.02    0.47
 -12  -6   8    0.57    0.56
 -12  -6   8    0.91    0.59
  12  -6  -8    0.40    0.78
  12   6  -8    0.54    0.54
 -10  -6   8   -0.63    0.38
  10  -6  -8    0.45    0.74
 -10  -6   8    0.20    0.49
  10   6  -8    0.06    0.49
  -8  -6   8    0.10    0.41
  -8  -6   8    0.54    0.56
   8  -6  -8    1.71    0.83
   8   6  -8    0.89    0.58
  -6  -6   8    0.56    0.56
   6  -6  -8   -0.27    0.44
   6  -6  -8    0.29    0.66
  -6  -6   8    0.54    0.53
   6   6  -8    0.48    0.55
  -4  -6   8    2.29    0.74
  -4  -6   8    3.30    0.88
   4  -6  -8    2.34    0.80
   4  -6  -8    2.66    0.85
   4   6  -8    1.61    0.69
  -2  -6   8    0.13    0.43
  -2  -6   8    0.04    0.49
   2  -6  -8    0.12    0.61
   2  -6  -8    0.18    0.45
   2   6  -8    0.76    0.58
   0  -6   8    0.06    0.43
   0  -6  -8   -0.33    0.56
   0  -6  -8   -0.04    0.42
   0  -6   8    0.19    0.46
   0   6  -8    0.03    0.42
  -2  -6  -8    2.53    0.78
   2  -6   8    1.56    0.65
   2  -6   8    0.97    0.60
  -2  -6  -8    0.94    0.67
   4  -6   8    0.46    0.58
  -4  -6  -8    1.10    0.64
   4  -6   8    0.15    0.50
  -6  -6  -8    0.51    0.59
   6  -6   8    0.28    0.47
   6  -6   8    0.41    0.52
   8  -6   8    0.47    0.49
  -8  -6  -8    0.58    0.59
   8  -6   8    0.69    0.52
 -10  -6  -8   -0.74    0.40
  10  -6   8   -0.21    0.37
  12  -6   8    0.12    0.47
 -12  -6  -8    0.47    0.59
 -14  -6  -8    0.41    0.53
  14  -6   8    0.20    0.51
  16  -6   8   -0.58    0.36
 -16  -6  -8   -0.29    0.50
 -18  -6  -8    0.29    0.49
  18  -6   8   -0.07    0.48
  20  -6   8   -0.39    0.45
 -20  -6  -8    0.48    0.57
  22  -6   8   -0.95    0.42
 -22  -6  -8   -0.07    0.51
  29  -7  -8    0.53    1.05
 -29  -7   8    0.42    0.61
  27  -7  -8   -1.03    0.82
 -27  -7   8    0.46    0.66
  25  -7  -8    0.63    1.05
 -25  -7   8    0.68    0.60
  25   7  -8   -0.41    0.54
 -23  -7   8   -0.32    0.46
  23  -7  -8   -0.63    0.74
  23   7  -8    0.59    0.63
  21  -7  -8   -0.60    0.85
 -21  -7   8   -0.13    0.46
  21   7  -8   -0.42    0.51
 -19  -7   8    1.69    0.72
  19  -7  -8    0.48    0.93
  19   7  -8    0.95    0.67
  17  -7  -8    0.31    0.87
 -17  -7   8    0.61    0.57
 -17  -7   8   -0.12    0.44
  17   7  -8    1.60    0.70
 -15  -7   8   -0.10    0.41
  15  -7  -8   -0.22    0.67
 -15  -7   8    1.03    0.63
  15   7  -8    0.50    0.60
 -13  -7   8    1.38    0.68
  13  -7  -8    0.66    0.76
 -13  -7   8    1.03    0.69
  13   7  -8    2.66    0.84
  11  -7  -8    0.93    0.75
 -11  -7   8   -0.01    0.44
 -11  -7   8   -0.27    0.41
  11   7  -8    1.02    0.63
   9  -7  -8    0.08    0.74
  -9  -7   8    0.42    0.49
  -9  -7   8    0.02    0.50
   9   7  -8    0.10    0.51
   7  -7  -8   -0.21    0.68
   7  -7  -8   -0.07    0.48
  -7  -7   8    0.38    0.56
  -7  -7   8    0.95    0.61
   7   7  -8    1.55    0.75
  -5  -7   8    0.66    0.54
  -5  -7   8   -0.19    0.41
   5  -7  -8    0.39    0.57
   5  -7  -8    0.03    0.63
   5   7  -8   -0.11    0.42
   3  -7  -8    0.27    0.48
  -3  -7   8   -0.04    0.47
   3  -7  -8   -0.02    0.60
  -3  -7   8   -0.19    0.45
   1  -7  -8    0.90    0.63
  -1  -7   8    1.11    0.69
  -1  -7   8    1.12    0.63
   1  -7  -8   -0.10    0.66
  -1  -7  -8    1.01    0.69
  -1  -7  -8    2.53    0.84
   1  -7   8    1.04    0.61
   1  -7   8    0.35    0.51
   3  -7   8    0.36    0.54
  -3  -7  -8   -0.19    0.42
   3  -7   8   -0.12    0.44
   5  -7   8    0.14    0.54
   5  -7   8    1.64    0.81
  -5  -7  -8    1.07    0.65
   7  -7   8    0.26    0.57
  -7  -7  -8   -0.24    0.49
   9  -7   8    1.87    0.80
  -9  -7  -8    2.95    0.96
 -11  -7  -8    1.30    0.70
  11  -7   8    0.03    0.55
 -13  -7  -8   -0.23    0.43
  13  -7   8   -0.89    0.47
  15  -7   8    0.38    0.58
 -15  -7  -8    0.59    0.60
 -17  -7  -8   -0.18    0.52
  17  -7   8    1.43    0.73
  19  -7   8   -0.58    0.52
 -19  -7  -8   -0.54    0.38
  24  -8  -8   -0.23    1.02
 -24  -8   8    0.13    0.52
  24   8  -8    1.26    0.78
  22  -8  -8   -0.56    0.91
 -22  -8   8    0.62    0.70
  22   8  -8    0.84    0.68
 -20  -8   8    0.53    0.70
  20  -8  -8   -0.60    0.92
 -20  -8   8    0.16    0.54
  20   8  -8    0.17    0.66
 -18  -8   8    0.37    0.60
  18  -8  -8   -0.71    0.83
 -18  -8   8   -0.19    0.54
  18   8  -8   -0.10    0.55
 -16  -8   8   -0.05    0.56
 -16  -8   8    0.61    0.58
  16  -8  -8    0.64    0.97
  16   8  -8   -0.26    0.49
  14  -8  -8   -0.95    0.65
 -14  -8   8    0.49    0.62
 -14  -8   8    0.11    0.54
  14   8  -8   -0.41    0.47
  12  -8  -8    0.46    0.74
 -12  -8   8    0.66    0.56
 -12  -8   8    0.65    0.58
  10  -8  -8    0.34    0.79
 -10  -8   8    1.32    0.70
 -10  -8   8    0.94    0.65
   8  -8  -8   -0.95    0.66
   8  -8  -8   -0.32    0.50
  -8  -8   8    0.88    0.64
  -8  -8   8    0.68    0.59
   6  -8  -8    0.13    0.70
  -6  -8   8    0.15    0.53
  -6  -8   8   -0.18    0.46
   6  -8  -8   -0.24    0.46
   4  -8  -8    0.02    0.65
   4  -8  -8    0.44    0.58
  -4  -8   8   -0.38    0.41
  -2  -8   8    0.44    0.69
   2  -8  -8    1.50    0.84
  -2  -8   8    0.70    0.61
   2  -8  -8   -0.22    0.65
   0  -8  -8    0.00    0.55
   0  -8   8    0.63    0.69
   0  -8   8    2.39    0.79
  -2  -8  -8    0.20    0.55
   2  -8   8   -0.07    0.72
   2  -8   8    0.09    0.60
   4  -8   8   -0.37    0.55
  -4  -8  -8   -0.37    0.49
   6  -8   8    0.02    0.53
  -6  -8  -8    0.90    0.74
   8  -8   8   -0.35    0.59
  -8  -8  -8   -0.82    0.48
  10  -8   8    1.21    0.79
 -10  -8  -8    0.24    0.62
  12  -8   8    0.12    0.60
 -12  -8  -8   -0.10    0.59
 -14  -8  -8   -0.03    0.52
  14  -8   8    1.13    0.75
  17  -9  -8    0.20    0.96
 -17  -9   8    0.09    0.62
 -17  -9   8   -0.07    0.58
 -15  -9   8   -0.10    0.56
  15  -9  -8   -1.23    0.83
 -15  -9   8    0.30    0.66
 -13  -9   8    0.70    0.67
 -13  -9   8    0.17    0.51
  13  -9  -8   -0.08    0.85
 -11  -9   8    2.07    0.85
  11  -9  -8   -0.90    0.72
 -11  -9   8    0.98    0.60
  11  -9  -8   -0.50    0.45
  -9  -9   8    0.57    0.61
   9  -9  -8   -0.56    0.75
   9  -9  -8    0.09    0.66
  -9  -9   8    0.04    0.54
   7  -9  -8   -1.06    0.68
   7  -9  -8    0.25    0.64
  -7  -9   8    0.35    0.67
  -7  -9   8    0.32    0.55
   5  -9  -8    0.04    0.73
   5  -9  -8    0.76    0.71
  -5  -9   8    0.00    0.63
  -5  -9   8    0.26    0.56
   3  -9  -8   -0.42    0.71
  -3  -9   8    0.70    0.62
  -3  -9   8   -0.73    0.55
   3  -9  -8    0.33    0.65
   1  -9  -8    0.83    0.70
  -1  -9   8    0.70    0.70
  -1  -9  -8    0.12    0.57
   1  -9   8    0.31    0.59
   3  -9   8   -0.44    0.61
  -3  -9  -8    0.89    0.72
  -5  -9  -8    0.01    0.52
   5  -9   8    0.16    0.67
  -7  -9  -8   -0.18    0.56
   7  -9   8   -0.39    0.61
  38   0  -9    1.21    0.70
  36   0  -9    2.01    0.81
  34   0  -9   -0.04    0.56
 -34   0   9   -0.13    0.52
  32   0  -9   -0.17    0.56
 -32   0   9    0.03    0.50
 -30   0   9   -0.25    0.43
  30   0  -9    0.84    0.59
 -28   0   9    0.00    0.49
  28   0  -9   -0.42    0.52
 -26   0   9   -0.38    0.39
  26   0  -9   -0.57    0.43
  24   0  -9   -0.01    0.56
 -24   0   9    0.23    0.47
 -22   0   9   -0.24    0.30
  22   0  -9    0.75    0.64
  20   0  -9   -0.01    0.59
 -20   0   9   -0.47    0.29
  18   0  -9   -0.60    0.42
 -18   0   9    0.23    0.45
 -16   0   9    0.26    0.40
  16   0  -9    0.51    0.55
  14   0  -9    0.67    0.57
 -14   0   9    0.11    0.34
  12   0  -9   -0.09    0.53
 -12   0   9    0.08    0.41
  10   0  -9    0.22    0.34
 -10   0   9    0.11    0.39
  10   0  -9   -0.43    0.50
   8   0  -9    0.05    0.34
   8   0  -9   -0.38    0.45
  -8   0   9    0.02    0.40
  -6   0   9    0.31    0.45
   6   0  -9   -0.37    0.30
   6   0  -9    0.14    0.53
   4   0  -9   -0.04    0.47
  -4   0   9    0.12    0.40
   4   0  -9   -0.63    0.28
   2   0  -9   -0.49    0.27
   2   0  -9   -0.48    0.31
  -2   0   9   -0.08    0.35
   0   0  -9   -0.32    0.39
   0   0   9   -0.23    0.36
   0   0  -9   -0.24    0.32
   2   0   9    0.14    0.39
  -2   0  -9   -0.04    0.41
  -2   0  -9    0.05    0.34
  -4   0  -9   -0.30    0.40
   4   0   9   -0.22    0.45
  -4   0  -9   -0.26    0.31
   6   0   9   -0.18    0.40
  -6   0  -9    0.13    0.40
  -6   0  -9   -0.23    0.32
  -8   0  -9    0.05    0.42
  -8   0  -9   -0.04    0.34
 -10   0  -9   -0.08    0.42
 -10   0  -9    0.09    0.31
 -12   0  -9    0.54    0.47
 -12   0  -9    0.26    0.34
 -14   0  -9   -0.42    0.27
 -16   0  -9    0.08    0.33
 -18   0  -9    0.02    0.31
 -20   0  -9   -0.30    0.31
 -22   0  -9   -0.15    0.35
 -24   0  -9    0.31    0.42
 -26   0  -9   -0.01    0.42
 -37  -1   9    0.03    0.56
  37  -1  -9   -0.01    0.62
  37   1  -9    0.92    0.61
  35  -1  -9    0.33    0.69
 -35  -1   9    0.08    0.54
  35   1  -9    1.40    0.69
  33  -1  -9    0.50    0.67
 -33  -1   9    0.12    0.53
  33   1  -9    0.61    0.61
  31  -1  -9    0.42    0.65
 -31  -1   9   -0.37    0.43
 -31   1   9   -0.29    0.39
  31   1  -9    1.19    0.63
  29  -1  -9    0.35    0.67
 -29  -1   9    1.12    0.68
 -29   1   9    0.44    0.51
  29   1  -9    0.83    0.61
 -27  -1   9    0.93    0.63
  27  -1  -9    0.60    0.71
  27   1  -9    0.21    0.56
 -27   1   9    0.57    0.56
  25  -1  -9    0.49    0.67
 -25  -1   9   -0.13    0.45
  25   1  -9   -0.33    0.41
 -25   1   9   -0.18    0.40
  23  -1  -9    0.40    0.59
 -23  -1   9    0.28    0.47
  23   1  -9    0.67    0.59
 -23   1   9    0.09    0.41
  21  -1  -9    0.65    0.71
 -21  -1   9    0.79    0.56
 -21   1   9    0.64    0.44
  21   1  -9    1.45    0.64
  19  -1  -9    0.61    0.61
 -19  -1   9    0.97    0.60
 -19   1   9    0.69    0.51
  19   1  -9    0.95    0.70
 -17  -1   9    0.01    0.40
  17  -1  -9   -0.35    0.54
  17   1  -9    0.06    0.54
 -17   1   9   -0.10    0.43
  15  -1  -9    0.52    0.62
 -15  -1   9    0.13    0.35
  15   1  -9   -0.54    0.42
 -15   1   9    0.91    0.52
 -13  -1   9    0.83    0.50
  13  -1  -9    1.27    0.68
 -13   1   9    2.38    0.69
  13   1  -9    1.42    0.68
  13   1  -9    1.52    0.50
 -11  -1   9   11.51    1.46
  11  -1  -9    9.85    1.34
  11   1  -9   10.89    1.16
  11   1  -9   13.09    1.57
 -11   1   9   10.83    1.40
  -9  -1   9    0.09    0.42
   9  -1  -9    0.06    0.37
   9  -1  -9    0.25    0.62
   9   1  -9    0.09    0.47
   9   1  -9    0.26    0.35
  -9   1   9   -0.03    0.36
  -7  -1   9   10.12    1.35
   7  -1  -9   11.65    1.42
   7  -1  -9   13.10    1.38
   7   1  -9   15.16    1.34
  -7   1   9   13.56    1.48
   7   1  -9   12.27    1.47
   5  -1  -9    2.50    0.77
  -5  -1   9    2.10    0.68
   5  -1  -9    2.94    0.71
  -5   1   9    1.78    0.67
   5   1  -9    2.59    0.58
   5   1  -9    1.36    0.65
   3  -1  -9   10.45    1.27
   3  -1  -9    7.57    1.16
  -3  -1   9    9.10    1.30
   3   1  -9   12.03    1.43
  -3   1   9    9.59    1.29
   3   1  -9   10.11    1.07
  -1  -1   9   -0.17    0.44
   1  -1  -9    0.56    0.52
   1  -1  -9    0.71    0.47
  -1   1   9    0.25    0.44
   1   1  -9    1.03    0.42
   1   1  -9    0.62    0.48
  -1  -1  -9   -0.22    0.42
   1  -1   9    0.45    0.43
  -1  -1  -9    0.31    0.39
  -1   1  -9    0.28    0.44
   1   1   9    0.60    0.50
  -1   1  -9    0.97    0.41
  -3  -1  -9    2.69    0.70
  -3  -1  -9    5.49    0.92
   3  -1   9    5.39    1.03
   3   1   9    3.22    0.81
  -3   1  -9    4.20    0.88
  -3   1  -9    5.05    0.74
  -5  -1  -9    0.10    0.41
  -5  -1  -9    0.83    0.48
   5  -1   9   -0.46    0.38
  -5   1  -9    0.20    0.30
  -5   1  -9    0.31    0.44
  -7  -1  -9    0.23    0.41
   7  -1   9    0.58    0.48
  -7  -1  -9    0.41    0.40
  -7   1  -9   -0.55    0.35
  -7   1  -9    0.13    0.30
   9  -1   9    1.62    0.68
  -9  -1  -9    2.37    0.68
  -9  -1  -9    2.01    0.57
   9  -1   9    2.38    0.50
  -9   1  -9    2.42    0.71
  -9   1  -9    1.59    0.48
  11  -1   9    5.86    0.70
 -11  -1  -9    5.52    0.94
 -11  -1  -9    6.35    0.92
 -11   1  -9    6.33    0.82
 -11   1  -9    5.97    1.04
 -13  -1  -9    0.68    0.44
  13  -1   9    0.23    0.34
 -13   1  -9    0.73    0.40
 -13   1  -9    1.50    0.61
 -15  -1  -9    0.15    0.34
  15  -1   9    0.42    0.39
 -15   1  -9   -0.06    0.31
 -15   1  -9   -0.06    0.53
 -17  -1  -9    0.06    0.33
  17  -1   9   -1.05    0.33
 -17   1  -9   -0.31    0.30
  19  -1   9    0.62    0.47
 -19  -1  -9    0.38    0.39
 -19   1  -9    0.81    0.41
  21  -1   9   -0.49    0.46
 -21  -1  -9    0.36    0.41
 -21   1  -9   -0.15    0.34
  23  -1   9    0.60    0.55
 -23  -1  -9    0.04    0.37
 -23   1  -9    0.76    0.47
 -25  -1  -9    1.52    0.59
  25  -1   9    2.18    0.76
 -25   1  -9    2.41    0.63
  27  -1   9   -0.95    0.58
 -27  -1  -9    0.16    0.43
 -27   1  -9    0.16    0.46
  38  -2  -9    1.32    0.78
 -38  -2   9    0.29    0.68
 -36  -2   9    0.73    0.70
  36  -2  -9    0.40    0.80
  36   2  -9    1.33    0.66
  34  -2  -9   -0.59    0.63
 -34  -2   9    0.00    0.58
  34   2  -9    1.12    0.65
  32  -2  -9   -0.35    0.61
 -32  -2   9   -0.50    0.48
  32   2  -9    0.92    0.67
 -30  -2   9    0.43    0.58
  30  -2  -9    1.48    0.88
  30   2  -9    0.37    0.56
  28  -2  -9    1.24    0.82
 -28  -2   9    1.13    0.69
 -28   2   9    1.65    0.65
  28   2  -9    1.49    0.73
 -26  -2   9    0.27    0.43
  26  -2  -9    0.44    0.79
  26   2  -9    0.33    0.51
 -26   2   9    0.05    0.46
 -24  -2   9   -0.38    0.33
  24  -2  -9   -0.50    0.60
  24   2  -9    0.03    0.53
 -24   2   9   -0.06    0.42
 -22  -2   9    0.47    0.52
  22  -2  -9    0.80    0.78
  22   2  -9    0.49    0.57
 -22   2   9   -0.20    0.41
 -20  -2   9    0.12    0.41
  20  -2  -9    0.13    0.65
  20   2  -9    0.50    0.51
 -20   2   9    0.07    0.41
  18  -2  -9    0.14    0.69
 -18  -2   9    0.57    0.44
 -18   2   9    0.31    0.45
  18   2  -9    0.55    0.51
 -16  -2   9    2.64    0.74
  16  -2  -9    1.89    0.80
  16   2  -9    2.58    0.76
 -16   2   9    1.01    0.58
 -14  -2   9    0.37    0.47
  14  -2  -9   -0.02    0.57
  14   2  -9    0.31    0.49
 -14   2   9    0.83    0.50
  12  -2  -9    2.05    0.82
  12   2  -9    2.37    0.76
 -12   2   9    1.42    0.58
 -10  -2   9    0.74    0.54
  10  -2  -9    0.63    0.67
 -10   2   9    0.96    0.54
  10   2  -9    0.34    0.43
  10   2  -9    0.69    0.43
   8  -2  -9   -0.35    0.52
   8  -2  -9   -0.31    0.37
  -8  -2   9    0.63    0.50
   8   2  -9    0.07    0.43
   8   2  -9    0.04    0.27
  -8   2   9    0.19    0.46
   6  -2  -9    9.07    1.27
  -6  -2   9    8.35    1.23
   6  -2  -9    8.28    1.23
   6   2  -9    8.39    0.87
   6   2  -9   11.16    1.39
  -6   2   9   10.25    1.35
  -4  -2   9    0.03    0.40
   4  -2  -9    0.02    0.39
   4  -2  -9   -0.09    0.48
  -4  -2   9   -0.12    0.29
   4   2  -9    0.32    0.31
   4   2  -9   -0.14    0.46
  -4   2   9    0.11    0.44
  -2  -2   9    3.12    0.55
   2  -2  -9    3.37    0.82
  -2  -2   9    3.24    0.82
   2  -2  -9    3.17    0.73
   2   2  -9    4.52    0.64
   2   2  -9    4.83    0.97
  -2   2   9    4.60    0.98
   0  -2   9    0.31    0.42
   0  -2  -9   -0.03    0.40
   0  -2  -9    0.08    0.46
   0  -2   9    0.12    0.28
   0   2   9    0.11    0.38
   0   2  -9    0.10    0.28
   0   2  -9    0.08    0.38
  -2  -2  -9    0.34    0.44
   2  -2   9    0.24    0.28
   2  -2   9    0.49    0.48
  -2  -2  -9    0.20    0.45
  -2   2  -9    0.16    0.27
  -2   2  -9    0.79    0.53
   4  -2   9    7.37    1.19
  -4  -2  -9    6.13    0.98
   4  -2   9    6.07    0.72
  -4  -2  -9    4.27    0.90
  -4   2  -9    6.59    1.09
  -4   2  -9    6.46    0.77
   6  -2   9    6.94    1.09
  -6  -2  -9    5.06    0.89
   6  -2   9    4.57    0.66
  -6  -2  -9    4.41    0.85
  -6   2  -9    4.48    0.96
  -6   2  -9    4.73    0.66
  -8  -2  -9    0.30    0.43
   8  -2   9    0.25    0.46
   8  -2   9   -0.34    0.24
  -8  -2  -9   -0.51    0.34
  -8   2  -9   -0.09    0.24
  -8   2  -9    0.10    0.40
 -10  -2  -9    1.38    0.63
  10  -2   9    0.67    0.35
  10  -2   9    0.92    0.60
 -10   2  -9    1.46    0.65
 -10   2  -9    1.24    0.40
  12  -2   9    0.18    0.31
 -12  -2  -9    0.23    0.42
 -12   2  -9   -0.03    0.26
 -12   2  -9    0.25    0.48
 -14  -2  -9    3.77    0.78
  14  -2   9    3.12    0.60
 -14   2  -9    4.14    0.92
 -14   2  -9    3.79    0.66
 -16  -2  -9    1.02    0.52
  16  -2   9    1.37    0.49
 -16   2  -9    1.91    0.50
 -18  -2  -9    1.54    0.60
  18  -2   9    0.96    0.50
 -18   2  -9    2.08    0.51
 -20  -2  -9    0.27    0.42
  20  -2   9   -0.36    0.38
 -20   2  -9    0.56    0.41
 -22  -2  -9    0.20    0.44
  22  -2   9   -0.77    0.43
 -22   2  -9    0.24    0.39
  24  -2   9   -0.28    0.53
 -24  -2  -9    0.83    0.54
 -24   2  -9    0.41    0.42
  26  -2   9   -0.69    0.58
 -26  -2  -9    0.23    0.49
 -26   2  -9    0.31    0.45
  37  -3  -9    0.21    0.90
 -37  -3   9   -0.09    0.61
 -35  -3   9   -0.04    0.50
  35  -3  -9    0.28    0.82
  35   3  -9    1.07    0.62
  33  -3  -9   -0.18    0.66
 -33  -3   9   -0.06    0.57
  33   3  -9    0.47    0.59
 -31  -3   9    0.03    0.48
  31  -3  -9    0.56    0.70
  31   3  -9   -0.02    0.55
  29  -3  -9   -0.01    0.80
 -29  -3   9    0.15    0.48
  29   3  -9   -0.01    0.57
  27  -3  -9    0.44    0.84
 -27  -3   9    1.50    0.68
  27   3  -9    1.07    0.66
  25  -3  -9    1.02    0.86
 -25  -3   9    0.33    0.51
  25   3  -9    0.10    0.44
 -25   3   9    0.55    0.50
  23  -3  -9    1.61    0.94
 -23  -3   9    0.95    0.58
 -23   3   9    0.88    0.52
  23   3  -9    0.83    0.57
 -21  -3   9    0.77    0.52
  21  -3  -9    0.04    0.63
 -21   3   9    0.79    0.49
  21   3  -9    1.27    0.67
 -19  -3   9    0.72    0.52
  19  -3  -9    0.66    0.67
 -19   3   9    2.11    0.67
  19   3  -9    0.80    0.59
 -17  -3   9    0.35    0.48
  17  -3  -9    0.09    0.64
  17   3  -9    1.06    0.60
 -17   3   9    0.81    0.51
 -15  -3   9    0.34    0.46
  15  -3  -9    1.24    0.82
 -15  -3   9    0.48    0.36
  15   3  -9    0.98    0.64
 -15   3   9    0.10    0.44
  13  -3  -9   -0.02    0.70
 -13  -3   9    0.24    0.45
 -13  -3   9    0.20    0.39
 -13   3   9    0.00    0.43
  13   3  -9    0.38    0.48
  11  -3  -9    2.46    0.81
 -11  -3   9    2.27    0.61
 -11  -3   9    2.82    0.75
  11   3  -9    2.33    0.74
 -11   3   9    2.10    0.67
   9  -3  -9    1.61    0.75
   9  -3  -9   -0.09    0.33
  -9  -3   9   -0.14    0.36
  -9  -3   9   -0.44    0.35
   9   3  -9    0.04    0.44
  -9   3   9   -0.21    0.38
   7  -3  -9    0.08    0.58
   7  -3  -9    0.21    0.45
  -7  -3   9    0.56    0.42
  -7  -3   9    0.78    0.51
  -7   3   9    0.12    0.44
   7   3  -9    1.50    0.63
  -5  -3   9    1.17    0.55
  -5  -3   9    1.63    0.50
   5  -3  -9    1.75    0.70
   5  -3  -9    1.86    0.66
   5   3  -9    2.12    0.72
  -3  -3   9    6.73    0.88
   3  -3  -9    6.78    1.05
   3  -3  -9    8.29    1.18
  -3  -3   9    6.15    1.05
   3   3  -9    7.69    1.18
  -1  -3   9    6.63    1.14
   1  -3  -9    6.25    0.99
   1  -3  -9    5.05    0.96
  -1  -3   9    4.96    0.77
   1   3  -9    6.39    1.15
  -1  -3  -9    0.00    0.44
   1  -3   9    0.16    0.39
  -1  -3  -9    1.08    0.54
   1  -3   9    0.24    0.34
  -1   3  -9    0.48    0.49
  -3  -3  -9    2.82    0.75
   3  -3   9    1.92    0.64
  -3  -3  -9    1.99    0.60
   3  -3   9    1.90    0.50
  -3   3  -9    2.09    0.59
  -3   3  -9    1.66    0.65
  -5  -3  -9    1.68    0.61
  -5  -3  -9    1.93    0.63
   5  -3   9    2.16    0.73
  -5   3  -9    1.14    0.35
  -5   3  -9    1.06    0.57
   7  -3   9    0.66    0.59
  -7  -3  -9    1.96    0.68
  -7  -3  -9    0.88    0.49
   7  -3   9    0.65    0.41
  -7   3  -9    1.09    0.65
  -7   3  -9    1.43    0.37
   9  -3   9    1.27    0.71
  -9  -3  -9    0.47    0.51
   9  -3   9    0.71    0.39
  -9   3  -9    0.96    0.55
  -9   3  -9    0.65    0.32
  11  -3   9    1.16    0.68
 -11  -3  -9    1.53    0.65
  11  -3   9    0.68    0.43
 -11   3  -9    1.18    0.62
 -11   3  -9    1.25    0.41
  13  -3   9    0.04    0.49
  13  -3   9    0.12    0.37
 -13  -3  -9    0.12    0.36
 -13   3  -9    0.14    0.30
 -15  -3  -9    2.23    0.73
  15  -3   9    1.72    0.52
 -15   3  -9    1.58    0.46
  17  -3   9    0.31    0.41
 -17  -3  -9   -0.10    0.39
 -17   3  -9    0.30    0.34
 -19  -3  -9   -0.01    0.41
  19  -3   9   -0.55    0.36
 -19   3  -9    0.14    0.35
 -21  -3  -9    0.54    0.50
  21  -3   9    0.13    0.47
 -21   3  -9    0.36    0.40
  23  -3   9   -1.14    0.36
 -23  -3  -9    0.14    0.52
 -23   3  -9    0.18    0.39
 -25  -3  -9    0.02    0.44
  25  -3   9    0.38    0.59
 -25   3  -9    0.24    0.44
  34  -4  -9    0.76    0.92
 -34  -4   9   -0.45    0.46
 -32  -4   9    0.27    0.65
  32  -4  -9   -0.09    0.81
  32   4  -9    0.63    0.70
  30  -4  -9    0.35    0.90
 -30  -4   9   -0.13    0.55
  30   4  -9    0.48    0.57
  28  -4  -9   -0.64    0.69
 -28  -4   9   -0.21    0.42
  28   4  -9    0.49    0.62
  26  -4  -9    1.22    0.98
 -26  -4   9    0.06    0.50
  26   4  -9    0.50    0.61
  24  -4  -9   -0.04    0.81
 -24  -4   9    0.96    0.59
  24   4  -9    0.46    0.62
 -22  -4   9    0.14    0.44
  22  -4  -9   -0.15    0.78
  22   4  -9   -0.08    0.50
 -22   4   9    0.98    0.73
  20  -4  -9    1.50    0.90
 -20  -4   9    1.34    0.69
 -20   4   9    0.74    0.55
  20   4  -9    0.99    0.56
 -18  -4   9    0.94    0.60
  18  -4  -9    0.99    0.87
  18   4  -9    0.59    0.58
 -18   4   9    0.57    0.49
 -16  -4   9   -0.11    0.37
  16  -4  -9    0.78    0.75
 -16  -4   9   -0.30    0.40
 -16   4   9    1.56    0.61
  16   4  -9    0.33    0.49
 -14  -4   9   -0.39    0.33
 -14  -4   9    0.31    0.41
  14  -4  -9    1.66    0.92
 -14   4   9   -0.26    0.40
  14   4  -9    0.41    0.54
 -12  -4   9    1.86    0.67
 -12  -4   9    1.90    0.63
  12  -4  -9    2.06    0.88
  12   4  -9    1.60    0.68
 -10  -4   9    0.10    0.41
  10  -4  -9    0.10    0.67
 -10  -4   9    0.21    0.48
  10   4  -9    0.70    0.55
  -8  -4   9   -0.12    0.35
   8  -4  -9    0.32    0.66
   8  -4  -9    0.01    0.45
  -8  -4   9    0.00    0.40
   8   4  -9    0.30    0.45
   6  -4  -9    0.78    0.59
  -6  -4   9   -0.24    0.43
  -6  -4   9    0.45    0.47
   6  -4  -9   -0.46    0.35
   6   4  -9    0.87    0.52
   4  -4  -9    0.52    0.46
  -4  -4   9    0.12    0.41
   4  -4  -9    0.90    0.61
  -4  -4   9    0.45    0.42
   4   4  -9    0.15    0.44
   2  -4  -9    1.76    0.73
   2  -4  -9    2.70    0.78
  -2  -4   9    1.90    0.61
  -2  -4   9    2.81    0.77
   2   4  -9    3.12    0.88
   0  -4   9   -0.19    0.41
   0  -4  -9   -0.23    0.36
   0  -4   9   -0.20    0.34
   0  -4  -9   -0.02    0.46
   0   4  -9   -0.06    0.40
  -2  -4  -9    4.68    0.83
  -2  -4  -9    5.83    1.08
   2  -4   9    4.61    0.85
   2  -4   9    4.49    1.00
  -2   4  -9    8.16    1.28
   4  -4   9   -0.22    0.32
  -4  -4  -9    0.31    0.44
  -4  -4  -9   -0.41    0.43
   4  -4   9   -0.14    0.45
  -4   4  -9   -0.42    0.40
  -6  -4  -9    0.51    0.48
   6  -4   9   -0.07    0.41
   6  -4   9   -0.29    0.32
  -6   4  -9    0.52    0.49
   8  -4   9    0.25    0.47
  -8  -4  -9    0.80    0.53
   8  -4   9    0.71    0.43
  -8   4  -9    0.86    0.58
  10  -4   9   -0.08    0.50
 -10  -4  -9    0.09    0.46
  10  -4   9    0.50    0.42
 -10   4  -9    0.24    0.55
  12  -4   9   -0.18    0.48
 -12  -4  -9    0.66    0.58
  12  -4   9    0.73    0.45
  14  -4   9   -0.35    0.35
  14  -4   9    0.87    0.62
 -14  -4  -9    0.20    0.44
  16  -4   9    0.92    0.50
 -16  -4  -9    1.27    0.66
  18  -4   9    0.12    0.43
 -18  -4  -9    0.38    0.52
  20  -4   9   -0.41    0.37
 -20  -4  -9    0.27    0.48
 -22  -4  -9    0.45    0.55
  22  -4   9    0.35    0.53
 -22   4  -9    0.56    0.47
  24  -4   9   -0.34    0.51
  33  -5  -9    0.41    1.09
 -33  -5   9    0.02    0.62
 -31  -5   9   -0.77    0.38
  31  -5  -9    0.19    0.91
  31   5  -9    0.66    0.66
  29  -5  -9   -0.86    0.74
 -29  -5   9    0.41    0.58
  29   5  -9    0.09    0.56
  27  -5  -9   -0.84    0.89
 -27  -5   9    0.57    0.65
  27   5  -9    0.07    0.62
  25  -5  -9   -0.19    0.71
 -25  -5   9   -0.18    0.41
  25   5  -9    0.13    0.58
  23  -5  -9   -0.63    0.85
 -23  -5   9   -0.23    0.39
  23   5  -9    0.72    0.66
  21  -5  -9   -1.06    0.69
 -21  -5   9    0.26    0.49
  21   5  -9    0.19    0.51
 -19  -5   9    0.77    0.58
  19  -5  -9    0.28    0.91
  19   5  -9    2.26    0.81
  17  -5  -9    2.14    0.94
 -17  -5   9    1.45    0.60
 -17  -5   9    1.23    0.65
  17   5  -9    2.77    0.83
  15  -5  -9    0.48    0.77
 -15  -5   9    0.09    0.50
 -15  -5   9    0.20    0.49
  15   5  -9    0.11    0.52
  13  -5  -9   -1.05    0.67
 -13  -5   9    0.31    0.49
 -13  -5   9    0.72    0.54
  13   5  -9   -0.10    0.49
 -11  -5   9    0.96    0.60
 -11  -5   9    1.09    0.58
  11  -5  -9    0.45    0.79
  11   5  -9    0.83    0.63
   9  -5  -9    1.60    0.86
  -9  -5   9    2.45    0.72
   9  -5  -9    2.57    0.84
  -9  -5   9    2.81    0.84
   9   5  -9    2.04    0.79
   7  -5  -9    0.06    0.49
   7  -5  -9    0.88    0.74
  -7  -5   9    1.09    0.60
  -7  -5   9    0.36    0.53
   7   5  -9    0.05    0.47
   5  -5  -9    0.21    0.58
  -5  -5   9    0.30    0.52
  -5  -5   9   -0.03    0.40
   5  -5  -9    0.30    0.43
   5   5  -9   -0.11    0.39
  -3  -5   9    0.51    0.49
   3  -5  -9    0.32    0.59
   3  -5  -9    0.34    0.46
  -3  -5   9    1.21    0.58
   3   5  -9    0.19    0.51
   1  -5  -9   -0.51    0.53
   1  -5  -9    0.53    0.50
  -1  -5   9   -0.03    0.46
  -1  -5   9   -0.33    0.43
   1   5  -9    0.04    0.49
  -1  -5  -9    0.90    0.58
  -1  -5  -9   -0.01    0.42
   1  -5   9   -0.52    0.43
   1  -5   9   -0.28    0.44
  -1   5  -9   -0.46    0.42
   3  -5   9    3.10    0.81
   3  -5   9    3.26    0.85
  -3  -5  -9    3.07    0.77
  -3  -5  -9    1.46    0.64
  -3   5  -9    4.86    1.10
   5  -5   9    0.52    0.54
   5  -5   9    1.08    0.54
  -5  -5  -9    0.64    0.55
  -5   5  -9    0.44    0.58
   7  -5   9   -0.46    0.36
  -7  -5  -9   -0.40    0.36
   7  -5   9   -0.02    0.49
   9  -5   9   -0.09    0.45
   9  -5   9   -0.39    0.38
  -9  -5  -9    0.16    0.50
 -11  -5  -9    0.23    0.55
  11  -5   9   -0.05    0.52
  11  -5   9    0.54    0.50
  13  -5   9    0.32    0.48
 -13  -5  -9    0.16    0.46
  15  -5   9    0.41    0.48
 -15  -5  -9   -0.21    0.46
 -17  -5  -9    0.09    0.56
  17  -5   9   -0.34    0.47
  19  -5   9    0.15    0.52
 -19  -5  -9    0.93    0.61
  21  -5   9    0.31    0.54
 -21  -5  -9    0.86    0.63
  30  -6  -9   -0.83    0.97
 -30  -6   9   -0.16    0.62
  28  -6  -9   -0.03    1.04
 -28  -6   9   -0.53    0.49
  28   6  -9    0.10    0.63
  26  -6  -9   -0.04    0.99
 -26  -6   9   -0.66    0.52
  26   6  -9    0.00    0.56
 -24  -6   9    0.57    0.59
  24  -6  -9   -1.05    0.86
  24   6  -9   -0.11    0.56
  22  -6  -9    0.05    0.94
 -22  -6   9    0.33    0.51
  22   6  -9   -0.22    0.60
  20  -6  -9   -0.28    0.92
 -20  -6   9    0.39    0.57
  20   6  -9   -0.19    0.51
 -18  -6   9    0.09    0.49
  18  -6  -9   -0.42    0.85
 -18  -6   9    0.11    0.53
  18   6  -9    0.94    0.63
 -16  -6   9   -0.09    0.48
  16  -6  -9    1.36    0.98
 -16  -6   9   -0.06    0.46
  16   6  -9    0.17    0.48
 -14  -6   9    1.20    0.67
  14  -6  -9    1.17    0.91
 -14  -6   9    1.53    0.74
  14   6  -9    1.33    0.68
 -12  -6   9    0.33    0.47
 -12  -6   9   -0.31    0.39
  12  -6  -9   -0.73    0.67
  12   6  -9    0.53    0.61
 -10  -6   9    1.65    0.68
  10  -6  -9    0.54    0.77
 -10  -6   9    1.15    0.62
  10   6  -9    1.28    0.66
  -8  -6   9   -0.53    0.44
   8  -6  -9   -0.56    0.65
  -8  -6   9   -0.58    0.43
   8  -6  -9   -0.30    0.50
   8   6  -9    0.12    0.54
  -6  -6   9    1.41    0.70
  -6  -6   9    0.73    0.63
   6  -6  -9    2.55    0.90
   6  -6  -9    2.26    0.85
   6   6  -9    3.95    0.99
   4  -6  -9    0.47    0.70
  -4  -6   9    0.18    0.52
   4  -6  -9    0.32    0.51
  -4  -6   9   -0.45    0.42
   4   6  -9    0.15    0.46
  -2  -6   9    0.04    0.48
   2  -6  -9    0.16    0.63
   2  -6  -9    0.00    0.54
  -2  -6   9    0.45    0.51
   2   6  -9    0.87    0.60
   0  -6  -9    1.67    0.67
   0  -6  -9   -0.21    0.57
   0  -6   9    1.81    0.70
   0  -6   9    1.36    0.65
   0   6  -9    0.35    0.59
  -2  -6  -9    0.24    0.49
   2  -6   9   -0.17    0.45
   2  -6   9   -0.32    0.44
  -2   6  -9    0.47    0.52
   4  -6   9    2.24    0.79
   4  -6   9    1.87    0.72
  -4  -6  -9    1.82    0.85
   6  -6   9    0.19    0.52
   6  -6   9    0.76    0.56
  -6  -6  -9   -0.23    0.43
  -8  -6  -9    0.77    0.67
   8  -6   9   -0.10    0.49
   8  -6   9   -0.01    0.43
 -10  -6  -9    0.75    0.68
  10  -6   9   -0.09    0.47
  12  -6   9    1.03    0.61
 -12  -6  -9    0.60    0.61
  14  -6   9    0.13    0.49
 -14  -6  -9    0.19    0.50
  16  -6   9   -0.13    0.47
 -16  -6  -9    0.42    0.61
 -18  -6  -9    1.28    0.73
  18  -6   9   -0.39    0.51
  25  -7  -9   -1.59    0.88
 -25  -7   9   -0.46    0.52
  25   7  -9   -0.22    0.59
 -23  -7   9    0.16    0.57
  23  -7  -9   -0.55    0.83
  23   7  -9    0.06    0.59
 -21  -7   9    0.24    0.62
 -21  -7   9    0.54    0.59
  21  -7  -9   -1.03    0.79
  21   7  -9   -0.03    0.53
  19  -7  -9   -0.91    0.69
 -19  -7   9    0.33    0.54
 -19  -7   9   -0.09    0.46
  19   7  -9    0.84    0.67
 -17  -7   9   -0.08    0.53
  17  -7  -9   -1.30    0.82
 -17  -7   9    0.34    0.51
  17   7  -9    0.37    0.66
 -15  -7   9    0.32    0.59
 -15  -7   9    0.74    0.60
  15  -7  -9    0.40    0.85
  15   7  -9   -0.12    0.56
  13  -7  -9    0.04    0.89
 -13  -7   9    0.26    0.50
 -13  -7   9   -0.39    0.47
  13   7  -9    0.44    0.58
 -11  -7   9    1.01    0.58
  11  -7  -9   -0.50    0.73
 -11  -7   9    0.18    0.54
  11   7  -9    1.51    0.71
  -9  -7   9    1.18    0.69
  -9  -7   9    2.75    0.95
   9  -7  -9    0.28    0.81
   9  -7  -9   -0.03    0.59
   9   7  -9    0.41    0.58
   7  -7  -9   -1.08    0.59
  -7  -7   9   -0.07    0.56
   7  -7  -9    0.46    0.57
  -7  -7   9    0.06    0.50
   7   7  -9   -0.19    0.47
  -5  -7   9   -0.44    0.51
   5  -7  -9   -0.45    0.49
   5  -7  -9    0.02    0.69
  -5  -7   9   -0.04    0.47
   5   7  -9    0.32    0.50
   3  -7  -9    1.71    0.85
   3  -7  -9    0.72    0.68
  -3  -7   9    0.57    0.61
  -3  -7   9   -0.08    0.54
   3   7  -9    0.88    0.62
   1  -7  -9    0.25    0.63
  -1  -7   9    0.34    0.49
  -1  -7   9    0.40    0.55
   1  -7  -9    0.65    0.62
  -1  -7  -9    0.36    0.55
   1  -7   9    0.62    0.55
   1  -7   9    0.38    0.58
   3  -7   9   -0.01    0.58
   3  -7   9    0.47    0.62
  -3  -7  -9    1.17    0.73
   5  -7   9   -0.14    0.50
  -5  -7  -9   -0.11    0.59
  -7  -7  -9    0.30    0.55
   7  -7   9    1.96    0.79
   9  -7   9   -0.24    0.50
  -9  -7  -9    0.02    0.61
 -11  -7  -9    0.02    0.59
  11  -7   9   -0.09    0.54
 -13  -7  -9   -0.35    0.46
  13  -7   9    0.89    0.64
 -15  -7  -9    0.57    0.68
  15  -7   9    0.65    0.65
 -20  -8   9   -0.41    0.46
 -20  -8   9    0.16    0.58
  20  -8  -9   -0.46    1.00
  20   8  -9   -0.36    0.59
 -18  -8   9   -0.36    0.45
 -18  -8   9    0.48    0.65
  18  -8  -9   -0.63    0.82
  18   8  -9    0.60    0.68
 -16  -8   9   -0.06    0.57
  16  -8  -9   -1.10    0.78
 -16  -8   9   -0.55    0.49
  16   8  -9   -0.16    0.53
 -14  -8   9    0.91    0.66
 -14  -8   9   -0.27    0.53
  14  -8  -9    0.56    0.93
  14   8  -9    0.19    0.64
  12  -8  -9   -0.54    0.82
 -12  -8   9    0.16    0.57
 -12  -8   9    0.11    0.51
  12   8  -9    0.31    0.66
 -10  -8   9    0.29    0.56
 -10  -8   9    0.37    0.63
  10  -8  -9   -0.47    0.57
  10  -8  -9    0.09    0.84
   8  -8  -9    1.16    0.71
   8  -8  -9    0.45    0.83
  -8  -8   9   -0.53    0.49
  -8  -8   9    0.84    0.61
   6  -8  -9   -0.12    0.77
  -6  -8   9   -0.18    0.54
  -6  -8   9   -0.22    0.53
   6  -8  -9    0.50    0.63
  -4  -8   9    1.78    0.79
   4  -8  -9    0.26    0.62
  -4  -8   9    0.42    0.67
   4  -8  -9    0.60    0.80
  -2  -8   9    0.05    0.54
   2  -8  -9   -0.04    0.61
  -2  -8   9    0.99    0.74
   0  -8  -9   -0.62    0.57
   0  -8   9    0.49    0.61
   0  -8   9    0.22    0.62
   2  -8   9   -0.16    0.62
  -2  -8  -9    1.61    0.81
  -4  -8  -9   -0.26    0.59
   4  -8   9    0.06    0.62
  -6  -8  -9   -0.08    0.66
   6  -8   9   -0.42    0.59
   8  -8   9   -0.37    0.61
  -8  -8  -9   -0.63    0.53
  -7  -9   9   -0.04    0.56
  -7  -9   9    0.39    0.63
   7  -9  -9    0.02    0.52
   7  -9  -9   -0.22    0.84
   5  -9  -9    0.26    0.71
  -5  -9   9    0.25    0.64
  -5  -9   9   -0.23    0.52
   5  -9  -9   -0.57    0.76
  -3  -9   9    1.57    0.83
  36   0 -10    1.86    0.76
  34   0 -10    0.54    0.67
 -34   0  10   -0.14    0.52
 -32   0  10   -0.37    0.50
  32   0 -10    0.75    0.70
 -30   0  10    0.36    0.56
  30   0 -10    1.98    0.80
 -28   0  10    1.12    0.62
  28   0 -10    1.74    0.82
 -26   0  10    6.06    1.15
  26   0 -10    4.03    1.07
 -24   0  10    2.44    0.81
  24   0 -10    0.90    0.71
 -22   0  10   -0.03    0.48
  22   0 -10    0.46    0.57
  20   0 -10    0.92    0.65
 -20   0  10    0.10    0.44
 -18   0  10    0.90    0.56
  18   0 -10    1.34    0.67
 -16   0  10    0.67    0.55
  16   0 -10   -0.26    0.44
  14   0 -10    1.65    0.59
  14   0 -10    3.87    1.01
 -14   0  10    2.86    0.84
  12   0 -10    8.67    1.34
 -12   0  10    7.77    1.23
  12   0 -10    5.44    0.92
 -10   0  10   12.11    1.55
  10   0 -10   14.25    1.73
  10   0 -10    8.73    1.17
  -8   0  10   16.58    1.84
   8   0 -10   17.73    1.62
   8   0 -10   16.40    1.79
   6   0 -10    1.03    0.59
  -6   0  10    0.25    0.44
   6   0 -10    0.09    0.38
   4   0 -10    0.16    0.46
   4   0 -10   -0.27    0.32
  -4   0  10    0.28    0.49
   2   0 -10    0.00    0.46
   2   0 -10   -0.27    0.32
  -2   0  10    0.59    0.55
   0   0  10    1.20    0.59
   0   0 -10    0.95    0.62
   0   0 -10    1.13    0.50
  -2   0 -10    0.06    0.39
   2   0  10    0.69    0.57
  -2   0 -10    0.24    0.50
  -4   0 -10    0.41    0.39
   4   0  10   -0.47    0.44
  -4   0 -10   -0.23    0.43
  -6   0 -10    1.28    0.59
   6   0  10    0.64    0.66
  -6   0 -10    0.85    0.48
  -8   0 -10    6.16    0.92
  -8   0 -10    6.75    1.15
 -10   0 -10    0.01    0.37
 -10   0 -10    0.86    0.54
 -12   0 -10    0.04    0.38
 -14   0 -10    1.13    0.52
 -16   0 -10    0.17    0.41
 -18   0 -10    0.08    0.37
 -20   0 -10    1.19    0.53
 -22   0 -10    0.15    0.38
 -35  -1  10   -0.06    0.59
  35  -1 -10    0.39    0.68
  35   1 -10    0.73    0.64
 -33  -1  10   -0.51    0.47
  33  -1 -10    0.30    0.70
  33   1 -10    0.54    0.65
  31  -1 -10    1.08    0.68
 -31  -1  10    0.53    0.61
 -31   1  10   -0.59    0.43
  31   1 -10    0.44    0.64
 -29  -1  10    0.00    0.55
  29  -1 -10   -0.12    0.59
  29   1 -10   -0.36    0.51
 -29   1  10   -0.45    0.49
 -27  -1  10    1.07    0.67
  27  -1 -10    0.91    0.71
 -27   1  10    0.03    0.51
  27   1 -10    0.97    0.66
 -25  -1  10    0.33    0.60
  25  -1 -10    2.02    0.80
 -25   1  10    0.14    0.47
  25   1 -10    0.89    0.71
  23  -1 -10    0.73    0.74
 -23  -1  10    0.80    0.58
  23   1 -10    0.71    0.71
 -23   1  10    0.54    0.59
 -21  -1  10    0.72    0.66
  21  -1 -10    1.52    0.77
 -21   1  10    0.56    0.53
  21   1 -10    0.99    0.74
 -19  -1  10    0.15    0.51
  19  -1 -10    0.02    0.49
  19   1 -10    0.65    0.61
 -19   1  10    0.24    0.43
 -17  -1  10    0.82    0.56
  17  -1 -10    0.70    0.70
 -17   1  10    0.40    0.45
  17   1 -10    0.70    0.58
 -15  -1  10    0.74    0.58
  15  -1 -10    0.80    0.70
  15   1 -10    1.06    0.48
 -15   1  10    1.27    0.59
  15   1 -10    0.61    0.56
  13  -1 -10    4.12    1.00
  13  -1 -10    4.64    0.86
 -13  -1  10    4.60    0.98
  13   1 -10    5.10    0.81
 -13   1  10    5.82    1.08
  13   1 -10    5.23    1.03
 -11  -1  10    1.05    0.61
  11  -1 -10    0.34    0.44
  11  -1 -10    0.65    0.57
  11   1 -10    1.28    0.65
 -11   1  10    1.99    0.70
  11   1 -10    0.23    0.38
  -9  -1  10   -0.19    0.40
   9  -1 -10    0.42    0.56
   9  -1 -10    1.15    0.54
   9   1 -10    0.19    0.40
  -9   1  10    0.11    0.41
   9   1 -10    1.21    0.67
   7  -1 -10    1.19    0.60
   7  -1 -10    1.98    0.65
  -7  -1  10    1.46    0.62
   7   1 -10    1.59    0.71
   7   1 -10    0.98    0.48
  -7   1  10    1.45    0.68
   5  -1 -10    1.31    0.56
   5  -1 -10    2.17    0.73
  -5  -1  10    1.39    0.63
   5   1 -10    1.83    0.53
  -5   1  10    1.99    0.76
   5   1 -10    2.33    0.77
  -3  -1  10    0.86    0.59
   3  -1 -10    0.16    0.40
   3  -1 -10    0.20    0.51
   3   1 -10    0.15    0.33
   3   1 -10   -0.35    0.45
  -3   1  10   -0.15    0.45
   1  -1 -10    0.14    0.45
   1  -1 -10   -0.14    0.38
  -1  -1  10   -0.16    0.42
   1   1 -10    0.27    0.52
  -1   1  10    0.53    0.56
   1   1 -10   -0.14    0.31
  -1  -1 -10    0.16    0.40
  -1  -1 -10    0.67    0.53
   1  -1  10    0.44    0.56
   1   1  10    0.21    0.47
  -1   1 -10    0.62    0.37
  -1   1 -10    0.55    0.51
  -3  -1 -10    1.97    0.69
   3  -1  10    3.46    0.89
  -3  -1 -10    3.07    0.79
  -3   1 -10    1.68    0.66
   3   1  10    2.10    0.77
  -3   1 -10    2.76    0.61
  -5  -1 -10    0.08    0.44
   5  -1  10   -0.29    0.39
  -5  -1 -10   -0.32    0.36
  -5   1 -10   -0.03    0.46
  -5   1 -10   -0.02    0.31
  -7  -1 -10    3.03    0.75
  -7  -1 -10    3.10    0.83
   7  -1  10    5.80    1.19
  -7   1 -10    3.20    0.67
  -7   1 -10    3.15    0.84
   9  -1  10    0.69    0.67
  -9  -1 -10    0.11    0.53
  -9  -1 -10    0.72    0.51
  -9   1 -10    0.57    0.38
  -9   1 -10    0.66    0.60
 -11  -1 -10    0.26    0.38
 -11   1 -10    0.30    0.50
 -11   1 -10   -0.17    0.33
 -13  -1 -10   -0.08    0.39
 -13   1 -10   -0.33    0.44
 -13   1 -10   -0.38    0.29
 -15  -1 -10    0.50    0.46
 -15   1 -10    0.19    0.36
 -17  -1 -10    0.05    0.41
 -17   1 -10    0.50    0.35
 -19  -1 -10    0.01    0.42
 -19   1 -10    0.09    0.31
 -21  -1 -10    0.60    0.52
 -21   1 -10    0.38    0.43
 -23  -1 -10    0.23    0.49
 -23   1 -10    0.49    0.52
  34  -2 -10    1.69    0.94
 -34  -2  10    0.21    0.66
  34   2 -10    1.26    0.74
  32  -2 -10    0.01    0.69
 -32  -2  10    0.11    0.61
  32   2 -10   -0.04    0.54
  30  -2 -10    1.02    0.82
 -30  -2  10   -0.01    0.54
  30   2 -10    0.63    0.63
 -28  -2  10   -0.25    0.50
  28  -2 -10    0.09    0.62
 -28   2  10   -0.26    0.46
  28   2 -10    1.24    0.67
 -26  -2  10    0.06    0.53
  26  -2 -10    0.22    0.66
 -26   2  10    0.25    0.52
  26   2 -10    0.20    0.62
  24  -2 -10    0.47    0.68
 -24  -2  10    1.11    0.66
 -24   2  10    0.62    0.53
  24   2 -10   -0.34    0.52
  22  -2 -10    0.43    0.72
 -22  -2  10    1.68    0.77
 -22   2  10    2.03    0.74
  22   2 -10    1.83    0.76
  20  -2 -10    0.60    0.67
 -20  -2  10    0.43    0.54
 -20   2  10    0.66    0.60
  20   2 -10    1.41    0.74
  18  -2 -10    1.01    0.81
 -18  -2  10    0.11    0.49
  18   2 -10    0.80    0.66
 -18   2  10    1.08    0.63
  16  -2 -10    0.44    0.61
 -16  -2  10   -0.31    0.45
  16   2 -10   -0.01    0.50
 -16   2  10   -0.49    0.39
  14  -2 -10    8.31    1.33
 -14  -2  10    8.82    1.37
 -14   2  10    7.86    1.23
  14   2 -10   11.08    1.49
 -12  -2  10    0.70    0.54
  12  -2 -10    0.56    0.53
  12  -2 -10    0.33    0.62
  12   2 -10    1.07    0.58
 -12   2  10    0.55    0.51
  10  -2 -10    1.01    0.52
  10  -2 -10    0.89    0.69
 -10  -2  10   -0.06    0.48
  10   2 -10    1.21    0.68
 -10   2  10    1.47    0.60
   8  -2 -10    2.92    0.82
   8  -2 -10    2.58    0.70
  -8  -2  10    2.10    0.76
   8   2 -10    3.03    0.81
  -8   2  10    2.21    0.75
   6  -2 -10    1.24    0.59
  -6  -2  10   -0.05    0.48
   6  -2 -10    0.19    0.45
  -6   2  10   -0.01    0.47
   6   2 -10    0.01    0.45
   4  -2 -10    0.44    0.47
   4  -2 -10    0.75    0.57
  -4  -2  10    0.45    0.50
   4   2 -10    1.40    0.64
  -4   2  10    1.10    0.62
   2  -2 -10    0.34    0.50
  -2  -2  10   -0.06    0.43
   2  -2 -10   -0.46    0.34
   2   2 -10    0.10    0.49
   2   2 -10    0.03    0.33
  -2   2  10   -0.70    0.37
   0  -2 -10    0.11    0.39
   0  -2 -10    0.00    0.42
   0  -2  10   -0.24    0.46
   0   2 -10   -0.13    0.28
   0   2 -10    0.45    0.56
   2  -2  10    0.02    0.51
  -2  -2 -10    0.94    0.51
  -2  -2 -10   -0.19    0.43
  -2   2 -10    0.03    0.29
  -2   2 -10    0.32    0.55
  -4  -2 -10    2.13    0.67
  -4  -2 -10    3.77    0.90
   4  -2  10    2.46    0.85
  -4   2 -10    0.68    0.57
  -4   2 -10    3.03    0.57
  -6  -2 -10    1.77    0.69
   6  -2  10    3.18    0.90
  -6  -2 -10    2.53    0.73
  -6   2 -10    0.47    0.57
  -6   2 -10    2.52    0.55
  -8  -2 -10    3.16    0.85
   8  -2  10    1.65    0.73
  -8   2 -10    2.76    0.84
  -8   2 -10    2.84    0.58
  10  -2  10    1.20    0.73
 -10  -2 -10    2.40    0.70
 -10   2 -10    1.94    0.74
 -10   2 -10    1.90    0.50
 -12  -2 -10   -0.05    0.45
 -12   2 -10    0.03    0.52
 -12   2 -10    0.69    0.38
 -14  -2 -10    0.21    0.47
 -14   2 -10    0.05    0.51
 -14   2 -10   -0.20    0.29
 -16  -2 -10    0.20    0.45
 -16   2 -10    0.12    0.33
 -18  -2 -10   -0.19    0.43
 -18   2 -10   -0.09    0.34
 -20  -2 -10    0.54    0.53
 -20   2 -10   -0.21    0.34
 -22  -2 -10    0.52    0.53
 -22   2 -10   -0.20    0.34
  33  -3 -10   -1.02    0.71
 -33  -3  10   -1.06    0.48
  33   3 -10    0.56    0.67
  31  -3 -10    0.94    0.80
 -31  -3  10   -0.34    0.51
  31   3 -10    0.36    0.61
  29  -3 -10    1.39    0.99
 -29  -3  10    0.13    0.55
  29   3 -10    0.35    0.62
 -27  -3  10    0.12    0.55
  27  -3 -10    0.48    0.84
  27   3 -10    0.11    0.58
  25  -3 -10    1.50    0.97
 -25  -3  10    0.24    0.55
 -25   3  10    1.31    0.60
  25   3 -10    0.14    0.56
  23  -3 -10   -0.03    0.77
 -23  -3  10   -0.18    0.53
  23   3 -10    0.70    0.64
 -23   3  10    0.09    0.48
 -21  -3  10    0.89    0.60
  21  -3 -10    0.59    0.86
 -21   3  10    0.80    0.58
  21   3 -10    1.18    0.75
  19  -3 -10    1.11    0.84
 -19  -3  10    0.64    0.62
  19   3 -10    2.04    0.85
 -19   3  10    1.18    0.62
 -17  -3  10    0.74    0.60
  17  -3 -10    0.27    0.74
  17   3 -10    1.38    0.74
 -17   3  10   -0.01    0.46
 -15  -3  10    2.87    0.83
  15  -3 -10    2.16    0.96
 -15   3  10    3.91    0.86
  15   3 -10    2.98    0.95
 -13  -3  10    2.03    0.71
  13  -3 -10    0.74    0.71
  13   3 -10    0.14    0.50
 -13   3  10    1.59    0.70
 -11  -3  10   -0.17    0.38
  11  -3 -10   -0.51    0.44
  11  -3 -10    1.15    0.67
  11   3 -10   -0.17    0.42
 -11   3  10    0.13    0.45
   9  -3 -10    1.45    0.66
  -9  -3  10    0.16    0.52
   9  -3 -10    2.37    0.74
   9   3 -10    2.72    0.85
  -9   3  10    1.41    0.69
  -7  -3  10    0.68    0.58
   7  -3 -10    1.62    0.73
   7  -3 -10    0.61    0.50
  -7   3  10    2.50    0.82
   7   3 -10    1.27    0.64
   5  -3 -10    0.61    0.57
  -5  -3  10   -0.45    0.41
   5  -3 -10    0.03    0.47
   5   3 -10   -0.20    0.43
  -3  -3  10    0.39    0.53
   3  -3 -10    0.69    0.54
   3  -3 -10    0.53    0.55
   3   3 -10    0.99    0.62
  -1  -3  10    2.27    0.80
   1  -3 -10    2.48    0.72
   1  -3 -10    2.40    0.75
   1   3 -10    1.44    0.67
   1  -3  10    0.08    0.55
  -1  -3 -10    1.05    0.59
  -1  -3 -10    0.66    0.55
  -1   3 -10    0.84    0.63
  -3  -3 -10   -0.50    0.31
   3  -3  10    0.39    0.49
  -3  -3 -10    0.92    0.51
  -3   3 -10   -0.11    0.47
  -5  -3 -10    0.95    0.59
  -5  -3 -10    1.25    0.57
   5  -3  10    0.11    0.53
  -5   3 -10    1.34    0.67
  -7  -3 -10   -0.32    0.39
   7  -3  10    0.99    0.71
  -7   3 -10    0.32    0.51
   9  -3  10    0.48    0.58
  -9  -3 -10   -0.49    0.41
  -9   3 -10   -0.46    0.42
  11  -3  10    0.95    0.65
 -11  -3 -10   -0.16    0.42
 -11   3 -10    0.28    0.56
 -13  -3 -10   -0.09    0.49
 -13   3 -10    0.10    0.47
 -15  -3 -10    1.35    0.67
 -15   3 -10    1.43    0.47
 -17  -3 -10    1.39    0.65
 -17   3 -10    0.81    0.45
 -19  -3 -10    1.16    0.66
 -19   3 -10    1.16    0.49
 -21  -3 -10    0.96    0.59
 -21   3 -10    0.06    0.40
  32  -4 -10    2.21    1.12
 -32  -4  10    0.21    0.62
  32   4 -10    1.15    0.73
  30  -4 -10   -0.05    0.88
 -30  -4  10   -0.21    0.55
  30   4 -10   -0.17    0.60
 -28  -4  10    0.37    0.68
  28  -4 -10    0.55    0.86
  28   4 -10   -0.06    0.57
 -26  -4  10    0.10    0.52
  26  -4 -10    0.10    0.75
  26   4 -10   -0.19    0.48
 -24  -4  10    0.73    0.56
  24  -4 -10    0.12    0.65
  24   4 -10    0.51    0.64
 -22  -4  10    0.73    0.59
  22  -4 -10   -0.13    0.78
 -22   4  10    0.47    0.62
  22   4 -10    0.17    0.54
 -20  -4  10    2.27    0.84
  20  -4 -10    3.67    1.06
  20   4 -10    4.61    1.12
 -20   4  10    3.28    0.87
  18  -4 -10    1.44    0.80
 -18  -4  10    0.53    0.53
  18   4 -10    1.40    0.70
 -18   4  10    2.25    0.74
  16  -4 -10   -0.51    0.60
 -16  -4  10   -0.30    0.46
  16   4 -10   -0.08    0.44
 -16   4  10    0.56    0.57
 -14  -4  10    0.35    0.56
  14  -4 -10    0.64    0.73
  14   4 -10    0.22    0.59
 -14   4  10    0.55    0.55
  12  -4 -10    1.50    0.77
 -12  -4  10    0.60    0.58
  12   4 -10    0.74    0.58
  10  -4 -10    0.55    0.52
  10  -4 -10    2.01    0.86
 -10  -4  10    0.81    0.62
  10   4 -10    1.26    0.64
   8  -4 -10    0.99    0.59
  -8  -4  10    0.12    0.50
   8  -4 -10    0.41    0.61
   8   4 -10   -0.02    0.43
   6  -4 -10    1.50    0.68
   6  -4 -10    0.51    0.58
  -6  -4  10    1.37    0.68
   6   4 -10    0.54    0.63
  -4  -4  10   -0.38    0.50
   4  -4 -10    1.03    0.61
   4  -4 -10   -0.26    0.40
   4   4 -10    0.20    0.57
   2  -4 -10    5.62    1.03
   2  -4 -10    7.60    1.29
  -2  -4  10    5.62    1.02
  -2  -4  10    5.91    1.12
   2   4 -10    9.49    1.48
   0  -4  10    0.56    0.48
   0  -4 -10    0.37    0.54
   0  -4  10    0.23    0.52
   0  -4 -10   -0.23    0.43
   0   4 -10    0.07    0.50
   2  -4  10    0.27    0.42
   2  -4  10   -0.26    0.52
  -2  -4 -10    0.88    0.65
  -2  -4 -10    1.50    0.61
  -2   4 -10    0.47    0.58
  -4  -4 -10   -0.06    0.45
  -4  -4 -10    1.54    0.66
   4  -4  10    0.26    0.49
   4  -4  10    0.62    0.47
  -4   4 -10    0.36    0.64
  -6  -4 -10    0.01    0.47
   6  -4  10    0.69    0.47
   6  -4  10   -0.28    0.45
  -6   4 -10   -0.48    0.45
   8  -4  10   -0.22    0.52
   8  -4  10    0.33    0.42
  -8  -4 -10    0.22    0.54
  -8   4 -10    0.32    0.50
 -10  -4 -10    0.18    0.48
  10  -4  10    0.50    0.58
  10  -4  10    0.27    0.42
 -10   4 -10    0.49    0.64
 -12  -4 -10    0.38    0.54
  12  -4  10   -0.51    0.52
  12  -4  10    0.15    0.42
  14  -4  10    0.70    0.73
  14  -4  10    0.14    0.44
 -14  -4 -10    0.29    0.55
 -16  -4 -10    1.96    0.78
  16  -4  10   -0.11    0.43
  18  -4  10    2.27    0.67
 -18  -4 -10    2.30    0.78
 -20  -4 -10   -0.04    0.50
  20  -4  10   -0.54    0.46
  29  -5 -10    0.28    0.92
 -29  -5  10   -0.22    0.52
  29   5 -10    0.03    0.62
 -27  -5  10    0.52    0.67
  27  -5 -10    1.47    1.09
  27   5 -10   -0.27    0.60
 -25  -5  10   -0.07    0.55
  25  -5 -10   -0.39    0.91
  25   5 -10    0.02    0.65
 -23  -5  10   -0.05    0.56
  23  -5 -10   -0.90    0.81
  23   5 -10    0.28    0.58
  21  -5 -10   -0.05    0.74
 -21  -5  10   -0.38    0.46
  21   5 -10    3.59    0.99
  19  -5 -10    0.70    0.93
 -19  -5  10    0.27    0.52
  19   5 -10    0.86    0.71
 -17  -5  10    0.12    0.46
 -17  -5  10   -0.63    0.64
  17  -5 -10    1.05    0.93
  17   5 -10   -0.08    0.51
 -15  -5  10   -0.46    0.39
 -15  -5  10   -0.56    0.39
  15  -5 -10   -0.52    0.63
  15   5 -10   -0.57    0.53
  13  -5 -10   -0.31    0.75
 -13  -5  10    0.22    0.43
 -13  -5  10    0.04    0.50
  13   5 -10   -0.10    0.50
 -11  -5  10   -0.44    0.41
 -11  -5  10    0.01    0.52
  11  -5 -10    1.27    0.84
  11  -5 -10    0.38    0.54
  11   5 -10    0.01    0.47
   9  -5 -10    0.23    0.54
  -9  -5  10    0.38    0.53
   9  -5 -10   -0.99    0.53
  -9  -5  10    0.33    0.51
   9   5 -10   -0.36    0.47
  -7  -5  10   -0.35    0.38
   7  -5 -10    0.12    0.55
  -7  -5  10    0.56    0.55
   7  -5 -10    0.50    0.69
   7   5 -10   -0.04    0.49
  -5  -5  10    0.54    0.48
   5  -5 -10    0.80    0.74
  -5  -5  10    0.36    0.59
   5  -5 -10    0.90    0.67
   5   5 -10    1.15    0.68
   3  -5 -10    1.48    0.72
  -3  -5  10    0.76    0.63
  -3  -5  10    0.38    0.54
   3  -5 -10    0.86    0.61
   3   5 -10    1.75    0.82
  -1  -5  10    1.16    0.69
   1  -5 -10    0.60    0.64
  -1  -5  10    1.15    0.59
   1  -5 -10    0.76    0.62
   1   5 -10    0.57    0.64
   1  -5  10    0.63    0.54
  -1  -5 -10    0.11    0.53
   1  -5  10    0.46    0.65
  -1  -5 -10    1.13    0.60
  -1   5 -10    0.82    0.67
  -3  -5 -10    0.20    0.58
   3  -5  10    0.32    0.50
   3  -5  10    0.40    0.57
  -3   5 -10   -0.10    0.51
   5  -5  10    2.41    0.70
  -5  -5 -10   -0.15    0.42
   5  -5  10    0.82    0.58
  -5   5 -10    0.18    0.60
  -7  -5 -10    0.02    0.57
   7  -5  10   -0.20    0.41
   7  -5  10    0.90    0.63
  -7   5 -10   -0.09    0.55
   9  -5  10    0.37    0.67
   9  -5  10    0.17    0.42
  -9  -5 -10   -0.13    0.48
  11  -5  10    1.48    1.19
 -11  -5 -10    0.31    0.60
  11  -5  10   -0.18    0.45
 -13  -5 -10   -0.37    0.50
  13  -5  10   -0.28    0.41
  15  -5  10    0.10    0.48
 -15  -5 -10   -0.21    0.51
  17  -5  10   -0.17    0.50
 -17  -5 -10    2.06    0.82
 -26  -6  10    0.98    0.71
  26  -6 -10   -0.62    1.05
  26   6 -10    0.24    0.64
  24  -6 -10   -0.99    0.84
 -24  -6  10    0.79    0.71
  24   6 -10    0.21    0.65
  22  -6 -10    0.83    1.02
 -22  -6  10    0.08    0.60
 -22  -6  10    0.17    0.52
  22   6 -10   -0.87    0.41
  20  -6 -10    0.37    1.04
 -20  -6  10    0.66    0.57
 -20  -6  10    0.45    0.60
  20   6 -10    0.21    0.69
 -18  -6  10   -0.10    0.48
  18  -6 -10    2.01    1.14
 -18  -6  10    0.04    0.47
  18   6 -10    0.49    0.68
  16  -6 -10   -1.17    0.69
 -16  -6  10    0.55    0.57
 -16  -6  10   -0.26    0.43
  16   6 -10    0.71    0.70
 -14  -6  10   -0.20    0.52
  14  -6 -10   -0.68    0.74
 -14  -6  10   -0.10    0.50
  14   6 -10   -0.63    0.51
 -12  -6  10    0.63    0.58
  12  -6 -10   -0.10    0.46
  12  -6 -10   -1.06    0.70
 -12  -6  10    0.78    0.69
  12   6 -10   -0.03    0.55
 -10  -6  10    1.05    0.66
  10  -6 -10    0.09    0.73
  10  -6 -10    0.31    0.54
 -10  -6  10    0.62    0.55
  10   6 -10    0.61    0.56
  -8  -6  10    0.50    0.55
   8  -6 -10   -0.21    0.56
   8  -6 -10    0.89    0.59
  -8  -6  10    1.35    0.68
   8   6 -10   -0.29    0.41
   6  -6 -10   -0.16    0.59
  -6  -6  10    0.33    0.54
  -6  -6  10   -0.05    0.48
   6  -6 -10    0.24    0.47
   6   6 -10   -0.24    0.46
   4  -6 -10    0.03    0.63
   4  -6 -10   -0.17    0.44
  -4  -6  10    0.09    0.48
  -4  -6  10    0.41    0.52
   4   6 -10    0.07    0.49
  -2  -6  10   -0.14    0.56
  -2  -6  10   -0.59    0.40
   2  -6 -10    0.33    0.62
   2  -6 -10   -0.36    0.40
   2   6 -10    1.17    0.70
   0  -6 -10   -0.29    0.49
   0  -6 -10   -0.11    0.56
   0  -6  10   -0.05    0.57
   0  -6  10    0.01    0.53
   0   6 -10   -0.19    0.46
   2  -6  10   -0.04    0.55
   2  -6  10   -0.05    0.51
  -2  -6 -10    0.90    0.70
  -2   6 -10   -0.10    0.48
  -4  -6 -10   -0.24    0.50
   4  -6  10    0.32    0.56
   4  -6  10    0.27    0.55
   6  -6  10   -0.37    0.53
  -6  -6 -10    0.26    0.54
   6  -6  10   -0.11    0.50
   8  -6  10   -0.19    0.46
  -8  -6 -10   -0.19    0.55
 -10  -6 -10   -0.71    0.50
  10  -6  10    0.33    0.50
  12  -6  10   -0.17    0.51
 -12  -6 -10    0.50    0.76
 -14  -6 -10    0.57    0.66
  14  -6  10    0.06    0.55
 -21  -7  10   -0.27    0.59
 -21  -7  10    0.44    0.61
  21  -7 -10    0.18    0.95
  21   7 -10    0.49    0.70
  19  -7 -10    1.19    1.13
 -19  -7  10    0.35    0.66
 -19  -7  10    0.06    0.55
  19   7 -10    0.14    0.63
 -17  -7  10    0.65    0.61
 -17  -7  10    0.20    0.54
  17  -7 -10   -0.03    0.89
  17   7 -10   -0.46    0.64
 -15  -7  10    0.51    0.59
 -15  -7  10    0.44    0.55
  15  -7 -10   -0.99    0.83
  15   7 -10   -0.20    0.55
  13  -7 -10   -0.85    0.79
 -13  -7  10    0.37    0.57
 -13  -7  10    0.02    0.53
  13  -7 -10    0.39    0.65
  13   7 -10    0.28    0.62
 -11  -7  10   -0.47    0.49
  11  -7 -10    0.04    0.57
  11  -7 -10    0.11    0.85
 -11  -7  10   -0.17    0.47
  11   7 -10   -0.09    0.50
  -9  -7  10   -0.27    0.54
   9  -7 -10    0.41    0.57
  -9  -7  10    0.02    0.48
   9  -7 -10    0.09    0.76
   9   7 -10   -0.20    0.54
   7  -7 -10    0.30    0.55
  -7  -7  10   -0.03    0.56
   7  -7 -10   -0.53    0.69
  -7  -7  10   -0.09    0.58
   7   7 -10    0.28    0.57
  -5  -7  10   -0.57    0.48
   5  -7 -10    0.24    0.59
  -5  -7  10    0.03    0.60
   5  -7 -10    0.20    0.71
   5   7 -10   -0.06    0.56
   3  -7 -10   -0.21    0.49
   3  -7 -10    0.35    0.67
  -3  -7  10   -0.19    0.52
  -3  -7  10   -0.40    0.52
   3   7 -10   -0.11    0.50
  -1  -7  10    0.13    0.62
   1  -7 -10    0.07    0.60
  -1  -7  10   -0.08    0.54
   1  -7  10   -0.50    0.55
  -1  -7 -10    0.03    0.67
   1  -7  10    0.07    0.58
   3  -7  10   -0.21    0.53
   3  -7  10    0.22    0.60
  -3  -7 -10   -0.66    0.57
  -5  -7 -10    0.57    0.69
   5  -7  10   -0.04    0.61
  -7  -7 -10   -0.11    0.64
   7  -7  10    0.80    0.65
   9  -7  10    0.26    0.60
  -9  -7 -10   -0.42    0.59
 -14  -8  10    0.81    0.68
 -14  -8  10    0.02    0.52
  14  -8 -10   -0.82    0.84
  14   8 -10    0.70    0.72
 -12  -8  10   -0.13    0.55
  12  -8 -10    0.43    0.75
  12  -8 -10    0.87    1.03
 -12  -8  10    0.22    0.63
  12   8 -10    0.10    0.66
 -10  -8  10   -0.52    0.51
 -10  -8  10   -0.45    0.50
  10  -8 -10   -0.40    0.56
  10  -8 -10   -0.80    0.82
  10   8 -10   -0.30    0.59
   8  -8 -10   -0.45    0.80
   8  -8 -10    0.82    0.64
  -8  -8  10    0.20    0.63
  -8  -8  10    0.63    0.73
   6  -8 -10    0.21    0.69
  -6  -8  10    0.51    0.69
   6  -8 -10   -1.76    0.61
  -6  -8  10    0.86    0.67
  -4  -8  10    1.29    0.73
   4  -8 -10   -0.19    0.59
  -4  -8  10    0.00    0.54
   2  -8 -10    0.35    0.65
  -2  -8  10    0.65    0.69
  -2  -8  10    0.37    0.65
   0  -8  10    0.12    0.64
   0  -8 -10    0.26    0.67
   0  -8  10    0.96    0.75
 -34   0  11   -0.04    0.54
  34   0 -11    1.38    0.73
  32   0 -11   -0.06    0.62
 -32   0  11    0.03    0.61
 -30   0  11   -0.07    0.57
  30   0 -11    1.28    0.73
  28   0 -11    0.86    0.67
 -28   0  11    0.60    0.66
  26   0 -11    0.80    0.64
 -26   0  11    0.14    0.66
  24   0 -11    0.12    0.54
 -24   0  11   -0.47    0.52
 -22   0  11    0.37    0.56
  22   0 -11    0.67    0.60
  20   0 -11   -0.13    0.53
 -20   0  11    0.43    0.57
 -18   0  11   -0.44    0.48
  18   0 -11    0.24    0.56
  16   0 -11    0.33    0.52
  16   0 -11   -0.52    0.33
 -16   0  11   -0.08    0.51
  14   0 -11   -0.04    0.55
  14   0 -11   -0.22    0.34
 -14   0  11    0.11    0.43
  12   0 -11    0.11    0.51
 -12   0  11   -0.05    0.46
  12   0 -11   -0.25    0.38
 -10   0  11    0.26    0.49
  10   0 -11    0.41    0.41
  10   0 -11    0.16    0.55
   8   0 -11    0.49    0.59
  -8   0  11    0.37    0.49
   8   0 -11    0.46    0.44
  -6   0  11   -0.21    0.47
   6   0 -11    0.19    0.40
   6   0 -11    0.45    0.59
   4   0 -11   -0.31    0.38
  -4   0  11    0.42    0.57
   4   0 -11    0.04    0.38
   2   0 -11    0.11    0.51
  -2   0  11   -0.24    0.43
   2   0 -11    0.10    0.39
   0   0  11    0.77    0.59
   0   0 -11    0.40    0.50
   0   0 -11   -0.02    0.38
   2   0  11   -0.63    0.48
  -2   0 -11    0.31    0.53
  -2   0 -11    0.07    0.37
  -4   0 -11    0.09    0.43
   4   0  11    0.69    0.62
  -4   0 -11    0.26    0.49
  -6   0 -11    0.14    0.44
  -6   0 -11   -0.17    0.49
  -8   0 -11   -0.24    0.50
  -8   0 -11   -0.23    0.37
 -10   0 -11   -0.30    0.38
 -12   0 -11    0.61    0.48
 -14   0 -11    0.27    0.43
 -16   0 -11    0.22    0.45
 -18   0 -11   -0.11    0.40
 -33  -1  11   -0.28    0.54
  33  -1 -11    1.38    0.89
  33   1 -11    1.19    0.82
 -31  -1  11   -0.29    0.52
  31  -1 -11    0.27    0.64
  31   1 -11    0.03    0.64
 -31   1  11    0.23    0.62
  29  -1 -11   -0.34    0.61
 -29  -1  11    0.11    0.61
  29   1 -11    0.21    0.66
 -29   1  11   -0.30    0.58
 -27  -1  11    1.00    0.67
  27  -1 -11    1.44    0.80
 -27   1  11    0.67    0.66
  27   1 -11   -0.38    0.54
 -25  -1  11    0.21    0.51
  25  -1 -11   -0.30    0.56
 -25   1  11   -0.17    0.52
  25   1 -11   -0.29    0.55
  23  -1 -11    0.54    0.69
 -23  -1  11   -0.43    0.47
 -23   1  11    1.14    0.67
  23   1 -11    0.42    0.61
 -21  -1  11    0.26    0.64
  21  -1 -11    0.62    0.70
  21   1 -11    0.60    0.64
 -21   1  11    0.58    0.54
 -19  -1  11    0.96    0.68
  19  -1 -11    0.50    0.67
 -19   1  11    0.58    0.63
  19   1 -11    0.53    0.59
  17  -1 -11    1.86    0.86
 -17  -1  11    0.75    0.68
 -17   1  11    0.86    0.66
  17   1 -11    0.93    0.63
 -15  -1  11    2.05    0.78
  15  -1 -11    5.26    1.19
  15  -1 -11    3.03    0.80
  15   1 -11    3.65    0.96
 -15   1  11    4.86    1.08
  13  -1 -11    0.88    0.66
 -13  -1  11   -0.36    0.45
  13  -1 -11    0.08    0.41
  13   1 -11    0.42    0.52
 -13   1  11    0.09    0.52
 -11  -1  11    0.92    0.63
  11  -1 -11   -0.21    0.36
  11  -1 -11    0.46    0.60
  11   1 -11    1.18    0.74
 -11   1  11    0.32    0.47
  -9  -1  11    0.84    0.60
   9  -1 -11    0.30    0.52
   9  -1 -11   -0.47    0.37
   9   1 -11    0.35    0.53
  -9   1  11    0.15    0.50
   7  -1 -11    0.83    0.60
  -7  -1  11    0.62    0.58
   7  -1 -11   -0.07    0.42
  -7   1  11    0.28    0.52
   7   1 -11    0.68    0.61
   7   1 -11    0.27    0.37
  -5  -1  11    0.15    0.50
   5  -1 -11   -0.15    0.41
   5  -1 -11    0.14    0.45
   5   1 -11    0.42    0.55
  -5   1  11    0.96    0.66
   5   1 -11    0.27    0.39
  -3  -1  11    1.00    0.59
   3  -1 -11    0.72    0.52
   3  -1 -11    1.12    0.67
   3   1 -11    1.14    0.71
  -3   1  11    0.93    0.58
   3   1 -11    1.22    0.50
   1  -1 -11    0.02    0.49
   1  -1 -11   -0.54    0.35
  -1  -1  11    0.28    0.54
   1   1 -11   -0.58    0.37
   1   1 -11   -0.03    0.34
  -1   1  11    0.37    0.46
  -1  -1 -11   -0.08    0.42
  -1  -1 -11    0.16    0.48
   1  -1  11    0.15    0.60
  -1   1 -11    0.43    0.54
   1   1  11    0.20    0.55
  -1   1 -11    0.32    0.38
   3  -1  11    0.00    0.51
  -3  -1 -11   -0.39    0.38
  -3  -1 -11    1.83    0.72
  -3   1 -11    0.83    0.60
  -3   1 -11    0.49    0.42
   5  -1  11    0.26    0.57
  -5  -1 -11    0.04    0.53
  -5  -1 -11    0.31    0.49
  -5   1 -11    0.02    0.52
  -5   1 -11    0.21    0.36
  -7  -1 -11   -0.33    0.42
   7  -1  11    0.04    0.68
  -7  -1 -11    0.32    0.50
  -7   1 -11   -0.30    0.31
  -7   1 -11    1.02    0.68
  -9  -1 -11   -0.20    0.42
  -9   1 -11    0.23    0.53
  -9   1 -11    0.08    0.35
 -11  -1 -11   -0.11    0.41
 -11   1 -11    0.30    0.54
 -11   1 -11    0.50    0.43
 -13  -1 -11   -0.06    0.43
 -13   1 -11   -0.32    0.38
 -15  -1 -11    0.08    0.48
 -15   1 -11    0.39    0.43
 -17  -1 -11   -0.21    0.41
 -17   1 -11   -0.05    0.40
 -19  -1 -11    0.45    0.55
 -19   1 -11    0.18    0.44
 -32  -2  11    0.17    0.57
  32  -2 -11    1.21    0.84
  32   2 -11    0.62    0.70
 -30  -2  11    0.17    0.66
  30  -2 -11    0.58    0.74
  30   2 -11    0.00    0.59
 -28  -2  11   -0.65    0.50
  28  -2 -11    0.30    0.71
  28   2 -11   -0.03    0.65
 -28   2  11    0.10    0.55
 -26  -2  11   -0.73    0.50
  26  -2 -11    0.86    0.76
 -26   2  11    0.23    0.58
  26   2 -11   -0.13    0.49
 -24  -2  11   -0.01    0.48
  24  -2 -11    0.26    0.68
  24   2 -11    0.08    0.53
 -24   2  11   -0.34    0.48
  22  -2 -11    0.27    0.65
 -22  -2  11    0.49    0.66
 -22   2  11    0.39    0.60
  22   2 -11    0.59    0.64
  20  -2 -11    1.38    0.84
 -20  -2  11    0.82    0.58
 -20   2  11    1.77    0.74
  20   2 -11    1.13    0.73
  18  -2 -11    1.08    0.69
 -18  -2  11    0.07    0.46
  18   2 -11    1.59    0.75
 -18   2  11    0.21    0.54
  16  -2 -11    0.78    0.79
 -16  -2  11    0.47    0.57
  16   2 -11    3.07    1.00
 -16   2  11    1.12    0.67
  14  -2 -11    0.39    0.62
  14  -2 -11    0.08    0.45
 -14  -2  11    0.75    0.64
 -14   2  11   -0.05    0.52
  14   2 -11    1.08    0.64
  12  -2 -11    0.97    0.56
 -12  -2  11   -0.13    0.48
  12  -2 -11    0.08    0.61
 -12   2  11    0.63    0.61
  12   2 -11    0.16    0.59
  10  -2 -11   -0.04    0.40
  10  -2 -11    1.89    0.77
 -10  -2  11    0.04    0.53
 -10   2  11    0.16    0.53
  10   2 -11    0.58    0.62
  -8  -2  11    0.07    0.51
   8  -2 -11    0.62    0.62
   8  -2 -11    1.68    0.61
   8   2 -11    0.35    0.59
  -8   2  11    0.09    0.46
   6  -2 -11    0.66    0.52
  -6  -2  11    1.10    0.63
   6  -2 -11    0.55    0.55
  -6   2  11    0.17    0.46
   6   2 -11    1.24    0.70
  -4  -2  11   -0.54    0.47
   4  -2 -11    0.00    0.48
   4  -2 -11    0.06    0.44
   4   2 -11    0.44    0.51
  -4   2  11   -0.06    0.49
  -2  -2  11    0.43    0.61
   2  -2 -11    0.80    0.57
   2  -2 -11    0.61    0.56
   2   2 -11   -0.44    0.49
  -2   2  11    1.81    0.78
   0  -2 -11    0.79    0.55
   0  -2  11    0.39    0.53
   0  -2 -11   -0.20    0.46
   0   2 -11    0.07    0.56
  -2  -2 -11    0.30    0.55
  -2  -2 -11    0.04    0.50
   2  -2  11    0.56    0.63
  -2   2 -11    0.39    0.60
   4  -2  11    0.74    0.68
  -4  -2 -11    0.84    0.55
  -4  -2 -11    0.60    0.55
  -4   2 -11    1.23    0.68
  -6  -2 -11    1.27    0.63
   6  -2  11   -0.11    0.53
  -6  -2 -11    0.75    0.65
  -6   2 -11    0.69    0.65
   8  -2  11    3.41    0.98
  -8  -2 -11    3.41    0.85
  -8   2 -11    3.49    0.77
  -8   2 -11    3.35    0.90
 -10  -2 -11    0.15    0.47
  10  -2  11    1.20    0.75
 -10   2 -11    1.11    0.75
 -10   2 -11    1.12    0.48
 -12  -2 -11    1.10    0.64
 -12   2 -11    1.86    0.78
 -12   2 -11    1.20    0.49
 -14  -2 -11   -0.05    0.42
 -14   2 -11    0.05    0.39
 -16  -2 -11    0.99    0.63
 -16   2 -11    0.86    0.48
 -18  -2 -11    0.26    0.51
 -18   2 -11    0.17    0.41
 -31  -3  11    0.80    0.77
  31  -3 -11    0.05    0.69
  31   3 -11    0.11    0.66
  29  -3 -11    2.25    1.03
 -29  -3  11   -0.02    0.60
  29   3 -11    0.41    0.60
 -27  -3  11   -0.34    0.54
  27  -3 -11    0.41    0.86
  27   3 -11   -0.22    0.58
  25  -3 -11    1.06    0.81
 -25  -3  11    0.95    0.75
 -25   3  11    0.79    0.65
  25   3 -11    0.88    0.72
  23  -3 -11    1.20    0.86
 -23  -3  11   -0.18    0.53
 -23   3  11    0.72    0.57
  23   3 -11   -0.03    0.58
  21  -3 -11    0.61    0.79
 -21  -3  11   -0.11    0.45
 -21   3  11    0.35    0.63
  21   3 -11    0.87    0.76
  19  -3 -11    0.59    0.81
 -19  -3  11    0.82    0.68
  19   3 -11    0.31    0.59
 -19   3  11    0.30    0.61
 -17  -3  11    1.68    0.74
  17  -3 -11    1.69    0.79
 -17   3  11    0.33    0.55
  17   3 -11    0.33    0.57
  15  -3 -11    0.56    0.67
 -15  -3  11   -0.27    0.47
  15   3 -11    0.58    0.60
 -15   3  11    0.01    0.49
  13  -3 -11    1.31    0.73
 -13  -3  11    0.37    0.55
  13  -3 -11   -0.10    0.47
 -13   3  11   -0.01    0.50
  13   3 -11    0.06    0.58
  11  -3 -11   -0.10    0.44
  11  -3 -11    0.65    0.68
 -11  -3  11    0.24    0.61
  11   3 -11    0.32    0.61
 -11   3  11   -0.31    0.41
   9  -3 -11    0.42    0.65
  -9  -3  11    0.33    0.60
   9  -3 -11    0.12    0.51
  -9   3  11    0.33    0.59
   9   3 -11    0.42    0.67
   7  -3 -11    1.30    0.66
   7  -3 -11    0.61    0.55
  -7  -3  11   -0.50    0.36
   7   3 -11    0.00    0.49
  -7   3  11    0.34    0.57
   5  -3 -11    0.17    0.54
   5  -3 -11    0.24    0.49
  -5  -3  11   -0.45    0.42
   5   3 -11    0.10    0.53
   3  -3 -11    0.51    0.57
  -3  -3  11    0.37    0.52
   3  -3 -11   -0.07    0.44
   3   3 -11    0.08    0.48
  -1  -3  11    0.11    0.59
   1  -3 -11    0.62    0.57
   1  -3 -11    0.71    0.55
   1   3 -11    1.03    0.70
   1  -3  11    1.73    0.77
  -1  -3 -11    0.95    0.64
  -1  -3 -11    2.03    0.76
  -1   3 -11    1.75    0.72
  -3  -3 -11    0.89    0.59
  -3  -3 -11   -0.05    0.47
   3  -3  11    0.95    0.65
  -3   3 -11    1.52    0.73
  -5  -3 -11    2.50    0.83
   5  -3  11    0.90    0.66
  -5   3 -11    1.30    0.69
  -7  -3 -11    0.65    0.64
   7  -3  11   -0.83    0.48
  -7   3 -11    0.00    0.61
  -9  -3 -11    0.46    0.51
   9  -3  11    0.62    0.62
  -9   3 -11    0.52    0.66
  11  -3  11    0.21    0.67
 -11  -3 -11    0.26    0.50
 -11   3 -11    0.53    0.68
 -13  -3 -11   -0.49    0.38
 -15  -3 -11    0.32    0.49
 -17  -3 -11    0.03    0.58
  28  -4 -11   -0.50    0.85
 -28  -4  11   -0.14    0.62
  28   4 -11    0.57    0.69
 -26  -4  11    1.32    0.83
  26  -4 -11   -0.20    0.88
  26   4 -11    1.37    0.83
  24  -4 -11    0.40    0.81
 -24  -4  11    1.19    0.73
  24   4 -11    0.89    0.76
 -22  -4  11    0.61    0.69
  22  -4 -11    0.81    0.96
 -22   4  11    0.20    0.60
  22   4 -11   -0.39    0.60
  20  -4 -11   -0.17    0.82
 -20  -4  11    0.14    0.58
 -20   4  11    1.61    0.78
  20   4 -11    0.80    0.69
 -18  -4  11    0.28    0.59
  18  -4 -11    0.35    0.80
  18   4 -11   -0.22    0.55
 -18   4  11    0.11    0.57
 -16  -4  11    0.19    0.58
  16  -4 -11   -0.60    0.60
 -16   4  11    0.49    0.62
  16   4 -11   -0.26    0.57
  14  -4 -11    0.65    0.66
 -14  -4  11   -0.20    0.50
  14  -4 -11    0.99    0.69
  14   4 -11   -0.26    0.47
  12  -4 -11    0.77    0.70
 -12  -4  11    0.38    0.62
  12  -4 -11    0.33    0.50
  12   4 -11    0.22    0.65
  10  -4 -11    0.08    0.44
 -10  -4  11    0.28    0.58
  10  -4 -11    0.37    0.63
  10   4 -11    0.84    0.68
  -8  -4  11    0.69    0.67
   8  -4 -11    1.33    0.67
   8  -4 -11    1.99    0.77
   8   4 -11    1.88    0.87
   6  -4 -11    0.58    0.58
   6  -4 -11    0.31    0.52
  -6  -4  11    0.02    0.55
   6   4 -11    0.36    0.58
   4  -4 -11   -0.32    0.52
  -4  -4  11    0.16    0.56
   4  -4 -11   -0.66    0.43
   4   4 -11   -0.16    0.55
   2  -4 -11    0.60    0.58
  -2  -4  11    0.31    0.61
   2  -4 -11    0.31    0.56
   2   4 -11    1.43    0.77
   0  -4 -11    0.47    0.57
   0  -4 -11    0.13    0.48
   0  -4  11    0.03    0.53
   0   4 -11   -0.02    0.54
   2  -4  11   -0.03    0.56
  -2  -4 -11    0.91    0.57
  -2  -4 -11    0.40    0.63
  -2   4 -11   -0.07    0.50
  -4  -4 -11   -0.03    0.57
   4  -4  11    0.89    0.67
  -4   4 -11    0.34    0.61
   6  -4  11    0.35    0.64
  -6  -4 -11    0.25    0.55
  -6   4 -11    0.13    0.53
  -8  -4 -11   -0.11    0.48
   8  -4  11   -0.17    0.59
  -8   4 -11    0.49    0.65
 -10  -4 -11   -0.33    0.47
  10  -4  11   -0.07    0.61
 -10   4 -11   -0.66    0.53
  12  -4  11    0.01    0.67
 -12  -4 -11    0.03    0.56
 -14  -4 -11   -0.18    0.49
 -25  -5  11    0.53    0.65
  25  -5 -11    0.63    1.02
  25   5 -11   -0.17    0.64
  23  -5 -11   -0.38    0.69
 -23  -5  11   -0.05    0.55
  23   5 -11    0.33    0.59
 -21  -5  11    1.06    0.66
  21  -5 -11    0.75    0.94
  21   5 -11   -0.10    0.54
  19  -5 -11   -0.95    0.70
 -19  -5  11    0.27    0.63
  19   5 -11    0.38    0.64
  17  -5 -11    1.00    0.92
 -17  -5  11    0.20    0.64
  17   5 -11   -0.04    0.63
 -15  -5  11    0.00    0.57
  15  -5 -11   -0.43    0.63
  15   5 -11    0.16    0.69
  13  -5 -11   -0.24    0.53
  13  -5 -11    0.19    0.63
 -13  -5  11   -0.13    0.46
  13   5 -11   -0.31    0.53
  11  -5 -11   -0.43    0.49
  11  -5 -11   -0.27    0.63
 -11  -5  11   -0.19    0.54
  11   5 -11    0.58    0.64
  -9  -5  11   -0.40    0.51
   9  -5 -11    0.79    0.63
   9  -5 -11   -0.10    0.47
   9   5 -11   -0.16    0.52
   7  -5 -11   -0.04    0.55
  -7  -5  11    0.23    0.53
   7  -5 -11    0.61    0.67
   7   5 -11    0.14    0.55
   5  -5 -11    1.42    0.73
   5  -5 -11    1.04    0.67
  -5  -5  11   -0.08    0.56
   5   5 -11    0.13    0.57
  -3  -5  11   -0.03    0.46
   3  -5 -11   -0.38    0.42
   3  -5 -11    2.04    0.73
   3   5 -11    1.44    0.78
   1  -5 -11   -0.05    0.52
   1  -5 -11    0.78    0.61
  -1  -5  11   -0.43    0.54
   1   5 -11   -0.17    0.62
  -1  -5 -11   -0.38    0.53
   1  -5  11    0.21    0.60
  -1   5 -11    0.81    0.66
  -3  -5 -11    0.17    0.57
   3  -5  11   -0.12    0.56
  -3   5 -11    0.30    0.62
  -5  -5 -11   -0.01    0.62
   5  -5  11    0.20    0.61
  -5   5 -11   -0.41    0.55
   7  -5  11    0.35    0.65
  -7  -5 -11   -0.45    0.58
  -7   5 -11   -0.46    0.46
  -9  -5 -11   -0.74    0.52
   9  -5  11    0.25    0.64
 -11  -5 -11    1.12    0.73
 -22  -6  11    0.54    0.71
  22  -6 -11   -0.94    0.79
  22   6 -11    0.05    0.70
 -20  -6  11   -0.22    0.53
  20  -6 -11    0.34    1.01
  20   6 -11   -0.23    0.66
  18  -6 -11   -0.40    0.87
 -18  -6  11   -0.97    0.50
  18   6 -11    0.54    0.76
 -16  -6  11    0.09    0.59
  16  -6 -11    0.06    0.89
  16   6 -11   -0.23    0.62
  14  -6 -11   -0.18    0.77
 -14  -6  11   -0.23    0.56
  14  -6 -11   -0.07    0.50
  14   6 -11   -0.28    0.55
 -12  -6  11   -0.15    0.53
  12  -6 -11   -0.65    0.62
  12  -6 -11   -0.41    0.47
  12   6 -11   -0.69    0.53
  10  -6 -11    0.92    0.88
  10  -6 -11   -0.05    0.54
 -10  -6  11   -0.13    0.51
  10   6 -11    0.07    0.55
   8  -6 -11    1.34    0.79
   8  -6 -11    1.15    0.82
  -8  -6  11    0.62    0.59
   8   6 -11    0.99    0.71
   6  -6 -11    0.04    0.61
   6  -6 -11    1.02    0.75
  -6  -6  11    0.20    0.59
   6   6 -11   -0.56    0.52
   4  -6 -11    0.51    0.60
   4  -6 -11    0.77    0.63
  -4  -6  11    0.63    0.71
   4   6 -11    0.37    0.60
   2  -6 -11    0.49    0.64
   2  -6 -11   -0.72    0.50
  -2  -6  11   -0.41    0.54
   2   6 -11    0.29    0.66
   0  -6  11   -0.09    0.61
   0  -6 -11    0.76    0.75
   0   6 -11   -0.07    0.55
  -2  -6 -11   -0.28    0.62
   2  -6  11    0.17    0.63
  -2   6 -11    0.45    0.72
   4  -6  11   -0.24    0.62
  -4  -6 -11    0.20    0.59
   6  -6  11    0.84    0.72
  -6  -6 -11   -0.16    0.53
  -8  -6 -11    0.24    0.64
 -15  -7  11   -0.19    0.56
  15  -7 -11   -0.78    0.88
  15   7 -11   -0.45    0.66
  13  -7 -11   -0.27    0.86
 -13  -7  11    0.16    0.66
  13  -7 -11   -0.42    0.54
  13   7 -11   -0.14    0.66
  11  -7 -11   -0.48    0.48
 -11  -7  11   -0.34    0.56
  11  -7 -11    0.43    0.88
  11   7 -11   -0.51    0.55
   9  -7 -11    0.32    0.64
  -9  -7  11   -0.14    0.57
   9  -7 -11    2.04    0.93
   9   7 -11   -0.21    0.54
   7  -7 -11   -0.57    0.51
  -7  -7  11    0.82    0.71
   7  -7 -11   -0.16    0.73
   7   7 -11   -0.47    0.65
   5  -7 -11   -0.28    0.65
  -5  -7  11    0.23    0.59
   5  -7 -11    0.35    0.67
   5   7 -11    0.15    0.56
  -3  -7  11   -0.06    1.05
   3  -7 -11   -0.26    0.61
  -3  -7  11    0.08    0.66
   3   7 -11    0.14    0.60
  -1  -7  11    0.97    0.76
  -1  -7  11   -0.25    0.61
   1  -7 -11   -0.38    0.52
   1  -7  11    0.42    0.71
  30   0 -12    1.73    0.81
 -30   0  12    0.23    0.71
  28   0 -12    0.22    0.65
 -28   0  12    0.37    0.57
 -26   0  12   -0.22    0.59
  26   0 -12    1.44    0.78
 -24   0  12    0.04    0.66
  24   0 -12    0.23    0.70
  22   0 -12   -0.16    0.62
 -22   0  12    0.00    0.56
  20   0 -12    0.25    0.55
 -20   0  12    0.33    0.68
 -18   0  12    0.58    0.61
  18   0 -12    1.03    0.77
 -16   0  12    0.98    0.66
  16   0 -12    0.93    0.75
  14   0 -12   -0.07    0.52
 -14   0  12   -0.87    0.46
  12   0 -12    1.32    0.72
 -12   0  12    1.09    0.66
  12   0 -12    0.97    0.60
  10   0 -12    0.15    0.44
 -10   0  12    0.22    0.56
  10   0 -12    0.43    0.55
   8   0 -12   -0.19    0.44
   8   0 -12    0.36    0.61
  -8   0  12    0.22    0.62
  -6   0  12    1.20    0.70
   6   0 -12    0.34    0.52
   6   0 -12    0.54    0.54
   4   0 -12    1.82    0.77
   4   0 -12    0.88    0.55
  -4   0  12    0.66    0.68
   2   0 -12    1.80    0.66
   2   0 -12    1.07    0.71
  -2   0  12    0.84    0.71
   0   0 -12    0.14    0.42
   0   0 -12   -0.30    0.53
   0   0  12    0.55    0.70
  -2   0 -12    0.29    0.59
  -2   0 -12    0.92    0.54
   2   0  12    0.12    0.68
  -4   0 -12    0.61    0.51
   4   0  12    0.99    0.81
  -4   0 -12   -0.09    0.62
  -6   0 -12   -0.01    0.57
  -6   0 -12    0.35    0.45
  -8   0 -12   -0.10    0.42
 -10   0 -12    0.21    0.52
 -12   0 -12   -0.15    0.39
 -14   0 -12   -0.54    0.39
 -29  -1  12   -0.46    0.64
  29  -1 -12    1.44    0.77
  29   1 -12    0.80    0.75
 -29   1  12    0.97    0.74
 -27  -1  12   -0.47    0.57
  27  -1 -12    1.43    0.76
 -27   1  12    0.56    0.65
  27   1 -12   -0.19    0.60
 -25  -1  12    0.77    0.64
  25  -1 -12    2.35    0.90
 -25   1  12   -0.31    0.53
  25   1 -12    0.63    0.67
  23  -1 -12    1.25    0.80
 -23  -1  12    0.16    0.60
 -23   1  12   -0.08    0.60
  23   1 -12    0.87    0.67
 -21  -1  12    0.73    0.65
  21  -1 -12    0.54    0.71
  21   1 -12   -0.14    0.60
 -21   1  12    0.02    0.55
  19  -1 -12    0.21    0.49
 -19  -1  12   -0.05    0.52
  19  -1 -12    0.18    0.58
  19   1 -12    0.14    0.57
 -19   1  12    0.06    0.61
  17  -1 -12    0.10    0.47
 -17  -1  12   -0.66    0.43
  17  -1 -12    0.13    0.55
  17   1 -12   -0.36    0.46
 -17   1  12   -0.11    0.58
 -15  -1  12    0.15    0.53
  15  -1 -12    0.85    0.54
  15  -1 -12    0.47    0.59
  15   1 -12   -0.19    0.50
 -15   1  12    0.07    0.57
  13  -1 -12    0.34    0.51
 -13  -1  12    1.73    0.78
  13  -1 -12    0.32    0.65
  13   1 -12    0.61    0.76
 -13   1  12    0.38    0.66
  11  -1 -12    0.65    0.53
  11  -1 -12   -0.06    0.54
 -11  -1  12    0.03    0.59
 -11   1  12   -0.14    0.53
  11   1 -12    0.46    0.64
   9  -1 -12   -0.12    0.54
  -9  -1  12   -0.03    0.52
   9  -1 -12    0.71    0.59
   9   1 -12    0.77    0.70
  -9   1  12   -0.37    0.43
  -7  -1  12    0.77    0.66
   7  -1 -12   -0.19    0.52
   7  -1 -12   -0.49    0.39
  -7   1  12   -0.14    0.54
   7   1 -12    0.34    0.57
   5  -1 -12    0.88    0.66
   5  -1 -12    0.19    0.48
  -5  -1  12   -0.75    0.39
  -5   1  12    0.50    0.60
   5   1 -12   -0.32    0.44
  -3  -1  12    0.20    0.65
   3  -1 -12   -0.38    0.42
   3  -1 -12    0.27    0.52
  -3   1  12    0.37    0.56
   3   1 -12    0.97    0.73
  -1  -1  12    0.16    0.64
   1  -1 -12    0.39    0.56
   1  -1 -12    0.54    0.52
   1   1 -12    0.38    0.52
  -1   1  12    0.12    0.64
   1  -1  12    0.67    0.74
  -1  -1 -12    0.63    0.55
  -1  -1 -12    0.90    0.64
  -1   1 -12   -0.23    0.51
   1   1  12    0.41    0.62
  -3  -1 -12    0.67    0.67
   3  -1  12    0.79    0.76
  -3  -1 -12   -0.31    0.45
  -3   1 -12   -0.14    0.58
  -3   1 -12    0.43    0.51
   5  -1  12    0.31    0.72
  -5  -1 -12    0.44    0.60
  -5  -1 -12   -0.34    0.44
  -5   1 -12   -0.04    0.56
  -5   1 -12   -0.25    0.36
  -7  -1 -12    0.40    0.50
  -7   1 -12    0.38    0.43
  -7   1 -12    0.16    0.60
  -9  -1 -12    0.76    0.54
  -9   1 -12   -0.14    0.57
  -9   1 -12    0.02    0.39
 -11  -1 -12   -0.68    0.41
 -11   1 -12    0.23    0.42
 -13  -1 -12   -0.06    0.48
 -13   1 -12   -0.26    0.38
  28  -2 -12    0.60    0.73
 -28  -2  12   -0.16    0.58
  28   2 -12    1.20    0.87
 -28   2  12    0.30    0.69
 -26  -2  12   -0.30    0.55
  26  -2 -12    0.66    0.75
 -26   2  12   -0.20    0.61
  26   2 -12    0.61    0.65
  24  -2 -12    0.32    0.74
 -24  -2  12    0.58    0.68
 -24   2  12    0.37    0.65
  24   2 -12    1.54    0.81
  22  -2 -12    0.43    0.73
 -22  -2  12    0.51    0.69
 -22   2  12    0.68    0.74
  22   2 -12    0.57    0.62
 -20  -2  12   -0.83    0.44
  20  -2 -12    2.17    0.89
 -20   2  12   -0.69    0.38
  20   2 -12    0.51    0.70
  18  -2 -12    0.89    0.65
  18  -2 -12    0.77    0.68
 -18  -2  12   -0.06    0.52
  18   2 -12   -0.08    0.65
 -18   2  12    0.38    0.68
  16  -2 -12    1.19    0.72
 -16  -2  12    0.03    0.52
  16  -2 -12    0.41    0.52
  16   2 -12    0.67    0.67
 -16   2  12   -0.08    0.63
  14  -2 -12    0.16    0.61
 -14  -2  12    0.23    0.57
  14  -2 -12   -0.14    0.45
 -14   2  12    0.19    0.65
  14   2 -12    1.51    0.83
  12  -2 -12   -0.11    0.59
  12  -2 -12    0.38    0.53
 -12  -2  12    0.34    0.60
  12   2 -12   -0.16    0.68
 -12   2  12   -0.40    0.58
  10  -2 -12    0.26    0.53
 -10  -2  12    0.11    0.53
  10  -2 -12    0.60    0.65
  10   2 -12    0.20    0.66
 -10   2  12   -0.20    0.47
   8  -2 -12   -0.07    0.46
  -8  -2  12    0.15    0.54
   8  -2 -12    0.94    0.65
  -8   2  12   -0.33    0.51
   8   2 -12    0.05    0.64
  -6  -2  12    1.12    0.69
   6  -2 -12   -0.59    0.38
   6  -2 -12    0.37    0.56
   6   2 -12   -0.14    0.53
  -6   2  12   -0.01    0.60
  -4  -2  12   -0.60    0.40
   4  -2 -12    0.27    0.56
   4  -2 -12    0.14    0.55
  -4   2  12    0.75    0.74
   4   2 -12    0.09    0.60
  -2  -2  12    0.47    0.65
   2  -2 -12   -0.03    0.50
   2  -2 -12    0.22    0.54
   2   2 -12   -0.19    0.57
   0  -2  12   -0.57    0.56
   0  -2 -12   -0.33    0.48
   0  -2 -12    0.18    0.55
   0   2 -12    0.28    0.58
  -2  -2 -12   -0.14    0.54
  -2  -2 -12   -0.30    0.49
   2  -2  12    0.07    0.54
  -2   2 -12   -0.71    0.40
  -4  -2 -12   -0.31    0.47
   4  -2  12    0.14    0.71
  -4  -2 -12    0.20    0.61
  -4   2 -12    0.25    0.63
  -6  -2 -12    0.56    0.62
   6  -2  12    0.33    0.63
  -6   2 -12    0.88    0.70
  -8  -2 -12    0.71    0.62
   8  -2  12    0.85    0.76
  -8   2 -12    1.03    0.77
 -10  -2 -12   -0.28    0.53
 -10   2 -12   -0.20    0.59
 -12  -2 -12    0.05    0.53
  27  -3 -12    0.18    0.69
 -27  -3  12   -0.11    0.62
  27   3 -12    0.90    0.83
 -25  -3  12   -0.23    0.55
  25  -3 -12   -0.11    0.73
 -25   3  12   -0.56    0.59
  25   3 -12    0.60    0.74
 -23  -3  12    0.77    0.62
  23  -3 -12    0.91    0.76
  23   3 -12    0.41    0.77
 -23   3  12   -0.34    0.56
  21  -3 -12    0.44    0.66
 -21  -3  12    0.81    0.73
 -21   3  12   -0.06    0.57
  21   3 -12    1.37    0.92
  19  -3 -12    0.87    0.74
 -19  -3  12   -0.59    0.39
  19   3 -12    0.12    0.68
 -19   3  12   -0.42    0.56
  17  -3 -12    0.45    0.60
 -17  -3  12    0.21    0.56
  17  -3 -12    0.58    0.69
 -17   3  12    0.53    0.64
  17   3 -12   -0.14    0.56
  15  -3 -12    1.85    0.85
 -15  -3  12    2.27    0.86
  15  -3 -12    0.33    0.54
 -15   3  12   -0.21    0.51
  15   3 -12   -0.79    0.50
 -13  -3  12    0.11    0.65
  13  -3 -12    0.54    0.64
  13  -3 -12   -0.01    0.57
  13   3 -12    1.00    0.75
 -13   3  12    0.32    0.59
  11  -3 -12   -0.13    0.54
 -11  -3  12    0.78    0.64
  11  -3 -12    0.42    0.63
  11   3 -12   -0.29    0.56
 -11   3  12    0.59    0.67
   9  -3 -12    0.92    0.66
   9  -3 -12   -0.39    0.45
  -9  -3  12   -0.54    0.41
   9   3 -12   -0.11    0.58
  -9   3  12   -0.49    0.55
  -7  -3  12    0.16    0.64
   7  -3 -12    0.55    0.61
   7  -3 -12    0.71    0.65
   7   3 -12    0.32    0.72
   5  -3 -12   -0.60    0.47
  -5  -3  12   -0.08    0.53
   5  -3 -12    0.46    0.62
   5   3 -12    1.06    0.75
  -3  -3  12    0.70    0.77
   3  -3 -12    1.00    0.64
   3  -3 -12    0.79    0.68
   3   3 -12    0.37    0.64
  -1  -3  12   -0.21    0.59
   1  -3 -12    0.82    0.69
   1  -3 -12    0.80    0.61
   1   3 -12   -0.07    0.63
   1  -3  12   -0.08    0.54
  -1  -3 -12    1.31    0.63
  -1  -3 -12    0.30    0.59
  -1   3 -12    0.09    0.60
   3  -3  12   -0.30    0.62
  -3  -3 -12    0.12    0.50
  -3   3 -12    0.72    0.70
   5  -3  12   -0.37    0.58
  -5  -3 -12    0.10    0.54
  -5   3 -12    0.44    0.69
   7  -3  12   -0.08    0.68
  -7  -3 -12   -0.20    0.55
  -7   3 -12    0.46    0.65
   9  -3  12   -0.06    0.66
  -9  -3 -12    0.21    0.59
  -9   3 -12   -0.19    0.60
 -11  -3 -12   -0.60    0.53
 -11   3 -12    0.24    0.75
  24  -4 -12    0.60    0.89
 -24  -4  12   -0.78    0.52
  24   4 -12    0.69    0.79
  22  -4 -12    2.12    1.07
 -22  -4  12    0.44    0.66
  22   4 -12    0.93    0.72
 -22   4  12    1.05    1.07
  20  -4 -12    0.33    0.86
 -20  -4  12   -0.49    0.54
 -20   4  12   -0.49    0.56
  20   4 -12   -0.06    0.66
 -18  -4  12    0.13    0.54
  18  -4 -12    1.35    0.82
 -18   4  12   -0.13    0.67
  18   4 -12    1.87    0.86
 -16  -4  12   -0.56    0.43
  16  -4 -12    2.12    0.92
  16  -4 -12   -0.30    0.53
  16   4 -12   -0.35    0.58
  14  -4 -12    0.79    0.65
 -14  -4  12    0.05    0.50
  14  -4 -12    0.93    0.75
  14   4 -12    0.80    0.66
 -12  -4  12    0.40    0.70
  12  -4 -12    0.97    0.67
  12  -4 -12    0.24    0.63
  12   4 -12   -0.18    0.64
  10  -4 -12    0.84    0.73
 -10  -4  12    1.58    0.86
  10  -4 -12    2.37    0.86
  10   4 -12    1.13    0.73
   8  -4 -12    2.10    0.83
  -8  -4  12    0.37    0.68
   8  -4 -12    0.99    0.71
   8   4 -12    1.95    0.93
  -6  -4  12   -0.09    0.50
   6  -4 -12   -0.03    0.54
   6  -4 -12    1.05    0.68
   6   4 -12    0.87    0.78
  -4  -4  12    0.45    0.65
   4  -4 -12    1.22    0.68
   4  -4 -12    0.87    0.71
   4   4 -12    0.65    0.78
  -2  -4  12    0.19    0.64
   2  -4 -12    1.06    0.60
   2  -4 -12    0.46    0.68
   2   4 -12    0.41    0.61
   0  -4 -12    0.53    0.65
   0  -4 -12    0.81    0.62
   0  -4  12   -0.67    0.50
   0   4 -12    0.80    0.70
  -2  -4 -12    1.31    0.77
   2  -4  12   -0.08    0.61
  -2   4 -12    1.54    0.82
   4  -4  12    0.36    0.76
  -4  -4 -12    0.07    0.65
  -4   4 -12    1.38    0.80
  -6  -4 -12   -0.48    0.61
   6  -4  12   -0.28    0.57
  -6   4 -12   -0.04    0.60
  -8  -4 -12    0.69    0.63
   8  -4  12    0.61    0.73
  -8   4 -12    1.39    0.82
  21  -5 -12    0.30    0.94
 -19  -5  12   -0.31    0.63
  19  -5 -12   -0.89    0.62
  19   5 -12    0.41    0.69
  17  -5 -12    0.20    0.62
 -17  -5  12   -0.09    0.56
  17  -5 -12   -0.53    0.71
  17   5 -12    0.58    0.73
  15  -5 -12    0.71    0.69
  15  -5 -12    0.05    0.51
 -15  -5  12    0.01    0.55
  15   5 -12    0.09    0.71
  13  -5 -12    0.08    0.51
 -13  -5  12   -0.09    0.62
  13  -5 -12    0.37    0.69
  13   5 -12   -0.58    0.46
  11  -5 -12    0.86    0.70
  11  -5 -12    0.03    0.55
 -11  -5  12   -0.27    0.52
  11   5 -12   -0.80    0.58
   9  -5 -12   -0.20    0.58
  -9  -5  12   -0.26    0.48
   9  -5 -12    0.15    0.59
   9   5 -12    0.02    0.57
  -7  -5  12    0.18    0.62
   7  -5 -12    0.88    0.68
   7  -5 -12    1.35    0.72
   7   5 -12    0.42    0.67
   5  -5 -12    1.25    0.84
   5  -5 -12    2.06    0.76
  -5  -5  12    1.99    0.89
   5   5 -12    0.99    0.75
   3  -5 -12    0.92    0.73
   3  -5 -12    1.12    0.66
  -3  -5  12    0.59    0.79
   3   5 -12    0.19    0.65
  -1  -5  12    0.14    0.65
   1  -5 -12   -0.54    0.58
   1   5 -12   -0.58    0.66
  -1  -5 -12    0.14    0.64
   1  -5  12   -0.46    0.57
  -1   5 -12   -0.58    0.59
  -3  -5 -12    3.59    1.15
   3  -5  12    0.76    0.69
  -3   5 -12   -0.44    0.64
   5  -5  12    0.16    0.72
  -5  -5 -12    0.44    0.67
  -5   5 -12   -0.09    0.70
 -12  -6  12    0.32    0.68
  12  -6 -12    0.01    0.51
  12  -6 -12    1.58    0.92
  12   6 -12    0.18    0.73
 -10  -6  12    0.13    0.69
  10  -6 -12   -0.20    0.50
  10  -6 -12    0.67    0.74
  10   6 -12   -0.06    0.58
   8  -6 -12   -0.41    0.57
   8  -6 -12    0.62    0.73
  -8  -6  12   -0.31    0.69
   8   6 -12    0.15    0.67
   6  -6 -12    1.09    0.69
  -6  -6  12    0.71    0.73
   6  -6 -12    0.07    0.65
   6   6 -12    0.30    0.75
   4  -6 -12   -0.53    0.59
   4  -6 -12    1.12    0.98
  -4  -6  12    0.66    0.73
   4   6 -12    0.39    0.79
 -24   0  13   -0.38    0.64
  24   0 -13    0.72    0.68
  22   0 -13    0.40    0.63
 -22   0  13   -0.40    0.58
  20   0 -13   -0.66    0.57
 -20   0  13    0.49    0.65
 -18   0  13   -0.12    0.71
  18   0 -13    0.43    0.76
 -16   0  13    0.63    0.79
  16   0 -13    1.12    0.79
  14   0 -13   -0.39    0.59
 -14   0  13    0.48    0.67
  12   0 -13   -0.21    0.62
 -12   0  13   -0.02    0.61
  10   0 -13   -0.41    0.56
 -10   0  13   -0.02    0.68
   8   0 -13    0.26    0.64
  -8   0  13    1.03    0.70
  -6   0  13    0.16    0.53
   6   0 -13    0.67    0.71
   4   0 -13    0.14    0.58
  -4   0  13    0.00    0.59
   2   0 -13   -0.45    0.57
  -2   0  13   -0.43    0.62
   0   0  13    0.77    0.79
   0   0 -13    0.13    0.62
   0   0 -13    0.35    0.49
  -2   0 -13   -0.22    0.62
   2   0  13    0.58    0.85
  -2   0 -13    0.84    0.53
  -4   0 -13   -0.07    0.61
  -4   0 -13   -0.57    0.43
  -6   0 -13   -0.03    0.40
  -8   0 -13    0.24    0.55
 -23  -1  13   -0.16    0.69
  23  -1 -13    0.61    0.75
  23   1 -13    0.91    0.81
 -23   1  13   -0.09    0.74
 -21  -1  13    1.38    0.90
  21  -1 -13    1.92    0.81
  21   1 -13    1.21    0.77
 -21   1  13   -0.34    0.58
  19  -1 -13    0.74    0.72
 -19  -1  13    0.24    0.65
 -19   1  13   -0.64    0.57
  19   1 -13   -0.74    0.49
  17  -1 -13    0.07    0.68
 -17  -1  13    0.45    0.65
 -17   1  13    0.05    0.59
  17   1 -13    0.62    0.71
 -15  -1  13   -0.38    0.48
  15  -1 -13    1.20    0.80
  15  -1 -13    0.07    0.50
 -15   1  13   -0.61    0.58
  15   1 -13    0.44    0.61
  13  -1 -13    0.37    0.65
 -13  -1  13   -0.42    0.58
  13  -1 -13    0.42    0.52
 -13   1  13   -0.44    0.57
  13   1 -13    1.18    0.83
 -11  -1  13   -0.47    0.58
  11  -1 -13    0.16    0.62
  11  -1 -13    0.68    0.60
  11   1 -13    0.09    0.59
 -11   1  13    0.02    0.55
   9  -1 -13    0.26    0.54
   9  -1 -13    0.15    0.52
  -9  -1  13    0.44    0.71
   9   1 -13    0.78    0.77
  -9   1  13   -0.08    0.62
   7  -1 -13    1.03    0.64
  -7  -1  13    0.47    0.77
   7  -1 -13    1.02    0.74
   7   1 -13    0.52    0.72
  -7   1  13    0.38    0.72
   5  -1 -13   -0.20    0.59
   5  -1 -13   -0.45    0.44
  -5  -1  13   -1.01    0.59
   5   1 -13    0.34    0.66
  -5   1  13    0.20    0.62
   3  -1 -13    0.13    0.62
  -3  -1  13    0.35    0.71
   3  -1 -13   -0.36    0.49
  -3   1  13    0.34    0.64
   3   1 -13    0.88    0.77
   1  -1 -13    0.23    0.53
   1  -1 -13    0.24    0.64
  -1  -1  13   -0.27    0.64
  -1   1  13   -0.24    0.59
   1   1 -13    0.71    0.66
   1  -1  13   -0.52    0.55
  -1  -1 -13    0.38    0.57
  -1  -1 -13    0.47    0.67
  -1   1 -13    0.79    0.72
   3  -1  13   -0.37    0.68
  -3  -1 -13   -0.23    0.52
  -3  -1 -13    0.80    0.71
  -3   1 -13    0.93    0.65
  -5  -1 -13   -0.14    0.52
   5  -1  13   -0.19    0.72
  -5   1 -13    0.20    0.71
  -7  -1 -13   -0.39    0.47
  -7   1 -13    0.39    0.68
  22  -2 -13    1.34    0.79
 -22  -2  13   -0.62    0.58
  22  -2 -13   -0.11    0.51
  22   2 -13   -0.17    0.63
 -22   2  13    0.38    0.76
  20  -2 -13   -0.30    0.67
 -20  -2  13    0.23    0.67
  20  -2 -13   -0.10    0.51
 -20   2  13   -0.17    0.59
  20   2 -13    0.26    0.69
 -18  -2  13    1.18    0.89
  18  -2 -13    0.92    0.69
  18  -2 -13    0.81    0.64
 -18   2  13    0.71    0.76
  18   2 -13    2.83    1.09
  16  -2 -13    0.91    0.72
 -16  -2  13    0.40    0.76
  16  -2 -13   -0.37    0.52
 -16   2  13    2.39    0.91
  16   2 -13    0.37    0.75
  14  -2 -13    1.11    0.72
  14  -2 -13    0.17    0.53
 -14  -2  13   -0.09    0.56
  14   2 -13    0.22    0.75
 -14   2  13    1.84    0.81
 -12  -2  13    0.14    0.56
  12  -2 -13    0.49    0.62
  12  -2 -13   -0.16    0.53
  12   2 -13    0.14    0.73
 -12   2  13   -0.32    0.53
  10  -2 -13    0.44    0.62
 -10  -2  13   -0.81    0.56
  10  -2 -13   -0.27    0.51
  10   2 -13   -0.71    0.57
 -10   2  13   -0.20    0.58
  -8  -2  13   -0.44    0.64
   8  -2 -13    0.27    0.56
   8  -2 -13    0.31    0.59
  -8   2  13    1.04    0.81
   8   2 -13    0.65    0.73
   6  -2 -13    0.20    0.57
  -6  -2  13    0.32    0.67
   6  -2 -13    1.26    0.69
   6   2 -13   -0.47    0.48
  -6   2  13   -0.20    0.60
   4  -2 -13    0.32    0.57
  -4  -2  13    0.27    0.65
   4  -2 -13    0.60    0.60
   4   2 -13   -0.80    0.53
   2  -2 -13   -0.67    0.34
   2  -2 -13    0.68    0.69
  -2  -2  13    0.04    0.78
   2   2 -13    1.18    0.76
   0  -2 -13    0.42    0.62
   0  -2 -13    0.65    0.62
   0  -2  13    0.29    0.65
   0   2 -13    0.19    0.70
  -2  -2 -13    1.38    0.82
  -2  -2 -13    1.03    0.71
   2  -2  13    0.13    0.66
  -2   2 -13    1.71    0.83
  -4  -2 -13    0.94    0.69
   4  -2  13    0.89    0.82
  -4   2 -13    0.92    0.80
   6  -2  13   -0.23    0.75
  -6  -2 -13   -0.17    0.51
  -6   2 -13    0.54    0.75
  21  -3 -13    1.70    0.96
  19  -3 -13    0.58    0.76
 -19  -3  13   -0.91    0.54
  19  -3 -13   -0.03    0.51
  19   3 -13    0.51    0.83
 -19   3  13    0.27    0.66
  17  -3 -13    0.45    0.62
 -17  -3  13    0.88    0.73
  17  -3 -13    0.95    0.81
  17   3 -13    0.25    0.76
 -17   3  13    0.00    0.68
  15  -3 -13    0.06    0.51
  15  -3 -13    1.10    0.79
 -15  -3  13   -0.23    0.53
  15   3 -13    0.19    0.69
 -15   3  13   -0.67    0.59
  13  -3 -13    0.00    0.54
  13  -3 -13    0.92    0.70
 -13  -3  13    0.04    0.60
  13   3 -13   -0.27    0.56
 -13   3  13   -0.41    0.61
  11  -3 -13    0.02    0.59
 -11  -3  13   -0.94    0.54
  11  -3 -13    0.68    0.64
  11   3 -13   -0.42    0.66
 -11   3  13   -0.14    0.66
  -9  -3  13   -0.08    0.64
   9  -3 -13    0.53    0.68
   9  -3 -13   -0.14    0.53
   9   3 -13    0.04    0.73
  -7  -3  13    0.61    0.78
   7  -3 -13   -0.41    0.56
   7  -3 -13    0.69    0.63
   7   3 -13    0.10    0.71
   5  -3 -13   -0.11    0.54
   5  -3 -13    0.24    0.65
  -5  -3  13   -0.02    0.66
   5   3 -13   -0.49    0.64
   3  -3 -13    0.09    0.58
   3  -3 -13    0.67    0.67
  -3  -3  13    0.60    0.76
   3   3 -13   -0.23    0.58
   1  -3 -13   -0.41    0.59
  -1  -3  13   -0.51    0.52
   1  -3 -13    0.44    0.58
   1   3 -13   -0.36    0.56
  -1  -3 -13   -0.20    0.54
   1  -3  13    0.57    0.75
  -1   3 -13    0.13    0.73
  -3  -3 -13    0.24    0.56
   3  -3  13    1.30    0.86
  -3   3 -13    0.89    0.78
  16  -4 -13    0.01    0.60
 -16  -4  13   -0.62    0.54
  16  -4 -13    0.30    0.76
  16   4 -13    0.36    0.80
 -14  -4  13   -0.17    0.58
  14  -4 -13    0.56    0.63
  14  -4 -13    0.12    0.71
  14   4 -13   -0.41    0.65
  12  -4 -13    0.08    0.67
  12  -4 -13    0.13    0.58
 -12  -4  13    0.17    0.72
  12   4 -13    0.90    0.77
 -10  -4  13   -0.39    0.59
  10  -4 -13    1.03    0.70
  10  -4 -13    0.40    0.65
  10   4 -13    0.67    0.77
   8  -4 -13   -0.65    0.57
  -8  -4  13    0.63    0.73
   8  -4 -13    2.63    0.80
   8   4 -13   -0.14    0.68
  -6  -4  13   -0.71    0.58
   6  -4 -13    0.44    0.73
   6  -4 -13    0.37    0.58
   6   4 -13    0.46    0.72
   4  -4 -13    1.72    0.72
   4  -4 -13    0.46    0.68
  -4  -4  13    0.18    0.70
   4   4 -13   -0.39    0.69
  -2  -4  13    0.98    0.75
   2  -4 -13    0.07    0.65
   2  -4 -13    0.76    0.67
   2   4 -13   -0.23    0.54
  14   0 -14    1.76    0.89
 -14   0  14    0.48    0.85
  12   0 -14    1.10    0.76
 -12   0  14   -0.53    0.68
  10   0 -14    0.35    0.72
 -10   0  14   -0.26    0.71
  -8   0  14   -0.59    0.69
   8   0 -14    0.40    0.69
  -6   0  14    1.77    0.89
   6   0 -14    1.35    0.86
  -4   0  14    1.97    1.01
   4   0 -14    1.10    0.85
  11  -1 -14    1.01    0.71
 -11  -1  14    0.14    0.66
 -11   1  14    0.28    0.73
  11   1 -14   -0.27    0.64
  -9  -1  14   -0.58    0.67
   9  -1 -14    0.61    0.72
   9   1 -14    0.18    0.63
  -9   1  14    0.47    0.80
  -7  -1  14   -0.67    0.53
   7  -1 -14    1.92    0.86
  -7   1  14   -0.43    0.69
   7   1 -14   -0.33    0.66
   0   0   0    0.00    0.00
;
_shelx_hkl_checksum              14810
loop_
_space_group_symop_operation_xyz
'x, y, z'
'-x+1/2, y, -z'
'x+1/2, y+1/2, z+1/2'
'-x+1, y+1/2, -z+1/2'
'-x, -y, -z'
'x-1/2, -y, z'
'-x+1/2, -y+1/2, -z+1/2'
'x, -y+1/2, z+1/2'
loop_
_atom_site_label
_atom_site_type_symbol
_atom_site_fract_x
_atom_site_fract_y
_atom_site_fract_z
_atom_site_U_iso_or_equiv
_atom_site_adp_type
_atom_site_occupancy
_atom_site_site_symmetry_order
_atom_site_calc_flag
_atom_site_refinement_flags_posn
_atom_site_refinement_flags_adp
_atom_site_refinement_flags_occupancy
_atom_site_disorder_assembly
_atom_site_disorder_group
O2 O 0.1874(3) -0.0355(4) 0.05127(8) 0.0818(9) Uani 1 1 d . . . . .
C3 C 0.1790(4) 0.1295(4) 0.12296(10) 0.0555(9) Uani 1 1 d . . . . .
H3A H 0.1078 0.0784 0.1129 0.067 Uiso 1 1 calc R U . . .
C8 C 0.2845(3) 0.3825(4) 0.21014(10) 0.0454(8) Uani 1 1 d . . . . .
O1 O 0.3709(3) 0.0502(3) 0.04350(8) 0.0748(8) Uani 1 1 d . . . . .
C2 C 0.2836(3) 0.1209(4) 0.10251(9) 0.0498(9) Uani 1 1 d . . . . .
O3 O 0.4976(2) 0.1971(3) 0.10127(7) 0.0706(8) Uani 1 1 d . . . . .
H3B H 0.4864 0.1536 0.0796 0.106 Uiso 1 1 calc R U . . .
C11 C 0.3787(3) 0.6255(4) 0.23512(11) 0.0538(9) Uani 1 1 d . . . . .
H11A H 0.4076 0.5800 0.2594 0.065 Uiso 1 1 calc R U . . .
C7 C 0.3904(3) 0.1972(4) 0.11878(9) 0.0488(9) Uani 1 1 d . . . . .
C6 C 0.3897(3) 0.2799(4) 0.15360(9) 0.0477(8) Uani 1 1 d . . . . .
H6A H 0.4608 0.3306 0.1640 0.057 Uiso 1 1 calc R U . . .
C4 C 0.1784(3) 0.2114(4) 0.15756(10) 0.0542(9) Uani 1 1 d . . . . .
H4A H 0.1072 0.2156 0.1705 0.065 Uiso 1 1 calc R U . . .
C5 C 0.2836(3) 0.2879(4) 0.17333(9) 0.0441(8) Uani 1 1 d . . . . .
C9 C 0.2603(3) 0.3269(4) 0.24571(10) 0.0505(9) Uani 1 1 d . . . . .
H9A H 0.2564 0.3938 0.2667 0.061 Uiso 1 1 calc R U . . .
C15 C 0.2698(4) 0.6147(4) 0.16932(11) 0.0615(10) Uani 1 1 d . . . . .
H15A H 0.2254 0.5620 0.1485 0.074 Uiso 1 1 calc R U . . .
C1 C 0.2810(4) 0.0393(4) 0.06417(10) 0.0590(10) Uani 1 1 d . . . . .
C12 C 0.4025(4) 0.7732(5) 0.23001(13) 0.0653(11) Uani 1 1 d . . . . .
H12A H 0.4473 0.8262 0.2507 0.078 Uiso 1 1 calc R U . . .
C13 C 0.3602(4) 0.8433(5) 0.19445(14) 0.0675(11) Uani 1 1 d . . . . .
H13A H 0.3773 0.9429 0.1908 0.081 Uiso 1 1 calc R U . . .
C14 C 0.2922(4) 0.7635(5) 0.16438(13) 0.0736(12) Uani 1 1 d . . . . .
H14A H 0.2612 0.8105 0.1406 0.088 Uiso 1 1 calc R U . . .
C10 C 0.3128(3) 0.5424(4) 0.20504(10) 0.0457(8) Uani 1 1 d . . . . .
Zn1 Zn 0.2500 -0.1127(7) 0.0000 0.065(3) Uani 0.577(14) 2 d S TU P A 1
O4 O 0.1640(10) -0.2702(15) -0.0239(4) 0.104(4) Uani 0.577(14) 1 d D U P A 1
C16 C 0.0507(11) -0.2666(12) -0.0164(4) 0.071(3) Uani 0.577(14) 1 d D U P A 1
H16A H 0.0264 -0.2051 0.0036 0.085 Uiso 0.577(14) 1 calc R U P A 1
N1 N -0.0378(8) -0.3607(13) -0.0399(4) 0.083(3) Uani 0.577(14) 1 d D U P A 1
C17 C 0.0015(14) -0.4665(17) -0.0679(5) 0.128(6) Uani 0.577(14) 1 d D U P A 1
H17A H 0.0874 -0.4508 -0.0708 0.192 Uiso 0.577(14) 1 calc R U P A 1
H17B H -0.0469 -0.4545 -0.0936 0.192 Uiso 0.577(14) 1 calc R U P A 1
H17C H -0.0096 -0.5649 -0.0581 0.192 Uiso 0.577(14) 1 calc R U P A 1
C18 C -0.1640(9) -0.3686(15) -0.0323(5) 0.136(6) Uani 0.577(14) 1 d D U P A 1
H18A H -0.1794 -0.2946 -0.0129 0.204 Uiso 0.577(14) 1 calc R U P A 1
H18B H -0.1805 -0.4649 -0.0221 0.204 Uiso 0.577(14) 1 calc R U P A 1
H18C H -0.2169 -0.3514 -0.0569 0.204 Uiso 0.577(14) 1 calc R U P A 1
Zn1' Zn 0.2007(13) -0.1090(9) 0.0006(5) 0.052(2) Uani 0.211(7) 1 d . U P A 2
O4' O 0.1165(14) -0.2663(17) -0.0175(4) 0.078(4) Uani 0.423(14) 1 d D U P A 2
C16' C 0.0002(13) -0.2983(16) -0.0222(3) 0.058(3) Uani 0.423(14) 1 d D U P A 2
H16B H -0.0547 -0.2573 -0.0059 0.070 Uiso 0.423(14) 1 calc R U P A 2
N1' N -0.0402(10) -0.4018(19) -0.0541(4) 0.084(4) Uani 0.423(14) 1 d D . P A 2
C17' C 0.0418(15) -0.431(3) -0.0841(6) 0.136(8) Uani 0.423(14) 1 d D U P A 2
H17D H 0.1220 -0.3900 -0.0753 0.204 Uiso 0.423(14) 1 calc R U P A 2
H17E H 0.0092 -0.3858 -0.1091 0.204 Uiso 0.423(14) 1 calc R U P A 2
H17F H 0.0490 -0.5357 -0.0877 0.204 Uiso 0.423(14) 1 calc R U P A 2
C18' C -0.1637(11) -0.452(2) -0.0627(6) 0.134(7) Uani 0.423(14) 1 d D U P A 2
H18D H -0.2092 -0.4272 -0.0406 0.202 Uiso 0.423(14) 1 calc R U P A 2
H18E H -0.1642 -0.5573 -0.0664 0.202 Uiso 0.423(14) 1 calc R U P A 2
H18F H -0.2016 -0.4050 -0.0868 0.202 Uiso 0.423(14) 1 calc R U P A 2
loop_
_atom_site_aniso_label
_atom_site_aniso_U_11
_atom_site_aniso_U_22
_atom_site_aniso_U_33
_atom_site_aniso_U_23
_atom_site_aniso_U_13
_atom_site_aniso_U_12
O2 0.106(2) 0.098(2) 0.0407(14) -0.0037(15) 0.0059(15) -0.025(2)
C3 0.068(2) 0.060(2) 0.0387(17) 0.0036(15) 0.0069(16) -0.0146(18)
C8 0.0513(19) 0.050(2) 0.0364(16) 0.0037(13) 0.0098(14) 0.0011(15)
O1 0.099(2) 0.082(2) 0.0464(15) -0.0111(14) 0.0242(15) -0.0089(17)
C2 0.068(2) 0.049(2) 0.0322(16) 0.0085(14) 0.0053(16) -0.0021(17)
O3 0.0696(18) 0.091(2) 0.0557(16) -0.0127(14) 0.0263(13) -0.0041(14)
C11 0.051(2) 0.062(2) 0.048(2) 0.0009(16) 0.0064(16) 0.0001(17)
C7 0.060(2) 0.052(2) 0.0371(16) 0.0073(15) 0.0143(15) 0.0053(17)
C6 0.051(2) 0.053(2) 0.0395(17) -0.0004(15) 0.0091(14) 0.0000(16)
C4 0.056(2) 0.065(2) 0.0441(18) 0.0065(17) 0.0181(16) -0.0035(18)
C5 0.056(2) 0.0461(19) 0.0317(15) 0.0067(14) 0.0090(14) 0.0010(15)
C9 0.065(2) 0.050(2) 0.0384(16) 0.0014(15) 0.0151(15) 0.0062(17)
C15 0.085(3) 0.055(2) 0.043(2) 0.0067(16) 0.0026(18) 0.0033(19)
C1 0.084(3) 0.058(2) 0.0335(17) 0.0046(16) 0.0040(19) -0.001(2)
C12 0.053(2) 0.068(3) 0.075(3) -0.010(2) 0.0117(19) -0.0071(19)
C13 0.071(3) 0.055(2) 0.081(3) 0.006(2) 0.031(2) 0.001(2)
C14 0.096(3) 0.059(3) 0.067(3) 0.016(2) 0.016(2) 0.009(2)
C10 0.0438(18) 0.049(2) 0.0460(18) 0.0046(15) 0.0119(14) 0.0059(15)
Zn1 0.106(8) 0.0447(12) 0.038(2) 0.000 -0.017(5) 0.000
O4 0.151(7) 0.083(5) 0.083(5) -0.027(4) 0.027(5) 0.013(6)
C16 0.045(6) 0.058(5) 0.107(7) 0.014(5) 0.003(6) -0.020(6)
N1 0.111(6) 0.053(6) 0.077(7) 0.009(5) -0.017(5) 0.003(4)
C17 0.160(13) 0.124(11) 0.096(10) -0.047(9) 0.000(8) 0.008(9)
C18 0.144(10) 0.095(8) 0.160(12) 0.058(8) -0.016(8) 0.000(7)
Zn1' 0.070(5) 0.049(2) 0.037(3) 0.0057(10) 0.005(3) 0.001(3)
O4' 0.080(7) 0.058(5) 0.093(7) -0.005(5) -0.002(7) -0.008(7)
C16' 0.057(7) 0.057(7) 0.055(5) -0.006(5) -0.018(6) -0.001(6)
N1' 0.129(11) 0.071(11) 0.053(9) -0.002(6) 0.006(7) 0.014(7)
C17' 0.138(13) 0.166(16) 0.109(13) -0.033(11) 0.037(10) 0.038(11)
C18' 0.115(11) 0.146(13) 0.137(13) 0.005(11) -0.007(9) -0.058(10)
loop_
_atom_type_symbol
_atom_type_description
_atom_type_scat_dispersion_real
_atom_type_scat_dispersion_imag
_atom_type_scat_source
C C 0.0033 0.0016 'International Tables Vol C Tables 4.2.6.8 and 6.1.1.4'
H H 0.0000 0.0000 'International Tables Vol C Tables 4.2.6.8 and 6.1.1.4'
N N 0.0061 0.0033 'International Tables Vol C Tables 4.2.6.8 and 6.1.1.4'
O O 0.0106 0.0060 'International Tables Vol C Tables 4.2.6.8 and 6.1.1.4'
Zn Zn 0.2839 1.4301 'International Tables Vol C Tables 4.2.6.8 and 6.1.1.4'
loop_
_geom_angle_atom_site_label_1
_geom_angle_atom_site_label_2
_geom_angle_atom_site_label_3
_geom_angle
_geom_angle_site_symmetry_1
_geom_angle_site_symmetry_3
C1 O2 Zn1' 111.2(5) . .
C1 O2 Zn1' 86.3(4) . 2
Zn1' O2 Zn1' 26.8(8) . 2
C4 C3 C2 121.8(3) . .
C4 C3 H3A 119.1 . .
C2 C3 H3A 119.1 . .
C9 C8 C10 121.8(3) . .
C9 C8 C5 122.0(3) . .
C10 C8 C5 116.1(3) . .
C1 O1 Zn1' 94.7(5) . 2
C1 O1 Zn1 82.9(2) . .
C3 C2 C7 117.9(3) . .
C3 C2 C1 121.3(3) . .
C7 C2 C1 120.8(3) . .
C7 O3 H3B 109.5 . .
C12 C11 C10 121.6(4) . .
C12 C11 H11A 119.2 . .
C10 C11 H11A 119.2 . .
O3 C7 C6 116.7(3) . .
O3 C7 C2 122.9(3) . .
C6 C7 C2 120.4(3) . .
C7 C6 C5 120.7(3) . .
C7 C6 H6A 119.6 . .
C5 C6 H6A 119.6 . .
C3 C4 C5 120.3(3) . .
C3 C4 H4A 119.9 . .
C5 C4 H4A 119.9 . .
C4 C5 C6 119.0(3) . .
C4 C5 C8 121.6(3) . .
C6 C5 C8 119.4(3) . .
C8 C9 C9 125.9(4) . 7
C8 C9 H9A 117.0 . .
C9 C9 H9A 117.0 7 .
C14 C15 C10 120.9(4) . .
C14 C15 H15A 119.6 . .
C10 C15 H15A 119.6 . .
O2 C1 O1 120.1(3) . .
O2 C1 C2 120.0(3) . .
O1 C1 C2 119.8(4) . .
O2 C1 Zn1' 64.6(4) . 2
O1 C1 Zn1' 56.0(3) . 2
C2 C1 Zn1' 174.3(4) . 2
C11 C12 C13 120.3(4) . .
C11 C12 H12A 119.8 . .
C13 C12 H12A 119.8 . .
C12 C13 C14 119.0(4) . .
C12 C13 H13A 120.5 . .
C14 C13 H13A 120.5 . .
C13 C14 C15 120.6(4) . .
C13 C14 H14A 119.7 . .
C15 C14 H14A 119.7 . .
C11 C10 C15 117.5(3) . .
C11 C10 C8 122.5(3) . .
C15 C10 C8 120.0(3) . .
O4 Zn1 O4 78.3(9) . 2
O4 Zn1 O2 95.9(4) . 2
O4 Zn1 O2 115.4(4) 2 2
O4 Zn1 O1 89.7(5) . 2
O4 Zn1 O1 166.4(5) 2 2
O2 Zn1 O1 59.04(14) 2 2
O4 Zn1 O1 166.4(5) . .
O4 Zn1 O1 89.7(5) 2 .
O2 Zn1 O1 95.0(2) 2 .
O1 Zn1 O1 102.8(3) 2 .
O4 Zn1 C1 92.3(5) . 2
O4 Zn1 C1 143.1(4) 2 2
O2 Zn1 C1 29.38(13) 2 2
O1 Zn1 C1 29.68(11) 2 2
O1 Zn1 C1 101.1(2) . 2
O4 Zn1 C16 92.8(5) . 2
O4 Zn1 C16 27.9(4) 2 2
O2 Zn1 C16 90.5(3) 2 2
O1 Zn1 C16 149.5(3) 2 2
O1 Zn1 C16 79.1(3) . 2
C1 Zn1 C16 119.8(3) 2 2
C16 O4 Zn1 110.3(9) . .
O4 C16 N1 118.1(9) . .
O4 C16 H16A 120.9 . .
N1 C16 H16A 120.9 . .
C18 N1 C17 116.6(9) . .
C18 N1 C16 121.7(8) . .
C17 N1 C16 121.0(8) . .
N1 C17 H17A 109.5 . .
N1 C17 H17B 109.5 . .
H17A C17 H17B 109.5 . .
N1 C17 H17C 109.5 . .
H17A C17 H17C 109.5 . .
H17B C17 H17C 109.5 . .
N1 C18 H18A 109.5 . .
N1 C18 H18B 109.5 . .
H18A C18 H18B 109.5 . .
N1 C18 H18C 109.5 . .
H18A C18 H18C 109.5 . .
H18B C18 H18C 109.5 . .
Zn1' Zn1' O4' 117.8(10) 2 .
Zn1' Zn1' O2 102.8(17) 2 .
O4' Zn1' O2 121.0(9) . .
Zn1' Zn1' O1 104.9(14) 2 2
O4' Zn1' O1 99.9(8) . 2
O2 Zn1' O1 109.3(4) . 2
Zn1' Zn1' O2 50.4(14) 2 2
O4' Zn1' O2 105.6(9) . 2
O2 Zn1' O2 133.4(6) . 2
O1 Zn1' O2 58.3(4) 2 2
Zn1' Zn1' O4' 39.3(8) 2 2
O4' Zn1' O4' 89.3(9) . 2
O2 Zn1' O4' 98.4(7) . 2
O1 Zn1' O4' 140.1(8) 2 2
O2 Zn1' O4' 81.7(6) 2 2
Zn1' Zn1' C1 78.0(14) 2 2
O4' Zn1' C1 102.6(9) . 2
O2 Zn1' C1 127.5(4) . 2
O1 Zn1' C1 29.3(2) 2 2
O2 Zn1' C1 29.1(2) 2 2
O4' Zn1' C1 110.7(7) 2 2
C16' O4' Zn1' 133.4(13) . .
C16' O4' Zn1' 156.2(13) . 2
Zn1' O4' Zn1' 22.9(7) . 2
O4' C16' N1' 116.3(9) . .
O4' C16' H16B 121.8 . .
N1' C16' H16B 121.8 . .
C18' N1' C17' 116.9(9) . .
C18' N1' C16' 123.7(10) . .
C17' N1' C16' 118.0(9) . .
N1' C17' H17D 109.5 . .
N1' C17' H17E 109.5 . .
H17D C17' H17E 109.5 . .
N1' C17' H17F 109.5 . .
H17D C17' H17F 109.5 . .
H17E C17' H17F 109.5 . .
N1' C18' H18D 109.5 . .
N1' C18' H18E 109.5 . .
H18D C18' H18E 109.5 . .
N1' C18' H18F 109.5 . .
H18D C18' H18F 109.5 . .
H18E C18' H18F 109.5 . .
loop_
_geom_bond_atom_site_label_1
_geom_bond_atom_site_label_2
_geom_bond_distance
_geom_bond_site_symmetry_2
O2 C1 1.255(5) .
O2 Zn1' 1.839(15) .
O2 Zn1' 2.329(15) 2
C3 C4 1.373(5) .
C3 C2 1.396(5) .
C3 H3A 0.9300 .
C8 C9 1.345(4) .
C8 C10 1.490(5) .
C8 C5 1.497(4) .
O1 C1 1.265(4) .
O1 Zn1' 2.140(12) 2
O1 Zn1 2.358(5) .
C2 C7 1.404(5) .
C2 C1 1.476(5) .
O3 C7 1.364(4) .
O3 H3B 0.8200 .
C11 C12 1.373(5) .
C11 C10 1.386(5) .
C11 H11A 0.9300 .
C7 C6 1.383(5) .
C6 C5 1.397(4) .
C6 H6A 0.9300 .
C4 C5 1.386(5) .
C4 H4A 0.9300 .
C9 C9 1.441(7) 7
C9 H9A 0.9300 .
C15 C14 1.379(6) .
C15 C10 1.392(5) .
C15 H15A 0.9300 .
C1 Zn1' 2.573(14) 2
C12 C13 1.377(6) .
C12 H12A 0.9300 .
C13 C14 1.379(6) .
C13 H13A 0.9300 .
C14 H14A 0.9300 .
Zn1 O4 1.833(12) .
Zn1 O4 1.833(12) 2
Zn1 O2 2.039(3) 2
Zn1 O1 2.358(5) 2
Zn1 C1 2.535(5) 2
Zn1 C16 2.579(12) 2
O4 C16 1.286(8) .
C16 N1 1.446(8) .
C16 H16A 0.9300 .
N1 C18 1.426(8) .
N1 C17 1.437(8) .
C17 H17A 0.9600 .
C17 H17B 0.9600 .
C17 H17C 0.9600 .
C18 H18A 0.9600 .
C18 H18B 0.9600 .
C18 H18C 0.9600 .
Zn1' Zn1' 1.08(3) 2
Zn1' O4' 1.759(16) .
Zn1' O1 2.140(12) 2
Zn1' O2 2.329(15) 2
Zn1' O4' 2.455(19) 2
Zn1' C1 2.573(14) 2
O4' C16' 1.289(9) .
O4' Zn1' 2.455(19) 2
C16' N1' 1.448(9) .
C16' H16B 0.9300 .
N1' C18' 1.415(9) .
N1' C17' 1.440(9) .
C17' H17D 0.9600 .
C17' H17E 0.9600 .
C17' H17F 0.9600 .
C18' H18D 0.9600 .
C18' H18E 0.9600 .
C18' H18F 0.9600 .
loop_
_geom_torsion_atom_site_label_1
_geom_torsion_atom_site_label_2
_geom_torsion_atom_site_label_3
_geom_torsion_atom_site_label_4
_geom_torsion
_geom_torsion_site_symmetry_1
_geom_torsion_site_symmetry_4
C4 C3 C2 C7 1.0(5) . .
C4 C3 C2 C1 -176.6(3) . .
C3 C2 C7 O3 -179.7(3) . .
C1 C2 C7 O3 -2.1(5) . .
C3 C2 C7 C6 -1.1(5) . .
C1 C2 C7 C6 176.5(3) . .
O3 C7 C6 C5 179.2(3) . .
C2 C7 C6 C5 0.5(5) . .
C2 C3 C4 C5 -0.4(5) . .
C3 C4 C5 C6 -0.2(5) . .
C3 C4 C5 C8 177.8(3) . .
C7 C6 C5 C4 0.2(5) . .
C7 C6 C5 C8 -177.9(3) . .
C9 C8 C5 C4 59.6(5) . .
C10 C8 C5 C4 -119.8(3) . .
C9 C8 C5 C6 -122.4(4) . .
C10 C8 C5 C6 58.2(4) . .
C10 C8 C9 C9 -175.9(4) . 7
C5 C8 C9 C9 4.8(7) . 7
Zn1' O2 C1 O1 -3.1(6) . .
Zn1' O2 C1 O1 7.1(5) 2 .
Zn1' O2 C1 C2 173.8(4) . .
Zn1' O2 C1 C2 -176.1(4) 2 .
Zn1' O2 C1 Zn1' -10.1(5) . 2
Zn1' O1 C1 O2 -7.7(5) 2 .
Zn1 O1 C1 O2 -3.0(4) . .
Zn1' O1 C1 C2 175.5(4) 2 .
Zn1 O1 C1 C2 -179.9(3) . .
Zn1 O1 C1 Zn1' 4.6(4) . 2
C3 C2 C1 O2 -6.7(5) . .
C7 C2 C1 O2 175.8(3) . .
C3 C2 C1 O1 170.2(4) . .
C7 C2 C1 O1 -7.3(5) . .
C10 C11 C12 C13 0.3(5) . .
C11 C12 C13 C14 1.0(6) . .
C12 C13 C14 C15 -1.9(6) . .
C10 C15 C14 C13 1.5(6) . .
C12 C11 C10 C15 -0.7(5) . .
C12 C11 C10 C8 -179.2(3) . .
C14 C15 C10 C11 -0.2(5) . .
C14 C15 C10 C8 178.4(3) . .
C9 C8 C10 C11 35.3(5) . .
C5 C8 C10 C11 -145.3(3) . .
C9 C8 C10 C15 -143.1(4) . .
C5 C8 C10 C15 36.3(4) . .
O4 Zn1 O4 C16 119.8(14) 2 .
O2 Zn1 O4 C16 -125.4(11) 2 .
O1 Zn1 O4 C16 -66.6(11) 2 .
O1 Zn1 O4 C16 91.2(18) . .
C1 Zn1 O4 C16 -96.2(11) 2 .
C16 Zn1 O4 C16 143.8(11) 2 .
Zn1 O4 C16 N1 166.1(9) . .
O4 C16 N1 C18 177.0(13) . .
O4 C16 N1 C17 6(2) . .
C1 O2 Zn1' Zn1' 22.9(8) . 2
C1 O2 Zn1' O4' 156.9(8) . .
Zn1' O2 Zn1' O4' 134.0(12) 2 .
C1 O2 Zn1' O1 -88.1(7) . 2
Zn1' O2 Zn1' O1 -111.0(9) 2 2
C1 O2 Zn1' O2 -23.8(9) . 2
Zn1' O2 Zn1' O2 -46.7(7) 2 2
C1 O2 Zn1' O4' 62.7(6) . 2
Zn1' O2 Zn1' O4' 39.8(8) 2 2
C1 O2 Zn1' C1 -61.7(9) . 2
Zn1' O2 Zn1' C1 -84.6(9) 2 2
Zn1' Zn1' O4' C16' -176(2) 2 .
O2 Zn1' O4' C16' 57(2) . .
O1 Zn1' O4' C16' -63.1(19) 2 .
O2 Zn1' O4' C16' -122.8(17) 2 .
O4' Zn1' O4' C16' 156(2) 2 .
C1 Zn1' O4' C16' -92.9(18) 2 .
O2 Zn1' O4' Zn1' -128(2) . 2
O1 Zn1' O4' Zn1' 113(2) 2 2
O2 Zn1' O4' Zn1' 53.0(18) 2 2
O4' Zn1' O4' Zn1' -28.2(18) 2 2
C1 Zn1' O4' Zn1' 83(2) 2 2
Zn1' O4' C16' N1' 151.4(16) . .
Zn1' O4' C16' N1' 147(3) 2 .
O4' C16' N1' C18' 178.3(17) . .
O4' C16' N1' C17' -16(3) . .
