#------------------------------------------------------------------------------
#$Date: 2019-10-28 05:07:38 +0200 (Mon, 28 Oct 2019) $
#$Revision: 219659 $
#$URL: file:///home/coder/svn-repositories/cod/cif/4/51/44/4514470.cif $
#------------------------------------------------------------------------------
#
# This file is available in the Crystallography Open Database (COD),
# http://www.crystallography.net/
#
# All data on this site have been placed in the public domain by the
# contributors.
#
data_4514470
loop_
_publ_author_name
'Mi, Xiuna'
'Sheng, Dafei'
'Yu, Yu'e'
'Wang, Yuhao'
'Zhao, Limin'
'Lu, Jing'
'Li, Yunwu'
'Li, Dacheng'
'Dou, Jianmin'
'Duan, Jingui'
'Wang, Suna'
_publ_section_title
;
 Tunable Light Emission and Multiresponsive Luminescent Sensitivities in
 Aqueous Solutions of Two Series of Lanthanide Metal-Organic Frameworks
 Based on Structurally Related Ligands.
;
_journal_issue                   8
_journal_name_full               'ACS applied materials &amp; interfaces'
_journal_page_first              7914
_journal_page_last               7926
_journal_paper_doi               10.1021/acsami.8b18320
_journal_volume                  11
_journal_year                    2019
_chemical_formula_sum            'C21 H23 Gd N2 O10'
_chemical_formula_weight         620.66
_space_group_crystal_system      triclinic
_space_group_IT_number           2
_space_group_name_Hall           '-P 1'
_space_group_name_H-M_alt        'P -1'
_symmetry_space_group_name_Hall  '-P 1'
_symmetry_space_group_name_H-M   'P -1'
_atom_sites_solution_hydrogens   mixed
_audit_creation_method           SHELXL-2014/7
_cell_angle_alpha                89.775(2)
_cell_angle_beta                 88.899(2)
_cell_angle_gamma                68.1150(10)
_cell_formula_units_Z            2
_cell_length_a                   9.2506(8)
_cell_length_b                   10.1406(9)
_cell_length_c                   13.9291(11)
_cell_measurement_reflns_used    3002
_cell_measurement_temperature    298(2)
_cell_measurement_theta_max      26.421
_cell_measurement_theta_min      2.53
_cell_volume                     1212.25(18)
_computing_cell_refinement       'Bruker SMART'
_computing_data_collection       'Bruker SMART'
_computing_data_reduction        'Bruker SHELXTL'
_computing_molecular_graphics    'Bruker SHELXTL'
_computing_publication_material  'Bruker SHELXTL'
_computing_structure_refinement  'SHELXL-2014/7 (Sheldrick, 2014)'
_computing_structure_solution    'Bruker SHELXTL'
_diffrn_ambient_temperature      298(2)
_diffrn_measured_fraction_theta_full 0.980
_diffrn_measured_fraction_theta_max 0.980
_diffrn_measurement_device_type  'CCD area detector'
_diffrn_measurement_method       'phi and omega scans'
_diffrn_radiation_type           MoK\a
_diffrn_radiation_wavelength     0.71073
_diffrn_reflns_av_R_equivalents  0.0449
_diffrn_reflns_av_unetI/netI     0.0654
_diffrn_reflns_Laue_measured_fraction_full 0.980
_diffrn_reflns_Laue_measured_fraction_max 0.980
_diffrn_reflns_limit_h_max       10
_diffrn_reflns_limit_h_min       -10
_diffrn_reflns_limit_k_max       9
_diffrn_reflns_limit_k_min       -12
_diffrn_reflns_limit_l_max       15
_diffrn_reflns_limit_l_min       -16
_diffrn_reflns_number            6202
_diffrn_reflns_point_group_measured_fraction_full 0.980
_diffrn_reflns_point_group_measured_fraction_max 0.980
_diffrn_reflns_theta_full        25.020
_diffrn_reflns_theta_max         25.020
_diffrn_reflns_theta_min         2.547
_exptl_absorpt_coefficient_mu    2.792
_exptl_absorpt_correction_T_max  1.0
_exptl_absorpt_correction_T_min  0.95
_exptl_absorpt_correction_type   multi-scan
_exptl_absorpt_process_details   sadabs
_exptl_crystal_colour            colorless
_exptl_crystal_density_diffrn    1.700
_exptl_crystal_description       cluster
_exptl_crystal_F_000             614
_exptl_crystal_size_max          0.280
_exptl_crystal_size_mid          0.100
_exptl_crystal_size_min          0.050
_refine_diff_density_max         1.927
_refine_diff_density_min         -1.233
_refine_diff_density_rms         0.171
_refine_ls_extinction_method     none
_refine_ls_goodness_of_fit_ref   0.986
_refine_ls_hydrogen_treatment    constr
_refine_ls_matrix_type           full
_refine_ls_number_parameters     311
_refine_ls_number_reflns         4180
_refine_ls_number_restraints     0
_refine_ls_restrained_S_all      0.986
_refine_ls_R_factor_all          0.0549
_refine_ls_R_factor_gt           0.0458
_refine_ls_shift/su_max          0.000
_refine_ls_shift/su_mean         0.000
_refine_ls_structure_factor_coef Fsqd
_refine_ls_weighting_details
'w=1/[\s^2^(Fo^2^)+(0.0749P)^2^] where P=(Fo^2^+2Fc^2^)/3'
_refine_ls_weighting_scheme      calc
_refine_ls_wR_factor_gt          0.1129
_refine_ls_wR_factor_ref         0.1183
_reflns_Friedel_coverage         0.000
_reflns_number_gt                3525
_reflns_number_total             4180
_reflns_threshold_expression     'I > 2\s(I)'
_cod_data_source_file            am8b18320_si_004.cif
_cod_data_source_block           160223b
_cod_database_code               4514470
_shelx_shelxl_version_number     2014/7
_shelx_space_group_comment
;
The symmetry employed for this shelxl refinement is uniquely defined
by the following loop, which should always be used as a source of
symmetry information in preference to the above space-group names.
They are only intended as comments.
;
_shelx_estimated_absorpt_t_min   0.509
_shelx_estimated_absorpt_t_max   0.873
_shelx_res_file
;

    160223b.res created by SHELXL-2014/7

TITL 160223b in P-1
CELL 0.71073   9.2506  10.1406  13.9291  89.775  88.899  68.115
ZERR    2.00   0.0008   0.0009   0.0011   0.002   0.002   0.001
LATT 1
SFAC C  H  N  O  Gd
UNIT 42 46 4 20 2
size  0.28 0.10 0.05
OMIT  -1.00  50.04
L.S. 8
ACTA
conf
htab
BOND $H
FMAP 2
PLAN 20
FREE Gd1  C11
FREE Gd1  C15
TEMP 25
WGHT    0.074900
FVAR       0.15040
GD1   5    0.347815    0.397258    0.514289    11.00000    0.01700    0.01617 =
         0.04241    0.00046   -0.00543   -0.00512
O1    4    0.326932    0.560241    0.642089    11.00000    0.03134    0.03010 =
         0.05136   -0.00971   -0.00149   -0.01375
O2    4    0.526677    0.638905    0.642072    11.00000    0.02838    0.04271 =
         0.03935   -0.00510   -0.00058   -0.01828
O3    4    0.201949    0.917163    0.692656    11.00000    0.02292    0.02941 =
         0.06161    0.01093   -0.01579   -0.00904
O4    4   -0.163087    1.380064    0.553301    11.00000    0.01937    0.01742 =
         0.06114    0.00694   -0.00891   -0.00798
O5    4   -0.387435    1.352841    0.541358    11.00000    0.01900    0.02689 =
         0.05262    0.00657   -0.01060   -0.00695
O6    4   -0.361701    0.843692    0.523614    11.00000    0.03708    0.02156 =
         0.06591    0.00694   -0.02570   -0.01489
O7    4   -0.170250    0.674335    0.597107    11.00000    0.03000    0.01492 =
         0.05709    0.00048   -0.00694   -0.00786
O8    4    0.099460    0.435053    0.599430    11.00000    0.02379    0.03099 =
         0.04981   -0.00125   -0.00741   -0.01088
AFIX   3
H8B   2    0.055190    0.383903    0.574500    11.00000   -1.20000
H8C   2    0.038870    0.521663    0.595380    11.00000   -1.20000
AFIX   0
O9    4    0.409945    0.255715    0.660622    11.00000    0.04219    0.03095 =
         0.05545    0.00449   -0.00328   -0.00284
O10   4    0.156261    0.695580    0.172531    11.00000    0.40471    0.34556 =
         0.13272   -0.07682    0.09266   -0.32595
N1    3    0.518796    0.075993    0.765674    11.00000    0.06146    0.04777 =
         0.04321    0.01188   -0.01841   -0.02132
N2    3    0.025375    0.553619    0.157464    11.00000    0.08744    0.08369 =
         0.07582   -0.00078    0.01726   -0.04174
C1    1    0.406286    0.626204    0.678039    11.00000    0.02831    0.02555 =
         0.03316    0.00440   -0.00722   -0.00459
C2    1    0.341447    0.699001    0.773676    11.00000    0.02740    0.02789 =
         0.03877    0.00097   -0.00556   -0.00839
C3    1    0.384898    0.622530    0.858894    11.00000    0.03832    0.03924 =
         0.04961    0.00962   -0.00809    0.00152
AFIX  43
H3    2    0.459975    0.530878    0.857643    11.00000   -1.20000
AFIX   0
C4    1    0.314919    0.684369    0.946588    11.00000    0.06538    0.07243 =
         0.04219    0.00755   -0.01501   -0.00257
AFIX  43
H4    2    0.342862    0.633495    1.003422    11.00000   -1.20000
AFIX   0
C5    1    0.205302    0.820007    0.947939    11.00000    0.05137    0.08199 =
         0.04363   -0.01359    0.00231   -0.00765
AFIX  43
H5    2    0.159161    0.860416    1.006080    11.00000   -1.20000
AFIX   0
C6    1    0.161567    0.898831    0.863218    11.00000    0.03808    0.05405 =
         0.05393   -0.02207    0.00040    0.00205
AFIX  43
H6    2    0.086569    0.990520    0.864421    11.00000   -1.20000
AFIX   0
C7    1    0.232512    0.837007    0.778152    11.00000    0.02965    0.03408 =
         0.03974    0.00281   -0.01248   -0.00962
C8    1    0.050501    0.961196    0.658080    11.00000    0.01699    0.02318 =
         0.04233    0.00359   -0.00879   -0.00140
C9    1   -0.021471    1.102974    0.630716    11.00000    0.02358    0.02167 =
         0.04468   -0.00223   -0.00563   -0.00955
AFIX  43
H9    2    0.027472    1.166599    0.641487    11.00000   -1.20000
AFIX   0
C10   1   -0.166643    1.149711    0.587239    11.00000    0.01974    0.02131 =
         0.02926    0.00092    0.00090   -0.00548
C11   1   -0.244646    1.303376    0.559899    11.00000    0.02462    0.01747 =
         0.03748   -0.00324   -0.00701   -0.00771
C12   1   -0.236680    1.052143    0.569319    11.00000    0.02378    0.02080 =
         0.03675    0.00014   -0.00182   -0.01158
AFIX  43
H12   2   -0.332753    1.082240    0.539632    11.00000   -1.20000
AFIX   0
C13   1   -0.164028    0.909701    0.595495    11.00000    0.01950    0.02209 =
         0.03912   -0.00410   -0.00582   -0.00484
C14   1   -0.021276    0.865406    0.640843    11.00000    0.02653    0.01417 =
         0.04269    0.00644   -0.00324   -0.00522
AFIX  43
H14   2    0.026428    0.771196    0.659740    11.00000   -1.20000
AFIX   0
C15   1   -0.236705    0.803376    0.572212    11.00000    0.02056    0.01880 =
         0.03592   -0.00341   -0.00192   -0.00368
C16   1    0.441765    0.131423    0.686280    11.00000    0.03572    0.03314 =
         0.05098    0.00195   -0.00593   -0.00615
AFIX  43
H16   2    0.409941    0.072954    0.647753    11.00000   -1.20000
AFIX   0
C17   1    0.578186    0.160357    0.825435    11.00000    0.12048    0.07250 =
         0.08576    0.00699   -0.04203   -0.04260
AFIX 137
H17A  2    0.554069    0.252466    0.797239    11.00000   -1.50000
H17B  2    0.689098    0.113833    0.830376    11.00000   -1.50000
H17C  2    0.530732    0.170657    0.888278    11.00000   -1.50000
AFIX   0
C18   1    0.559612   -0.074979    0.789771    11.00000    0.07659    0.04327 =
         0.07431    0.02318   -0.01095   -0.02201
AFIX 137
H18A  2    0.525139   -0.120825    0.739918    11.00000   -1.50000
H18B  2    0.509775   -0.082424    0.849520    11.00000   -1.50000
H18C  2    0.670529   -0.120100    0.795582    11.00000   -1.50000
AFIX   0
C19   1    0.152038    0.567620    0.184365    11.00000    0.20019    0.32719 =
         0.09867   -0.03838    0.03218   -0.22080
AFIX  43
H19   2    0.234491    0.492764    0.210262    11.00000   -1.20000
AFIX   0
C20   1   -0.097222    0.666182    0.122454    11.00000    0.17921    0.17628 =
         0.17070    0.04173    0.06324    0.03657
AFIX 137
H20A  2   -0.082418    0.753035    0.135872    11.00000   -1.50000
H20B  2   -0.192409    0.668767    0.152652    11.00000   -1.50000
H20C  2   -0.102706    0.655580    0.054318    11.00000   -1.50000
AFIX   0
C21   1   -0.004032    0.426026    0.174738    11.00000    0.21028    0.14561 =
         0.13156    0.00080   -0.01416   -0.13182
AFIX 137
H21A  2   -0.001166    0.378520    0.114842    11.00000   -1.50000
H21B  2   -0.104831    0.449785    0.204839    11.00000   -1.50000
H21C  2    0.074248    0.364500    0.216078    11.00000   -1.50000
AFIX   0
HKLF 4

REM  160223b in P-1
REM R1 =  0.0458 for    3525 Fo > 4sig(Fo)  and  0.0549 for all    4180 data
REM    311 parameters refined using      0 restraints

END

WGHT      0.0750      0.0000

REM Instructions for potential hydrogen bonds
EQIV $1 x, y-1, z
HTAB O8 O4_$1
HTAB O8 O7
EQIV $2 -x, -y+1, -z+1
HTAB C16 O6_$2

REM Highest difference peak  1.927,  deepest hole -1.233,  1-sigma level  0.171
Q1    1   0.3745  0.4108  0.4475  11.00000  0.05    1.93
Q2    1   0.3242  0.3808  0.5801  11.00000  0.05    1.74
Q3    1   0.0401  1.1943  0.5422  11.00000  0.05    1.44
Q4    1   0.3334  0.4116  0.6434  11.00000  0.05    1.13
Q5    1   0.2866  0.3396  0.5034  11.00000  0.05    1.06
Q6    1   0.6540  0.5963  0.6213  11.00000  0.05    1.01
Q7    1   0.4141  0.4427  0.5277  11.00000  0.05    0.84
Q8    1  -0.2856  0.6962  0.6889  11.00000  0.05    0.65
Q9    1   0.0087  0.7049  0.1573  11.00000  0.05    0.63
Q10   1   0.4666  0.5198  0.5694  11.00000  0.05    0.62
Q11   1  -0.2249  1.3010  0.4371  11.00000  0.05    0.57
Q12   1   0.6593  0.6026  0.6988  11.00000  0.05    0.56
Q13   1   0.3431  0.3480  0.6615  11.00000  0.05    0.56
Q14   1   0.0225  0.9087  0.6484  11.00000  0.05    0.55
Q15   1  -0.4590  1.1859  0.5795  11.00000  0.05    0.53
Q16   1   0.4640  0.1887  0.9502  11.00000  0.05    0.53
Q17   1  -0.1941  0.8627  0.6294  11.00000  0.05    0.53
Q18   1  -0.3149  0.6764  0.5640  11.00000  0.05    0.53
Q19   1   0.4694  0.0216  0.7889  11.00000  0.05    0.52
Q20   1   0.1838  0.9420  0.9205  11.00000  0.05    0.50
;
_shelx_res_checksum              68069
_shelx_hkl_file
;
   0   0  -2  126.19    3.02
   0   0  -3  426.98    6.80
   0   0  -4    7.85    1.08
   0   0  -5   13.76    1.42
   0   0  -6  213.37    5.61
   0   0  -7  104.09    4.03
   0   0  -8   30.08    2.43
   0   0  -9   14.34    1.81
   0   0 -10    4.17    1.21
   0   0 -11   38.37    3.23
   0   0 -12    9.56    1.71
   0   0 -13    5.22    1.43
   0   0 -14    5.53    1.70
   0   0 -15    2.70    1.57
   0   0 -16   -0.01    1.14
   0   0 -17    0.47    1.23
   0   0 -18    1.22    1.73
   0   1 -18    2.25    1.86
   0   1 -17    1.86    1.73
   0   1 -16    2.04    1.37
   0   1 -15    1.46    1.20
   0   1 -14    3.17    1.47
   0   1 -13    5.55    1.44
   0   1 -12    0.50    0.89
   0   1 -11    1.25    0.97
   0   1 -10    2.43    1.25
   0   1  -9    9.89    1.55
   0   1  -8    5.83    1.18
   0   1  -7    1.11    1.05
   0   1  -6    3.84    0.98
   0   1  -5   23.55    1.80
   0   1  -4    2.69    1.05
   0   1  -3  101.07    3.20
   0   1  -2  251.58    4.34
   0  -1  -2  290.45    4.15
   0  -1  -3  376.43    5.65
   0  -1  -4  246.72    5.05
   0  -1  -5  131.81    4.05
   0  -1  -6  327.79    6.67
   0  -1  -7  138.57    4.54
   0  -1  -8   94.79    4.05
   0  -1  -9   83.27    4.08
   0  -1 -10   59.04    3.61
   0  -1 -11   21.54    2.42
   0  -1 -12   16.98    2.16
   0  -1 -13   36.39    3.26
   0  -1 -14   14.38    2.40
   0  -1 -15    5.32    1.65
   0  -1 -16    1.28    1.20
   0  -1 -17    5.13    1.94
   0  -1 -18    2.60    1.57
   0   2 -18    6.67    2.07
   0   2 -17    4.65    1.82
   0   2 -15   17.05    2.72
   0   2 -14   17.37    2.52
   0   2 -13   17.02    2.28
   0   2 -12   19.40    2.45
   0   2 -11   34.02    2.91
   0   2 -10   21.48    2.33
   0   2  -9   13.26    1.84
   0   2  -8   14.14    1.67
   0   2  -7   49.34    2.83
   0   2  -6   36.97    2.32
   0   2  -5   70.86    3.01
   0   2  -4   94.47    3.39
   0   2  -3   11.01    1.20
   0   2  -2    1.17    0.62
   0  -2  -2    1.52    0.49
   0  -2  -3   98.03    2.50
   0  -2  -4  121.77    3.24
   0  -2  -5  153.16    3.99
   0  -2  -6  209.59    5.19
   0  -2  -7  125.94    4.33
   0  -2  -8  112.23    4.42
   0  -2  -9   60.10    3.40
   0  -2 -10   82.03    4.21
   0  -2 -11   51.40    3.37
   0  -2 -12   42.63    3.30
   0  -2 -13   28.25    2.90
   0  -2 -14   28.86    3.17
   0  -2 -16   11.00    2.20
   0  -2 -17    7.10    2.19
   0  -2 -18    3.26    1.55
   0   3 -18    9.11    2.46
   0   3 -17   14.22    2.60
   0   3 -15    7.70    2.11
   0   3 -14   17.33    2.55
   0   3 -13   27.62    2.90
   0   3 -12   40.98    3.37
   0   3 -11   38.90    3.05
   0   3 -10   39.16    3.12
   0   3  -9   27.81    2.46
   0   3  -8   38.29    2.71
   0   3  -7   34.07    2.32
   0   3  -6   71.68    3.22
   0   3  -5  331.06    6.45
   0   3  -4  219.00    4.77
   0   3  -3  106.66    2.85
   0   3  -2   77.58    1.95
   0  -3  -2   20.41    0.93
   0  -3  -3    0.60    0.44
   0  -3  -4   31.89    1.63
   0  -3  -5   58.96    2.52
   0  -3  -6    7.48    1.13
   0  -3  -7    3.15    0.81
   0  -3  -8    5.88    1.08
   0  -3  -9   15.78    1.71
   0  -3 -10   23.19    2.17
   0  -3 -11   19.68    2.17
   0  -3 -12   18.87    2.36
   0  -3 -13   18.89    2.45
   0  -3 -14    8.64    1.97
   0  -3 -15    8.47    1.88
   0  -3 -16   11.03    2.35
   0  -3 -17    3.60    1.52
   0  -3 -18    4.91    1.97
   0   4 -17    0.14    1.11
   0   4 -16    3.81    1.76
   0   4 -15    9.23    1.98
   0   4 -14   16.37    2.63
   0   4 -13   20.32    2.63
   0   4 -12   35.73    3.19
   0   4 -11   51.14    3.46
   0   4 -10   49.81    3.35
   0   4  -9   25.49    2.26
   0   4  -8   38.18    2.63
   0   4  -7   67.49    3.29
   0   4  -6   86.54    3.40
   0   4  -5   73.21    2.83
   0   4  -4   87.26    2.74
   0   4  -3  198.87    3.68
   0   4  -2  230.46    3.15
   0  -4  -2  157.87    2.51
   0  -4  -3  117.85    2.60
   0  -4  -4   55.88    2.14
   0  -4  -5   77.20    2.81
   0  -4  -6   40.18    2.19
   0  -4  -7   20.93    1.73
   0  -4  -8   30.55    2.24
   0  -4  -9   13.13    1.68
   0  -4 -10    1.93    1.05
   0  -4 -11    0.06    0.68
   0  -4 -12   10.41    1.93
   0  -4 -13    9.11    1.89
   0  -4 -14    3.62    1.55
   0  -4 -15    1.31    1.15
   0  -4 -16    1.81    1.45
   0  -4 -17    0.01    1.16
   0   5 -17   -0.30    1.06
   0   5 -16   -0.66    1.42
   0   5 -15   -0.22    0.96
   0   5 -14    1.79    1.43
   0   5 -13    4.46    1.47
   0   5 -12   11.87    2.04
   0   5 -11    3.75    1.29
   0   5 -10    5.82    1.39
   0   5  -9   32.90    2.53
   0   5  -8   26.89    2.16
   0   5  -7   23.94    1.94
   0   5  -6   55.05    2.60
   0   5  -5   91.24    2.96
   0   5  -4  110.89    2.88
   0   5  -2  270.76    3.24
   0  -5  -2  213.52    2.69
   0  -5  -3  170.78    3.11
   0  -5  -4  147.47    3.31
   0  -5  -5  137.66    3.61
   0  -5  -6  142.48    4.07
   0  -5  -7   75.94    3.25
   0  -5  -8   35.04    2.45
   0  -5  -9   20.44    2.05
   0  -5 -10   14.65    1.87
   0  -5 -11   11.93    1.87
   0  -5 -12    7.55    1.69
   0  -5 -13    9.80    1.89
   0  -5 -14    2.08    1.38
   0  -5 -15    0.51    1.21
   0  -5 -16    0.32    1.03
   0  -5 -17    0.43    1.59
   0   6 -11   -0.19    0.93
   0   6 -10   -0.05    0.91
   0   6  -9    0.59    0.89
   0   6  -8    0.14    0.69
   1  -5 -15    4.90    1.52
   1  -5 -14    3.36    1.53
   1  -5 -13    4.48    1.35
   1  -5 -12    2.99    1.28
   1  -5 -11    5.61    1.37
   1  -5 -10    0.46    0.65
   1  -5  -9    0.37    0.81
   1  -5  -8    0.09    0.73
   1  -5  -7    0.89    0.73
   1  -5  -6   21.86    1.69
   1  -5  -5   20.36    1.51
   1  -5  -4    2.71    0.63
   1  -5  -3    4.27    0.56
  -1   5  -2  162.37    2.34
  -1   5  -3   70.09    1.90
  -1   5  -4   31.61    1.54
  -1   5  -5  111.40    3.23
  -1   5  -6  102.75    3.38
  -1   5  -7   53.01    2.73
  -1   5  -8  117.67    4.36
  -1   5  -9   89.35    4.05
  -1   5 -10   41.14    2.97
  -1   5 -11   21.34    2.35
  -1   5 -12   24.88    2.60
  -1   5 -13   31.72    3.13
  -1   5 -14   31.13    3.28
  -1   5 -15   20.20    2.87
  -1   5 -16    8.19    2.18
   1  -4 -17   14.12    2.69
   1  -4 -15   10.20    2.03
   1  -4 -14   16.88    2.44
   1  -4 -13    8.60    1.73
   1  -4 -12   17.53    2.12
   1  -4 -11   24.84    2.51
   1  -4 -10   17.48    2.14
   1  -4  -9   17.32    1.90
   1  -4  -8   21.47    1.99
   1  -4  -7   17.25    1.75
   1  -4  -6    6.12    1.12
   1  -4  -5    6.09    1.03
   1  -4  -4    0.57    0.59
   1  -4  -3    1.90    0.73
   1  -4  -2    7.69    0.82
  -1   4  -2   45.80    1.34
  -1   4  -4    0.26    0.47
  -1   4  -5   12.72    1.23
  -1   4  -6   53.53    2.54
  -1   4  -7   68.79    3.12
  -1   4  -8   48.30    2.86
  -1   4  -9   30.32    2.41
  -1   4 -10   32.00    2.72
  -1   4 -11   37.71    3.11
  -1   4 -12   29.03    2.89
  -1   4 -13    7.05    1.56
  -1   4 -14    9.88    1.91
  -1   4 -15    5.82    1.68
  -1   4 -16    7.72    2.12
  -1   4 -17   12.44    2.63
   1  -3 -17    3.72    1.96
   1  -3 -16    9.44    2.20
   1  -3 -15   14.06    2.32
   1  -3 -14   13.11    2.21
   1  -3 -13   30.34    2.90
   1  -3 -12   53.46    3.78
   1  -3 -11   52.72    3.61
   1  -3 -10   85.70    4.27
   1  -3  -9   86.66    4.14
   1  -3  -8   83.76    4.00
   1  -3  -7  100.98    4.52
   1  -3  -6  115.45    4.77
   1  -3  -5  129.32    4.63
   1  -3  -4  137.36    4.00
   1  -3  -3   85.46    2.53
   1  -3  -2   34.41    1.28
  -1   3  -1   46.39    1.15
  -1   3  -2  203.08    3.06
  -1   3  -3  170.96    3.27
  -1   3  -4   82.36    2.59
  -1   3  -5    0.62    0.55
  -1   3  -6    7.04    1.00
  -1   3  -7    0.14    0.51
  -1   3  -8    0.10    0.74
  -1   3  -9    0.39    0.94
  -1   3 -10    0.26    0.67
  -1   3 -11    4.95    1.42
  -1   3 -12    8.08    1.63
  -1   3 -13   13.44    2.13
  -1   3 -14   16.17    2.36
  -1   3 -15   13.36    2.43
  -1   3 -16   13.72    2.59
  -1   3 -17    7.10    1.99
  -1   3 -18    2.20    1.83
   1  -2 -18    1.83    1.70
   1  -2 -17    2.27    1.75
   1  -2 -16    3.07    1.64
   1  -2 -15    5.30    1.78
   1  -2 -14   12.46    2.29
   1  -2 -13   14.43    2.40
   1  -2 -12   24.29    2.76
   1  -2 -11   74.28    4.36
   1  -2 -10   77.49    4.26
   1  -2  -9   76.97    4.17
   1  -2  -8  160.78    6.34
   1  -2  -7   95.84    4.82
   1  -2  -6   41.54    2.89
   1  -2  -5  349.34    6.86
   1  -2  -4  208.44    4.47
   1  -2  -3   80.88    2.32
   1  -2  -2   62.08    1.65
   1  -2  -1    2.17    0.35
  -1   2  -1  428.04    4.50
  -1   2  -2  358.77    4.44
  -1   2  -3  219.41    3.78
  -1   2  -4  100.47    2.88
  -1   2  -5    4.07    0.75
  -1   2  -6   29.65    2.06
  -1   2  -7   24.25    2.06
  -1   2  -8   27.50    2.33
  -1   2  -9   20.98    2.13
  -1   2 -10   14.21    1.91
  -1   2 -11    4.57    1.28
  -1   2 -12    0.10    0.87
  -1   2 -13    0.16    0.88
  -1   2 -14    3.91    1.47
  -1   2 -15    0.07    0.95
  -1   2 -16    1.07    1.40
  -1   2 -17   -0.20    1.08
  -1   2 -18    3.04    1.98
   1  -1 -18    0.97    1.76
   1  -1 -17    3.00    1.84
   1  -1 -16    2.31    1.45
   1  -1 -15    1.21    1.09
   1  -1 -14   -0.28    0.91
   1  -1 -13    2.95    1.28
   1  -1 -12    2.94    1.24
   1  -1 -11    2.34    1.41
   1  -1 -10    6.71    1.51
   1  -1  -9    8.77    1.69
   1  -1  -8  115.06    5.69
   1  -1  -7  144.71    5.76
   1  -1  -6  165.67    5.13
   1  -1  -5  192.91    4.80
   1  -1  -4    4.51    0.85
   1  -1  -3   15.23    1.04
   1  -1  -2  331.03    4.22
   1  -1  -1  645.83    5.94
  -1   1   0   65.92    1.42
  -1   1  -1  840.74    7.31
  -1   1  -2  478.29    5.41
  -1   1  -3   68.32    2.10
  -1   1  -4  144.29    3.51
  -1   1  -5  316.56    6.01
  -1   1  -6  130.59    4.18
  -1   1  -7   91.45    3.76
  -1   1  -8  143.91    5.05
  -1   1  -9   81.00    4.07
  -1   1 -10   52.87    3.56
  -1   1 -11   24.74    2.59
  -1   1 -12   27.35    2.81
  -1   1 -13   26.82    2.89
  -1   1 -14   17.31    2.62
  -1   1 -15    5.59    1.88
  -1   1 -16    3.86    1.49
  -1   1 -17    2.06    1.68
  -1   1 -18    0.47    1.29
   1   0 -18    6.10    2.02
   1   0 -17    2.47    1.60
   1   0 -16    6.99    1.98
   1   0 -15    7.54    2.00
   1   0 -14    7.17    1.84
   1   0 -13    6.83    1.67
   1   0 -12   30.25    2.97
   1   0 -11    7.00    1.86
   1   0 -10    6.54    1.53
   1   0  -9   43.58    3.70
   1   0  -8   11.01    2.14
   1   0  -7   17.26    2.06
   1   0  -6   40.98    2.60
   1   0  -5  186.68    4.58
   1   0  -4  886.22    9.80
   1   0  -3  133.13    2.96
   1   0  -2  102.41    2.25
  -1   0  -1  264.43    3.30
  -1   0  -2    7.73    0.68
  -1   0  -3   18.41    1.14
  -1   0  -4   19.53    1.33
  -1   0  -5  108.43    3.44
  -1   0  -6  125.13    4.07
  -1   0  -7  201.06    5.57
  -1   0  -8  135.81    4.90
  -1   0  -9   59.25    3.48
  -1   0 -10   32.46    2.85
  -1   0 -11   69.72    4.19
  -1   0 -12   68.24    4.31
  -1   0 -13   15.22    2.25
  -1   0 -15   19.75    2.87
  -1   0 -16   13.23    2.38
  -1   0 -17    6.52    2.03
  -1   0 -18    4.91    1.85
   1   1 -18    6.57    2.27
   1   1 -17   10.11    2.32
   1   1 -16    9.43    2.07
   1   1 -15   15.07    2.46
   1   1 -14   24.52    3.02
   1   1 -13   33.18    3.40
   1   1 -12   40.73    3.48
   1   1 -11   44.49    3.61
   1   1 -10  118.00    5.98
   1   1  -9   77.42    4.91
   1   1  -8   64.79    4.34
   1   1  -7   15.29    1.98
   1   1  -6    5.27    1.10
   1   1  -5   20.33    1.56
   1   1  -4   47.46    2.11
   1   1  -3  174.22    3.42
   1   1  -2   70.52    1.88
  -1  -1   1    3.06    0.43
  -1  -1   0   34.39    1.01
  -1  -1  -1    0.53    0.35
  -1  -1  -2   98.37    2.27
  -1  -1  -3    1.77    0.52
  -1  -1  -4    9.02    1.03
  -1  -1  -5   65.38    2.69
  -1  -1  -6   26.82    1.93
  -1  -1  -7   36.78    2.42
  -1  -1  -8   26.62    2.21
  -1  -1  -9   15.72    1.93
  -1  -1 -10    3.42    1.11
  -1  -1 -11   12.56    1.87
  -1  -1 -12   17.99    2.43
  -1  -1 -13   43.59    3.68
  -1  -1 -14   49.77    4.00
  -1  -1 -15   25.62    3.02
  -1  -1 -16   18.04    2.76
  -1  -1 -17    9.04    2.09
  -1  -1 -18    4.44    1.73
   1   2 -18    8.93    2.43
   1   2 -17    6.06    2.03
   1   2 -16    3.80    1.71
   1   2 -15    8.30    1.92
   1   2 -14   22.69    2.94
   1   2 -13   39.28    3.59
   1   2 -12   45.89    3.83
   1   2 -11  103.50    5.48
   1   2 -10  165.97    7.24
   1   2  -9  117.07    6.05
   1   2  -8   95.95    5.28
   1   2  -7   93.28    4.53
   1   2  -6  246.91    6.24
   1   2  -5  241.83    5.33
   1   2  -4  176.57    4.06
   1   2  -3  102.17    2.60
   1   2  -2  182.82    3.16
  -1  -2   0  207.44    2.86
  -1  -2  -1  345.39    4.05
  -1  -2  -2    0.72    0.44
  -1  -2  -3   -0.32    0.30
  -1  -2  -4   26.63    1.54
  -1  -2  -5    0.46    0.49
  -1  -2  -6    0.59    0.57
  -1  -2  -7   -0.71    0.45
  -1  -2  -8   -0.57    0.51
  -1  -2  -9    1.10    0.81
  -1  -2 -10    3.73    1.25
  -1  -2 -11    5.16    1.30
  -1  -2 -12    0.46    0.85
  -1  -2 -13    8.74    1.75
  -1  -2 -14    8.83    1.83
  -1  -2 -15    9.54    1.97
  -1  -2 -16    4.37    1.48
  -1  -2 -17    7.39    2.17
  -1  -2 -18    3.88    1.65
   1   3 -18   -0.08    1.24
   1   3 -17    0.52    1.22
   1   3 -16    1.14    1.16
   1   3 -15    0.66    1.05
   1   3 -14   11.89    2.44
   1   3 -13    4.44    1.70
   1   3 -12   10.95    1.92
   1   3 -11   36.72    3.26
   1   3 -10   43.25    3.66
   1   3  -9   89.12    5.11
   1   3  -8  139.84    6.50
   1   3  -7  157.74    6.07
   1   3  -6  100.92    4.07
   1   3  -5  173.72    4.60
   1   3  -4  242.62    4.87
   1   3  -3  142.65    3.17
   1   3  -2  243.20    3.75
   1   3  -1  174.83    2.65
  -1  -3   0  162.50    2.49
  -1  -3  -1  214.46    3.03
  -1  -3  -2  253.59    3.68
  -1  -3  -3  196.10    3.74
  -1  -3  -4  128.81    3.23
  -1  -3  -5    4.07    0.76
  -1  -3  -6   19.74    1.63
  -1  -3  -7   76.89    3.30
  -1  -3  -8   52.09    2.99
  -1  -3  -9   33.69    2.53
  -1  -3 -10   13.27    1.89
  -1  -3 -11    4.49    1.25
  -1  -3 -12    0.85    1.13
  -1  -3 -13    1.33    1.23
  -1  -3 -14    1.53    1.28
  -1  -3 -15   -0.78    1.20
  -1  -3 -16    0.00    1.35
  -1  -3 -17    0.14    1.08
  -1  -3 -18   -0.89    1.01
   1   4 -17    1.11    1.33
   1   4 -16   -0.42    1.05
   1   4 -15    0.31    1.05
   1   4 -14    0.49    1.07
   1   4 -13    0.82    1.09
   1   4 -12    1.87    1.44
   1   4 -11    2.57    1.39
   1   4 -10    4.78    1.38
   1   4  -9    2.03    1.06
   1   4  -8   12.64    2.26
   1   4  -7   18.11    2.41
   1   4  -6   41.95    2.94
   1   4  -5  198.68    5.18
   1   4  -4  247.09    4.97
   1   4  -3  224.95    4.14
   1   4  -2  161.43    2.98
   1   4  -1  245.47    3.30
  -1  -4   0  347.17    3.86
  -1  -4  -1  303.62    3.75
  -1  -4  -2  259.41    3.71
  -1  -4  -3  305.79    4.65
  -1  -4  -4  273.40    4.99
  -1  -4  -5  249.19    4.99
  -1  -4  -6  229.11    5.34
  -1  -4  -7   41.02    2.41
  -1  -4  -8   24.66    2.06
  -1  -4  -9   31.71    2.47
  -1  -4 -10   15.09    1.81
  -1  -4 -11   27.95    2.61
  -1  -4 -12   33.49    2.94
  -1  -4 -13    8.55    1.81
  -1  -4 -14   11.63    2.13
  -1  -4 -15   10.43    2.13
  -1  -4 -16    2.15    1.59
  -1  -4 -17    3.72    1.83
   1   5 -17    3.61    2.00
   1   5 -16    7.28    2.08
   1   5 -15   12.47    2.31
   1   5 -14    9.02    2.01
   1   5 -13    9.40    2.10
   1   5 -12   13.27    2.21
   1   5 -11   12.18    2.10
   1   5 -10   15.71    2.22
   1   5  -9    0.78    1.13
   1   5  -8    0.13    0.96
   1   5  -7   -0.74    1.14
   1   5  -6    3.44    1.37
   1   5  -5    0.43    0.85
   1   5  -4   11.24    1.22
   1   5  -3    0.62    0.49
   1   5  -2   43.35    1.57
   1   5  -1   39.65    1.24
   1   5   0   53.76    1.28
  -1  -5  -1   42.12    1.21
  -1  -5  -2   77.68    1.88
  -1  -5  -3  111.53    2.68
  -1  -5  -4  109.63    3.02
  -1  -5  -5   75.10    2.82
  -1  -5  -6   61.04    2.69
  -1  -5  -7   42.90    2.47
  -1  -5  -8   38.40    2.52
  -1  -5  -9   51.20    3.09
  -1  -5 -10   57.17    3.47
  -1  -5 -11   53.08    3.54
  -1  -5 -12   27.46    2.66
  -1  -5 -13   22.84    2.63
  -1  -5 -14   10.82    1.91
  -1  -5 -15    8.04    1.76
  -1  -5 -16    7.21    1.77
  -1  -5 -17    3.09    1.44
   1   6 -15   17.98    2.70
   1   6 -14   19.27    2.65
   1   6 -13   29.43    3.06
   1   6 -12   20.40    2.56
   1   6 -11   26.18    2.78
   1   6 -10   47.04    3.40
   1   6  -9   47.33    3.15
   1   6  -8   34.88    2.67
   1   6  -7   40.15    2.79
   1   6  -6   55.61    3.07
   1   6  -5   25.60    2.21
   1   6  -4   36.45    2.46
   1   6  -3   59.10    2.59
   1   6  -2   46.92    1.80
   1   6  -1    3.35    0.44
  -1  -6  -4   25.44    1.45
  -1  -6  -5   14.57    1.25
  -1  -6  -6   20.54    1.64
  -1  -6  -7   20.94    1.83
  -1  -6  -8   16.03    1.70
  -1  -6  -9   15.08    1.74
  -1  -6 -10   21.79    2.15
  -1  -6 -11   24.67    2.43
  -1  -6 -12   22.95    2.50
  -1  -6 -13   20.54    2.39
  -1  -6 -14   12.00    2.04
  -2   5  -6    3.43    0.77
  -2   5  -7    6.88    1.20
  -2   5  -8   16.72    1.76
  -2   5  -9   34.77    2.61
  -2   5 -10   28.16    2.61
  -2   5 -11   14.30    1.96
  -2   5 -12    6.91    1.72
   2  -4 -16    1.86    1.48
   2  -4 -15    1.95    1.48
   2  -4 -14    6.28    1.78
   2  -4 -13   12.12    2.19
   2  -4 -12   14.09    2.06
   2  -4 -11   31.90    2.82
   2  -4 -10   37.99    3.20
   2  -4  -9   38.31    2.97
   2  -4  -8   47.74    3.69
   2  -4  -7   60.71    3.83
   2  -4  -6   51.53    3.05
   2  -4  -5   89.17    3.35
   2  -4  -4  238.88    4.78
   2  -4  -3  333.39    5.13
   2  -4  -2  282.36    4.08
   2  -4  -1  119.40    2.31
  -2   4   0  124.04    2.34
  -2   4  -1   67.73    1.83
  -2   4  -2  116.06    2.70
  -2   4  -3   75.41    2.38
  -2   4  -4   57.88    2.25
  -2   4  -5   28.61    1.76
  -2   4  -6    1.37    0.69
  -2   4  -7    0.94    0.59
  -2   4  -8    3.04    1.04
  -2   4  -9    5.01    1.23
  -2   4 -10    5.43    1.31
  -2   4 -11    4.46    1.31
  -2   4 -12   -0.42    0.90
  -2   4 -13    0.30    1.11
  -2   4 -14    6.16    1.59
  -2   4 -15    6.40    1.86
  -2   4 -16    7.32    2.09
  -2   4 -17    4.00    1.98
   2  -3 -17    0.12    1.21
   2  -3 -16    1.00    1.16
   2  -3 -15    0.74    1.09
   2  -3 -14    1.48    1.50
   2  -3 -13    2.04    1.14
   2  -3 -12   13.24    2.04
   2  -3 -11   18.38    2.52
   2  -3 -10   35.78    3.62
   2  -3  -9   34.88    3.39
   2  -3  -8   12.22    1.94
   2  -3  -7   25.88    2.31
   2  -3  -6   69.96    3.17
   2  -3  -5  137.51    3.96
   2  -3  -4  204.92    4.36
   2  -3  -3  227.02    4.10
   2  -3  -2  156.64    3.07
   2  -3  -1  275.14    3.86
  -2   3   0  260.79    3.99
  -2   3  -2  273.03    4.31
  -2   3  -3  313.35    4.96
  -2   3  -4  203.13    4.26
  -2   3  -5  105.39    3.40
  -2   3  -6   79.78    3.26
  -2   3  -7   47.04    2.67
  -2   3  -8   40.98    2.63
  -2   3  -9   26.95    2.26
  -2   3 -10   17.68    2.09
  -2   3 -11    1.90    0.97
  -2   3 -12   -0.27    0.70
  -2   3 -13   -0.32    1.10
  -2   3 -14    2.78    1.25
  -2   3 -15    3.78    1.54
  -2   3 -16    2.69    1.59
  -2   3 -17    0.03    1.47
   2  -2 -17    5.05    1.91
   2  -2 -16    3.00    1.50
   2  -2 -15    0.93    1.49
   2  -2 -14   -0.41    0.90
   2  -2 -13   -0.38    0.88
   2  -2 -12    0.21    1.27
   2  -2 -11    2.37    1.69
   2  -2 -10   -0.07    1.11
   2  -2  -9    0.71    1.25
   2  -2  -8   -0.22    0.71
   2  -2  -7    3.19    1.05
   2  -2  -6    1.35    0.64
   2  -2  -5    2.21    0.74
   2  -2  -4   96.32    2.94
   2  -2  -3  175.06    3.62
   2  -2  -2  139.06    2.96
  -2   2   1   58.04    1.80
  -2   2   0   32.52    1.38
  -2   2  -1  166.01    3.21
  -2   2  -2  155.00    3.24
  -2   2  -3  269.45    4.66
  -2   2  -4  266.84    5.09
  -2   2  -5   98.86    3.37
  -2   2  -6  135.57    4.20
  -2   2  -7  175.06    5.03
  -2   2  -8  100.20    4.04
  -2   2  -9   96.56    4.26
  -2   2 -10   61.50    3.71
  -2   2 -11   35.52    3.06
  -2   2 -12   30.05    2.98
  -2   2 -13   18.33    2.42
  -2   2 -14    6.92    1.88
  -2   2 -15   10.76    2.21
  -2   2 -16    5.28    1.69
  -2   2 -18    8.07    2.34
   2  -1 -18    5.68    1.80
   2  -1 -17    9.74    2.17
   2  -1 -16    5.32    2.15
   2  -1 -15   10.05    2.14
   2  -1 -14   14.89    2.61
   2  -1 -13    3.59    1.44
   2  -1 -12    3.38    1.77
   2  -1 -11    7.72    2.41
   2  -1 -10   20.01    2.90
   2  -1  -9   22.23    2.52
   2  -1  -8   64.58    3.64
   2  -1  -7   83.91    3.67
   2  -1  -6    4.72    1.04
   2  -1  -5   14.08    1.34
   2  -1  -4    2.35    0.67
   2  -1  -3   16.11    1.13
   2  -1  -2   35.39    1.46
  -2   1   1    6.78    0.66
  -2   1   0   30.71    1.37
  -2   1  -1   88.71    2.24
  -2   1  -2   52.70    1.90
  -2   1  -3   57.28    2.09
  -2   1  -4  112.85    3.30
  -2   1  -5   81.71    3.07
  -2   1  -6  200.30    5.03
  -2   1  -7   84.55    3.47
  -2   1  -8   80.05    3.76
  -2   1  -9   92.50    4.22
  -2   1 -10   70.80    4.00
  -2   1 -11   42.57    3.32
  -2   1 -12   28.32    2.89
  -2   1 -13   28.95    2.99
  -2   1 -14   31.28    3.36
  -2   1 -15   19.87    2.88
  -2   1 -17   14.22    2.74
  -2   1 -18    7.90    2.29
   2   0 -18    5.05    1.85
   2   0 -17    9.48    2.20
   2   0 -16   18.52    2.98
   2   0 -15   18.22    2.74
   2   0 -14   31.42    3.64
   2   0 -13   34.83    3.59
   2   0 -12   30.00    3.57
   2   0 -11   40.96    4.27
   2   0 -10   54.37    4.32
   2   0  -9   45.37    3.42
   2   0  -8   17.57    1.96
   2   0  -7   34.24    2.46
   2   0  -6    0.95    0.62
   2   0  -5   22.41    1.60
   2   0  -4  203.85    4.40
   2   0  -3  167.71    3.61
   2   0  -2  511.67    6.18
  -2   0   1  218.26    3.83
  -2   0   0   28.51    1.37
  -2   0  -1    4.95    0.73
  -2   0  -2   23.20    1.28
  -2   0  -3    3.60    0.62
  -2   0  -4   30.76    1.79
  -2   0  -5   -0.35    0.61
  -2   0  -6   39.06    2.24
  -2   0  -7   45.89    2.67
  -2   0  -8   34.04    2.44
  -2   0  -9    6.59    1.26
  -2   0 -10    3.72    1.12
  -2   0 -11    1.94    1.06
  -2   0 -12   14.38    2.09
  -2   0 -13   15.28    2.37
  -2   0 -14   12.64    2.31
  -2   0 -15    8.87    1.94
  -2   0 -16    6.93    1.80
  -2   0 -17    5.68    1.76
  -2   0 -18    7.28    2.15
   2   1 -18    1.95    1.71
   2   1 -17    4.33    2.09
   2   1 -16    9.10    2.20
   2   1 -15   10.60    2.41
   2   1 -14   14.55    2.50
   2   1 -13   23.20    3.05
   2   1 -12   76.47    6.03
   2   1 -10   26.82    3.04
   2   1  -9   50.85    3.58
   2   1  -8  109.03    4.60
   2   1  -7  284.97    6.85
   2   1  -6  230.18    5.62
   2   1  -5  207.96    4.83
   2   1  -4  232.12    4.73
   2   1  -3   80.83    2.50
   2   1  -2   30.98    1.44
  -2  -1   1  920.99    9.15
  -2  -1  -1   23.56    1.29
  -2  -1  -2  246.43    4.22
  -2  -1  -3  104.25    2.85
  -2  -1  -4  167.79    4.05
  -2  -1  -6   85.32    3.29
  -2  -1  -7   31.48    2.16
  -2  -1  -8    7.53    1.34
  -2  -1  -9    1.35    0.97
  -2  -1 -10    0.37    0.73
  -2  -1 -11    0.29    0.75
  -2  -1 -12   18.08    2.43
  -2  -1 -13   -0.34    0.76
  -2  -1 -14    1.16    1.32
  -2  -1 -15    0.33    1.25
  -2  -1 -16    2.12    1.59
  -2  -1 -17    2.97    1.78
  -2  -1 -18    0.97    1.63
   2   2 -18    0.46    1.72
   2   2 -17    0.11    1.17
   2   2 -16    0.23    1.14
   2   2 -15    0.43    1.51
   2   2 -14    1.60    1.33
   2   2 -13    5.67    1.82
   2   2 -12    4.38    1.89
   2   2 -11    0.82    1.30
   2   2 -10   40.75    3.73
   2   2  -9   50.43    3.58
   2   2  -8   28.18    2.43
   2   2  -7   52.57    2.97
   2   2  -6  157.17    4.67
   2   2  -5  159.07    4.24
   2   2  -4  195.25    4.36
   2   2  -3  206.33    4.07
   2   2  -2  111.64    2.72
  -2  -2   1   28.84    1.41
  -2  -2   0    1.97    0.56
  -2  -2  -1  624.61    6.81
  -2  -2  -2  281.45    4.62
  -2  -2  -3  153.31    3.54
  -2  -2  -4  187.78    4.31
  -2  -2  -5  185.85    4.73
  -2  -2  -6  121.40    4.01
  -2  -2  -7   97.11    3.72
  -2  -2  -8   66.15    3.39
  -2  -2  -9   23.99    2.18
  -2  -2 -10    9.57    1.54
  -2  -2 -11    0.82    0.80
  -2  -2 -12   15.88    2.13
  -2  -2 -13   10.31    1.87
  -2  -2 -14    0.50    0.94
  -2  -2 -15    2.29    1.22
  -2  -2 -16    1.26    1.22
  -2  -2 -17   -0.31    1.05
  -2  -2 -18   -0.60    1.03
   2   3 -18    3.42    1.71
   2   3 -17    1.31    1.74
   2   3 -16    2.55    1.46
   2   3 -15    1.91    1.41
   2   3 -14    2.97    1.40
   2   3 -13    1.44    1.62
   2   3 -12    4.99    1.80
   2   3 -11   -0.49    1.22
   2   3 -10    0.02    1.02
   2   3  -9    0.59    0.90
   2   3  -8    0.43    0.88
   2   3  -7    4.06    1.03
   2   3  -6   21.64    1.77
   2   3  -5   15.70    1.39
   2   3  -4   53.19    2.32
   2   3  -3   54.88    2.10
   2   3  -2  118.36    2.87
  -2  -3   1   41.47    1.63
  -2  -3   0  107.63    2.56
  -2  -3  -1  157.79    3.26
  -2  -3  -2   65.06    2.17
  -2  -3  -3  315.44    5.26
  -2  -3  -4  429.45    6.66
  -2  -3  -5  253.88    5.46
  -2  -3  -6  116.59    4.01
  -2  -3  -7  222.27    5.80
  -2  -3  -8   94.76    3.96
  -2  -3  -9   43.24    2.92
  -2  -3 -10   47.29    3.13
  -2  -3 -11   33.80    2.93
  -2  -3 -12   24.26    2.53
  -2  -3 -13   21.50    2.52
  -2  -3 -14   36.94    3.50
  -2  -3 -15    5.98    1.65
  -2  -3 -16    8.02    1.93
  -2  -3 -17    0.65    1.18
  -2  -3 -18    2.57    1.48
   2   4 -17   11.39    2.63
   2   4 -16    9.03    2.19
   2   4 -15    7.80    2.18
   2   4 -14   10.74    2.20
   2   4 -13   40.01    4.07
   2   4 -12   50.73    4.39
   2   4 -11   39.10    4.19
   2   4 -10   22.18    3.01
   2   4  -9    8.84    1.90
   2   4  -8    1.44    0.86
   2   4  -7    1.23    0.74
   2   4  -6   22.14    1.84
   2   4  -5    9.27    1.19
   2   4  -4    7.14    0.95
   2   4  -3    1.52    0.59
   2   4  -2    3.16    0.59
  -2  -4   1   25.45    1.43
  -2  -4   0   28.42    1.37
  -2  -4  -1   20.61    1.20
  -2  -4  -2   79.78    2.36
  -2  -4  -3   34.59    1.69
  -2  -4  -4   49.50    2.19
  -2  -4  -5   54.50    2.55
  -2  -4  -6   31.25    2.14
  -2  -4  -7   46.12    2.76
  -2  -4  -8   32.25    2.43
  -2  -4  -9   29.78    2.42
  -2  -4 -10   29.41    2.55
  -2  -4 -11   44.88    3.22
  -2  -4 -12   40.47    3.23
  -2  -4 -13   28.05    2.82
  -2  -4 -14   17.26    2.45
  -2  -4 -15   12.62    2.18
  -2  -4 -16   12.28    2.26
  -2  -4 -17   10.10    2.31
   2   5 -17    7.87    2.05
   2   5 -16    7.49    2.28
   2   5 -15   10.81    2.24
   2   5 -14   23.63    3.18
   2   5 -13   20.99    3.00
   2   5 -12   31.04    3.57
   2   5 -11   46.95    4.29
   2   5 -10   38.67    4.05
   2   5  -9   45.86    3.90
   2   5  -8  106.90    4.97
   2   5  -7  132.36    4.84
   2   5  -6   89.76    3.71
   2   5  -5   64.95    2.82
   2   5  -4  129.00    3.63
   2   5  -3   48.22    2.06
   2   5  -2   30.73    1.51
  -2  -5   1   50.05    1.83
  -2  -5   0   16.32    1.17
  -2  -5  -1   76.36    2.21
  -2  -5  -2   83.32    2.37
  -2  -5  -3   11.68    1.12
  -2  -5  -4    2.41    0.66
  -2  -5  -5   12.11    1.24
  -2  -5  -6   51.12    2.65
  -2  -5  -7    3.80    0.99
  -2  -5  -8    1.73    0.94
  -2  -5  -9    1.77    1.04
  -2  -5 -10    3.79    1.25
  -2  -5 -11   12.66    1.87
  -2  -5 -12   13.45    2.06
  -2  -5 -13    6.05    1.62
  -2  -5 -14    6.39    1.61
  -2  -5 -15    2.65    1.55
  -2  -5 -16    4.90    1.74
  -2  -5 -17    8.98    2.20
   2   6 -16    4.10    1.92
   2   6 -14   12.68    2.34
   2   6 -13   18.31    2.74
   2   6 -12    8.11    1.79
   2   6 -11   15.75    2.60
   2   6 -10   45.38    4.01
   2   6  -9   67.90    5.02
   2   6  -8   82.75    4.68
   2   6  -7  113.83    4.82
   2   6  -6  124.17    4.41
   2   6  -5  136.63    4.22
   2   6  -4  101.51    3.31
   2   6  -3   76.00    2.59
   2   6  -2  120.34    3.00
   2   6  -1  100.33    2.46
  -2  -6   0   88.70    2.52
  -2  -6  -1  217.33    3.78
  -2  -6  -2  129.12    3.04
  -2  -6  -3   23.32    1.41
  -2  -6  -4   22.57    1.52
  -2  -6  -5   21.73    1.63
  -2  -6  -6   15.53    1.49
  -2  -6  -7    8.68    1.20
  -2  -6  -8    4.32    0.97
  -2  -6  -9    1.24    0.91
  -2  -6 -10   -0.71    0.88
  -2  -6 -11   -0.58    0.98
  -2  -6 -12    0.55    0.88
  -2  -6 -13   -0.98    1.09
  -2  -6 -14    0.89    1.00
  -2  -6 -15   -1.08    1.27
  -2  -6 -16    3.02    1.76
   3  -4 -14   -0.19    1.02
   3  -4 -13    0.36    1.33
   3  -4 -12    1.22    1.10
   3  -4 -11    5.73    1.85
   3  -4 -10    5.10    2.02
   3  -4  -9   10.43    2.14
   3  -4  -8   16.86    2.19
   3  -4  -7   40.98    2.77
   3  -4  -6   66.16    3.07
   3  -4  -5   29.49    1.93
   3  -4  -4   86.14    2.94
   3  -4  -3  106.13    2.97
   3  -4  -2  171.89    3.62
   3  -4  -1  118.13    2.83
  -3   4   0   97.00    2.85
  -3   4  -1  146.61    3.45
  -3   4  -2  116.04    3.13
  -3   4  -3  106.27    3.20
  -3   4  -4  160.31    4.20
  -3   4  -5  197.50    4.96
  -3   4  -6   90.70    3.56
  -3   4  -7  151.48    4.84
  -3   4  -8  163.72    5.30
  -3   4  -9   78.80    4.01
  -3   4 -10   20.51    2.27
  -3   4 -11    7.63    1.61
  -3   4 -12    3.81    1.49
  -3   4 -13    2.64    1.39
  -3   4 -14    2.91    1.55
  -3   4 -15    0.43    1.46
  -3   4 -16    1.74    1.61
   3  -3 -16    4.06    1.72
   3  -3 -15    4.02    1.78
   3  -3 -14    4.71    1.50
   3  -3 -13    6.37    1.95
   3  -3 -12    7.59    2.26
   3  -3 -11    2.91    1.95
   3  -3 -10    2.10    1.62
   3  -3  -9    0.45    0.89
   3  -3  -8    1.60    0.98
   3  -3  -7    1.28    0.89
   3  -3  -6    7.02    1.16
   3  -3  -5    1.22    0.67
   3  -3  -4   26.00    1.65
   3  -3  -3   22.07    1.45
   3  -3  -2   27.71    1.52
  -3   3   1   38.21    1.75
  -3   3   0   64.03    2.34
  -3   3  -1   20.85    1.38
  -3   3  -2   91.85    2.93
  -3   3  -3  113.48    3.39
  -3   3  -4  127.82    3.80
  -3   3  -5   88.37    3.30
  -3   3  -6   55.05    2.78
  -3   3  -7   52.45    2.90
  -3   3  -8   27.11    2.31
  -3   3  -9   64.39    3.66
  -3   3 -10   97.93    4.71
  -3   3 -11   94.55    4.88
  -3   3 -12   32.94    3.08
  -3   3 -13   21.94    2.70
  -3   3 -14   18.01    2.58
  -3   3 -15   10.68    2.35
  -3   3 -16   10.62    2.49
  -3   3 -17    7.88    2.32
   3  -2 -17    8.28    2.43
   3  -2 -16   12.31    2.36
   3  -2 -15   13.14    2.39
   3  -2 -14   18.51    2.98
   3  -2 -13   32.05    4.12
   3  -2 -12   23.01    3.40
   3  -2 -11   27.66    3.39
   3  -2 -10   34.86    3.26
   3  -2  -9   31.56    2.74
   3  -2  -8   21.75    2.15
   3  -2  -7   18.79    1.82
   3  -2  -6   46.04    2.55
   3  -2  -5   47.53    2.39
   3  -2  -4   26.05    1.73
   3  -2  -3   13.30    1.17
   3  -2  -2   15.91    1.20
  -3   2   1   -0.41    0.40
  -3   2   0    9.25    0.97
  -3   2  -1    5.27    0.79
  -3   2  -2   21.41    1.41
  -3   2  -3   26.10    1.70
  -3   2  -4   54.04    2.45
  -3   2  -5   18.19    1.59
  -3   2  -6    5.24    1.04
  -3   2  -7   29.03    2.24
  -3   2  -8   55.90    3.21
  -3   2  -9   56.93    3.43
  -3   2 -10   55.20    3.68
  -3   2 -11   32.40    2.96
  -3   2 -12   35.65    3.32
  -3   2 -13   37.46    3.51
  -3   2 -14   21.83    3.01
  -3   2 -15   28.95    3.53
  -3   2 -16   16.95    2.78
  -3   2 -17    8.94    2.25
   3  -1 -17    4.80    2.02
   3  -1 -16    4.09    1.70
   3  -1 -15   10.94    2.54
   3  -1 -14   18.84    3.36
   3  -1 -13   23.88    3.53
   3  -1 -12   52.63    4.90
   3  -1 -11   86.97    5.45
   3  -1 -10   53.22    3.84
   3  -1  -9   57.37    3.50
   3  -1  -8   43.17    2.89
   3  -1  -7   15.80    1.67
   3  -1  -6   70.06    3.14
   3  -1  -5   80.62    3.09
   3  -1  -4  106.93    3.35
   3  -1  -3  210.00    4.43
  -3   1   2   66.27    2.38
  -3   1   1   62.53    2.48
  -3   1   0   92.66    2.82
  -3   1  -1    3.51    0.78
  -3   1  -2   15.47    1.32
  -3   1  -3   87.07    3.00
  -3   1  -4   29.99    1.89
  -3   1  -5   17.62    1.53
  -3   1  -6    5.37    0.99
  -3   1  -7    0.83    0.79
  -3   1  -8    0.89    0.71
  -3   1  -9   -0.12    0.92
  -3   1 -10    3.22    1.13
  -3   1 -11    4.26    1.51
  -3   1 -12    9.01    1.79
  -3   1 -13   12.09    2.15
  -3   1 -14    8.45    1.91
  -3   1 -15    6.84    2.07
  -3   1 -16    3.42    1.62
  -3   1 -17    7.61    2.16
   3   0 -17    0.93    1.93
   3   0 -16    0.17    1.20
   3   0 -15    4.41    1.77
   3   0 -14    8.80    2.37
   3   0 -13   10.26    2.69
   3   0 -12    7.81    2.18
   3   0 -11    2.08    1.32
   3   0 -10    2.01    1.12
   3   0  -9   25.36    2.42
   3   0  -8   72.88    3.72
   3   0  -6  302.94    6.50
   3   0  -5  155.32    4.42
   3   0  -4  150.99    3.98
   3   0  -3  239.41    4.78
  -3   0   2  266.01    4.96
  -3   0   1  264.00    5.12
  -3   0   0  132.22    3.47
  -3   0  -1  150.07    3.71
  -3   0  -2   90.38    2.97
  -3   0  -3   63.99    2.59
  -3   0  -4  180.77    4.54
  -3   0  -5  250.36    5.63
  -3   0  -6  136.55    4.45
  -3   0  -7  173.82    5.39
  -3   0  -8   73.92    3.71
  -3   0  -9   41.01    3.05
  -3   0 -10   16.72    2.18
  -3   0 -11    3.34    1.23
  -3   0 -12    0.15    1.14
  -3   0 -13   -0.45    1.15
  -3   0 -14   -0.51    1.21
  -3   0 -15   -0.42    0.97
  -3   0 -16   -0.14    1.49
  -3   0 -17    3.12    1.95
   3   1 -17    2.93    1.62
   3   1 -16    5.38    1.96
   3   1 -15   -0.13    1.70
   3   1 -14    0.52    2.09
   3   1 -13    0.51    1.90
   3   1 -12    2.65    1.60
   3   1 -11   17.24    2.51
   3   1 -10    1.95    1.04
   3   1  -9    5.53    1.27
   3   1  -8   17.09    1.97
   3   1  -7   37.24    2.51
   3   1  -6   27.06    1.99
   3   1  -5  110.42    3.78
   3   1  -4  119.65    3.60
   3   1  -3   33.98    1.82
  -3  -1   2   43.35    2.18
  -3  -1   1  301.58    5.42
  -3  -1   0  609.46    7.88
  -3  -1  -1   73.99    2.63
  -3  -1  -2  208.11    4.55
  -3  -1  -3  217.11    4.85
  -3  -1  -4  166.13    4.42
  -3  -1  -5  143.52    4.27
  -3  -1  -6  156.32    4.77
  -3  -1  -7  131.62    4.71
  -3  -1  -8   64.14    3.47
  -3  -1  -9   69.22    3.92
  -3  -1 -10   56.52    3.77
  -3  -1 -11   57.70    3.91
  -3  -1 -12    8.11    1.83
  -3  -1 -13    6.01    1.59
  -3  -1 -14   13.44    2.39
  -3  -1 -15    5.93    1.78
  -3  -1 -16    0.99    1.61
  -3  -1 -17    0.91    1.67
  -3  -1 -18    0.72    1.31
   3   2 -17    9.32    2.57
   3   2 -16    7.68    2.24
   3   2 -15   10.49    2.42
   3   2 -14    3.88    2.04
   3   2 -13    3.79    1.97
   3   2 -12    2.60    1.56
   3   2 -11   12.45    2.32
   3   2 -10    7.96    1.61
   3   2  -9   -0.21    0.70
   3   2  -8    1.16    0.77
   3   2  -7   -0.18    0.55
   3   2  -6    0.93    0.61
   3   2  -5    3.50    0.94
   3   2  -4   10.43    1.22
   3   2  -3    9.05    1.01
  -3  -2   2    8.83    1.09
  -3  -2   1   90.10    2.91
  -3  -2   0   21.08    1.52
  -3  -2  -1   34.02    1.82
  -3  -2  -2  311.82    5.65
  -3  -2  -3   49.74    2.36
  -3  -2  -4    8.42    1.18
  -3  -2  -5   36.24    2.18
  -3  -2  -6  115.58    4.09
  -3  -2  -7   78.77    3.62
  -3  -2  -8  171.59    5.65
  -3  -2  -9  118.91    5.01
  -3  -2 -10   51.14    3.51
  -3  -2 -11   19.61    2.35
  -3  -2 -12   36.87    3.32
  -3  -2 -13   69.87    4.72
  -3  -2 -14   24.41    3.00
  -3  -2 -15   27.53    3.45
  -3  -2 -16   14.43    2.65
  -3  -2 -17    7.82    2.15
   3   3 -17    8.55    2.22
   3   3 -16    6.59    2.06
   3   3 -15   16.00    3.02
   3   3 -14   17.68    3.57
   3   3 -13   17.21    3.48
   3   3 -12   40.14    4.17
   3   3 -11   55.13    4.27
   3   3 -10   20.37    2.40
   3   3  -9   30.79    2.68
   3   3  -8   23.60    2.27
   3   3  -7   47.41    2.84
   3   3  -6   44.34    2.53
   3   3  -5   45.62    2.48
   3   3  -4   44.19    2.22
   3   3  -3   13.09    1.19
  -3  -3   2    0.39    0.62
  -3  -3   1    1.28    0.59
  -3  -3   0    1.11    0.71
  -3  -3  -1   90.51    2.90
  -3  -3  -2    2.71    0.64
  -3  -3  -3    1.20    0.73
  -3  -3  -4   -0.36    0.59
  -3  -3  -5    0.08    0.50
  -3  -3  -6   24.35    1.97
  -3  -3  -7   32.84    2.40
  -3  -3  -8   36.03    2.72
  -3  -3  -9   53.21    3.43
  -3  -3 -10   36.95    2.99
  -3  -3 -11   17.33    2.33
  -3  -3 -12   31.17    3.05
  -3  -3 -13   19.30    2.60
  -3  -3 -14   18.87    2.69
  -3  -3 -15   25.85    3.33
  -3  -3 -16   12.01    2.38
  -3  -3 -17    9.03    2.41
   3   4 -17    7.58    2.42
   3   4 -16   13.33    2.60
   3   4 -15    7.30    2.09
   3   4 -14   16.41    3.13
   3   4 -13   24.02    3.85
   3   4 -12   35.04    4.09
   3   4 -11   16.86    2.60
   3   4 -10   22.97    2.59
   3   4  -9   49.36    3.37
   3   4  -8   34.58    2.67
   3   4  -7   64.08    3.32
   3   4  -6  125.58    4.26
   3   4  -5  157.36    4.54
   3   4  -4   77.07    2.95
   3   4  -3   58.32    2.38
  -3  -4   2    2.33    0.71
  -3  -4   1    8.57    1.01
  -3  -4   0   45.93    2.11
  -3  -4  -1  134.81    3.59
  -3  -4  -2  319.65    5.63
  -3  -4  -3  213.01    4.81
  -3  -4  -4   81.62    3.12
  -3  -4  -5    6.58    1.03
  -3  -4  -6   10.21    1.29
  -3  -4  -7    0.31    0.74
  -3  -4  -8    0.10    0.79
  -3  -4  -9    0.15    0.90
  -3  -4 -10    0.34    0.74
  -3  -4 -11    4.93    1.54
  -3  -4 -12    9.27    1.78
  -3  -4 -13    1.41    1.32
  -3  -4 -14    0.22    1.27
  -3  -4 -15   -0.59    0.98
  -3  -4 -16    1.19    1.66
  -3  -4 -17    2.28    1.47
   3   5 -17    1.06    1.71
   3   5 -16    0.21    1.27
   3   5 -15    1.27    1.46
   3   5 -14    3.94    2.26
   3   5 -13    7.62    2.82
   3   5 -12   28.17    3.93
   3   5 -11   20.71    2.87
   3   5 -10   27.11    2.94
   3   5  -9   31.51    2.74
   3   5  -8   54.17    3.38
   3   5  -7   77.91    3.72
   3   5  -6  168.71    5.06
   3   5  -5  136.76    4.24
   3   5  -4  135.94    4.00
   3   5  -3  182.78    4.35
  -3  -5   1  133.46    3.43
  -3  -5   0  176.71    4.08
  -3  -5  -1   97.69    3.04
  -3  -5  -2  112.36    3.42
  -3  -5  -3  141.49    3.93
  -3  -5  -4   95.78    3.44
  -3  -5  -5  104.36    3.72
  -3  -5  -6   40.55    2.49
  -3  -5  -7   33.46    2.37
  -3  -5  -8   72.15    3.61
  -3  -5  -9   38.33    2.92
  -3  -5 -10   21.31    2.28
  -3  -5 -11    7.43    1.54
  -3  -5 -12    0.32    0.82
  -3  -5 -13    0.76    0.98
  -3  -5 -14   -0.47    1.13
  -3  -5 -15   -0.11    1.01
  -3  -5 -16   -0.11    0.99
  -3  -5 -17    0.22    1.25
   3   6 -16    2.43    1.80
   3   6 -15    0.46    1.19
   3   6 -14   -0.16    1.55
   3   6 -13   -0.25    1.87
   3   6 -12   -1.91    1.69
   3   6 -11   -1.09    1.43
   3   6 -10    1.13    1.22
   3   6  -9   18.14    2.30
   3   6  -8   14.52    1.94
   3   6  -7   22.26    2.08
   3   6  -6   28.94    2.15
   3   6  -5   13.14    1.42
   3   6  -4   39.47    2.24
   3   6  -3   90.92    3.06
   3   6  -2   68.03    2.51
  -3  -6   1   45.88    2.05
  -3  -6   0   55.23    2.43
  -3  -6  -1   84.97    2.83
  -3  -6  -2  130.18    3.62
  -3  -6  -3   71.36    2.70
  -3  -6  -4   47.62    2.41
  -3  -6  -5   56.69    2.83
  -3  -6  -6   65.06    3.14
  -3  -6  -7  104.90    4.25
  -3  -6  -8   98.88    4.25
  -3  -6  -9   69.64    3.79
  -3  -6 -10   42.97    3.20
  -3  -6 -11   17.80    2.19
  -3  -6 -12   14.23    2.09
  -3  -6 -13   12.64    2.21
  -3  -6 -14   10.49    2.11
  -3  -6 -15    9.94    2.21
  -3  -6 -16    6.81    2.05
   3   7 -14    8.93    2.36
   3   7 -13    4.89    1.66
   3   7 -12    5.32    2.27
   3   7 -11    7.93    2.54
   3   7 -10   11.06    2.46
   3   7  -9    8.58    1.86
   3   7  -8    1.49    1.06
   3   7  -7    0.36    0.87
   3   7  -6    3.45    1.02
   3   7  -5    1.68    0.78
   3   7  -4    0.67    0.68
   3   7  -3    0.76    0.54
   3   7  -2    2.84    0.71
   3   7  -1   27.96    1.60
  -3  -7   0   82.29    2.89
  -3  -7  -1   62.75    2.41
  -3  -7  -2   11.67    1.13
  -3  -7  -3   23.59    1.69
  -3  -7  -4   31.91    1.97
  -3  -7  -5   32.91    2.18
  -3  -7  -6   83.36    3.63
  -3  -7  -7   90.05    3.88
  -3  -7  -8   75.91    3.84
  -3  -7  -9   54.35    3.41
  -3  -7 -10   30.69    2.72
  -3  -7 -11   21.27    2.45
  -3  -7 -12   26.44    2.81
  -4   4   0    0.78    0.51
  -4   4  -1    6.55    1.00
  -4   4  -3  113.23    3.82
  -4   4  -4  153.69    4.63
  -4   4  -5  169.91    5.04
  -4   4  -6   36.54    2.54
  -4   4  -7    2.11    1.05
  -4   4  -8   18.07    2.00
  -4   4  -9   18.88    2.14
  -4   4 -10   18.51    2.22
  -4   4 -11   16.13    2.14
  -4   4 -12   13.64    2.09
   4  -3 -16   14.56    2.81
   4  -3 -15    5.98    2.32
   4  -3 -14    9.99    2.21
   4  -3 -13   14.12    2.87
   4  -3 -12   21.16    3.30
   4  -3 -11   31.85    3.38
   4  -3 -10   42.32    3.54
   4  -3  -9   34.89    2.86
   4  -3  -8   50.61    3.23
   4  -3  -7   36.86    2.60
   4  -3  -6   29.21    2.16
   4  -3  -5   76.49    3.18
   4  -3  -4   47.54    2.44
   4  -3  -3   56.63    2.53
   4  -3  -2   49.75    2.29
  -4   3   1   55.26    2.58
  -4   3   0   17.31    1.53
  -4   3  -1    9.18    1.11
  -4   3  -2    1.64    0.69
  -4   3  -3    0.01    0.62
  -4   3  -4    0.58    0.70
  -4   3  -5    6.34    1.18
  -4   3  -6    2.89    0.98
  -4   3  -7   27.64    2.28
  -4   3  -8   24.81    2.33
  -4   3  -9   15.03    1.98
  -4   3 -10   14.74    2.00
  -4   3 -11   11.70    1.82
  -4   3 -12    7.24    1.60
  -4   3 -13    6.53    1.72
  -4   3 -14   10.81    2.02
  -4   3 -15    7.84    2.04
  -4   3 -16    6.08    2.02
   4  -2 -16    2.90    1.64
   4  -2 -15    1.78    1.84
   4  -2 -14    6.52    2.75
   4  -2 -13   14.67    3.29
   4  -2 -12   15.70    2.70
   4  -2 -11   31.83    3.28
   4  -2 -10   56.24    3.81
   4  -2  -9   43.53    3.16
   4  -2  -8   39.65    2.86
   4  -2  -7   46.34    2.83
   4  -2  -6   88.56    3.61
   4  -2  -5  133.05    4.33
   4  -2  -4  160.07    4.47
   4  -2  -3  167.27    4.36
  -4   2   2  153.99    4.09
  -4   2   1  133.90    3.81
  -4   2   0   62.37    2.73
  -4   2  -1  160.84    4.37
  -4   2  -2  124.74    3.95
  -4   2  -3   38.84    2.23
  -4   2  -4   16.07    1.57
  -4   2  -5    5.51    1.13
  -4   2  -6    1.23    0.81
  -4   2  -7    1.04    0.70
  -4   2  -8    2.24    1.04
  -4   2  -9    0.06    0.61
  -4   2 -10    0.48    0.75
  -4   2 -11    2.93    1.07
  -4   2 -12    1.50    1.00
  -4   2 -13    1.42    1.08
  -4   2 -14   -0.28    0.86
  -4   2 -15    2.00    1.27
  -4   2 -16    2.53    1.42
   4  -1 -17   -0.34    1.29
   4  -1 -16   -0.05    1.23
   4  -1 -15    0.86    2.27
   4  -1 -14    4.38    2.52
   4  -1 -13    3.65    1.79
   4  -1 -12    1.97    1.37
   4  -1 -11    3.22    1.29
   4  -1 -10    9.67    1.83
   4  -1  -9    6.82    1.40
   4  -1  -8   25.42    2.32
   4  -1  -7   37.14    2.59
   4  -1  -6   29.73    2.15
   4  -1  -5   72.65    3.18
   4  -1  -4  159.35    4.55
   4  -1  -3  158.84    4.36
  -4   1   2  182.52    4.86
  -4   1   1  193.68    4.97
  -4   1   0  350.99    6.54
  -4   1  -1  286.39    5.84
  -4   1  -2  228.22    5.40
  -4   1  -3  230.15    5.46
  -4   1  -4  144.71    4.53
  -4   1  -5  124.16    4.37
  -4   1  -6   84.58    3.67
  -4   1  -7   43.86    2.85
  -4   1  -8   29.44    2.46
  -4   1  -9   27.89    2.55
  -4   1 -10   23.26    2.50
  -4   1 -11   21.80    2.50
  -4   1 -12   12.10    2.15
  -4   1 -13    0.61    1.03
  -4   1 -14   -0.03    1.21
  -4   1 -15    0.98    1.44
  -4   1 -16    4.22    1.66
  -4   1 -17    0.51    1.23
   4   0 -17    1.59    2.22
   4   0 -16    5.44    2.08
   4   0 -15   12.67    3.06
   4   0 -14   11.48    2.85
   4   0 -13    0.71    1.65
   4   0 -12   -0.35    0.94
   4   0 -11    0.90    1.25
   4   0 -10    0.61    1.20
   4   0  -9    1.45    0.90
   4   0  -8    4.08    1.17
   4   0  -7   12.00    1.51
   4   0  -6   44.12    2.66
   4   0  -5   12.28    1.44
   4   0  -4   -0.40    0.41
  -4   0   3   31.60    2.07
  -4   0   2   71.99    3.15
  -4   0   1   83.19    3.28
  -4   0   0  168.38    4.45
  -4   0  -1  273.52    5.78
  -4   0  -2  416.24    7.47
  -4   0  -3  396.41    7.48
  -4   0  -4  399.10    7.73
  -4   0  -5  242.40    6.09
  -4   0  -6   77.70    3.63
  -4   0  -7   44.07    2.90
  -4   0  -8   90.79    4.24
  -4   0  -9   63.51    3.69
  -4   0 -10   79.54    4.48
  -4   0 -11   39.23    3.30
  -4   0 -12   22.51    2.76
  -4   0 -13   14.75    2.31
  -4   0 -14    7.09    1.81
  -4   0 -15    2.10    1.35
  -4   0 -16    5.25    1.77
  -4   0 -17    2.38    1.90
   4   1 -17    7.51    2.37
   4   1 -16   10.91    2.65
   4   1 -15    7.93    2.72
   4   1 -14   11.37    2.85
   4   1 -13    8.33    2.31
   4   1 -12    9.42    2.00
   4   1 -11   11.26    1.92
   4   1 -10   24.18    2.55
   4   1  -9   34.56    2.82
   4   1  -8   21.50    2.08
   4   1  -7    7.60    1.25
   4   1  -6    8.08    1.26
   4   1  -5   11.52    1.35
   4   1  -4    3.18    0.90
  -4  -1   3   75.42    3.04
  -4  -1   2   24.98    1.82
  -4  -1   1    0.75    0.83
  -4  -1   0   52.72    2.52
  -4  -1  -1  156.62    4.35
  -4  -1  -2   73.20    3.07
  -4  -1  -3   20.34    1.71
  -4  -1  -4   12.54    1.50
  -4  -1  -5   23.69    2.00
  -4  -1  -6   31.51    2.33
  -4  -1  -7  156.11    5.32
  -4  -1  -8   95.66    4.33
  -4  -1  -9   45.57    3.16
  -4  -1 -10   56.48    3.73
  -4  -1 -11   53.61    3.86
  -4  -1 -12   20.45    2.57
  -4  -1 -13   15.43    2.34
  -4  -1 -14   20.89    2.93
  -4  -1 -15   14.30    2.60
  -4  -1 -16   16.53    2.71
  -4  -1 -17    9.28    2.41
   4   2 -17    9.36    2.78
   4   2 -16    8.98    3.10
   4   2 -15   13.35    3.57
   4   2 -14   11.13    2.95
   4   2 -13   21.46    3.16
   4   2 -12   24.57    3.05
   4   2 -11   35.05    3.19
   4   2 -10   58.49    3.89
   4   2  -9   48.14    3.33
   4   2  -8   86.32    4.14
   4   2  -7   56.39    3.10
   4   2  -6   77.44    3.57
   4   2  -5   97.41    3.77
   4   2  -4  113.64    3.81
  -4  -2   3  118.36    3.79
  -4  -2   2  120.55    3.75
  -4  -2   1   88.85    3.29
  -4  -2   0   22.91    1.78
  -4  -2  -1   22.00    1.69
  -4  -2  -2    2.25    0.87
  -4  -2  -3    2.49    0.78
  -4  -2  -4    0.50    0.57
  -4  -2  -5    0.16    0.56
  -4  -2  -6    0.08    0.55
  -4  -2  -7   11.87    1.60
  -4  -2  -8   36.78    2.73
  -4  -2  -9   49.38    3.29
  -4  -2 -10   25.17    2.63
  -4  -2 -11   18.38    2.32
  -4  -2 -12    5.87    1.66
  -4  -2 -13   21.93    2.75
  -4  -2 -14   23.80    2.96
  -4  -2 -15   13.56    2.39
  -4  -2 -17    4.94    2.08
   4   3 -17    3.14    2.29
   4   3 -16    3.21    2.59
   4   3 -15    4.60    2.67
   4   3 -14    6.49    2.61
   4   3 -13   11.67    2.45
   4   3 -12   12.38    2.37
   4   3 -11   55.30    3.98
   4   3 -10   43.43    3.40
   4   3  -9   21.68    2.39
   4   3  -8   35.67    2.78
   4   3  -7   36.95    2.54
   4   3  -6   79.98    3.65
   4   3  -5  150.56    4.69
   4   3  -4  172.63    4.71
  -4  -3   3  159.14    4.44
  -4  -3   2  140.13    4.23
  -4  -3   1   54.07    2.66
  -4  -3   0  305.79    6.16
  -4  -3  -1  227.46    5.25
  -4  -3  -2   56.08    2.74
  -4  -3  -3  143.99    4.49
  -4  -3  -4   73.48    3.31
  -4  -3  -5   61.81    3.14
  -4  -3  -6   12.18    1.50
  -4  -3  -7    4.67    1.09
  -4  -3  -8    4.81    1.14
  -4  -3  -9    5.67    1.28
  -4  -3 -10    0.15    0.69
  -4  -3 -11    2.56    1.12
  -4  -3 -12   -0.35    0.78
  -4  -3 -13    7.47    1.76
  -4  -3 -14    0.28    1.24
  -4  -3 -15    0.79    1.46
  -4  -3 -16    0.99    1.25
  -4  -3 -17    2.46    1.47
   4   4 -17    0.49    1.62
   4   4 -16    0.72    1.53
   4   4 -15    2.56    2.03
   4   4 -14    2.85    2.02
   4   4 -13    0.53    1.62
   4   4 -12    6.37    1.74
   4   4 -11   18.01    2.51
   4   4 -10    5.95    1.58
   4   4  -9   10.43    1.69
   4   4  -8   10.34    1.66
   4   4  -7   11.25    1.48
   4   4  -6   14.26    1.68
   4   4  -5   61.52    3.00
   4   4  -4  137.06    4.27
  -4  -4   3  163.84    4.74
  -4  -4   2  197.03    5.36
  -4  -4   1  283.35    6.21
  -4  -4   0  339.70    6.50
  -4  -4  -1  158.63    4.39
  -4  -4  -2  342.17    6.80
  -4  -4  -3  322.36    6.73
  -4  -4  -4  140.07    4.52
  -4  -4  -5   55.07    3.00
  -4  -4  -6   67.48    3.39
  -4  -4  -7   64.87    3.51
  -4  -4  -8   43.54    3.01
  -4  -4  -9   83.83    4.31
  -4  -4 -10   71.85    4.15
  -4  -4 -11   43.68    3.53
  -4  -4 -12    7.01    1.82
  -4  -4 -13    6.46    1.64
  -4  -4 -14    1.59    1.20
  -4  -4 -15   -1.29    1.30
  -4  -4 -16   -0.03    1.06
  -4  -4 -17   -0.65    0.97
   4   5 -16    0.65    1.49
   4   5 -15    0.63    1.81
   4   5 -14   -0.21    1.72
   4   5 -13    1.12    1.82
   4   5 -12   -0.45    1.34
   4   5 -11   -0.68    1.13
   4   5 -10   -0.32    0.78
   4   5  -9   -0.30    0.98
   4   5  -8    0.22    0.72
   4   5  -7    0.40    0.63
   4   5  -6    0.00    0.53
   4   5  -5   21.18    1.80
   4   5  -4   25.45    1.94
   4   5  -3    8.45    1.17
  -4  -5   2   23.69    1.88
  -4  -5   1   47.69    2.46
  -4  -5   0   53.63    2.64
  -4  -5  -1  122.86    3.92
  -4  -5  -2  199.08    5.14
  -4  -5  -3   97.62    3.62
  -4  -5  -4  153.95    4.77
  -4  -5  -5  104.12    4.14
  -4  -5  -6   96.54    4.13
  -4  -5  -7   82.00    3.89
  -4  -5  -8  117.88    4.98
  -4  -5  -9   89.74    4.50
  -4  -5 -10   59.95    3.85
  -4  -5 -11   22.81    2.61
  -4  -5 -12    9.30    1.87
  -4  -5 -13    1.91    1.09
  -4  -5 -14    4.67    1.67
  -4  -5 -15   13.02    2.42
  -4  -5 -16   18.42    2.90
  -4  -5 -17   10.20    2.22
   4   6 -16    8.66    2.71
   4   6 -15   16.11    3.57
   4   6 -14    5.78    2.64
   4   6 -13    3.31    2.12
   4   6 -12    6.97    1.96
   4   6 -11   20.46    2.70
   4   6 -10   22.38    2.64
   4   6  -9   27.26    2.67
   4   6  -8   24.81    2.43
   4   6  -7    8.75    1.49
   4   6  -6    5.73    1.06
   4   6  -5   41.73    2.57
   4   6  -4   29.68    2.02
   4   6  -3   11.96    1.32
  -4  -6   2    2.20    0.70
  -4  -6   1    0.25    0.51
  -4  -6   0    0.31    0.56
  -4  -6  -1    2.51    0.78
  -4  -6  -2   12.97    1.39
  -4  -6  -3   11.54    1.41
  -4  -6  -4   18.91    1.79
  -4  -6  -5   43.03    2.62
  -4  -6  -6   37.97    2.69
  -4  -6  -7   52.00    3.22
  -4  -6  -8   82.09    4.10
  -4  -6  -9   54.56    3.57
  -4  -6 -10   36.70    3.08
  -4  -6 -11   34.23    3.15
  -4  -6 -12   20.31    2.50
  -4  -6 -13   23.96    2.85
  -4  -6 -14   18.82    2.61
  -4  -6 -15    8.30    2.13
  -4  -6 -16    7.54    2.09
   4   7 -15    7.28    2.62
   4   7 -14   14.10    3.58
   4   7 -13   14.46    3.34
   4   7 -12   14.00    2.83
   4   7 -11   15.25    2.48
   4   7 -10   24.39    2.77
   4   7  -9   22.14    2.48
   4   7  -8   31.55    2.72
   4   7  -7   41.13    2.84
   4   7  -6   69.23    3.42
   4   7  -5   63.38    3.19
   4   7  -4   42.14    2.46
   4   7  -3   56.59    2.70
   4   7  -2   58.67    2.63
  -4  -7   1   33.98    2.15
  -4  -7   0   25.17    1.89
  -4  -7  -1   13.75    1.39
  -4  -7  -2    7.51    1.12
  -4  -7  -3    5.42    1.02
  -4  -7  -4    0.23    0.65
  -4  -7  -5    2.70    0.81
  -4  -7  -6    0.24    0.83
  -4  -7  -7    7.05    1.49
  -4  -7  -8    4.39    1.13
  -4  -7  -9    6.82    1.39
  -4  -7 -10   12.66    1.98
  -4  -7 -11    5.66    1.63
  -4  -7 -12    7.45    1.84
  -4  -7 -13   11.93    2.22
  -4  -7 -14    5.64    1.85
  -4  -7 -15    8.16    2.12
   5  -3 -14    5.91    2.93
   5  -3 -13    3.03    2.28
   5  -3 -12    4.81    1.92
   5  -3 -11   16.43    2.45
   5  -3 -10   21.81    2.57
   5  -3  -9   40.67    3.24
   5  -3  -8   41.29    3.05
   5  -3  -7   57.85    3.28
   5  -3  -6   36.05    2.46
   5  -3  -5   83.63    3.71
   5  -3  -4   97.57    3.76
   5  -3  -3   72.57    3.18
   5  -3  -2   65.59    2.97
  -5   3   1   65.45    3.34
  -5   3   0  118.19    4.34
  -5   3  -1  109.97    4.07
  -5   3  -2  101.77    3.98
  -5   3  -3   65.47    3.30
  -5   3  -4   48.75    2.98
  -5   3  -5   17.17    1.83
  -5   3  -6   33.17    2.58
  -5   3  -7   49.55    3.31
  -5   3  -8   11.05    1.81
  -5   3  -9   11.57    1.88
  -5   3 -10    3.02    1.24
  -5   3 -11    3.90    1.26
  -5   3 -12    5.44    1.68
  -5   3 -13    2.41    1.59
  -5   3 -14    1.50    1.60
  -5   3 -15    0.03    1.12
   5  -2 -15    0.33    1.91
   5  -2 -14    1.41    1.78
   5  -2 -13    1.23    1.81
   5  -2 -12    2.23    1.62
   5  -2 -11    0.00    1.17
   5  -2 -10    9.42    1.86
   5  -2  -9   15.15    2.09
   5  -2  -8   14.34    1.83
   5  -2  -7    9.68    1.44
   5  -2  -6   32.85    2.51
   5  -2  -5   77.29    3.55
   5  -2  -4   42.07    2.55
   5  -2  -3   71.05    3.24
  -5   2   2   75.01    3.26
  -5   2   1   57.95    2.85
  -5   2   0   50.06    2.79
  -5   2  -1   56.28    2.93
  -5   2  -2   96.11    3.81
  -5   2  -3  138.88    4.78
  -5   2  -4  113.47    4.33
  -5   2  -5   79.56    3.86
  -5   2  -6   82.32    4.00
  -5   2  -7   19.89    2.12
  -5   2  -8   23.64    2.44
  -5   2  -9   44.13    3.31
  -5   2 -10   43.29    3.37
  -5   2 -11   36.78    3.35
  -5   2 -12   20.40    2.64
  -5   2 -13   20.05    2.71
  -5   2 -14    7.93    2.10
  -5   2 -15    4.16    1.61
  -5   2 -16    1.22    1.46
   5  -1 -16    4.14    2.18
   5  -1 -15    8.42    2.69
   5  -1 -14   12.14    3.06
   5  -1 -13    9.24    2.41
   5  -1 -12    7.35    1.81
   5  -1 -11    5.08    1.46
   5  -1 -10    2.02    1.06
   5  -1  -9    0.87    1.07
   5  -1  -8   -0.22    0.63
   5  -1  -7    0.30    0.59
   5  -1  -6    0.89    0.89
   5  -1  -5    8.77    1.27
   5  -1  -4   44.97    2.66
   5  -1  -3   58.64    2.91
  -5   1   2   27.62    2.20
  -5   1   1    7.01    1.33
  -5   1   0    7.42    1.31
  -5   1  -1   56.46    2.94
  -5   1  -2   74.96    3.38
  -5   1  -3  164.78    5.30
  -5   1  -4   93.13    3.93
  -5   1  -5   69.70    3.54
  -5   1  -6   73.06    3.84
  -5   1  -7   54.28    3.46
  -5   1  -8   48.84    3.31
  -5   1  -9   58.65    3.82
  -5   1 -10   31.70    2.96
  -5   1 -11   47.44    3.76
  -5   1 -12   62.20    4.47
  -5   1 -13   23.71    2.98
  -5   1 -14   16.67    2.60
  -5   1 -15   11.36    2.39
  -5   1 -16   11.57    2.51
   5   0 -16   15.55    4.02
   5   0 -15   10.87    3.29
   5   0 -14    6.21    2.12
   5   0 -13    6.36    2.05
   5   0 -12   11.79    2.09
   5   0 -11    9.77    1.89
   5   0 -10   26.22    2.66
   5   0  -9   55.81    3.63
   5   0  -8   56.96    3.45
   5   0  -7   32.06    2.63
   5   0  -6    7.03    1.24
   5   0  -5    9.26    1.42
   5   0  -4   24.71    2.05
  -5   0   3    7.53    1.19
  -5   0   2   -0.10    0.71
  -5   0   1   -0.52    0.55
  -5   0   0   29.20    2.14
  -5   0  -1   22.21    1.97
  -5   0  -2    0.32    0.77
  -5   0  -3    2.58    0.86
  -5   0  -4    6.10    1.25
  -5   0  -5   10.62    1.45
  -5   0  -6   23.67    2.23
  -5   0  -7    5.68    1.25
  -5   0  -8    8.62    1.62
  -5   0  -9   30.77    2.80
  -5   0 -10   22.26    2.54
  -5   0 -11   16.76    2.37
  -5   0 -12   11.77    2.05
  -5   0 -13    4.77    1.67
  -5   0 -14    8.92    1.98
  -5   0 -15   12.93    2.51
  -5   0 -16   14.49    2.78
   5   1 -16    7.27    3.24
   5   1 -15    7.17    2.50
   5   1 -14   13.55    2.76
   5   1 -13   19.75    2.94
   5   1 -12   16.73    2.42
   5   1 -11   28.01    2.95
   5   1 -10   68.29    4.30
   5   1  -9   87.26    4.45
   5   1  -8   84.63    4.17
   5   1  -7  116.28    4.83
   5   1  -6   42.36    2.78
   5   1  -5   40.78    2.67
   5   1  -4   36.76    2.41
  -5  -1   3   38.63    2.45
  -5  -1   1  145.96    4.79
  -5  -1   0   96.05    3.86
  -5  -1  -1   90.97    3.74
  -5  -1  -2   23.30    1.98
  -5  -1  -3    4.00    1.01
  -5  -1  -4   19.40    1.93
  -5  -1  -5   12.57    1.60
  -5  -1  -6    4.62    1.14
  -5  -1  -7    0.66    0.74
  -5  -1  -8    1.67    0.87
  -5  -1  -9    0.45    1.10
  -5  -1 -10    0.54    0.85
  -5  -1 -11    0.82    0.93
  -5  -1 -12    1.64    1.24
  -5  -1 -13    4.90    1.51
  -5  -1 -14    5.38    1.83
  -5  -1 -15    5.48    1.71
  -5  -1 -16    4.65    1.67
  -5  -1 -17    2.47    1.50
   5   2 -16    0.01    2.14
   5   2 -15    0.42    2.25
   5   2 -14    1.09    1.40
   5   2 -13    5.48    1.77
   5   2 -12   15.99    2.44
   5   2 -11   20.16    2.56
   5   2 -10   39.53    3.31
   5   2  -9   59.35    3.81
   5   2  -8   67.31    3.79
   5   2  -7   64.16    3.64
   5   2  -6   46.50    2.90
   5   2  -5  112.16    4.35
   5   2  -4   79.82    3.57
  -5  -2   3   94.50    3.77
  -5  -2   2  153.58    4.69
  -5  -2   1  264.58    6.46
  -5  -2   0  136.40    4.52
  -5  -2  -1  107.17    4.07
  -5  -2  -2   76.69    3.52
  -5  -2  -3   85.06    3.73
  -5  -2  -4   72.91    3.63
  -5  -2  -5   41.22    2.89
  -5  -2  -6   49.72    3.19
  -5  -2  -7   11.70    1.68
  -5  -2  -8    6.75    1.42
  -5  -2  -9    5.27    1.34
  -5  -2 -10   10.69    1.83
  -5  -2 -11    8.94    1.77
  -5  -2 -12    4.92    1.59
  -5  -2 -13    5.67    1.61
  -5  -2 -14   -0.59    1.17
  -5  -2 -15   -0.07    0.99
  -5  -2 -16   -0.06    1.00
  -5  -2 -17   -0.28    1.02
   5   3 -16    1.10    2.55
   5   3 -15    0.61    2.26
   5   3 -14    2.17    1.61
   5   3 -13    0.18    1.40
   5   3 -12   -0.58    0.91
   5   3 -11    0.88    1.04
   5   3 -10   12.78    2.03
   5   3  -9    7.57    1.51
   5   3  -8    5.79    1.38
   5   3  -7    7.59    1.37
   5   3  -6   15.91    1.77
   5   3  -5   25.13    2.11
   5   3  -4   77.98    3.54
  -5  -3   3  143.45    4.64
  -5  -3   2  104.99    3.89
  -5  -3   1   56.88    3.05
  -5  -3   0   89.15    3.68
  -5  -3  -1  301.19    6.89
  -5  -3  -2  149.65    4.92
  -5  -3  -3   98.61    4.09
  -5  -3  -4   96.57    4.16
  -5  -3  -5  149.58    5.26
  -5  -3  -6   88.73    4.28
  -5  -3  -7   63.82    3.72
  -5  -3  -8   74.60    4.17
  -5  -3  -9   39.75    3.18
  -5  -3 -10   30.92    2.96
  -5  -3 -11   36.37    3.29
  -5  -3 -12   54.44    4.18
  -5  -3 -13   14.89    2.46
  -5  -3 -14    6.99    1.80
  -5  -3 -15    4.85    1.85
  -5  -3 -16    0.52    1.44
   5   4 -16    8.19    2.99
   5   4 -15    7.40    2.61
   5   4 -14    9.64    2.56
   5   4 -13   10.76    2.27
   5   4 -12    6.47    1.71
   5   4 -11    2.12    1.40
   5   4 -10    9.30    1.77
   5   4  -9   12.12    1.95
   5   4  -8    3.84    1.06
   5   4  -7    0.33    0.94
   5   4  -6   15.63    1.74
   5   4  -5   18.71    1.91
   5   4  -4   21.49    1.88
  -5  -4   3   29.41    2.15
  -5  -4   2   13.41    1.45
  -5  -4   1    6.09    1.18
  -5  -4   0   56.61    3.00
  -5  -4  -1   14.29    1.69
  -5  -4  -2   31.19    2.38
  -5  -4  -3  189.02    5.73
  -5  -4  -4   80.97    3.77
  -5  -4  -5   77.22    3.85
  -5  -4  -6   72.72    3.89
  -5  -4  -7   80.10    4.22
  -5  -4  -8   90.49    4.55
  -5  -4  -9   95.75    4.87
  -5  -4 -10   66.84    4.28
  -5  -4 -11   35.63    3.35
  -5  -4 -12    8.88    1.82
  -5  -4 -13    4.26    1.60
  -5  -4 -14   15.70    2.50
  -5  -4 -15    4.92    1.89
  -5  -4 -16    7.48    2.10
   5   5 -16    5.40    2.93
   5   5 -15    7.52    2.81
   5   5 -14   13.61    2.81
   5   5 -13   22.83    3.13
   5   5 -12   16.70    2.47
   5   5 -11   21.64    2.65
   5   5 -10   55.48    3.93
   5   5  -9   25.06    2.50
   5   5  -8   18.97    2.09
   5   5  -7   35.85    2.73
   5   5  -6   36.56    2.62
   5   5  -5   26.41    2.18
   5   5  -4   29.07    2.21
  -5  -5   3   13.91    1.48
  -5  -5   2   16.65    1.75
  -5  -5   1    7.90    1.26
  -5  -5   0    0.53    0.57
  -5  -5  -1    3.71    0.88
  -5  -5  -2    4.33    0.96
  -5  -5  -3   10.20    1.43
  -5  -5  -4   12.42    1.61
  -5  -5  -5   11.08    1.57
  -5  -5  -6    8.38    1.46
  -5  -5  -7    7.50    1.47
  -5  -5  -9    1.82    0.99
  -5  -5 -10   10.95    1.84
  -5  -5 -11   29.12    3.03
  -5  -5 -12   24.92    2.92
  -5  -5 -13   33.04    3.43
  -5  -5 -14   16.33    2.74
  -5  -5 -15    8.48    2.11
  -5  -5 -16   10.87    2.33
   5   6 -15   11.50    3.22
   5   6 -14    6.68    2.37
   5   6 -13    9.62    2.24
   5   6 -12   25.53    3.10
   5   6 -11   40.12    3.60
   5   6 -10   40.58    3.38
   5   6  -9   52.27    3.63
   5   6  -8   63.34    3.76
   5   6  -7   58.27    3.41
   5   6  -6   55.27    3.29
   5   6  -5   75.50    3.62
   5   6  -4  120.16    4.36
   5   6  -3   82.43    3.51
  -5  -6   2   84.63    3.69
  -5  -6   1   69.69    3.24
  -5  -6   0   74.49    3.39
  -5  -6  -1   36.87    2.40
  -5  -6  -2   12.66    1.54
  -5  -6  -3   11.72    1.49
  -5  -6  -4    4.83    1.17
  -5  -6  -5    0.17    0.60
  -5  -6  -6    2.47    0.93
  -5  -6  -7   12.20    1.78
  -5  -6  -8   -0.54    0.94
  -5  -6  -9    0.56    1.06
  -5  -6 -10   -0.27    0.79
  -5  -6 -11    0.44    1.12
  -5  -6 -12    0.41    0.98
  -5  -6 -13    3.53    1.40
  -5  -6 -14    1.20    1.53
  -5  -6 -15    5.67    1.81
  -5  -6 -16    4.54    2.01
   5   7 -15    0.93    2.67
   5   7 -14   -0.30    2.07
   5   7 -13    2.14    1.62
   5   7 -12    1.40    1.48
   5   7 -11   12.05    2.07
   5   7 -10   30.02    3.00
   5   7  -9   36.25    3.09
   5   7  -8   29.60    2.68
   5   7  -7   29.04    2.49
   5   7  -6   31.90    2.56
   5   7  -5   62.14    3.30
   5   7  -4   69.96    3.43
   5   7  -3   84.18    3.61
  -5  -7   2  129.81    4.41
  -5  -7   1   80.38    3.55
  -5  -7   0   87.14    3.83
  -5  -7  -1  116.86    4.25
  -5  -7  -2   69.46    3.42
  -5  -7  -3   38.90    2.56
  -5  -7  -4   78.03    3.86
  -5  -7  -5   49.34    3.05
  -5  -7  -6   51.92    3.39
  -5  -7  -7   47.86    3.33
  -5  -7  -8   20.23    2.42
  -5  -7  -9   20.43    2.51
  -5  -7 -10   13.82    2.25
  -5  -7 -11    8.64    1.92
  -5  -7 -12    2.91    1.50
  -5  -7 -13    2.02    1.50
  -5  -7 -14    0.76    1.50
  -5  -7 -15   -0.15    1.57
   5   8 -14   -0.66    2.04
   5   8 -13    0.68    1.89
   5   8 -12   -0.88    1.11
   5   8 -11   -1.21    1.20
   5   8 -10    4.43    1.39
   5   8  -9    4.27    1.25
   5   8  -8    2.92    1.32
   5   8  -7   18.03    2.00
   5   8  -6   31.03    2.41
   5   8  -5   55.20    3.18
   5   8  -4   39.67    2.57
   5   8  -3   31.59    2.26
   5   8  -2   72.84    3.27
  -5  -8   1  117.39    4.55
  -5  -8   0  103.67    3.92
  -5  -8  -1   74.29    3.46
  -5  -8  -2   63.86    3.22
  -5  -8  -3   79.37    3.71
  -5  -8  -4   66.06    3.53
  -5  -8  -5   62.82    3.62
  -5  -8  -6   58.38    3.47
  -5  -8  -7   77.40    4.27
  -5  -8  -8   60.30    3.89
  -5  -8  -9   46.31    3.66
  -6   3   1   42.48    2.93
  -6   3   0   21.33    2.13
  -6   3  -1   28.33    2.39
  -6   3  -2   43.73    2.91
  -6   3  -3   70.76    3.81
  -6   3  -4  122.25    4.95
  -6   3  -5   89.21    4.44
  -6   3  -6   35.39    2.94
  -6   3  -7   75.63    4.33
  -6   3  -8   66.03    4.13
  -6   3  -9   42.35    3.37
  -6   3 -10   34.47    3.33
  -6   3 -11   18.73    2.55
   6  -2 -14    6.37    2.26
   6  -2 -13    8.51    2.18
   6  -2 -12    8.89    2.16
   6  -2 -11    2.65    1.47
   6  -2 -10    3.85    1.49
   6  -2  -9    4.87    1.48
   6  -2  -8   11.45    1.76
   6  -2  -7   11.66    1.65
   6  -2  -6   30.48    2.60
   6  -2  -5    0.68    0.83
   6  -2  -4    0.55    0.65
   6  -2  -3    0.41    0.76
  -6   2   2    0.62    0.61
  -6   2   1    1.12    0.82
  -6   2   0    0.82    0.97
  -6   2  -1    1.41    0.80
  -6   2  -2    7.38    1.28
  -6   2  -3    8.09    1.44
  -6   2  -4   19.17    2.05
  -6   2  -5   21.99    2.36
  -6   2  -6   63.96    3.85
  -6   2  -7   74.62    4.27
  -6   2  -8   25.61    2.58
  -6   2  -9   45.74    3.62
  -6   2 -10   51.10    4.02
  -6   2 -11   40.56    3.72
  -6   2 -12   21.63    2.83
  -6   2 -13   21.43    2.98
  -6   2 -14   15.06    2.69
  -6   2 -15    8.16    2.08
   6  -1 -15   10.67    2.96
   6  -1 -14   13.43    2.80
   6  -1 -13    8.98    2.32
   6  -1 -12    8.16    1.87
   6  -1 -11   13.76    2.21
   6  -1 -10   17.65    2.33
   6  -1  -9   19.02    2.36
   6  -1  -8   18.37    2.11
   6  -1  -7   39.88    2.99
   6  -1  -6   55.33    3.40
   6  -1  -5   31.68    2.50
   6  -1  -4   39.49    2.74
  -6   1   3   18.76    1.96
  -6   1   2   10.41    1.70
  -6   1   1    3.74    1.03
  -6   1   0   31.58    2.55
  -6   1  -1   27.75    2.38
  -6   1  -2    3.19    1.15
  -6   1  -3    1.47    0.79
  -6   1  -4   -0.63    0.59
  -6   1  -5    1.11    0.91
  -6   1  -6    1.95    0.91
  -6   1  -7    1.22    0.88
  -6   1  -8   13.08    2.08
  -6   1  -9   17.55    2.45
  -6   1 -10   13.56    2.27
  -6   1 -11    9.92    2.04
  -6   1 -12   10.75    2.03
  -6   1 -13   10.21    2.08
  -6   1 -14    5.13    1.68
  -6   1 -15    4.59    1.99
   6   0 -15    8.48    2.79
   6   0 -14    8.44    2.28
   6   0 -13    6.91    2.05
   6   0 -12   12.19    2.21
   6   0 -11   14.85    2.26
   6   0 -10   14.39    2.19
   6   0  -9   40.89    3.26
   6   0  -8   77.79    4.32
   6   0  -7   77.93    4.25
   6   0  -6   43.43    2.99
   6   0  -5   39.33    2.80
   6   0  -4   37.44    2.64
  -6   0   3   49.64    3.06
  -6   0   2   85.38    3.99
  -6   0   1  154.45    5.66
  -6   0   0  144.05    5.19
  -6   0  -1   63.20    3.45
  -6   0  -2   92.15    4.16
  -6   0  -3  113.05    4.81
  -6   0  -4   61.72    3.65
  -6   0  -5   30.05    2.64
  -6   0  -6   23.55    2.41
  -6   0  -7   16.92    2.11
  -6   0  -8   17.16    2.22
  -6   0  -9   10.36    1.86
  -6   0 -10    3.03    1.27
  -6   0 -11    0.01    0.84
  -6   0 -12    2.43    1.50
  -6   0 -13   -0.30    1.27
  -6   0 -14   -0.72    1.34
  -6   0 -15    1.38    1.33
  -6   0 -16    0.91    1.43
   6   1 -15    1.18    1.63
   6   1 -14    2.76    1.88
   6   1 -13    0.58    1.10
   6   1 -12    1.22    1.38
   6   1 -11    1.58    1.39
   6   1 -10    5.90    1.46
   6   1  -9   18.33    2.24
   6   1  -8   21.41    2.33
   6   1  -7   35.89    2.90
   6   1  -6   30.73    2.55
   6   1  -5   32.97    2.64
   6   1  -4   76.87    3.78
  -6  -1   3  138.01    4.98
  -6  -1   2  137.56    4.85
  -6  -1   1  137.50    5.28
  -6  -1   0   89.74    4.20
  -6  -1  -1  113.92    4.72
  -6  -1  -2  105.01    4.46
  -6  -1  -3   86.62    4.19
  -6  -1  -4  132.13    5.25
  -6  -1  -5  117.64    5.09
  -6  -1  -6   86.40    4.44
  -6  -1  -7   68.52    4.14
  -6  -1  -8   39.23    3.27
  -6  -1  -9   16.09    2.24
  -6  -1 -10   10.82    1.94
  -6  -1 -11    5.54    1.57
  -6  -1 -12   12.02    2.15
  -6  -1 -13   14.45    2.40
  -6  -1 -14    3.17    1.49
  -6  -1 -15    2.22    1.79
  -6  -1 -16   -0.26    1.12
   6   2 -16    0.01    2.28
   6   2 -15   -0.80    1.79
   6   2 -14    3.23    1.62
   6   2 -13    1.45    1.22
   6   2 -12    1.62    1.48
   6   2 -11    0.05    1.20
   6   2 -10   -0.45    0.82
   6   2  -9   -0.41    0.73
   6   2  -8    0.29    0.78
   6   2  -7    0.32    0.82
   6   2  -6    1.30    0.80
   6   2  -5   24.90    2.23
   6   2  -4   25.85    2.27
  -6  -2   3   12.61    1.59
  -6  -2   2   41.14    2.70
  -6  -2   1   41.26    2.94
  -6  -2   0   75.88    3.86
  -6  -2  -1   46.70    3.13
  -6  -2  -2   19.99    2.01
  -6  -2  -3   50.24    3.31
  -6  -2  -4   88.74    4.32
  -6  -2  -5   87.35    4.35
  -6  -2  -6  166.69    6.14
  -6  -2  -7  130.74    5.72
  -6  -2  -8   32.41    3.09
  -6  -2  -9   49.05    3.78
  -6  -2 -10   55.61    4.11
  -6  -2 -11   31.99    3.22
  -6  -2 -12   27.18    3.29
  -6  -2 -13   28.06    3.40
  -6  -2 -14   15.36    2.66
  -6  -2 -15    6.70    1.91
  -6  -2 -16    4.49    1.78
   6   3 -15   12.42    2.78
   6   3 -14    5.69    2.12
   6   3 -13    7.54    1.97
   6   3 -12    9.69    2.06
   6   3 -11   12.94    2.17
   6   3 -10   12.55    1.99
   6   3  -9   20.38    2.42
   6   3  -8   20.05    2.42
   6   3  -6    6.30    1.31
   6   3  -5    0.19    0.63
  -6  -3   4   -0.14    0.61
   6   3  -4    0.41    0.68
  -6  -3   3    3.13    1.21
  -6  -3   2    1.06    0.73
  -6  -3   1    2.13    1.16
  -6  -3   0    1.30    1.09
  -6  -3  -1   18.68    2.15
  -6  -3  -2   39.45    2.77
  -6  -3  -3   19.18    2.08
  -6  -3  -4   29.08    2.55
  -6  -3  -5   30.69    2.64
  -6  -3  -6   48.74    3.39
  -6  -3  -7   62.47    3.99
  -6  -3  -8  102.21    5.25
  -6  -3  -9   48.92    3.78
  -6  -3 -10   22.19    2.66
  -6  -3 -11   15.69    2.35
  -6  -3 -12   27.94    3.14
  -6  -3 -13   33.26    3.55
  -6  -3 -14   15.05    2.62
  -6  -3 -15   16.55    2.94
  -6  -3 -16    5.50    1.87
   6   4 -15    8.44    2.43
   6   4 -14   10.37    2.48
   6   4 -13   14.00    2.47
   6   4 -12   19.64    2.74
   6   4 -11   15.68    2.34
   6   4 -10    7.55    1.63
   6   4  -9   28.71    2.80
   6   4  -8   32.57    2.86
   6   4  -7   34.36    2.88
   6   4  -6   37.00    2.81
   6   4  -5   49.36    3.13
   6   4  -4   46.70    2.98
  -6  -4   3   53.96    3.13
  -6  -4   2   50.93    2.99
  -6  -4   1   54.69    3.35
  -6  -4   0   42.91    2.89
  -6  -4  -1   10.92    1.70
  -6  -4  -2   22.91    2.12
  -6  -4  -3    0.62    0.95
  -6  -4  -4    5.89    1.29
  -6  -4  -5   14.49    1.86
  -6  -4  -6    7.51    1.51
  -6  -4  -7    0.18    0.81
  -6  -4  -8    0.27    0.85
  -6  -4  -9    0.36    0.88
  -6  -4 -10    0.96    0.95
  -6  -4 -11    2.82    1.24
  -6  -4 -12   11.32    2.27
  -6  -4 -13    2.34    1.49
  -6  -4 -14    7.65    1.93
  -6  -4 -15    5.92    1.90
  -6  -4 -16    5.69    1.93
   6   5 -15    4.92    2.45
   6   5 -14    4.01    1.73
   6   5 -13    9.03    2.34
   6   5 -12   13.16    2.33
   6   5 -11   10.90    2.05
   6   5 -10   35.33    3.19
   6   5  -9   48.85    3.60
   6   5  -8   41.79    3.30
   6   5  -7   56.33    3.63
   6   5  -6   61.15    3.58
   6   5  -5   81.84    4.04
   6   5  -4   70.16    3.62
  -6  -5   3  106.22    4.41
  -6  -5   2   80.47    3.81
  -6  -5   1   78.55    4.04
  -6  -5   0   47.93    3.08
  -6  -5  -1  118.26    4.72
  -6  -5  -2  157.17    5.51
  -6  -5  -3   71.40    3.91
  -6  -5  -4   60.20    3.67
  -6  -5  -5   65.56    3.79
  -6  -5  -6   38.60    3.13
  -6  -5  -7    7.33    1.67
  -6  -5  -8    1.23    0.99
  -6  -5  -9   -0.39    1.14
  -6  -5 -10   -0.21    0.80
  -6  -5 -11    0.33    1.20
  -6  -5 -12    0.49    1.00
  -6  -5 -13    0.77    1.18
  -6  -5 -14    0.51    1.11
  -6  -5 -15    0.25    1.49
  -6  -5 -16   -0.05    1.15
   6   6 -15   -0.60    1.87
   6   6 -14   -0.19    1.80
   6   6 -13   -0.65    1.02
   6   6 -12    0.93    1.07
   6   6 -11    5.00    1.46
   6   6 -10   10.64    1.89
   6   6  -9    6.79    1.53
   6   6  -8    9.96    1.64
   6   6  -7   19.28    2.17
   6   6  -6   32.80    2.65
   6   6  -5   41.28    2.89
   6   6  -4   66.43    3.52
  -6  -6   3   73.15    3.63
  -6  -6   2   34.90    2.81
  -6  -6   1   52.08    3.21
  -6  -6   0   76.79    3.84
  -6  -6  -1  114.09    4.69
  -6  -6  -2  107.83    4.64
  -6  -6  -3  176.44    6.09
  -6  -6  -4  108.99    4.89
  -6  -6  -5   60.12    3.73
  -6  -6  -6   39.95    3.23
  -6  -6  -7   30.57    2.90
  -6  -6  -8   41.96    3.50
  -6  -6  -9   34.69    3.38
  -6  -6 -10   13.38    2.18
  -6  -6 -11    8.38    1.91
  -6  -6 -12    9.68    2.14
  -6  -6 -13    0.16    1.37
  -6  -6 -14    0.98    1.49
  -6  -6 -15    4.65    1.67
   6   7 -14    1.26    1.45
   6   7 -13   -0.32    1.49
   6   7 -12    1.45    1.23
   6   7 -11    2.08    1.21
   6   7 -10    1.38    1.03
   6   7  -9    0.98    1.16
   6   7  -8   -0.42    0.58
   6   7  -7    0.75    1.00
   6   7  -6    2.36    0.92
   6   7  -5    2.17    1.02
   6   7  -4    7.57    1.39
  -6  -7   3   11.46    1.58
  -6  -7   2    3.83    1.33
  -6  -7   1    7.53    1.35
  -6  -7   0   53.83    3.45
  -6  -7  -1   79.81    4.02
  -6  -7  -2   96.46    4.35
  -6  -7  -3   91.85    4.28
  -6  -7  -4   56.47    3.55
  -6  -7  -5   57.25    3.72
  -6  -7  -6   66.70    3.95
  -6  -7  -7   84.86    4.81
  -6  -7  -8   46.17    3.59
  -6  -7  -9   35.51    3.28
  -6  -7 -10   36.63    3.55
  -6  -7 -11   32.62    3.50
  -6  -7 -12   24.96    3.11
  -6  -7 -13   20.59    3.00
  -6  -7 -14   14.61    2.63
  -6  -7 -15    6.49    1.92
   6   8 -13   15.33    2.84
   6   8 -12    9.35    1.97
   6   8 -11    7.93    2.01
   6   8 -10    8.04    1.83
   6   8  -9    6.17    1.59
   6   8  -8    1.73    0.95
   6   8  -7    0.40    0.97
   6   8  -6    0.42    0.89
   6   8  -5    0.39    0.79
   6   8  -4    7.97    1.48
   6   8  -3   11.48    1.50
  -6  -8   2    8.05    1.33
  -6  -8   1   -0.19    0.82
  -6  -8   0    5.32    1.30
  -6  -8  -1    0.21    0.90
  -6  -8  -2    3.37    0.96
  -6  -8  -3   23.13    2.35
  -6  -8  -4   15.45    1.88
  -6  -8  -5   25.68    2.59
  -6  -8  -6   51.81    3.72
  -6  -8  -7   22.11    2.40
  -6  -8  -8   16.66    2.39
  -6  -8  -9   27.85    3.01
  -6  -8 -10   19.69    2.56
  -6  -8 -11   18.91    2.82
  -6  -8 -12   18.66    2.73
  -6  -8 -13    9.41    2.32
  -6  -8 -14   12.83    2.70
   7  -2 -13    8.83    2.48
   7  -2 -12   14.03    2.41
   7  -2 -11   15.89    2.59
   7  -2 -10   18.63    2.58
   7  -2  -9   16.41    2.34
   7  -2  -8   20.55    2.34
   7  -2  -7   36.23    3.12
   7  -2  -6   54.81    3.67
   7  -2  -5   68.41    3.85
   7  -2  -4   31.31    2.69
   7  -2  -3   32.97    2.72
  -7   2   2   43.70    3.11
  -7   2   1   53.09    3.63
  -7   2   0   48.65    3.44
  -7   2  -1   35.39    2.87
  -7   2  -2   18.03    2.20
  -7   2  -3    3.91    1.14
  -7   2  -4    0.66    1.03
  -7   2  -5    0.63    1.07
  -7   2  -6    2.33    1.33
  -7   2  -7    1.00    1.16
  -7   2  -8   -0.72    1.04
  -7   2  -9   -0.46    1.16
  -7   2 -10    3.12    1.30
  -7   2 -11    3.10    1.31
  -7   2 -12    6.46    2.15
  -7   2 -13    3.74    1.61
   7  -1 -14    5.22    2.25
   7  -1 -13    3.31    1.57
   7  -1 -12    4.88    1.97
   7  -1 -11    4.64    1.79
   7  -1 -10   11.98    2.17
   7  -1  -9   17.26    2.42
   7  -1  -8   25.35    2.58
   7  -1  -7   38.74    3.20
   7  -1  -6   56.62    3.66
   7  -1  -5   32.87    2.87
   7  -1  -4   44.25    3.09
  -7   1   3   84.77    4.31
  -7   1   2   78.66    4.36
  -7   1   1   70.34    3.80
  -7   1   0   82.29    4.47
  -7   1  -1  102.08    4.87
  -7   1  -2   71.19    4.10
  -7   1  -3   53.73    3.62
  -7   1  -4   37.47    3.16
  -7   1  -5   45.50    3.54
  -7   1  -6   22.03    2.64
  -7   1  -7   24.80    2.70
  -7   1  -8   35.51    3.29
  -7   1  -9   18.41    2.62
  -7   1 -10    8.95    1.83
  -7   1 -11    2.55    1.35
  -7   1 -12    0.20    1.08
  -7   1 -13   -0.48    1.08
  -7   1 -14   -0.40    1.17
   7   0 -14    0.88    1.75
   7   0 -13    0.02    1.15
   7   0 -12   -0.81    1.43
   7   0 -11    0.82    1.39
   7   0 -10    1.01    1.34
   7   0  -9    0.91    0.87
   7   0  -8    3.02    1.38
   7   0  -7    3.62    1.39
   7   0  -6    4.69    1.39
   7   0  -5   13.57    1.86
   7   0  -4   64.77    3.88
  -7   0   3   51.60    3.28
  -7   0   2   84.15    4.51
  -7   0   1  104.32    4.99
  -7   0   0   89.27    4.50
  -7   0  -1   72.15    4.08
  -7   0  -2   69.59    4.03
  -7   0  -3   87.13    4.51
  -7   0  -4  116.92    5.43
  -7   0  -5  137.56    6.05
  -7   0  -6   90.76    4.89
  -7   0  -7  120.66    5.89
  -7   0  -8   71.56    4.68
  -7   0  -9   35.17    3.44
  -7   0 -10   24.61    2.97
  -7   0 -11   15.95    2.53
  -7   0 -12    6.08    2.08
  -7   0 -13    3.56    1.89
  -7   0 -14    6.61    2.25
   7   1 -14    3.11    1.55
   7   1 -13    0.94    1.63
   7   1 -12    4.01    1.60
   7   1 -11    4.46    1.52
   7   1 -10    5.34    1.67
   7   1  -9    2.99    1.38
   7   1  -8    1.08    1.25
   7   1  -7    1.54    0.96
   7   1  -6    0.00    0.98
   7   1  -5    0.29    0.70
   7   1  -4   -1.83    0.83
  -7  -1   3    4.49    1.14
  -7  -1   2   11.65    1.74
  -7  -1   1   27.27    2.77
  -7  -1   0   15.78    2.00
  -7  -1  -1    5.04    1.30
  -7  -1  -2   28.94    2.78
  -7  -1  -3   27.84    2.58
  -7  -1  -4   42.95    3.30
  -7  -1  -5   50.66    3.71
  -7  -1  -6   31.35    2.87
  -7  -1  -7   30.97    3.04
  -7  -1  -8   63.78    4.34
  -7  -1  -9   74.38    4.93
  -7  -1 -10   44.67    3.96
  -7  -1 -11   31.70    3.48
  -7  -1 -12   25.45    3.35
  -7  -1 -13   23.65    3.31
  -7  -1 -14   16.26    2.94
  -7  -1 -15   12.44    2.59
   7   2 -15    8.54    2.38
   7   2 -14    6.39    1.91
   7   2 -13   18.55    2.95
   7   2 -12   11.24    2.16
   7   2 -11   17.20    2.52
   7   2 -10   14.88    2.35
   7   2  -9   11.71    1.95
   7   2  -8   30.09    3.03
   7   2  -7   25.11    2.65
   7   2  -6   23.29    2.56
   7   2  -5   10.45    1.68
  -7  -2   4    2.14    1.00
  -7  -2   3   16.37    1.92
  -7  -2   2   32.74    2.72
  -7  -2   1   12.67    2.02
  -7  -2   0    5.96    1.33
  -7  -2  -1   -0.30    0.73
  -7  -2  -2    3.84    1.34
  -7  -2  -3   -0.06    0.74
  -7  -2  -4   -0.33    0.78
  -7  -2  -5    1.90    1.33
  -7  -2  -6    8.20    1.61
  -7  -2  -7   34.49    3.28
  -7  -2  -8   22.06    2.72
  -7  -2  -9   14.47    2.27
  -7  -2 -10   23.97    3.08
  -7  -2 -11   20.97    2.91
  -7  -2 -12   20.38    2.96
  -7  -2 -13   25.08    3.34
  -7  -2 -14   17.13    2.89
  -7  -2 -15   12.65    2.84
   7   3 -15    4.00    1.84
   7   3 -14   11.93    2.48
   7   3 -13   12.06    2.44
   7   3 -12   18.14    2.72
   7   3 -11   16.60    2.43
   7   3 -10   18.27    2.45
   7   3  -9   26.75    2.91
   7   3  -8   34.89    3.18
   7   3  -7   33.02    2.94
   7   3  -6   53.22    3.66
   7   3  -5   48.13    3.42
  -7  -3   4   57.29    3.62
  -7  -3   3   56.04    3.67
  -7  -3   2   37.19    2.84
  -7  -3   1   57.49    3.79
  -7  -3   0   39.19    3.04
  -7  -3  -1   31.36    2.73
  -7  -3  -2   20.61    2.32
  -7  -3  -3   16.66    2.11
  -7  -3  -4   11.20    1.84
  -7  -3  -5   10.34    1.79
  -7  -3  -6    8.08    1.59
  -7  -3  -7    4.34    1.54
  -7  -3  -8    0.67    1.20
  -7  -3  -9   -0.08    0.92
  -7  -3 -10    0.13    1.25
  -7  -3 -11    0.52    1.17
  -7  -3 -12    2.28    1.28
  -7  -3 -13    3.41    1.57
  -7  -3 -14    3.96    1.66
  -7  -3 -15    3.66    1.92
   7   4 -14    1.04    1.71
   7   4 -13    2.04    1.48
   7   4 -12    2.51    1.42
   7   4 -11    7.54    1.77
   7   4 -10   10.41    1.91
   7   4  -9   25.49    2.87
   7   4  -8   42.80    3.50
   7   4  -7   50.39    3.58
   7   4  -6   51.28    3.58
   7   4  -5   69.79    4.06
  -7  -4   4   89.69    4.51
  -7  -4   3  101.98    5.02
  -7  -4   2   80.78    4.17
  -7  -4   1   53.31    3.65
  -7  -4   0   39.13    3.04
  -7  -4  -1   19.08    2.20
  -7  -4  -2   23.27    2.56
  -7  -4  -3   67.76    4.03
  -7  -4  -5  172.16    6.79
  -7  -4  -6   99.97    5.09
  -7  -4  -7   88.52    5.09
  -7  -4  -8   34.56    3.30
  -7  -4  -9   15.95    2.56
  -7  -4 -10   10.73    2.12
  -7  -4 -11    7.08    1.87
  -7  -4 -12    1.51    1.22
  -7  -4 -13   -0.06    1.47
  -7  -4 -14    0.90    1.62
  -7  -4 -15    0.23    1.34
   7   5 -14    0.31    1.14
   7   5 -13   -0.99    1.30
   7   5 -12    1.23    1.43
   7   5 -11    0.52    1.31
   7   5 -10   -0.89    1.06
   7   5  -9    2.58    1.15
   7   5  -8    3.60    1.43
   7   5  -7    3.87    1.35
   7   5  -6   10.79    1.86
   7   5  -5   33.06    2.77
  -7  -5   4   54.39    3.60
  -7  -5   3   59.26    3.67
  -7  -5   2   71.08    3.92
  -7  -5   1   48.29    3.53
  -7  -5   0   26.13    2.59
  -7  -5  -1   63.55    3.93
  -7  -5  -2  147.92    5.91
  -7  -5  -3  120.98    5.36
  -7  -5  -4   62.79    4.10
  -7  -5  -5   39.54    3.35
  -7  -5  -6   24.20    2.63
  -7  -5  -7   24.48    2.71
  -7  -5  -8   49.46    3.96
  -7  -5  -9   60.70    4.48
  -7  -5 -10   43.84    3.99
  -7  -5 -11   21.55    2.94
  -7  -5 -12   13.42    2.64
  -7  -5 -13   22.46    3.35
  -7  -5 -14   12.92    2.70
  -7  -5 -15    7.19    2.07
   7   6 -14    3.35    1.61
   7   6 -13    5.80    2.09
   7   6 -12    5.09    1.83
   7   6 -11    6.80    1.85
   7   6 -10    1.36    1.30
   7   6  -9    1.93    1.07
   7   6  -8    5.11    1.57
   7   6  -7    3.34    1.13
   7   6  -6    1.77    0.93
   7   6  -5    2.20    1.12
   7   6  -4    1.98    0.91
  -7  -6   3    1.59    0.87
  -7  -6   2    6.82    1.50
  -7  -6   1    7.01    1.44
  -7  -6   0    3.48    1.16
  -7  -6  -1   25.01    2.48
  -7  -6  -2   24.78    2.59
  -7  -6  -3    9.44    1.65
  -7  -6  -4   35.39    3.07
  -7  -6  -5   34.36    3.10
  -7  -6  -6   29.65    2.96
  -7  -6  -7   21.64    2.52
  -7  -6  -8   32.20    3.25
  -7  -6  -9   26.30    3.00
  -7  -6 -10   38.63    3.65
  -7  -6 -11   32.37    3.57
  -7  -6 -12   26.41    3.36
  -7  -6 -13   23.41    3.35
  -7  -6 -14   11.31    2.46
   7   7 -13   13.22    2.65
   7   7 -12   17.79    2.70
   7   7 -11   17.43    2.53
   7   7 -10   12.17    2.09
   7   7  -9   27.93    2.85
   7   7  -8   24.10    2.74
   7   7  -7   17.69    2.29
   7   7  -6   22.95    2.50
   7   7  -5   15.79    2.06
   7   7  -4    4.15    1.15
  -7  -7   3    2.19    0.89
  -7  -7   2   -0.71    0.97
  -7  -7   1    5.30    1.33
  -7  -7   0    7.12    1.56
  -7  -7  -1    0.62    0.95
  -7  -7  -2   -0.23    0.65
  -7  -7  -3    0.23    0.94
  -7  -7  -4    2.17    1.24
  -7  -7  -5    0.76    0.87
  -7  -7  -6    0.18    0.88
  -7  -7  -7   12.95    2.19
  -7  -7  -8   20.66    2.58
  -7  -7  -9   16.87    2.60
  -7  -7 -10   13.65    2.32
  -7  -7 -11   11.78    2.23
  -7  -7 -12    6.97    1.95
  -7  -7 -13    9.31    2.23
  -7  -7 -14   14.13    2.92
   7   8 -13    2.04    1.74
   7   8 -12    2.02    1.40
   7   8 -11    5.20    1.55
   7   8 -10   14.56    2.27
   7   8  -9   35.98    3.28
   7   8  -8   37.48    3.27
   7   8  -7   44.17    3.46
   7   8  -6   42.04    3.18
   7   8  -5   24.65    2.46
   7   8  -4   30.34    2.72
   7   8  -3   79.29    4.17
  -7  -8   2   53.39    3.34
  -7  -8   1   21.05    2.35
  -7  -8   0   18.45    2.35
  -7  -8  -1   10.60    1.82
  -7  -8  -2    5.75    1.36
  -7  -8  -3   25.24    2.64
  -7  -8  -4   33.48    2.98
  -7  -8  -5   15.83    2.14
  -7  -8  -6    5.38    1.49
  -7  -8  -7    0.70    1.29
  -7  -8  -8    0.24    0.95
  -7  -8  -9   -0.25    0.89
  -7  -8 -10    0.00    1.34
  -7  -8 -11   -0.05    1.40
  -7  -8 -12    0.92    1.59
  -7  -8 -13   -0.34    1.60
   7   9 -10    6.80    1.85
   7   9  -9   16.06    2.37
   7   9  -8   28.21    2.84
   7   9  -7   19.17    2.28
   7   9  -6   25.64    2.65
   7   9  -5   31.82    2.77
   7   9  -4   40.60    3.11
   7   9  -3   53.44    3.52
  -7  -9   2   55.52    3.48
  -7  -9   1   66.82    4.11
  -7  -9   0   48.95    3.35
  -7  -9  -1   58.96    3.95
  -7  -9  -2   63.86    3.87
  -8   2   2   43.72    3.34
  -8   2   1   58.79    4.38
  -8   2   0   61.55    3.99
  -8   2  -1   69.66    4.59
  -8   2  -2   60.36    4.14
  -8   2  -3   43.79    3.55
  -8   2  -4   41.16    3.53
  -8   2  -5   20.73    2.53
  -8   2  -6   35.26    3.44
  -8   2  -7   24.40    2.87
  -8   2  -8   15.03    2.57
  -8   2  -9   12.69    2.27
   8  -1 -12    0.19    1.20
   8  -1 -11    0.58    1.18
   8  -1 -10   -1.11    0.81
   8  -1  -9   -0.50    0.84
   8  -1  -8    0.27    1.18
   8  -1  -7    0.58    0.90
   8  -1  -6    4.02    1.38
   8  -1  -5    9.33    1.91
   8  -1  -4    1.53    1.16
   8  -1  -3   15.58    2.08
  -8   1   2   30.54    2.89
  -8   1   1   33.29    3.19
  -8   1   0   47.00    3.89
  -8   1  -1   53.71    3.96
  -8   1  -2   44.44    3.54
  -8   1  -3   50.42    3.73
  -8   1  -4   67.20    4.49
  -8   1  -5   75.57    4.62
  -8   1  -6   78.49    4.94
  -8   1  -8   32.36    3.39
  -8   1  -9   37.38    3.66
  -8   1 -10   28.42    3.25
  -8   1 -11   17.59    2.85
  -8   1 -12   14.71    2.65
  -8   1 -13   12.31    2.68
   8   0 -13    8.15    2.44
   8   0 -12    9.50    2.32
   8   0 -11   18.27    2.68
   8   0 -10   11.78    2.19
   8   0  -9    5.99    1.78
   8   0  -8    2.26    1.20
   8   0  -7    4.59    1.55
   8   0  -6    2.95    1.14
   8   0  -5    9.55    1.72
   8   0  -4    2.31    1.21
  -8   0   3    0.11    0.94
  -8   0   2   -0.52    0.83
  -8   0   1    0.07    1.08
  -8   0   0    1.88    1.15
  -8   0  -1   18.66    2.33
  -8   0  -2   29.49    2.97
  -8   0  -3   55.15    4.04
  -8   0  -4   36.07    3.22
  -8   0  -5   30.04    3.19
  -8   0  -6   12.39    2.13
  -8   0  -7   17.81    2.75
  -8   0  -8   18.74    2.58
  -8   0  -9   14.30    2.50
  -8   0 -10   16.97    2.65
  -8   0 -11   22.79    3.10
  -8   0 -12   22.24    3.21
  -8   0 -13   10.94    2.33
   8   1 -13   10.04    2.29
   8   1 -12   11.02    2.36
   8   1 -11    9.01    1.97
   8   1 -10   14.47    2.28
   8   1  -9   25.80    2.92
   8   1  -8   30.18    3.20
   8   1  -7   25.01    2.82
   8   1  -6   29.11    2.93
   8   1  -5   37.41    3.17
   8   1  -4   44.17    3.53
  -8  -1   3   49.51    3.62
  -8  -1   2   43.30    3.60
  -8  -1   1   30.57    2.88
  -8  -1   0   10.90    2.09
  -8  -1  -1   13.56    2.04
  -8  -1  -2   13.78    2.05
  -8  -1  -3    0.89    0.94
  -8  -1  -4    1.28    1.22
  -8  -1  -5    2.36    1.16
  -8  -1  -6    0.22    1.00
  -8  -1  -7    2.89    1.31
  -8  -1  -8    1.38    1.11
  -8  -1  -9    6.17    1.69
  -8  -1 -10   11.41    2.25
  -8  -1 -11    9.44    2.13
  -8  -1 -12    4.53    1.70
  -8  -1 -13    4.45    1.76
  -8  -1 -14    7.05    2.16
   8   2 -13    4.16    2.00
   8   2 -12    7.11    1.92
   8   2 -11   11.74    2.25
   8   2 -10   12.74    2.21
   8   2  -9   16.76    2.56
   8   2  -8   21.56    2.70
   8   2  -7   48.39    3.81
   8   2  -6   56.37    4.05
   8   2  -5   52.20    3.83
  -8  -2   4   61.44    4.13
  -8  -2   3   85.08    4.74
  -8  -2   2   98.89    5.16
  -8  -2   1  118.09    5.92
  -8  -2   0  113.78    5.50
  -8  -2  -1   81.47    4.70
  -8  -2  -2   19.43    2.58
  -8  -2  -3   20.22    2.49
  -8  -2  -4   18.55    2.39
  -8  -2  -5   28.42    3.01
  -8  -2  -6   16.99    2.61
  -8  -2  -7    5.10    1.57
  -8  -2  -8    3.09    1.30
  -8  -2  -9    0.12    0.97
  -8  -2 -10    0.53    1.16
  -8  -2 -11   -0.27    1.05
  -8  -2 -12   -0.62    1.43
  -8  -2 -13    1.00    1.45
   8   3 -13   -0.43    1.14
   8   3 -12    0.93    1.30
   8   3 -11    0.84    1.15
   8   3 -10    1.02    1.06
   8   3  -9    7.63    1.75
   8   3  -8    8.47    1.78
   8   3  -7   14.65    2.29
   8   3  -6   18.94    2.40
   8   3  -5   17.97    2.30
  -8  -3   4   24.47    2.63
  -8  -3   3   53.75    3.69
  -8  -3   2   81.87    4.48
  -8  -3   1  146.12    6.42
  -8  -3   0  130.33    6.00
  -8  -3  -1   51.07    3.78
  -8  -3  -2   53.66    3.87
  -8  -3  -3   85.60    4.97
  -8  -3  -4   73.78    4.59
  -8  -3  -5  107.97    5.72
  -8  -3  -6  110.35    5.98
  -8  -3  -7   41.47    3.72
  -8  -3  -8   26.68    3.17
  -8  -3  -9   23.91    3.12
  -8  -3 -10   20.15    2.91
  -8  -3 -11   13.74    2.53
  -8  -3 -12    4.52    1.82
  -8  -3 -13    3.88    1.78
  -8  -3 -14    2.74    1.66
   8   4 -13    2.75    1.89
   8   4 -12    0.12    1.16
   8   4 -11   -0.68    1.00
   8   4 -10   -0.48    0.79
   8   4  -9    0.30    1.38
   8   4  -8    0.21    0.87
   8   4  -7   -0.57    0.99
   8   4  -6    1.28    1.22
   8   4  -5    0.35    1.07
  -8  -4   4   -0.42    0.75
  -8  -4   3    6.76    1.82
  -8  -4   2    2.40    1.16
  -8  -4   1   20.49    2.60
  -8  -4   0   84.62    4.90
  -8  -4  -1  110.08    5.46
  -8  -4  -2  113.87    5.58
  -8  -4  -3  127.31    6.03
  -8  -4  -4  100.33    5.36
  -8  -4  -5   84.91    5.12
  -8  -4  -6   45.84    3.94
  -8  -4  -7   56.82    4.38
  -8  -4  -8   55.21    4.27
  -8  -4  -9   21.31    2.91
  -8  -4 -10   24.61    3.19
  -8  -4 -11   24.47    3.19
  -8  -4 -12   25.23    3.54
  -8  -4 -13   10.97    2.47
  -8  -4 -14    7.87    2.21
   8   5 -13    7.55    2.11
   8   5 -12    5.78    1.74
   8   5 -11    3.68    1.42
   8   5 -10    5.57    1.57
   8   5  -9    6.26    1.66
   8   5  -8    8.45    1.96
   8   5  -7   10.32    1.85
   8   5  -6   12.11    1.99
   8   5  -5   17.37    2.25
  -8  -5   4    5.44    1.51
  -8  -5   3   -0.23    0.62
  -8  -5   2    0.31    0.86
  -8  -5   1    0.01    1.21
  -8  -5   0    0.18    0.84
  -8  -5  -1    6.73    1.55
  -8  -5  -2    1.17    0.96
  -8  -5  -3   10.68    1.92
  -8  -5  -4   19.10    2.43
  -8  -5  -5   25.69    2.91
  -8  -5  -6   21.80    2.77
  -8  -5  -7   21.32    2.83
  -8  -5  -8   22.45    2.92
  -8  -5  -9   44.81    4.06
  -8  -5 -10   59.94    4.92
  -8  -5 -11   39.64    4.08
  -8  -5 -12   11.09    2.35
  -8  -5 -13   13.83    2.70
  -8  -5 -14    9.87    2.44
   8   6 -13    8.56    2.37
   8   6 -12    7.41    1.95
   8   6 -11   12.84    2.31
   8   6 -10   14.41    2.32
   8   6  -9    7.16    1.91
   8   6  -8   19.34    2.54
   8   6  -7   48.20    3.79
   8   6  -6   44.50    3.60
   8   6  -5   33.13    3.00
   8   6  -4   27.81    2.76
  -8  -6   3   17.36    2.17
  -8  -6   2   45.55    3.69
  -8  -6   1   41.58    3.33
  -8  -6   0   50.05    3.82
  -8  -6  -1   29.32    2.88
  -8  -6  -2    1.46    1.02
  -8  -6  -3    5.84    1.65
  -8  -6  -4    7.42    1.61
  -8  -6  -5    4.46    1.43
  -8  -6  -6    0.85    1.30
  -8  -6  -7    1.55    1.15
  -8  -6  -8    5.39    1.62
  -8  -6  -9   15.49    2.65
  -8  -6 -10   16.14    2.64
  -8  -6 -11   10.30    2.25
  -8  -6 -12    7.39    2.26
  -8  -6 -13    8.11    2.20
   8   7 -12    5.19    1.76
   8   7 -11    7.97    1.93
   8   7 -10    6.03    1.62
   8   7  -9   12.29    2.07
   8   7  -8   28.95    3.16
   8   7  -7   15.71    2.24
   8   7  -6   13.73    2.21
   8   7  -5   34.33    3.09
   8   7  -4   47.69    3.59
  -8  -7   3   36.00    3.01
  -8  -7   2   66.95    4.47
  -8  -7   1   85.17    4.81
  -8  -7   0   75.23    4.85
  -8  -7  -1   32.36    3.09
  -8  -7  -2   43.82    3.52
  -8  -7  -3   51.26    3.96
  -8  -7  -4   25.01    2.83
  -8  -7  -5   26.00    2.88
  -8  -7  -6   24.71    2.90
  -8  -7  -7   26.35    3.13
  -8  -7  -8    7.15    1.82
  -8  -7  -9    2.34    1.24
  -8  -7 -10    0.37    1.15
  -8  -7 -11    0.60    1.20
  -8  -7 -12    0.70    1.24
  -8  -7 -13    0.12    1.55
   8   8 -12   -0.28    1.64
   8   8 -11    0.09    1.10
   8   8 -10    1.82    1.24
   8   8  -9    7.20    1.69
   8   8  -8    8.36    1.98
   8   8  -7    8.40    1.68
   8   8  -6   11.71    2.01
   8   8  -5    7.69    1.74
   8   8  -4   14.87    2.03
  -8  -8   3   30.64    2.93
  -8  -8   2   30.60    2.83
  -8  -8   1   53.35    3.85
  -8  -8   0   55.96    3.96
  -8  -8  -1   57.17    4.12
  -8  -8  -2   67.34    4.44
  -8  -8  -3   54.20    3.96
  -8  -8  -4   77.70    4.92
  -8  -8  -5   73.68    4.74
  -8  -8  -6   76.67    5.10
  -8  -8  -7   47.06    4.19
  -8  -8  -8   36.99    3.77
  -8  -8  -9   40.52    4.08
  -8  -8 -10   29.32    3.44
  -8  -8 -11   17.28    2.81
  -8  -8 -12   13.71    2.80
   8   9 -11    0.59    1.12
   8   9 -10   -0.06    0.89
   8   9  -9    1.32    1.11
   8   9  -8    0.23    0.84
   8   9  -7    0.61    1.26
   8   9  -6   -0.61    0.69
   8   9  -5    0.88    1.12
   8   9  -4    1.30    1.14
   8   9  -3   14.34    2.10
  -8  -9   2   22.43    2.38
  -8  -9   1   27.00    2.89
  -8  -9   0    8.48    1.63
  -8  -9  -1    4.71    1.47
  -8  -9  -2   11.23    1.90
  -8  -9  -3   28.68    3.02
  -8  -9  -4   38.46    3.52
  -8  -9  -5   52.07    4.12
  -8  -9  -6   48.11    4.03
  -8  -9  -7   46.08    4.12
  -8  -9  -8   34.50    3.63
  -8  -9  -9   36.02    3.96
  -8  -9 -10   21.40    3.08
  -8  -9 -11   17.75    2.93
   9  -1 -10   12.91    2.53
   9  -1  -9    8.01    2.01
   9  -1  -8   10.42    2.30
   9  -1  -7    7.96    1.80
   9  -1  -6    8.83    1.92
   9  -1  -5    1.88    1.09
   9  -1  -4    1.49    1.31
   9  -1  -3    6.05    1.74
  -9   1   2    0.82    1.17
  -9   1   1    0.44    1.06
  -9   1   0   -0.24    0.75
  -9   1  -1   -0.22    0.94
  -9   1  -2    1.02    1.24
  -9   1  -3    0.75    1.00
  -9   1  -4    3.61    1.64
  -9   1  -5    9.57    2.15
  -9   1  -6   11.22    2.11
  -9   1  -7    7.08    2.06
  -9   1  -8    3.53    1.88
  -9   1  -9    9.94    2.19
  -9   1 -10   14.83    2.91
  -9   1 -11   12.79    2.65
   9   0 -11   13.66    2.52
   9   0 -10   11.73    2.34
   9   0  -9   11.86    2.16
   9   0  -8   22.47    3.10
   9   0  -7   29.06    3.28
   9   0  -6   24.97    2.90
   9   0  -5   30.13    3.20
   9   0  -4   37.96    3.54
  -9   0   3   12.28    2.05
  -9   0   2    3.01    1.26
  -9   0   1    7.44    1.79
  -9   0   0   25.21    3.09
  -9   0  -1   31.88    3.38
  -9   0  -2   28.03    3.08
  -9   0  -3   18.72    2.68
  -9   0  -4    7.77    1.94
  -9   0  -5    1.97    1.46
  -9   0  -6    2.86    1.58
  -9   0  -7    8.35    2.16
  -9   0  -8   -0.43    1.56
  -9   0  -9   -0.04    1.13
  -9   0 -10   -0.68    1.51
  -9   0 -11    0.83    1.59
   9   1 -11    5.93    1.92
   9   1 -10    7.67    1.90
   9   1  -9   21.81    2.91
   9   1  -8   28.07    3.22
   9   1  -7   31.74    3.37
   9   1  -6   28.50    3.11
   9   1  -5   42.83    3.66
   9   1  -4   39.20    3.55
  -9  -1   3   26.52    2.80
  -9  -1   2   56.56    4.45
  -9  -1   1   47.81    3.75
  -9  -1   0   57.47    4.64
  -9  -1  -1   53.42    4.26
  -9  -1  -2   51.74    4.10
  -9  -1  -3   37.83    3.67
  -9  -1  -4   24.37    3.05
  -9  -1  -5   15.33    2.47
  -9  -1  -6   25.22    3.07
  -9  -1  -7   24.24    3.10
  -9  -1  -8   13.46    2.46
  -9  -1  -9   18.70    3.08
  -9  -1 -10    8.02    2.08
  -9  -1 -11    3.31    1.61
  -9  -1 -12    4.21    2.07
   9   2 -12    1.06    1.68
   9   2 -11    0.21    1.56
   9   2 -10    0.71    1.12
   9   2  -9    3.59    1.79
   9   2  -8   11.26    2.36
   9   2  -7   16.46    2.43
   9   2  -6   15.14    2.49
   9   2  -5   12.84    2.10
   9   2  -4   13.49    2.16
  -9  -2   3   25.73    2.96
  -9  -2   2   31.48    3.43
  -9  -2   1   36.46    3.37
  -9  -2   0   54.84    4.42
  -9  -2  -1   57.48    4.32
  -9  -2  -2   42.13    3.84
  -9  -2  -3   33.56    3.51
  -9  -2  -4   34.44    3.50
  -9  -2  -5   42.06    3.90
  -9  -2  -6   36.12    3.68
  -9  -2  -7   29.62    3.45
  -9  -2  -8   28.57    3.48
  -9  -2  -9   20.34    3.15
  -9  -2 -10   14.01    2.51
  -9  -2 -11   17.00    2.83
  -9  -2 -12   22.95    3.57
   9   3 -12    5.38    2.07
   9   3 -11    3.97    1.64
   9   3 -10    3.99    1.55
   9   3  -9    5.03    1.68
   9   3  -8    2.54    1.55
   9   3  -7    0.51    0.94
   9   3  -6    1.15    1.30
   9   3  -5    3.10    1.32
  -9  -3   4   -0.04    1.09
  -9  -3   3   -0.43    0.78
  -9  -3   2    2.40    1.33
  -9  -3   1   14.77    2.27
  -9  -3   0   30.89    3.31
  -9  -3  -1   40.14    3.73
  -9  -3  -2   23.52    2.81
  -9  -3  -3   22.53    2.94
  -9  -3  -4   24.86    3.07
  -9  -3  -5   40.15    3.71
  -9  -3  -6   59.29    4.75
  -9  -3  -7   23.02    3.11
  -9  -3  -8   19.71    3.07
  -9  -3  -9   31.17    3.68
  -9  -3 -10   24.64    3.37
  -9  -3 -11   27.42    3.77
  -9  -3 -12   26.14    3.65
   9   4 -12    8.99    2.15
   9   4 -11   15.68    2.79
   9   4  -9   18.03    2.89
   9   4  -8   14.31    2.34
   9   4  -7   20.68    2.73
   9   4  -6   29.99    3.16
   9   4  -5   29.39    3.23
  -9  -4   4   10.06    1.87
  -9  -4   3    0.57    1.18
  -9  -4   2    2.93    1.37
  -9  -4   1    1.76    1.06
  -9  -4   0    1.42    1.15
  -9  -4  -1    0.37    0.90
  -9  -4  -2   -0.10    0.84
  -9  -4  -3    0.29    1.21
  -9  -4  -4    2.22    1.43
  -9  -4  -5    2.67    1.31
  -9  -4  -6    4.03    1.66
  -9  -4  -7    1.70    1.35
  -9  -4  -8    5.59    2.01
  -9  -4  -9    2.56    1.51
  -9  -4 -10    6.65    2.10
  -9  -4 -11   18.13    2.92
  -9  -4 -12   14.39    2.80
   9   5 -12   14.66    2.77
   9   5 -11   12.84    2.57
   9   5 -10   15.80    2.69
   9   5  -9   27.61    3.39
   9   5  -8   21.57    2.80
   9   5  -7   27.37    3.09
   9   5  -6   34.68    3.52
   9   5  -5   33.10    3.26
  -9  -5   4   35.12    3.41
  -9  -5   3   46.02    3.80
  -9  -5   2   71.84    4.97
  -9  -5   1   49.02    3.93
  -9  -5   0   64.58    4.82
  -9  -5  -1   38.51    3.72
  -9  -5  -2   20.99    2.69
  -9  -5  -3    7.29    1.77
  -9  -5  -4    0.67    1.06
  -9  -5  -5   -0.01    0.90
  -9  -5  -6    1.91    1.25
  -9  -5  -7    3.47    1.81
  -9  -5  -8    2.26    1.42
  -9  -5  -9    0.89    1.53
  -9  -5 -10   -0.09    0.96
  -9  -5 -11    1.51    1.36
  -9  -5 -12    0.45    1.67
   9   6 -12    2.20    1.52
   9   6 -11    4.25    1.72
   9   6 -10    7.46    1.87
   9   6  -9   10.83    2.17
   9   6  -8   11.39    2.18
   9   6  -7   24.68    3.06
   9   6  -6   39.22    3.60
   9   6  -5   45.63    3.88
  -9  -6   4   33.02    3.28
   9   6  -4   30.87    3.14
  -9  -6   3   52.77    4.05
  -9  -6   2   55.92    4.52
  -9  -6   1   56.22    4.11
  -9  -6   0   92.31    5.63
  -9  -6  -1  117.20    6.19
  -9  -6  -2   57.68    4.34
  -9  -6  -3   22.10    2.79
  -9  -6  -4   19.39    2.67
  -9  -6  -5   11.79    2.16
  -9  -6  -6   15.39    2.49
  -9  -6  -7   15.83    2.75
  -9  -6  -8   16.77    2.77
  -9  -6  -9   11.84    2.68
  -9  -6 -10    4.93    1.81
  -9  -6 -11    1.24    1.27
  -9  -6 -12    1.34    1.85
   9   7 -11    0.19    1.13
   9   7 -10   -0.41    0.88
   9   7  -9    0.27    1.07
   9   7  -8    0.92    1.06
   9   7  -7    4.47    1.58
   9   7  -6    5.50    1.57
   9   7  -5    9.92    2.05
   9   7  -4    9.62    1.87
  -9  -7   3   15.63    2.22
  -9  -7   2   33.36    3.51
  -9  -7   1   47.72    3.94
  -9  -7   0   78.53    5.36
  -9  -7  -1   52.04    4.13
  -9  -7  -2   31.36    3.48
  -9  -7  -3   47.12    4.09
  -9  -7  -4   55.26    4.49
  -9  -7  -5   35.42    3.62
  -9  -7  -6   21.36    2.88
  -9  -7  -7   26.09    3.30
  -9  -7  -8   33.64    3.96
  -9  -7  -9   29.93    3.73
  -9  -7 -10   26.68    3.68
  -9  -7 -11   26.94    3.62
  -9  -7 -12   17.12    2.95
   9   8 -10    4.13    1.72
   9   8  -9    1.34    1.44
   9   8  -8    1.04    1.36
   9   8  -7    2.47    1.19
   9   8  -6    4.24    1.42
   9   8  -5    1.76    1.30
   9   8  -4    0.10    0.82
  -9  -8   3    1.21    1.23
  -9  -8   2    5.54    1.45
  -9  -8   1    6.92    1.85
  -9  -8   0   17.81    2.73
  -9  -8  -1   14.70    2.41
  -9  -8  -2   15.25    2.53
  -9  -8  -3   25.59    3.06
  -9  -8  -4   25.57    3.18
  -9  -8  -5   32.67    3.47
  -9  -8  -6   41.16    3.98
  -9  -8  -7   31.43    3.60
  -9  -8  -8   28.31    3.64
  -9  -8  -9   19.23    3.21
  -9  -8 -10   14.68    3.00
  -9  -8 -11   10.60    2.67
   9   9  -9   10.43    2.19
   9   9  -8   12.52    2.39
   9   9  -7    9.09    2.05
   9   9  -6    7.31    1.68
   9   9  -5    8.18    1.91
   9   9  -4   15.57    2.27
   9   9  -3   22.43    2.80
  -9  -9   2   11.25    2.00
  -9  -9   1    6.05    1.66
  -9  -9   0    4.69    1.50
  -9  -9  -1    1.01    1.40
  -9  -9  -2   -0.62    1.16
  -9  -9  -3    0.35    0.93
  -9  -9  -4    1.58    1.10
  -9  -9  -5    3.92    1.70
  -9  -9  -6    0.78    1.14
  -9  -9  -7    0.04    1.38
  -9  -9  -8   -0.75    1.54
  -9  -9  -9    4.24    1.68
  -9  -9 -10    9.11    2.27
 -10   1   2   11.09    2.20
 -10   1   1   10.62    2.33
 -10   1   0   15.68    2.86
 -10   1  -1   22.30    3.14
 -10   1  -2   33.10    3.89
 -10   1  -3   25.25    3.32
 -10   1  -4   23.23    3.17
 -10   1  -5    6.10    1.78
  10   0  -8    2.94    1.49
  10   0  -7    8.25    2.16
  10   0  -6   11.16    2.30
  10   0  -5   10.52    2.34
  10   0  -4   20.10    2.76
  10   0  -3   36.39    3.73
 -10   0   2   19.37    2.95
 -10   0   1   36.26    3.94
 -10   0   0   51.85    4.35
 -10   0  -1   52.25    4.56
 -10   0  -2   62.23    4.88
 -10   0  -3   46.84    4.25
 -10   0  -4   31.05    3.49
 -10   0  -5   32.73    3.80
 -10   0  -6   15.37    2.79
 -10   0  -7   15.56    2.66
 -10   0  -8   22.47    3.36
 -10   0  -9    7.18    2.09
  10   1  -9   -0.84    1.13
  10   1  -8   -0.66    1.06
  10   1  -7   -0.94    1.33
  10   1  -6    0.83    1.54
  10   1  -5    2.92    1.35
  10   1  -4   11.37    2.12
 -10  -1   3    2.54    1.56
 -10  -1   2    1.89    1.23
 -10  -1   1    8.35    2.13
 -10  -1   0   14.81    2.71
 -10  -1  -1   20.19    3.01
 -10  -1  -2   31.66    3.53
 -10  -1  -3   38.79    3.88
 -10  -1  -4   20.66    2.96
 -10  -1  -5   31.66    3.75
 -10  -1  -6   33.02    3.82
 -10  -1  -7   57.20    4.91
 -10  -1  -8   37.87    4.27
 -10  -1  -9   22.85    3.36
 -10  -1 -10   27.32    3.74
  10   2 -10    5.96    2.06
  10   2  -9    6.20    2.16
  10   2  -8    4.91    1.99
  10   2  -7    1.72    1.23
  10   2  -6    2.29    1.35
  10   2  -5    0.50    1.45
  10   2  -4    4.38    1.57
 -10  -2   3    4.22    1.36
 -10  -2   2    0.03    1.02
 -10  -2   1    0.43    1.20
 -10  -2   0    0.63    1.05
 -10  -2  -1   -0.34    1.26
 -10  -2  -2    0.67    1.35
 -10  -2  -3    3.60    1.64
 -10  -2  -4    4.90    1.61
 -10  -2  -5    7.54    2.16
 -10  -2  -6   16.41    2.72
 -10  -2  -7   17.73    2.82
 -10  -2  -8   23.40    3.54
 -10  -2  -9   20.72    3.24
 -10  -2 -10   15.14    2.91
  10   3 -10    6.56    2.18
  10   3  -9    9.84    2.43
  10   3  -8   15.50    2.70
  10   3  -7   20.07    2.86
  10   3  -6   22.89    3.06
  10   3  -5   19.48    2.92
  10   3  -4   19.15    2.73
 -10  -3   3    9.35    1.98
 -10  -3   2   14.29    2.58
 -10  -3   1    7.31    1.96
 -10  -3   0    7.93    2.01
 -10  -3  -1    4.99    1.69
 -10  -3  -2    6.45    2.02
 -10  -3  -3   10.63    2.13
 -10  -3  -4    3.00    1.49
 -10  -3  -5    0.28    1.39
 -10  -3  -6    4.29    1.79
 -10  -3  -7    1.87    1.71
 -10  -3  -8    1.78    1.41
 -10  -3  -9    1.55    1.89
 -10  -3 -10    3.26    1.71
  10   4 -10   15.84    2.76
  10   4  -9   20.52    3.10
  10   4  -8   17.00    2.78
  10   4  -7   16.08    2.86
  10   4  -6    9.47    2.21
  10   4  -5    8.01    1.91
 -10  -4   4   15.58    2.54
 -10  -4   3   22.56    3.00
 -10  -4   2   29.63    3.65
 -10  -4   1   39.93    3.74
 -10  -4   0   51.69    4.84
 -10  -4  -1   60.66    4.92
 -10  -4  -2   50.97    4.43
 -10  -4  -3   49.02    4.43
 -10  -4  -4   28.55    3.42
 -10  -4  -5   27.74    3.56
 -10  -4  -6   10.93    2.31
 -10  -4  -7    2.82    1.52
 -10  -4  -8    2.65    2.00
 -10  -4  -9    1.84    1.49
 -10  -4 -10    0.57    1.36
 -10  -4 -11    3.33    1.70
  10   5 -10    2.43    1.77
  10   5  -9    4.07    1.76
  10   5  -8    4.75    1.87
  10   5  -7   14.22    2.66
  10   5  -6   23.49    3.14
  10   5  -5   30.18    3.35
 -10  -5   4   33.29    3.53
 -10  -5   3   20.55    2.88
 -10  -5   2   16.43    3.03
 -10  -5   1   21.56    2.86
 -10  -5   0   42.33    4.42
 -10  -5  -1   52.67    4.61
 -10  -5  -2   58.30    4.84
 -10  -5  -3   51.04    4.49
 -10  -5  -4   38.82    3.94
 -10  -5  -5   32.91    3.83
 -10  -5  -6   37.44    4.01
 -10  -5  -7   51.73    4.91
 -10  -5  -8   47.97    4.72
 -10  -5  -9   25.06    3.77
 -10  -5 -10   10.81    2.63
  10   6 -10    0.32    1.24
  10   6  -9   -1.58    1.04
  10   6  -8   -0.87    0.83
  10   6  -7    0.82    1.13
  10   6  -6    1.66    1.25
  10   6  -5    2.55    1.65
  10   6  -4    1.20    1.18
 -10  -6   3    5.85    1.67
 -10  -6   2   10.33    2.30
 -10  -6   1    5.90    1.94
 -10  -6   0    4.95    1.76
 -10  -6  -1   12.37    2.37
 -10  -6  -2   20.05    2.90
 -10  -6  -3   15.48    2.56
 -10  -6  -4   27.89    3.55
 -10  -6  -5   26.26    3.36
 -10  -6  -6   34.85    3.83
 -10  -6  -7   29.29    3.62
 -10  -6  -8   27.32    3.76
 -10  -6  -9   21.87    3.40
 -10  -6 -10   25.56    3.71
  10   7  -9    4.79    1.78
  10   7  -8    6.97    1.89
  10   7  -7    5.23    1.66
  10   7  -6    2.63    1.63
  10   7  -5    0.02    1.35
  10   7  -4    0.85    1.09
 -10  -7   3    2.11    1.10
 -10  -7   2    2.31    1.27
 -10  -7   1   -0.33    1.14
 -10  -7   0    0.63    1.45
 -10  -7  -1    0.10    1.06
 -10  -7  -2    2.20    1.29
 -10  -7  -3    2.04    1.57
 -10  -7  -4   12.30    2.42
 -10  -7  -5   19.15    3.16
 -10  -7  -6   13.64    2.56
 -10  -7  -7   11.13    2.36
 -10  -7  -8   22.24    3.46
 -10  -7  -9    8.43    2.28
 -10  -7 -10    7.78    2.28
  10   8  -9   21.25    3.02
  10   8  -8   12.20    2.39
  10   8  -7    9.00    1.97
  10   8  -6   11.76    2.22
  10   8  -5   15.53    2.43
  10   8  -4   12.44    2.31
 -10  -8   3   10.20    2.04
 -10  -8   2   16.45    2.58
 -10  -8   1   13.66    2.51
 -10  -8   0    9.26    1.98
 -10  -8  -1    9.14    2.12
 -10  -8  -2    6.68    1.77
 -10  -8  -3    0.28    1.10
 -10  -8  -4   -0.57    1.41
 -10  -8  -5    0.83    1.20
 -10  -8  -6    1.42    1.29
 -10  -8  -7    1.17    1.26
 -10  -8  -8    0.06    1.24
 -10  -8  -9    0.04    1.32
  10   9  -8   12.82    2.46
  10   9  -7   19.92    2.81
  10   9  -6   16.41    2.59
  10   9  -5   24.09    3.12
  10   9  -4   29.51    3.42
  10   9  -3   40.95    3.91
 -10  -9   2   38.44    3.84
 -10  -9   1   43.75    4.55
 -10  -9   0   25.70    3.06
 -10  -9  -1   34.36    3.72
 -10  -9  -2   27.42    3.51
 -10  -9  -3   18.31    2.83
 -10  -9  -4   31.34    3.74
 -10  -9  -5    9.45    2.25
 -10  -9  -6    6.75    1.98
 -10  -9  -7    2.78    1.53
 -10  -9  -8    8.95    2.39
  10  10  -6    4.13    1.78
  10  10  -5    5.02    1.62
  10  10  -4   11.83    2.19
  10  10  -3   17.08    2.51
 -10 -10   2   18.61    2.70
 -10 -10   1   23.98    2.97
 -10 -10   0   32.53    3.79
 -10 -10  -1   22.44    3.19
 -10 -10  -2   34.13    4.01
 -10 -10  -3   27.80    3.42
 -10 -10  -4   26.18    3.45
 -10 -10  -5   20.51    2.98
 -10 -10  -6   28.95    3.79
  11   0  -5    2.67    1.86
  11   0  -4    2.82    1.80
  11   0  -3    4.90    2.00
 -11   0   2    4.42    1.60
 -11   0   1    1.53    1.62
 -11   0   0    4.70    1.94
 -11   0  -1    8.70    2.00
 -11   0  -2    7.01    2.08
 -11   0  -3    8.01    2.35
 -11   0  -4    5.64    1.81
 -11   0  -5    6.11    2.14
  11   1  -6   12.83    2.69
  11   1  -5   16.61    2.87
  11   1  -4    5.70    2.18
  11   1  -3    4.03    1.92
 -11  -1   2    5.66    1.90
 -11  -1   1    0.21    1.81
 -11  -1   0   -0.13    1.42
 -11  -1  -1   -1.32    1.54
 -11  -1  -2    0.50    1.37
 -11  -1  -3    0.80    1.58
 -11  -1  -4   -0.46    1.19
 -11  -1  -5    1.36    1.69
 -11  -1  -6    0.73    1.68
 -11  -1  -7    9.97    2.74
  11   2  -7   19.30    2.94
  11   2  -6   22.17    3.21
  11   2  -5   19.76    2.98
  11   2  -4   15.55    2.68
 -11  -2   3   21.86    3.07
 -11  -2   2   20.06    2.90
 -11  -2   1   13.27    2.73
 -11  -2   0   10.88    2.24
 -11  -2  -1   11.11    2.45
 -11  -2  -2   16.69    3.01
 -11  -2  -3    7.30    2.03
 -11  -2  -4    5.64    2.22
 -11  -2  -5    3.81    1.78
 -11  -2  -6    1.34    1.44
 -11  -2  -7    0.47    1.69
 -11  -2  -8    0.51    1.38
  11   3  -8   11.76    2.65
  11   3  -7   15.83    2.74
  11   3  -6   16.92    2.87
  11   3  -5   11.36    2.32
  11   3  -4   33.23    3.81
 -11  -3   3   25.42    3.21
 -11  -3   2   28.02    3.37
 -11  -3   1   33.64    4.05
 -11  -3   0   32.19    3.66
 -11  -3  -1   19.97    3.24
 -11  -3  -2   17.97    3.14
 -11  -3  -3   32.46    3.87
 -11  -3  -4   33.69    4.04
 -11  -3  -5   20.64    3.19
 -11  -3  -6   12.39    2.64
 -11  -3  -7   17.47    3.27
 -11  -3  -8    8.31    2.27
  11   4  -8    0.07    1.15
  11   4  -7    0.13    1.21
  11   4  -6    4.19    1.68
  11   4  -5   10.69    2.34
  11   4  -4   17.41    2.84
 -11  -4   3   17.39    2.89
 -11  -4   2   31.72    4.04
 -11  -4   1   21.77    3.18
 -11  -4   0   31.80    3.90
 -11  -4  -1   31.05    4.07
 -11  -4  -2   35.47    3.98
 -11  -4  -3   17.24    2.94
 -11  -4  -4   18.91    3.00
 -11  -4  -5   27.38    3.74
 -11  -4  -6   32.17    4.05
 -11  -4  -7   37.58    4.36
 -11  -4  -8   42.25    4.78
  11   5  -7   -0.30    1.21
  11   5  -6    0.98    1.35
  11   5  -5   -0.26    1.05
 -11  -5   3    0.14    0.97
 -11  -5   2   -0.29    1.06
 -11  -5   1    1.79    1.36
 -11  -5   0    0.84    1.21
 -11  -5  -1    6.80    2.36
 -11  -5  -2    9.25    2.44
 -11  -5  -3    7.69    2.12
 -11  -5  -4   21.82    3.17
 -11  -5  -5   23.36    3.51
 -11  -5  -6   22.66    3.45
 -11  -5  -7   22.52    3.48
 -11  -5  -8   18.18    3.32
  11   6  -7    8.68    2.17
  11   6  -6    9.58    2.24
  11   6  -5    9.17    2.14
  11   6  -4    5.28    1.74
 -11  -6   3    7.42    2.08
 -11  -6   2    5.21    2.00
 -11  -6   1    3.24    1.66
 -11  -6   0    3.16    1.77
 -11  -6  -1    1.32    1.37
 -11  -6  -2    0.34    1.06
 -11  -6  -3   -0.84    1.41
 -11  -6  -4   -0.31    1.00
 -11  -6  -5    0.20    1.28
 -11  -6  -6    1.15    1.41
 -11  -6  -7    4.42    2.13
 -11  -6  -8    5.11    1.97
  11   7  -7   25.54    3.55
  11   7  -6   26.38    3.61
  11   7  -5   18.68    2.94
  11   7  -4   17.69    2.87
 -11  -7   3   10.12    2.14
 -11  -7   2   11.87    2.30
 -11  -7   1   19.07    3.11
 -11  -7   0   23.08    3.34
 -11  -7  -1   18.04    3.28
 -11  -7  -2    8.94    2.27
 -11  -7  -3    9.41    2.49
 -11  -7  -4    4.59    1.75
 -11  -7  -5    2.98    1.63
 -11  -7  -6    2.96    1.56
 -11  -7  -7    2.74    2.03
  11   8  -6   14.41    2.63
  11   8  -5   20.06    2.95
  11   8  -4   18.16    2.81
 -11  -8   3   17.17    2.92
 -11  -8   2   19.12    3.09
 -11  -8   1   24.37    3.82
 -11  -8   0   22.14    3.32
 -11  -8  -1   22.84    3.35
 -11  -8  -2   46.21    4.87
 -11  -8  -3   47.92    4.67
 -11  -8  -4   34.82    4.22
 -11  -8  -5   34.42    4.13
 -11  -8  -6   33.08    4.18
 -11  -8  -7   27.45    4.00
  11   9  -5    4.80    1.95
  11   9  -4    6.33    2.17
  11   9  -3   11.54    2.56
 -11  -9   2   12.58    2.33
 -11  -9   1   19.99    3.38
 -11  -9   0   23.36    3.32
 -11  -9  -1   30.66    3.88
 -11  -9  -2   22.49    3.38
 -11  -9  -3   15.81    3.06
 -11  -9  -4   19.49    3.31
 -11  -9  -5   15.24    2.86
 -11 -10   2    2.59    1.62
 -11 -10   1    2.48    1.63
 -11 -10   0    1.68    1.85
 -11 -10  -1    1.27    1.19
 -11 -10  -2    3.17    1.92
 -11 -10  -3    4.43    1.91
 -12  -2   2   23.88    3.51
 -12  -2   1   22.99    3.29
 -12  -2   0   11.88    2.81
 -12  -2  -1   25.29    3.78
 -12  -2  -2   18.79    3.32
 -12  -3   3    1.20    1.45
 -12  -3   2    1.27    1.93
 -12  -3   1   12.13    3.13
 -12  -3   0   16.83    3.02
 -12  -3  -1   27.38    3.93
 -12  -3  -2   16.62    3.17
 -12  -3  -3   15.05    3.19
  12   4  -4    2.87    2.06
 -12  -4   1   -0.09    1.35
 -12  -4   0    0.44    1.13
 -12  -4  -1   -1.37    1.71
 -12  -4  -2   -0.38    1.35
 -12  -4  -3    1.83    1.60
 -12  -4  -4   23.42    3.60
  12   5  -4   10.19    2.46
 -12  -5   3   16.76    2.87
 -12  -5   2    7.82    2.16
 -12  -5   1    9.12    2.83
 -12  -5   0    5.82    1.91
 -12  -5  -1    4.75    2.36
 -12  -5  -2    1.39    1.74
 -12  -5  -3    0.69    1.39
 -12  -5  -4    5.90    2.37
 -12  -6   3   19.34    3.14
 -12  -6   2   11.78    2.51
 -12  -6   1   28.00    4.25
 -12  -6   0   13.45    2.70
 -12  -6  -1   28.04    4.18
 -12  -6  -2   18.51    3.36
 -12  -6  -3   22.16    3.48
 -12  -7   2    9.76    2.47
 -12  -7   1   11.72    2.89
 -12  -7   0   28.22    3.83
 -12  -7  -1   20.07    3.28
 -12  -7  -2   28.38    4.08
 -12  -8   1    8.45    2.41
 -12  -8   0   21.02    3.40
 -12  -8  -1   12.07    2.60
   0  -1   4    2.02    0.47
   0  -1   3  174.98    2.72
   0  -1   2  283.21    3.44
   0  -1  -1  139.78    2.32
   0  -1  -2  353.41    4.46
   0  -2   7   61.09    2.33
   0  -2   6   50.06    1.96
   0  -2   5   78.05    2.27
   0  -2   3    8.94    0.74
   0  -2   2    0.33    0.44
   0  -2   1   14.00    0.86
   0  -2   0   15.71    0.98
   0  -2  -1   41.07    1.58
   0  -2  -2    2.14    0.56
   0  -2  -3  115.90    2.98
   0  -2  -5  112.12    3.50
   0  -2  -6  208.95    4.99
   0  -2  -7  112.56    3.79
   0  -2 -10   77.82    3.63
   0  -2 -11   48.09    2.98
   0  -2 -12   46.53    3.15
   0  -2 -13   15.81    2.03
   0  -3   9   28.20    1.85
   0  -3   8   36.68    1.95
   0  -3   7   34.68    1.81
   0  -3   6   63.87    2.36
   0  -3   5  333.12    5.47
   0  -3   4  205.54    4.11
   0  -3   3  116.91    2.94
   0  -3   2   89.33    2.58
   0  -3   1   14.65    1.10
   0  -3   0   70.83    2.44
   0  -3  -1  118.45    3.27
   0  -3  -2   19.99    1.46
   0  -3  -3    0.20    0.45
   0  -3  -4   38.53    2.16
   0  -3  -5   78.76    3.15
   0  -3  -6    5.72    1.00
   0  -3  -7    3.20    0.98
   0  -3  -8    7.33    1.15
   0  -3  -9   17.29    1.82
   0  -3 -10   28.57    2.34
   0  -3 -11   23.20    2.14
   0  -3 -12   19.61    2.13
   0  -3 -13   16.06    2.05
   0  -4   9   28.53    1.97
   0  -4   8   35.94    2.06
   0  -4   7   67.55    2.72
   0  -4   6   97.19    3.26
   0  -4   5   79.93    2.94
   0  -4   4  116.47    3.54
   0  -4   3  194.47    4.46
   0  -4   2  208.19    4.63
   0  -4   1  433.25    6.89
   0  -4   0  654.22    8.71
   0  -4  -1  214.74    4.92
   0  -4  -2  158.07    4.44
   0  -4  -3  119.47    3.93
   0  -4  -4   45.29    2.47
   0  -4  -5   62.02    2.98
   0  -4  -6   51.15    2.95
   0  -4  -7   22.82    2.05
   0  -4  -8   22.89    2.12
   0  -4  -9   11.93    1.63
   0  -4 -10    0.73    0.78
   0  -4 -11    0.53    0.73
   0  -4 -12    9.46    1.73
   0  -4 -13    6.08    1.42
   0  -4 -14    1.56    1.20
   0  -5   8   26.01    1.93
   0  -5   7   28.92    2.01
   0  -5   6   61.79    2.91
   0  -5   5   99.51    3.58
   0  -5   4  117.03    3.86
   0  -5   3  181.23    4.88
   0  -5   2  269.25    5.94
   0  -5   1  239.71    5.66
   0  -5   0  122.43    4.09
   0  -5  -1  131.55    4.32
   0  -5  -2  220.79    5.62
   0  -5  -3  165.62    5.17
   0  -5  -4  139.02    4.81
   0  -5  -6  139.05    5.03
   0  -5  -7   77.30    3.83
   0  -5  -8   39.33    2.93
   0  -5  -9   20.74    2.15
   0  -5 -10   17.04    2.18
   0  -5 -11    8.65    1.75
   0  -5 -12    4.19    1.41
   0  -5 -13    6.93    1.47
   0  -5 -14    1.52    1.15
   0  -6   7    3.95    1.11
   0  -6   6   13.07    1.60
   0  -6   5    0.12    0.78
   0  -6   4    0.14    0.75
   0  -6   3   11.31    1.43
   0  -6   2   16.95    1.70
   0  -6   1   90.44    3.86
   0  -6   0   73.06    3.42
   0  -6  -1   62.69    3.24
   0  -6  -2   31.66    2.45
   0  -6  -3   63.39    3.39
   0  -6  -4   97.71    4.44
   0  -6  -5  162.42    5.82
   0  -6  -6  112.39    4.92
   0  -6  -7   54.65    3.55
   0  -6  -8   84.99    4.47
   0  -6  -9   61.30    3.88
   0  -6 -10   45.41    3.50
   0  -6 -11   26.05    2.71
   0  -6 -12   17.38    2.31
   0  -6 -13    8.06    1.84
   0  -6 -14    7.20    1.68
   0  -7   7    4.74    1.25
   0  -7   6    0.91    0.91
   0  -7   5   15.85    1.84
   0  -7   4    2.95    1.08
   0  -7   3    1.45    1.00
   0  -7   2    3.96    1.04
   0  -7   1    1.65    0.96
   0  -7   0    3.88    1.06
   0  -7  -1   14.79    1.92
   0  -7  -2   28.56    2.45
   0  -7  -3   21.29    2.35
   0  -7  -4   16.53    2.04
   0  -7  -5   27.34    2.62
   0  -7  -6   16.02    2.26
   0  -7  -7   53.65    3.82
   0  -7  -8   60.64    4.16
   0  -7  -9   45.65    3.69
   0  -7 -10   28.87    2.99
   0  -7 -11   21.21    2.78
   0  -7 -12   15.72    2.44
   0  -7 -13   12.64    2.31
   0  -7 -14    9.00    1.94
   0  -7 -15    7.96    2.06
   0  -8   6   84.77    4.34
   0  -8   5   64.58    3.84
   0  -8   4   31.44    2.72
   0  -8   3   29.79    2.65
   0  -8   2   30.52    2.65
   0  -8   1   27.23    2.53
   0  -8   0    9.00    1.68
   0  -8  -1    6.12    1.36
   0  -8  -3   -0.20    0.95
   0  -8  -4    0.05    0.76
   0  -8  -5    5.07    1.60
   0  -8  -6    2.13    1.14
   0  -8  -7    0.56    0.89
   0  -8  -8    0.82    0.95
   0  -8  -9    0.42    1.00
   0  -8 -10    1.29    1.37
   0  -8 -11    4.34    1.47
   0  -8 -12    4.91    1.58
   0  -8 -13    4.31    1.57
   0  -8 -14    4.85    1.69
   0  -9   6   41.71    3.37
   0  -9   5   43.24    3.41
   0  -9   4   69.55    4.28
   0  -9   3   78.57    4.62
   0  -9   2   54.91    3.78
   0  -9   1   42.72    3.40
   0  -9   0   48.44    3.51
   0  -9  -1   58.83    4.02
   0  -9  -2   42.64    3.46
   0  -9  -3   50.47    3.83
   0  -9  -4   57.86    4.20
   0  -9  -5   35.21    3.40
   0  -9  -6   16.00    2.33
   0  -9  -7    6.72    2.02
   0  -9  -8   -0.57    0.88
   0  -9  -9    0.08    1.03
   0  -9 -10   -0.43    1.29
   0  -9 -11    2.34    1.31
   0  -9 -12    0.38    1.15
   0  -9 -13   -0.53    1.03
   0 -10   5   23.15    2.84
   0 -10   4   33.23    3.22
   0 -10   3   28.80    2.96
   0 -10   2   38.22    3.47
   0 -10   1   41.65    3.64
   0 -10   0   40.00    3.56
   0 -10  -1   36.95    3.36
   0 -10  -2   51.90    4.10
   0 -10  -3   60.00    4.43
   0 -10  -4   41.19    3.76
   0 -10  -5   29.60    3.30
   0 -10  -6   17.01    2.71
   0 -10  -7   10.95    2.18
   0 -10  -8   18.09    2.70
   0 -10  -9   17.87    2.78
   0 -10 -10   19.27    3.20
   0 -10 -11    5.68    1.88
   0 -11   4    3.85    1.42
   0 -11   3    5.27    1.54
   0 -11   2   14.77    2.63
   0 -11   1   19.39    2.73
   0 -11   0   20.18    2.89
   0 -11  -1   18.18    2.70
   0 -11  -2   26.08    3.11
   0 -11  -3   21.10    2.91
   0 -11  -4   28.74    3.44
   0 -11  -5   23.96    3.15
   0 -11  -6   21.25    3.17
   0 -11  -7   23.60    3.21
   0 -11  -8   25.45    3.46
   0 -12   3    0.58    1.13
   0 -12   2   -0.38    1.50
   0 -12   1   -0.13    1.63
   0 -12   0   -0.32    1.50
   0 -12  -1    0.77    1.27
   0 -12  -2    1.62    1.76
   0 -12  -3    6.06    1.84
   0 -12  -4    5.51    1.77
   0 -12  -5    7.97    2.36
   1 -12  -2   23.75    3.20
   1 -12  -1   21.93    3.28
   1 -12   0   15.30    2.62
   1 -12   1   14.63    2.57
   1 -12   2   14.51    2.84
   1 -11  -7    6.97    2.27
   1 -11  -6   10.63    2.46
   1 -11  -5    9.95    2.25
   1 -11  -4   22.26    3.06
   1 -11  -3   29.29    3.46
   1 -11  -2   35.55    3.80
   1 -11  -1   23.36    2.92
   1 -11   0   22.21    2.93
   1 -11   1   27.21    3.15
   1 -11   2   31.69    3.44
   1 -11   3   15.92    2.49
   1 -10 -10   -0.55    1.21
   1 -10  -9    0.14    1.64
   1 -10  -8   -0.33    1.05
   1 -10  -6   -0.79    1.45
   1 -10  -5    3.05    1.38
   1 -10  -4    6.43    1.79
   1 -10  -3    7.73    1.84
   1 -10  -2   13.63    2.24
   1 -10  -1    9.07    2.06
   1 -10   0    9.47    1.96
   1 -10   1   20.50    2.62
   1 -10   2   27.61    3.02
   1 -10   3   34.62    3.37
   1  -9 -12   15.69    2.73
   1  -9 -11    8.83    2.18
   1  -9 -10    8.80    2.32
   1  -9  -9    2.99    1.38
   1  -9  -8    1.86    1.28
   1  -9  -7    0.84    1.10
   1  -9  -6    2.34    1.47
   1  -9  -5    2.43    1.27
   1  -9  -4    1.57    1.13
   1  -9  -3   -0.48    1.13
   1  -9  -2    0.00    0.88
   1  -9  -1   -0.87    0.73
   1  -9   0    2.16    1.30
   1  -9   1   -0.09    0.74
   1  -9   2    0.28    0.81
   1  -9   3    2.95    1.32
   1  -9   4    8.92    1.84
   1  -8 -13    8.81    2.12
   1  -8 -12    6.36    1.96
   1  -8 -11    5.46    1.68
   1  -8 -10   13.24    2.31
   1  -8  -9   27.67    3.24
   1  -8  -8   43.96    3.96
   1  -8  -7   53.12    4.23
   1  -8  -6   46.14    3.72
   1  -8  -5   33.50    3.09
   1  -8  -4   51.89    3.83
   1  -8  -3   40.56    3.37
   1  -8  -2   25.54    2.57
   1  -8  -1   18.38    2.23
   1  -8   0    4.99    1.23
   1  -8   1    4.45    1.21
   1  -8   2    6.52    1.45
   1  -8   3    7.98    1.56
   1  -8   4   12.52    1.89
   1  -8   5   15.40    2.01
   1  -7 -15    3.39    1.78
   1  -7 -14    5.94    1.90
   1  -7 -13   11.53    2.29
   1  -7 -12   10.27    2.05
   1  -7 -11   15.37    2.34
   1  -7 -10   21.09    2.75
   1  -7  -9   23.34    2.74
   1  -7  -8   23.40    2.72
   1  -7  -7   76.07    4.63
   1  -7  -6   76.96    4.53
   1  -7  -5   69.78    4.26
   1  -7  -4   72.90    4.22
   1  -7  -3   48.03    3.28
   1  -7  -2   65.50    3.88
   1  -7  -1   66.46    3.76
   1  -7   0   67.74    3.76
   1  -7   1   73.28    3.75
   1  -7   2   76.30    3.72
   1  -7   3   63.45    3.50
   1  -7   4   90.72    4.16
   1  -7   5   47.32    3.02
   1  -6 -16   -0.07    0.97
   1  -6 -15    0.82    1.15
   1  -6 -13    1.43    1.04
   1  -6 -12    1.88    1.31
   1  -6 -11    3.98    1.41
   1  -6 -10    4.67    1.50
   1  -6  -9    7.14    1.54
   1  -6  -8   23.81    2.62
   1  -6  -7   32.10    2.89
   1  -6  -6   12.73    1.83
   1  -6  -5   70.92    3.96
   1  -6  -4   82.21    4.15
   1  -6  -3   46.06    3.09
   1  -6  -2   18.79    1.93
   1  -6  -1   51.91    3.09
   1  -6   0   97.28    4.12
   1  -6   1  125.46    4.53
   1  -6   2  156.13    5.01
   1  -6   3  113.35    4.19
   1  -6   4   89.20    3.78
   1  -6   5   34.72    2.31
   1  -6   6   93.88    3.82
   1  -5 -15    1.35    1.38
   1  -5 -14    3.57    1.54
   1  -5 -13    2.29    1.15
   1  -5 -12    3.28    1.36
   1  -5 -11    4.14    1.28
   1  -5 -10   -0.05    0.78
   1  -5  -9    0.17    0.73
   1  -5  -8   -0.27    0.73
   1  -5  -7    0.91    0.82
   1  -5  -6   21.89    2.21
   1  -5  -5   22.07    2.07
   1  -5  -4    1.88    0.86
   1  -5  -3    4.38    1.04
   1  -5  -2   17.35    1.73
   1  -5  -1   74.01    3.35
   1  -5   0   66.51    3.12
   1  -5   1  145.89    4.38
   1  -5   2  177.44    4.77
   1  -5   3   72.59    3.02
   1  -5   4   29.40    1.97
   1  -5   5   99.62    3.46
   1  -5   6   96.61    3.45
   1  -5   7   57.65    2.75
   1  -4 -15   13.02    2.23
   1  -4 -14   12.67    2.11
   1  -4 -13    8.58    1.82
   1  -4 -12   16.21    2.10
   1  -4 -11   20.37    2.38
   1  -4 -10   15.67    1.96
   1  -4  -9   12.77    1.77
   1  -4  -8   19.28    2.11
   1  -4  -7   14.40    1.71
   1  -4  -6    7.63    1.38
   1  -4  -5    8.43    1.30
   1  -4  -4   -0.23    0.80
   1  -4  -3    1.27    0.90
   1  -4  -2    8.16    1.20
   1  -4  -1    0.55    0.70
   1  -4   0   -0.17    0.60
   1  -4   1    7.88    0.99
   1  -4   2   42.85    2.11
   1  -4   3   -0.07    0.48
   1  -4   4    0.71    0.57
   1  -4   5   11.41    1.16
   1  -4   6   54.31    2.32
   1  -4   7   66.32    2.53
   1  -3 -14   11.43    1.95
   1  -3 -13   31.24    2.86
   1  -3 -12   52.14    3.63
   1  -3 -11   47.18    3.39
   1  -3 -10   87.02    4.47
   1  -3  -9   87.05    4.28
   1  -3  -8   69.17    3.71
   1  -3  -7   87.71    4.03
   1  -3  -6   97.12    4.09
   1  -3  -5  120.97    4.18
   1  -3  -4  127.61    4.00
   1  -3  -3   79.52    3.03
   1  -3  -2   35.97    2.05
   1  -3  -1   14.82    1.23
   1  -3   0    1.69    0.68
   1  -3   1   53.82    2.06
   1  -3   2  193.70    3.90
   1  -3   3  160.78    3.42
   1  -3   4   76.65    2.33
   1  -3   5   -0.22    0.36
   1  -3   6    7.12    0.79
   1  -3   7    0.64    0.43
   1  -3   8    0.77    0.55
   1  -2 -14    9.05    1.80
   1  -2  -2   63.94    2.43
   1  -2  -1    1.81    0.52
   1  -2   0   86.03    2.36
   1  -2   1  461.99    5.56
   1  -2   2  332.64    4.38
   1  -2   3  228.97    3.44
   1  -2   4   96.27    2.17
   1  -2   5    3.98    0.56
   1  -2   6   25.38    1.20
   1  -2   7   29.62    1.34
   1  -1   0   76.32    1.83
   1  -1   1  825.09    7.28
   1  -1   4  144.27    2.20
  -1  -1   4   37.36    1.67
  -1  -1   3  201.24    3.61
  -1  -1   2   66.05    1.82
  -1  -1   1    2.20    0.37
  -1  -1   0   38.38    1.11
  -1  -1  -1    0.46    0.27
  -1  -1  -2  102.58    1.88
  -1  -1  -3    1.32    0.45
  -1  -1  -4    8.29    0.70
  -1  -1  -5   63.02    2.02
  -1  -1  -6   43.90    1.85
  -1  -1 -11    1.36    0.73
  -1  -2   7   89.19    3.09
  -1  -2   6  248.61    5.02
  -1  -2   5  222.27    4.47
  -1  -2   4  174.90    3.68
  -1  -2   3  105.74    2.66
  -1  -2   2  174.31    3.37
  -1  -2   1    1.02    0.44
  -1  -2   0  205.68    3.40
  -1  -2  -1  333.56    4.49
  -1  -2  -2    0.22    0.38
  -1  -2  -3   -0.14    0.34
  -1  -2  -4   26.99    1.43
  -1  -2  -5    0.44    0.52
  -1  -2  -6    0.81    0.59
  -1  -2  -7    0.20    0.56
  -1  -2  -8    0.26    0.59
  -1  -2  -9   -0.02    0.57
  -1  -2 -10    3.97    0.94
  -1  -2 -11    4.49    1.01
  -1  -3   9   72.34    3.12
  -1  -3   8  124.32    3.95
  -1  -3   7  169.75    4.44
  -1  -3   6   84.18    2.90
  -1  -3   5  164.01    3.95
  -1  -3   4  259.75    4.89
  -1  -3   3  133.73    3.39
  -1  -3   2  257.15    4.75
  -1  -3   1  172.08    3.73
  -1  -3   0  171.40    3.66
  -1  -3  -1  222.35    4.27
  -1  -3  -2  259.77    4.81
  -1  -3  -3  188.36    4.25
  -1  -3  -4  105.14    3.23
  -1  -3  -5    6.15    0.99
  -1  -3  -6   18.09    1.47
  -1  -3  -7   96.15    3.57
  -1  -3  -8   54.30    2.82
  -1  -3  -9   36.55    2.43
  -1  -3 -10   11.02    1.50
  -1  -3 -11    5.84    1.23
  -1  -3 -12    0.18    0.90
  -1  -4  10    5.17    1.06
  -1  -4   9    2.21    0.80
  -1  -4   8    9.74    1.20
  -1  -4   7   15.58    1.49
  -1  -4   6   36.63    2.08
  -1  -4   5  208.92    5.04
  -1  -4   4  254.65    5.40
  -1  -4   3  211.51    4.77
  -1  -4   2  155.71    4.06
  -1  -4   1  199.92    4.55
  -1  -4   0  345.14    5.99
  -1  -4  -1  323.58    5.98
  -1  -4  -2  264.07    5.39
  -1  -4  -3  313.86    6.14
  -1  -4  -4  267.40    5.96
  -1  -4  -5  242.58    5.75
  -1  -4  -6  226.94    5.70
  -1  -4  -7   48.36    2.74
  -1  -4  -8   25.01    2.02
  -1  -4  -9   30.06    2.28
  -1  -4 -10   13.01    1.67
  -1  -4 -11   24.20    2.27
  -1  -4 -12   33.01    2.68
  -1  -5   9    0.42    0.75
  -1  -5   8   -0.19    0.67
  -1  -5   7    0.04    0.68
  -1  -5   6    4.58    0.92
  -1  -5   5    0.08    0.68
  -1  -5   4   13.43    1.48
  -1  -5   3    0.59    0.58
  -1  -5   2   48.72    2.61
  -1  -5   1   36.22    2.18
  -1  -5   0   64.16    2.90
  -1  -5  -1   43.94    2.47
  -1  -5  -2   76.57    3.27
  -1  -5  -3  138.26    4.63
  -1  -5  -4   87.39    3.63
  -1  -5  -5   81.38    3.71
  -1  -5  -6   49.13    2.95
  -1  -5  -7   43.87    2.91
  -1  -5  -8   38.07    2.75
  -1  -5  -9   47.77    3.11
  -1  -5 -10   63.50    3.70
  -1  -5 -11   42.36    3.08
  -1  -5 -12   22.87    2.37
  -1  -5 -13   19.02    2.32
  -1  -6   9   51.77    3.03
  -1  -6   8   32.24    2.43
  -1  -6   7   35.93    2.54
  -1  -6   6   50.38    2.98
  -1  -6   5   23.58    2.07
  -1  -6   4   31.70    2.32
  -1  -6   3   53.49    2.92
  -1  -6   2   51.90    2.94
  -1  -6   1    8.99    1.28
  -1  -6   0    3.28    0.86
  -1  -6  -1    1.96    0.81
  -1  -6  -2   10.36    1.42
  -1  -6  -3    6.34    1.16
  -1  -6  -4   19.33    1.98
  -1  -6  -5   16.22    1.91
  -1  -6  -6   16.82    1.88
  -1  -6  -7   18.90    2.08
  -1  -6  -8   13.16    1.93
  -1  -6  -9   13.99    2.04
  -1  -6 -10   26.27    2.66
  -1  -6 -11   22.05    2.53
  -1  -6 -12   16.66    2.21
  -1  -6 -13   17.43    2.41
  -1  -7   8   70.21    3.78
  -1  -7   7   88.76    4.34
  -1  -7   6   43.78    2.99
  -1  -7   5   55.80    3.27
  -1  -7   4   93.26    4.32
  -1  -7   3   70.94    3.68
  -1  -7   2   64.06    3.60
  -1  -7   1   75.82    3.78
  -1  -7   0   96.60    4.24
  -1  -7  -1   25.07    2.27
  -1  -7  -2   13.39    1.72
  -1  -7  -3   11.57    1.68
  -1  -7  -4    4.85    1.17
  -1  -7  -5   -0.19    0.72
  -1  -7  -6    5.18    1.30
  -1  -7  -7   11.16    1.79
  -1  -7  -8   -1.16    0.92
  -1  -7  -9    0.09    1.10
  -1  -7 -10    0.96    0.93
  -1  -7 -11    0.19    1.16
  -1  -7 -12    1.98    1.12
  -1  -7 -13    1.85    1.20
  -1  -7 -14   -0.34    1.33
  -1  -8   8   42.01    3.26
  -1  -8   7   40.30    3.19
  -1  -8   6   61.58    3.81
  -1  -8   5   87.86    4.47
  -1  -8   4   40.79    3.08
  -1  -8   3   57.59    3.66
  -1  -8   2   84.77    4.42
  -1  -8   1  104.66    4.79
  -1  -8   0  102.05    4.81
  -1  -8  -1   73.84    4.03
  -1  -8  -2   86.69    4.55
  -1  -8  -3   68.60    4.14
  -1  -8  -4   98.49    5.02
  -1  -8  -5  140.35    5.95
  -1  -8  -6  132.42    5.98
  -1  -8  -7   17.55    2.33
  -1  -8  -8    6.83    1.82
  -1  -8  -9    4.60    1.62
  -1  -8 -10    0.61    1.24
  -1  -8 -11    2.91    1.23
  -1  -8 -12    2.17    1.21
  -1  -8 -13    1.52    1.16
  -1  -8 -14    0.86    1.14
  -1  -9   7    4.49    1.53
  -1  -9   6   17.02    2.25
  -1  -9   5    9.00    1.87
  -1  -9   4   19.17    2.37
  -1  -9   3   55.23    3.82
  -1  -9   2   53.94    3.81
  -1  -9   1   73.37    4.40
  -1  -9   0   83.48    4.69
  -1  -9  -1   85.00    4.70
  -1  -9  -2   55.91    3.88
  -1  -9  -3   61.44    4.20
  -1  -9  -4   30.31    2.96
  -1  -9  -5   25.53    2.82
  -1  -9  -6   24.15    2.82
  -1  -9  -7   26.84    3.06
  -1  -9  -8   40.69    3.63
  -1  -9  -9   29.62    3.20
  -1  -9 -10   29.03    3.40
  -1  -9 -11   21.66    2.92
  -1  -9 -12   15.83    2.83
  -1  -9 -13    3.73    2.00
  -1 -10   6    2.43    1.50
  -1 -10   5    2.71    1.20
  -1 -10   4    0.55    1.26
  -1 -10   3    2.45    1.12
  -1 -10   2    5.15    1.43
  -1 -10   1   10.11    2.05
  -1 -10   0   10.38    1.88
  -1 -10  -1    7.44    1.70
  -1 -10  -2    4.31    1.41
  -1 -10  -3   17.30    2.58
  -1 -10  -4   31.27    3.31
  -1 -10  -5   29.80    3.24
  -1 -10  -6   13.40    2.26
  -1 -10  -7   14.77    2.43
  -1 -10  -8    9.64    2.24
  -1 -10  -9   18.66    2.87
  -1 -10 -10   22.31    3.05
  -1 -10 -11   24.67    3.34
  -1 -10 -12   14.20    2.52
  -1 -11   6   11.16    2.29
  -1 -11   5   11.83    2.25
  -1 -11   4    7.66    2.08
  -1 -11   3    1.93    1.50
  -1 -11   2    2.18    1.44
  -1 -11   1    2.23    1.65
  -1 -11   0    1.98    1.30
  -1 -11  -1    0.72    1.13
  -1 -11  -2    0.94    1.46
  -1 -11  -3    1.48    1.22
  -1 -11  -4    1.86    1.20
  -1 -11  -5    1.76    1.28
  -1 -11  -6    1.13    1.57
  -1 -11  -7    0.36    1.12
  -1 -11  -8    4.14    1.67
  -1 -11  -9    5.42    1.84
  -1 -12   5   28.46    3.46
  -1 -12   4   20.72    3.15
  -1 -12   3   22.70    3.00
  -1 -12   2   25.89    3.36
  -1 -12   1   21.91    3.17
  -1 -12   0   17.40    3.03
  -1 -12  -1    9.35    2.24
  -1 -12  -2    6.31    2.15
  -1 -12  -4    5.91    1.83
  -1 -12  -5    8.03    2.31
  -1 -12  -6    7.44    1.95
   2 -11  -5   -0.06    1.24
   2 -11  -4   -2.31    1.00
   2 -11  -3    1.44    1.29
   2 -11  -2    3.27    1.53
   2 -11  -1    5.03    2.01
   2 -11   0    3.58    1.71
   2 -11   1   12.25    2.38
   2 -10  -8    8.90    2.22
   2 -10  -7    7.92    2.12
   2 -10  -6   20.81    3.27
   2 -10  -5   21.71    2.99
   2 -10  -4   12.95    2.48
   2 -10  -3    8.15    2.00
   2 -10  -2    2.53    1.27
   2 -10  -1    1.74    1.20
   2 -10   0    1.38    1.12
   2 -10   1    0.23    1.19
   2 -10   2    0.31    0.96
   2  -9 -11    6.13    2.02
   2  -9 -10    5.24    1.86
   2  -9  -9   20.90    3.01
   2  -9  -8   15.57    2.90
   2  -9  -7   19.02    3.01
   2  -9  -6   35.53    3.56
   2  -9  -5   43.81    3.98
   2  -9  -4   37.87    3.67
   2  -9  -3   62.18    4.59
   2  -9  -2   48.94    3.81
   2  -9  -1   41.83    3.57
   2  -9   0   22.78    2.58
   2  -9   1    9.94    1.91
   2  -9   2   10.79    1.89
   2  -9   3   11.22    2.01
   2  -8 -12    3.36    1.69
   2  -8 -11    8.77    2.32
   2  -8 -10   12.33    2.54
   2  -8  -9   14.43    2.50
   2  -8  -8   27.20    3.18
   2  -8  -7   35.01    3.54
   2  -8  -6   31.78    3.31
   2  -8  -5   38.31    3.60
   2  -8  -4   55.65    4.16
   2  -8  -3   61.20    4.13
   2  -8  -2   73.80    4.57
   2  -8  -1   79.15    4.56
   2  -8   0   52.42    3.63
   2  -8   1   65.52    3.87
   2  -8   2  105.89    4.97
   2  -8   3  103.36    4.76
   2  -7 -14   -0.40    0.87
   2  -7 -13   -0.43    0.95
   2  -7 -12   -0.09    1.21
   2  -7 -10    0.15    1.13
   2  -7  -9    0.91    0.98
   2  -7  -8    0.01    0.92
   2  -7  -7    1.79    1.34
   2  -7  -6   16.78    2.30
   2  -7  -5   14.14    2.23
   2  -7  -4   16.54    2.29
   2  -7  -3   37.91    3.16
   2  -7  -2   62.36    3.73
   2  -7  -1   55.54    3.57
   2  -7   0   88.71    4.28
   2  -7   1  117.40    4.93
   2  -7   2   55.04    3.26
   2  -7   3   53.35    3.17
   2  -7   4   51.64    3.16
   2  -6 -15    2.56    1.67
   2  -6 -14    3.31    1.73
   2  -6 -13    4.83    1.62
   2  -6 -12    4.70    1.75
   2  -6 -11    4.57    1.73
   2  -6 -10   12.19    2.26
   2  -6  -9   14.97    2.25
   2  -6  -8   10.90    1.93
   2  -6  -7    2.01    1.09
   2  -6  -6    8.93    1.74
   2  -6  -5    1.72    0.94
   2  -6  -4    2.04    1.05
   2  -6  -3   -0.25    0.95
   2  -6  -2   -0.03    0.90
   2  -6  -1    3.47    1.00
   2  -6   0   31.19    2.41
   2  -6   1   44.57    2.75
   2  -6   2   44.48    2.80
   2  -6   3   45.85    2.70
   2  -6   4   41.84    2.60
   2  -6   5    3.73    1.06
   2  -5 -16    4.22    1.59
   2  -5 -15   11.74    2.38
   2  -5 -14   11.05    2.26
   2  -5 -13    8.55    1.91
   2  -5 -12   11.52    2.18
   2  -5 -11   15.11    2.23
   2  -5 -10   22.06    2.60
   2  -5  -9   39.54    3.31
   2  -5  -8   40.29    3.34
   2  -5  -7   57.89    3.76
   2  -5  -6   70.06    4.03
   2  -5  -5   13.13    1.80
   2  -5  -4   25.83    2.34
   2  -5  -3   20.60    1.98
   2  -5  -2   10.21    1.48
   2  -5  -1   10.98    1.44
   2  -5   0   11.67    1.44
   2  -5   1    0.39    0.67
   2  -5   2    1.61    0.63
   2  -5   3   -0.59    0.54
   2  -5   4    0.29    0.59
   2  -5   5    0.69    0.66
   2  -4 -16    0.76    1.10
   2  -4 -15    3.28    1.58
   2  -4 -14    6.47    1.79
   2  -4 -13    8.42    1.89
   2  -4 -12   13.79    2.08
   2  -4 -11   27.02    2.73
   2  -4 -10   36.01    3.04
   2  -4  -9   45.47    3.56
   2  -4  -8   33.59    2.79
   2  -4  -7   62.33    3.72
   2  -4  -6   46.84    3.05
   2  -4  -5  111.93    4.56
   2  -4  -4  254.98    6.63
   2  -4  -3  321.85    7.27
   2  -4  -2  255.83    6.26
   2  -4  -1  127.41    4.15
   2  -4   0  134.98    4.10
   2  -4   1   72.91    2.96
   2  -4   2  107.76    3.48
   2  -4   3   75.83    2.81
   2  -4   4   56.36    2.32
   2  -4   5   25.20    1.58
   2  -4   6    1.19    0.61
   2  -3 -16    0.25    0.88
   2  -3 -15    0.39    1.41
   2  -3 -14    0.88    1.07
   2  -3 -13    1.99    1.15
   2  -3 -11   12.29    1.91
   2  -3  -5  132.22    4.76
   2  -3  -4  201.94    5.79
   2  -3  -3  229.31    5.84
   2  -3  -2  172.27    4.60
   2  -3  -1  256.58    5.42
   2  -3   0  258.92    5.27
   2  -3   1  139.87    3.54
   2  -3   2  255.32    4.67
   2  -3   3  312.80    5.04
   2  -3   4  196.04    3.75
   2  -3   6   75.92    2.23
   2  -2  -1   54.87    2.30
   2  -2   0   38.94    1.86
   2  -2   1  163.11    3.41
   2  -2   2  152.29    3.01
   2  -2   3  277.55    3.89
   2  -2   4  270.20    3.68
   2  -2   5   84.25    1.87
   2  -2   6  118.57    2.16
   2  -1   2   47.39    1.31
  -2   0  -7   40.78    1.27
  -2   0  -8   32.91    1.30
  -2  -1   3   84.94    2.72
  -2  -1   2   39.66    1.73
  -2  -1   1  865.19    8.55
  -2  -1   0  191.26    3.16
  -2  -1  -1   23.90    1.00
  -2  -1  -2  232.34    3.08
  -2  -1  -3  105.49    1.87
  -2  -1  -4  177.97    2.61
  -2  -1  -5   92.42    1.94
  -2  -1  -6   97.92    2.25
  -2  -1  -7   30.96    1.40
  -2  -1  -8    6.44    0.81
  -2  -1  -9    0.81    0.58
  -2  -2   6  153.47    4.41
  -2  -2   5  149.55    4.06
  -2  -2   4  196.03    4.43
  -2  -2   3  214.31    4.27
  -2  -2   2  114.27    2.95
  -2  -2   1   26.23    1.35
  -2  -2   0    1.94    0.53
  -2  -2  -1  549.86    6.32
  -2  -2  -2  294.83    4.27
  -2  -2  -3  156.44    3.04
  -2  -2  -4  186.29    3.43
  -2  -2  -5  190.89    3.65
  -2  -2  -6  182.95    3.83
  -2  -2  -7  113.65    3.13
  -2  -2  -8   66.74    2.50
  -2  -2  -9   32.89    1.87
  -2  -2 -10    6.70    0.96
  -2  -3   8    0.84    0.73
  -2  -3   7    3.75    0.83
  -2  -3   6   22.47    1.70
  -2  -3   5   17.80    1.51
  -2  -3   4   50.03    2.31
  -2  -3   3   56.66    2.31
  -2  -3   2  126.64    3.49
  -2  -3   1   40.85    1.91
  -2  -3   0  110.36    3.00
  -2  -3  -1  166.83    3.75
  -2  -3  -2   74.13    2.46
  -2  -3  -3  314.20    5.23
  -2  -3  -4  481.14    6.77
  -2  -3  -5  252.21    5.09
  -2  -3  -6  130.73    3.68
  -2  -3  -7  222.34    5.08
  -2  -3  -8   98.86    3.50
  -2  -3  -9   45.17    2.46
  -2  -3 -10   50.85    2.70
  -2  -4  10   21.04    2.10
  -2  -4   9    6.77    1.21
  -2  -4   8    2.43    0.80
  -2  -4   7    0.37    0.55
  -2  -4   6   20.89    1.71
  -2  -4   5    6.86    1.01
  -2  -4   4    5.56    0.89
  -2  -4   3    2.66    0.84
  -2  -4   2    2.95    0.73
  -2  -4   1   20.64    1.56
  -2  -4   0   28.80    1.79
  -2  -4  -1   19.54    1.48
  -2  -4  -2   85.67    2.98
  -2  -4  -3   36.56    2.02
  -2  -4  -4   56.59    2.60
  -2  -4  -5   45.20    2.39
  -2  -4  -6   34.87    2.20
  -2  -4  -7   43.35    2.51
  -2  -4  -8   28.88    2.15
  -2  -4  -9   34.45    2.43
  -2  -4 -10   33.52    2.46
  -2  -4 -11   51.27    3.11
  -2  -5  11   34.27    2.61
  -2  -5  10   34.91    2.63
  -2  -5   9   39.60    2.69
  -2  -5   8   95.91    3.98
  -2  -5   7  118.33    4.32
  -2  -5   6   74.67    3.35
  -2  -5   5   67.56    3.17
  -2  -5   4  132.01    4.40
  -2  -5   3   40.31    2.41
  -2  -5   2   33.27    2.21
  -2  -5   1   48.00    2.56
  -2  -5   0   16.94    1.59
  -2  -5  -1   69.77    3.06
  -2  -5  -2   92.04    3.47
  -2  -5  -3   10.72    1.30
  -2  -5  -4    2.16    0.76
  -2  -5  -5   10.53    1.33
  -2  -5  -6   48.07    2.84
  -2  -5  -7    3.91    1.08
  -2  -5  -8    1.37    0.91
  -2  -5  -9    1.65    0.79
  -2  -5 -10    3.84    1.06
  -2  -5 -11   12.82    1.84
  -2  -5 -12    1.44    0.75
  -2  -6  10   47.30    3.20
  -2  -6   9   63.19    3.45
  -2  -6   8   82.60    3.93
  -2  -6   7  103.79    4.29
  -2  -6   6  116.12    4.49
  -2  -6   5  143.38    5.04
  -2  -6   4  103.83    4.23
  -2  -6   3   75.95    3.59
  -2  -6   2  122.47    4.43
  -2  -6   1  109.82    4.29
  -2  -6   0   77.91    3.58
  -2  -6  -1  216.85    6.00
  -2  -6  -2  118.85    4.40
  -2  -6  -3   21.68    1.99
  -2  -6  -4   24.04    2.18
  -2  -6  -5   24.56    2.22
  -2  -6  -6   12.23    1.59
  -2  -6  -7    9.03    1.62
  -2  -6  -8    2.35    1.15
  -2  -6  -9   -0.17    0.95
  -2  -6 -10   -1.27    0.80
  -2  -6 -11    0.49    0.98
  -2  -6 -12    0.30    1.00
  -2  -7  10    4.07    1.32
  -2  -7   9    7.89    1.44
  -2  -7   8   50.75    3.33
  -2  -7   7   63.53    3.65
  -2  -7   6   39.02    2.99
  -2  -7   5   30.76    2.55
  -2  -7   4   52.88    3.27
  -2  -7   3   59.90    3.54
  -2  -7   2  124.52    4.95
  -2  -7   1  182.33    6.04
  -2  -7   0  198.39    6.23
  -2  -7  -1  125.15    5.00
  -2  -7  -2   69.66    3.68
  -2  -7  -3  130.05    5.14
  -2  -7  -4  132.89    5.23
  -2  -7  -5   90.98    4.42
  -2  -7  -6   58.12    3.65
  -2  -7  -7   74.42    4.14
  -2  -7  -8   36.81    2.99
  -2  -7  -9   15.97    2.29
  -2  -7 -10   10.84    1.97
  -2  -7 -11   12.03    1.98
  -2  -7 -12    7.06    1.73
  -2  -8   9    0.62    1.13
  -2  -8   8    0.34    0.98
  -2  -8   7   -0.07    1.08
  -2  -8   6    0.50    0.84
  -2  -8   5   10.77    1.84
  -2  -8   4    7.26    1.57
  -2  -8   3    2.22    1.28
  -2  -8   2   31.66    2.73
  -2  -8   1  101.32    4.90
  -2  -8   0  142.47    5.71
  -2  -8  -1  231.30    7.33
  -2  -8  -2  176.31    6.37
  -2  -8  -3   61.74    3.75
  -2  -8  -4   54.66    3.71
  -2  -8  -5   51.06    3.61
  -2  -8  -6   69.11    4.23
  -2  -8  -7   69.27    4.39
  -2  -8  -8   24.79    2.70
  -2  -8  -9   22.85    2.72
  -2  -8 -10   15.53    2.19
  -2  -8 -11   16.13    2.32
  -2  -8 -12   19.23    2.60
  -2  -8 -13   20.97    2.88
  -2  -9   8    8.63    1.83
  -2  -9   7   14.42    2.30
  -2  -9   6   11.97    2.07
  -2  -9   5    2.57    1.42
  -2  -9   4    4.84    1.36
  -2  -9   3   -0.65    0.75
  -2  -9   2    0.31    0.84
  -2  -9   1    0.67    0.86
  -2  -9   0    1.39    1.02
  -2  -9  -1    2.16    1.04
  -2  -9  -2    0.71    1.20
  -2  -9  -3    5.01    1.36
  -2  -9  -4   20.69    2.50
  -2  -9  -5   40.85    3.52
  -2  -9  -6   58.01    4.13
  -2  -9  -7   19.40    2.51
  -2  -9  -8   24.34    2.87
  -2  -9  -9   15.25    2.36
  -2  -9 -10   12.65    2.21
  -2  -9 -11   10.83    2.26
  -2  -9 -12   10.04    2.09
  -2  -9 -13    8.74    2.02
  -2 -10   8   26.32    2.91
  -2 -10   7   26.15    2.98
  -2 -10   6   25.58    3.02
  -2 -10   5   37.36    3.43
  -2 -10   4   37.12    3.52
  -2 -10   3   28.22    3.11
  -2 -10   2   30.59    3.16
  -2 -10   1   43.54    3.67
  -2 -10   0   37.60    3.59
  -2 -10  -1   23.19    2.90
  -2 -10  -2   11.83    2.26
  -2 -10  -3    4.37    1.48
  -2 -10  -4   -0.49    1.17
  -2 -10  -5    1.95    1.40
  -2 -10  -6    0.07    1.33
  -2 -10  -7    1.14    1.16
  -2 -10  -8    2.76    1.34
  -2 -10  -9    4.57    1.57
  -2 -10 -10    2.52    1.47
  -2 -10 -11    5.90    2.04
  -2 -10 -12    3.78    1.61
  -2 -11   7   17.37    2.83
  -2 -11   6    9.64    2.04
  -2 -11   5   25.57    3.08
  -2 -11   4   34.12    3.45
  -2 -11   3   54.28    4.47
  -2 -11   2   58.35    4.52
  -2 -11   1   53.25    4.43
  -2 -11   0   37.70    3.74
  -2 -11  -1   35.90    3.68
  -2 -11  -2   45.95    4.13
  -2 -11  -3   22.58    2.95
  -2 -11  -4   13.42    2.42
  -2 -11  -5    4.73    1.61
  -2 -11  -6    5.79    1.87
  -2 -11  -7    6.84    1.88
  -2 -11  -8    7.38    2.04
  -2 -11  -9    3.61    1.62
  -2 -11 -10    0.07    1.27
  -2 -12   6   12.76    2.60
  -2 -12   5   14.56    2.75
  -2 -12   4    7.76    1.99
  -2 -12   3   11.23    2.52
  -2 -12   2   24.04    3.12
  -2 -12   1   38.59    3.91
  -2 -12   0   52.53    4.60
  -2 -12  -1   74.26    5.62
  -2 -12  -2   48.18    4.53
  -2 -12  -3   36.10    3.99
  -2 -12  -4   31.45    3.88
  -2 -12  -5   35.14    3.92
  -2 -12  -6   22.30    3.19
  -2 -12  -7   24.64    3.32
  -2 -13   4   -0.30    1.25
  -2 -13   3    3.97    1.73
  -2 -13   2    7.28    2.33
  -2 -13   1    7.58    2.12
  -2 -13   0   10.22    2.36
  -2 -13  -1    7.90    2.40
  -2 -13  -2    6.02    2.01
  -2 -13  -3   12.31    2.67
   3 -10  -6   17.89    3.12
   3 -10  -5   20.78    3.13
   3 -10  -4   27.44    3.33
   3 -10  -3   24.76    3.08
   3 -10  -2   26.30    3.34
   3 -10  -1   27.33    3.11
   3 -10   0   23.56    2.87
   3  -9  -9    6.22    2.02
   3  -9  -8   12.02    2.48
   3  -9  -7    6.27    1.84
   3  -9  -6   14.20    2.53
   3  -9  -5   24.10    3.17
   3  -9  -4   14.35    2.40
   3  -9  -3   31.84    3.50
   3  -9  -2   35.07    3.57
   3  -9  -1   32.73    3.22
   3  -9   0   51.56    4.00
   3  -9   1   35.96    3.18
   3  -8 -11    0.40    1.58
   3  -8 -10    2.39    1.40
   3  -8  -9    0.67    1.21
   3  -8  -8    1.33    1.42
   3  -8  -7    0.56    1.13
   3  -8  -6   -0.74    0.90
   3  -8  -5   -0.67    1.26
   3  -8  -4    2.31    1.28
   3  -8  -3   14.85    2.37
   3  -8  -2   24.37    2.70
   3  -8  -1   52.28    3.86
   3  -8   0   30.84    2.81
   3  -8   1   18.67    2.25
   3  -8   2   34.27    2.93
   3  -7 -13    5.64    1.74
   3  -7 -12    5.68    1.86
   3  -7 -11   14.10    2.65
   3  -7 -10    7.51    1.91
   3  -7  -9   11.88    2.17
   3  -7  -8   18.78    2.75
   3  -7  -7   15.28    2.44
   3  -7  -6    6.57    1.80
   3  -7  -5    1.22    1.04
   3  -7  -4    1.87    1.11
   3  -7  -3    3.89    1.29
   3  -7  -2    2.83    1.18
   3  -7  -1    0.28    0.76
   3  -7   0    1.49    1.10
   3  -7   1    2.89    1.18
   3  -7   2   11.12    1.72
   3  -7   3    4.02    1.18
   3  -6 -14   10.66    2.50
   3  -6 -13    9.75    2.18
   3  -6 -12   22.25    3.17
   3  -6 -11   19.36    2.95
   3  -6 -10   22.66    3.08
   3  -6  -9   33.67    3.55
   3  -6  -8   41.72    3.73
   3  -6  -7   41.82    3.62
   3  -6  -6   30.86    3.06
   3  -6  -5   36.65    3.18
   3  -6  -4   19.60    2.24
   3  -6  -3   27.46    2.54
   3  -6  -2   64.57    3.76
   3  -6  -1   73.29    3.96
   3  -6   0   48.82    3.11
   3  -6   1   35.10    2.57
   3  -6   2    4.74    1.02
   3  -6   3   -0.11    0.53
   3  -5 -15    0.34    1.40
   3  -5 -14    3.01    1.71
   3  -5 -13    4.98    1.59
   3  -5 -12   13.41    2.42
   3  -5 -11   20.47    2.71
   3  -5 -10   36.15    3.41
   3  -5  -9   30.14    3.05
   3  -5  -8   34.58    3.18
   3  -5  -7   19.37    2.44
   3  -5  -6   38.86    3.24
   3  -5  -5   60.40    3.83
   3  -5  -4   56.93    3.67
   3  -5  -3  111.68    4.85
   3  -5  -2  154.45    5.52
   3  -5  -1  173.85    5.49
   3  -5   0  154.58    5.09
   3  -5   1  105.79    4.12
   3  -5   2   51.14    2.76
   3  -5   3   71.78    3.14
   3  -5   4   45.15    2.47
   3  -4 -16    0.49    1.13
   3  -4 -15    0.56    1.43
   3  -4 -14   -0.57    1.26
   3  -4 -13    0.85    1.45
   3  -4 -12    1.33    1.54
   3  -4 -11    1.54    1.20
   3  -4 -10    7.33    1.96
   3  -4  -9    9.92    2.12
   3  -4  -8   15.97    2.38
   3  -4  -7   49.04    3.63
   3  -4  -6   76.33    4.45
   3  -4  -5   30.99    2.78
   3  -4  -4   78.43    3.88
   3  -4  -3  104.64    4.31
   3  -4  -2  161.09    5.19
   3  -4  -1  125.35    4.47
   3  -4   0   87.20    3.46
   3  -4   1  145.73    4.33
   3  -4   2  121.82    3.89
   3  -4   3   98.40    3.35
   3  -4   4  147.10    3.83
   3  -3 -17    2.68    1.82
   3  -3 -16    2.39    1.50
   3  -3 -14    2.32    1.29
   3  -3 -13    5.20    1.62
   3  -3  -3   24.36    2.16
   3  -3  -2   31.38    2.28
   3  -3  -1   46.48    2.52
   3  -3   0   62.29    2.70
   3  -3   1   20.01    1.49
   3  -3   2   79.99    2.72
   3  -3   3  102.51    2.96
   3  -3   4  125.30    3.10
   3  -3   5   84.89    2.40
   3  -2   1    7.23    0.93
   3  -2   2   23.17    1.37
   3  -2   3   24.03    1.26
   3  -2   4   42.49    1.45
   3  -2   5   18.12    0.87
   3  -1   3   87.08    1.91
  -3  -1   2   37.70    1.99
  -3  -1   1  277.25    5.05
  -3  -1   0  587.87    7.12
  -3  -1  -1   71.99    2.11
  -3  -1  -2  254.91    3.75
  -3  -1  -3  223.41    3.18
  -3  -1  -4  164.51    2.45
  -3  -1  -4  164.55    2.45
  -3  -1  -5  142.00    2.17
  -3  -1  -7  126.85    2.15
  -3  -2   5    4.09    1.03
  -3  -2   4    8.70    1.13
  -3  -2   3    9.71    1.10
  -3  -2   2    7.27    0.93
  -3  -2   1   89.06    2.76
  -3  -2   0   19.77    1.25
  -3  -2  -1   41.88    1.71
  -3  -2  -2  324.32    4.81
  -3  -2  -3   42.07    1.59
  -3  -2  -4    7.95    0.76
  -3  -2  -5   43.15    1.61
  -3  -2  -6  119.86    2.70
  -3  -2  -7  102.89    2.65
  -3  -2  -8  188.83    3.87
  -3  -3   8   21.43    1.98
  -3  -3   7   42.63    2.63
  -3  -3   6   47.29    2.65
  -3  -3   5   43.86    2.52
  -3  -3   4   42.76    2.28
  -3  -3   3   17.21    1.48
  -3  -3   2    0.40    0.46
  -3  -3   1    1.64    0.71
  -3  -3   0    2.46    0.66
  -3  -3  -1   90.85    2.84
  -3  -3  -2    2.45    0.60
  -3  -3  -3    2.18    0.66
  -3  -3  -4    0.02    0.46
  -3  -3  -5    0.39    0.48
  -3  -3  -6   26.73    1.65
  -3  -3  -7   34.78    1.90
  -3  -3  -8   32.38    1.87
  -3  -3  -9   53.61    2.58
  -3  -4  10   23.59    2.30
  -3  -4   9   45.86    2.88
  -3  -4   8   36.00    2.60
  -3  -4   7   63.37    3.32
  -3  -4   6  139.11    4.59
  -3  -4   5  182.34    5.12
  -3  -4   4   79.69    3.24
  -3  -4   3   61.78    2.78
  -3  -4   2    4.41    1.00
  -3  -4   1   10.25    1.19
  -3  -4   0   40.81    2.14
  -3  -4  -1  146.04    4.00
  -3  -4  -2  300.63    5.87
  -3  -4  -3  220.52    5.01
  -3  -4  -4   69.29    2.83
  -3  -4  -5    7.77    1.08
  -3  -4  -6   11.59    1.28
  -3  -4  -7    0.23    0.65
  -3  -4  -8   -0.40    0.57
  -3  -4  -9   -0.26    0.67
  -3  -5  11   27.28    2.59
  -3  -5  10   29.53    2.63
  -3  -5   9   32.70    2.55
  -3  -5   8   49.57    3.10
  -3  -5   7   79.28    3.76
  -3  -5   6  151.15    5.02
  -3  -5   5  129.05    4.54
  -3  -5   4  117.83    4.20
  -3  -5   3  173.34    5.22
  -3  -5   2   76.63    3.37
  -3  -5   1  116.33    4.00
  -3  -5   0  153.85    4.66
  -3  -5  -1  108.23    3.90
  -3  -5  -2   99.84    3.75
  -3  -5  -3  129.97    4.23
  -3  -5  -4   96.75    3.66
  -3  -5  -5  110.03    4.06
  -3  -5  -6   34.66    2.30
  -3  -5  -7   40.45    2.60
  -3  -5  -8   68.98    3.42
  -3  -5  -9   31.65    2.36
  -3  -5 -10   19.42    2.04
  -3  -6  12    0.87    1.26
  -3  -6  11   -0.34    1.01
  -3  -6  10    2.41    1.01
  -3  -6   9   19.06    2.08
  -3  -6   8   12.77    1.80
  -3  -6   7   25.38    2.34
  -3  -6   6   32.42    2.49
  -3  -6   5   12.76    1.68
  -3  -6   4   38.45    2.75
  -3  -6   3   87.04    3.92
  -3  -6   2   62.30    3.25
  -3  -6   1   53.67    3.10
  -3  -6   0   53.19    2.95
  -3  -6  -1   93.30    3.95
  -3  -6  -2  115.17    4.41
  -3  -6  -3   81.67    3.72
  -3  -6  -4   41.91    2.65
  -3  -6  -5   51.25    3.01
  -3  -6  -6   68.52    3.56
  -3  -6  -7   91.45    4.18
  -3  -6  -8   95.03    4.42
  -3  -6  -9   61.07    3.61
  -3  -6 -10   37.08    2.88
  -3  -6 -11   15.43    2.03
  -3  -7  11    6.25    1.44
  -3  -7  10    9.38    1.67
  -3  -7   9    7.89    1.50
  -3  -7   8    1.97    0.94
  -3  -7   7    1.30    1.03
  -3  -7   6    2.06    1.08
  -3  -7   5    3.17    1.24
  -3  -7   4    0.73    0.77
  -3  -7   3    0.08    0.64
  -3  -7   2    3.27    1.04
  -3  -7   1   30.70    2.56
  -3  -7   0   75.09    3.88
  -3  -7  -1   66.84    3.76
  -3  -7  -2   11.55    1.73
  -3  -7  -3   23.70    2.24
  -3  -7  -4   30.46    2.54
  -3  -7  -5   36.47    2.75
  -3  -7  -6   68.80    3.90
  -3  -7  -7   81.43    4.24
  -3  -7  -8   70.99    4.08
  -3  -7  -9   49.24    3.49
  -3  -7 -10   25.97    2.73
  -3  -7 -11   20.82    2.44
  -3  -8  10   26.55    2.69
  -3  -8   9   35.52    3.07
  -3  -8   8   37.30    3.10
  -3  -8   7   29.00    2.73
  -3  -8   6   23.21    2.49
  -3  -8   5   13.01    2.05
  -3  -8   4    0.57    1.07
  -3  -8   3    1.62    0.97
  -3  -8   2    3.67    1.46
  -3  -8   1   -0.12    0.77
  -3  -8   0    1.05    0.87
  -3  -8  -1    1.49    1.29
  -3  -8  -2    7.55    1.52
  -3  -8  -3    7.82    1.69
  -3  -8  -4    1.80    1.03
  -3  -8  -5    1.86    0.96
  -3  -8  -6    5.93    1.39
  -3  -8  -7   19.47    2.38
  -3  -8  -8   16.15    2.26
  -3  -8  -9    4.33    1.29
  -3  -8 -10    6.02    1.51
  -3  -8 -11    7.37    1.88
  -3  -8 -12    4.87    1.66
  -3  -9  10   24.60    2.77
  -3  -9   9   24.21    2.75
  -3  -9   8   42.79    3.58
  -3  -9   7   54.25    3.99
  -3  -9   6   63.34    4.33
  -3  -9   5   43.24    3.60
  -3  -9   4   46.97    3.65
  -3  -9   3   81.20    4.65
  -3  -9   2   92.27    5.10
  -3  -9   1   59.77    3.94
  -3  -9   0   31.63    2.98
  -3  -9  -1   32.00    3.04
  -3  -9  -2    7.41    1.83
  -3  -9  -3    4.24    1.56
  -3  -9  -4   14.92    2.16
  -3  -9  -5   15.88    2.23
  -3  -9  -6    0.31    0.81
  -3  -9  -7    0.17    0.89
  -3  -9  -8    4.06    1.65
  -3  -9  -9   -0.19    1.15
  -3  -9 -10    1.52    1.35
  -3  -9 -11   -0.64    1.17
  -3  -9 -12   -0.86    1.30
  -3 -10   9   15.93    2.37
  -3 -10   8   24.58    2.95
  -3 -10   7   35.70    3.46
  -3 -10   6   38.60    3.71
  -3 -10   5   55.48    4.31
  -3 -10   4   63.58    4.46
  -3 -10   3   62.23    4.45
  -3 -10   2   38.77    3.64
  -3 -10   1   35.40    3.30
  -3 -10   0   47.90    3.90
  -3 -10  -1   59.22    4.44
  -3 -10  -2   64.15    4.54
  -3 -10  -3   34.14    3.32
  -3 -10  -4   19.98    2.63
  -3 -10  -5   11.85    2.27
  -3 -10  -6   10.30    2.03
  -3 -10  -7   24.39    2.89
  -3 -10  -8   17.00    2.50
  -3 -10  -9    7.56    2.04
  -3 -10 -10    7.36    1.89
  -3 -10 -11    2.18    1.37
  -3 -10 -12   -0.81    1.47
  -3 -11   8    2.26    1.61
  -3 -11   7    7.74    1.91
  -3 -11   6   10.40    2.25
  -3 -11   5   17.86    2.67
  -3 -11   4   20.10    2.78
  -3 -11   3   21.62    3.00
  -3 -11   2   27.05    3.30
  -3 -11   1   33.62    3.48
  -3 -11   0   29.15    3.35
  -3 -11  -1   26.51    3.16
  -3 -11  -2   29.48    3.39
  -3 -11  -3   44.13    4.09
  -3 -11  -4   42.45    4.05
  -3 -11  -5   33.18    3.72
  -3 -11  -7   22.23    3.13
  -3 -11  -8   16.61    2.66
  -3 -11  -9   19.10    2.81
  -3 -11 -10   16.37    2.80
  -3 -12   7    5.39    2.09
  -3 -12   6    1.16    1.42
  -3 -12   5    0.50    1.22
  -3 -12   4    0.46    1.60
  -3 -12   3    4.21    1.70
  -3 -12   2   10.16    2.20
  -3 -12   1    7.58    2.06
  -3 -12   0    6.76    1.84
  -3 -12  -1   14.67    2.75
  -3 -12  -2   21.18    3.10
  -3 -12  -3   15.55    2.92
  -3 -12  -4   19.45    3.17
  -3 -12  -5   24.96    3.34
  -3 -12  -6   15.21    2.73
  -3 -12  -7   16.44    2.88
  -3 -12  -8   10.14    2.57
  -3 -13   5    7.58    2.45
  -3 -13   4    7.32    2.47
  -3 -13   3   11.60    2.44
  -3 -13   2    9.61    2.33
  -3 -13   1    5.11    1.97
  -3 -13   0    0.49    1.79
  -3 -13  -1   -0.25    1.08
  -3 -13  -2   -0.28    1.22
  -3 -13  -3   -0.40    1.24
  -3 -13  -4    0.20    1.52
   4 -10  -3   17.47    2.95
   4 -10  -2    9.45    2.10
   4 -10  -1   14.08    2.67
   4  -9  -7    3.07    2.05
   4  -9  -6    0.89    1.66
   4  -9  -5    0.14    1.16
   4  -9  -4    0.26    1.01
   4  -9  -3    1.92    1.35
   4  -9  -2    6.79    1.81
   4  -9  -1    7.54    1.78
   4  -9   0    7.76    1.77
   4  -8  -9   21.03    3.15
   4  -8  -8   19.04    3.09
   4  -8  -7   19.41    3.08
   4  -8  -6    7.69    2.19
   4  -8  -5    4.05    1.55
   4  -8  -4    6.99    1.99
   4  -8  -3    4.19    1.64
   4  -8  -2    2.95    1.24
   4  -8  -1    2.59    1.14
   4  -8   0    1.72    1.04
   4  -7 -11   13.21    2.73
   4  -7 -10   20.05    3.14
   4  -7  -9   20.10    2.94
   4  -7  -8   34.68    3.76
   4  -7  -7   37.45    3.69
   4  -7  -6   30.88    3.30
   4  -7  -5   41.46    3.77
   4  -7  -4   45.60    3.74
   4  -7  -3   34.81    3.25
   4  -7  -2   50.75    3.81
   4  -7  -1   45.82    3.55
   4  -7   0   44.56    3.23
   4  -7   1   39.19    3.07
   4  -6 -13    0.67    1.40
   4  -6 -11    6.46    1.93
   4  -6 -10    4.29    1.68
   4  -6  -9    9.78    2.12
   4  -6  -8   16.47    2.71
   4  -6  -7   37.23    3.73
   4  -6  -6   35.26    3.46
   4  -6  -5   47.97    3.92
   4  -6  -4   47.08    3.65
   4  -6  -3   53.01    3.66
   4  -6  -2   85.82    4.54
   4  -6  -1  106.82    4.90
   4  -6   0  106.24    4.79
   4  -6   1   68.27    3.73
   4  -6   2   55.13    3.29
   4  -5 -14    2.03    1.65
   4  -5 -13    2.56    1.78
   4  -5 -12    0.72    1.12
   4  -5 -11    0.23    1.45
   4  -5 -10   -0.44    1.34
   4  -5  -9    0.09    1.28
   4  -5  -8    0.09    1.27
   4  -5  -7    3.66    1.36
   4  -5  -6    7.48    1.67
   4  -5  -5   45.30    3.51
   4  -5  -4   35.60    3.11
   4  -5  -3   34.84    3.03
   4  -5  -2   35.58    2.84
   4  -5  -1   81.16    3.97
   4  -5   0  135.73    4.96
   4  -5   1  111.70    4.39
   4  -5   2  109.57    4.25
   4  -4 -15    9.26    2.39
   4  -4 -14   13.35    2.73
   4  -4 -13   10.39    2.50
   4  -4 -12   10.41    2.40
   4  -4 -11    5.54    1.77
   4  -4 -10    4.61    1.88
   4  -4  -9    3.94    1.52
   4  -4  -8    5.64    1.67
   4  -4  -7   12.09    2.24
   4  -4  -6    0.12    0.94
   4  -4  -5    0.87    0.93
   4  -4  -4   10.40    1.69
   4  -4  -3   -0.06    0.67
   4  -4  -2    1.55    1.01
   4  -4  -1    3.24    1.10
   4  -4   0    7.50    1.31
   4  -4   1   36.82    2.29
   4  -4   2   76.20    3.21
   4  -4   3  129.46    3.97
   4  -3 -16    5.23    1.99
   4  -3 -15    5.03    1.99
   4  -3 -14    8.33    2.01
   4  -3  -2   46.21    2.92
   4  -3  -1   61.81    3.29
   4  -3   0   22.06    1.81
   4  -3   1    8.36    1.13
   4  -3   2    0.66    0.58
   4  -3   3    0.58    0.61
   4  -2   1  173.14    4.42
   4  -2   2  116.60    3.24
   4  -2   3   43.04    1.85
   4  -2   4   14.69    1.02
   4  -1   3  227.64    3.90
   4  -1   4  161.39    2.77
  -4  -1  -1  166.93    3.80
  -4  -1  -2   74.65    2.33
  -4  -1  -3   17.98    1.13
  -4  -1  -4   12.29    0.82
  -4  -2   4  124.46    4.23
  -4  -2   3  164.70    4.58
  -4  -2   2  115.55    3.76
  -4  -2   1   83.12    2.99
  -4  -2   0   26.39    1.65
  -4  -2  -1   21.68    1.41
  -4  -2  -2    2.81    0.61
  -4  -2  -3    2.27    0.52
  -4  -2  -4    0.61    0.44
  -4  -2  -5   -0.17    0.39
  -4  -2  -6   -0.09    0.39
  -4  -3   7   48.50    3.04
  -4  -3   6   89.42    3.79
  -4  -3   5  147.04    4.85
  -4  -3   4  183.34    5.24
  -4  -3   3  145.98    4.44
  -4  -3   2  135.59    4.10
  -4  -3   1   59.57    2.65
  -4  -3   0  282.14    5.52
  -4  -3  -1  222.40    4.68
  -4  -3  -2   83.92    2.91
  -4  -3  -3  157.33    3.83
  -4  -3  -4   78.14    2.60
  -4  -3  -5   60.67    2.31
  -4  -3  -6   10.79    1.07
  -4  -3  -7    5.34    0.88
  -4  -4   9    7.95    1.57
  -4  -4   8   11.83    1.69
  -4  -4   7   12.68    1.62
  -4  -4   6   14.39    1.68
  -4  -4   5   66.68    3.32
  -4  -4   4  127.80    4.38
  -4  -4   3  189.78    5.22
  -4  -4   2  316.97    6.57
  -4  -4   1  356.13    6.86
  -4  -4   0  303.91    6.38
  -4  -4  -1  162.79    4.44
  -4  -4  -2  359.58    6.62
  -4  -4  -3  288.88    5.90
  -4  -4  -4  138.07    3.96
  -4  -4  -5   60.66    2.66
  -4  -4  -6   71.45    2.93
  -4  -4  -7   71.77    2.96
  -4  -4  -8   47.65    2.47
  -4  -5  11   -0.10    0.84
  -4  -5  10    0.39    0.85
  -4  -5   9    0.04    0.98
  -4  -5   8   -0.01    0.88
  -4  -5   7   -0.72    0.60
  -4  -5   6   -0.43    0.82
  -4  -5   5   24.60    2.18
  -4  -5   4   28.50    2.20
  -4  -5   3   10.31    1.36
  -4  -5   2   23.70    1.97
  -4  -5   1   55.50    2.98
  -4  -5   0   64.19    3.14
  -4  -5  -1  161.18    4.83
  -4  -5  -2  201.12    5.44
  -4  -5  -3  103.28    3.78
  -4  -5  -4  164.39    4.92
  -4  -5  -5  127.76    4.34
  -4  -5  -6  106.23    3.97
  -4  -5  -7   69.73    3.28
  -4  -5  -8  116.07    4.22
  -4  -5  -9   78.64    3.56
  -4  -6  12    7.44    1.60
  -4  -6  11   19.76    2.38
  -4  -6  10   18.44    2.34
  -4  -6   9   27.25    2.58
  -4  -6   8   22.88    2.40
  -4  -6   7    9.35    1.55
  -4  -6   6    7.06    1.34
  -4  -6   5   43.86    2.98
  -4  -6   4   37.40    2.73
  -4  -6   3    7.55    1.32
  -4  -6   2    2.02    0.89
  -4  -6   1    0.34    0.64
  -4  -6   0    0.08    0.81
  -4  -6  -1    1.43    0.81
  -4  -6  -2   14.43    1.62
  -4  -6  -3   14.25    1.65
  -4  -6  -4   17.69    1.85
  -4  -6  -5   48.44    2.98
  -4  -6  -6   36.69    2.68
  -4  -6  -7   48.14    3.03
  -4  -6  -8   93.32    4.17
  -4  -6  -9   56.57    3.42
  -4  -7  12   14.45    2.28
  -4  -7  11   19.75    2.42
  -4  -7  10   22.95    2.71
  -4  -7   9   21.27    2.39
  -4  -7   8   29.38    2.79
  -4  -7   7   40.85    3.12
  -4  -7   6   54.56    3.50
  -4  -7   5   63.82    3.79
  -4  -7   4   37.91    2.92
  -4  -7   3   59.01    3.65
  -4  -7   2   62.18    3.67
  -4  -7   1   29.31    2.53
  -4  -7   0   27.74    2.54
  -4  -7  -1   14.10    1.85
  -4  -7  -2    8.90    1.59
  -4  -7  -3    6.09    1.29
  -4  -7  -4    1.81    1.12
  -4  -7  -5    2.15    1.11
  -4  -7  -6   -0.29    0.69
  -4  -7  -7    7.09    1.42
  -4  -7  -8    3.36    1.08
  -4  -7  -9    7.30    1.53
  -4  -7 -10   12.71    1.94
  -4  -8  12   17.07    2.55
  -4  -8  11   17.21    2.38
  -4  -8  10   11.95    2.12
  -4  -8   9   18.87    2.38
  -4  -8   8   20.77    2.57
  -4  -8   7   11.29    1.83
  -4  -8   6   10.94    1.95
  -4  -8   5   19.02    2.28
  -4  -8   4   67.80    4.22
  -4  -8   3  119.96    5.51
  -4  -8   2  155.50    6.16
  -4  -8   0  157.47    6.23
  -4  -8  -1   48.20    3.36
  -4  -8  -2   78.64    4.41
  -4  -8  -3   89.64    4.69
  -4  -8  -4   48.03    3.58
  -4  -8  -5   50.03    3.52
  -4  -8  -6   43.32    3.43
  -4  -8  -7   12.18    2.06
  -4  -8  -8    1.66    1.17
  -4  -8  -9    2.87    1.34
  -4  -8 -10    2.87    1.30
  -4  -9  11    3.87    1.66
  -4  -9  10    3.61    1.51
  -4  -9   9    3.97    1.38
  -4  -9   8    6.43    1.83
  -4  -9   7   14.06    2.14
  -4  -9   6   54.46    3.94
  -4  -9   5   68.72    4.62
  -4  -9   4   27.45    2.98
  -4  -9   3   39.23    3.46
  -4  -9   2   41.14    3.40
  -4  -9   1   47.84    3.65
  -4  -9   0   69.08    4.43
  -4  -9  -1   71.91    4.38
  -4  -9  -2   71.19    4.47
  -4  -9  -3   46.09    3.68
  -4  -9  -4   80.71    4.87
  -4  -9  -5  107.84    5.57
  -4  -9  -6   98.73    5.36
  -4  -9  -7   47.10    3.86
  -4  -9  -8   42.40    3.67
  -4  -9  -9   34.47    3.32
  -4  -9 -10   13.33    2.24
  -4  -9 -11    2.49    1.24
  -4 -10  10   -0.08    0.99
  -4 -10   9   -0.26    1.34
  -4 -10   8    0.66    1.42
  -4 -10   7   -0.52    0.94
  -4 -10   6   -0.65    0.87
  -4 -10   5    0.47    1.05
  -4 -10   4    1.80    1.17
  -4 -10   3   13.41    2.38
  -4 -10   2   13.37    2.23
  -4 -10   1    8.70    2.10
  -4 -10   0    3.34    1.40
  -4 -10  -1    6.35    1.58
  -4 -10  -2   22.56    2.87
  -4 -10  -3   36.88    3.49
  -4 -10  -4   46.39    4.07
  -4 -10  -5   48.37    4.12
  -4 -10  -6   37.11    3.64
  -4 -10  -7   48.28    4.07
  -4 -10  -8   45.61    4.09
  -4 -10  -9   25.71    3.22
  -4 -10 -10   21.06    2.98
  -4 -10 -11   17.97    2.76
  -4 -11  10    4.25    1.57
  -4 -11   9    4.30    1.67
  -4 -11   8    5.57    1.72
  -4 -11   7    8.26    1.85
  -4 -11   6   12.28    2.29
  -4 -11   5    6.61    1.88
  -4 -11   4   -0.43    1.40
  -4 -11   3    1.00    1.25
  -4 -11   2    1.93    1.31
  -4 -11   1   -0.80    1.37
  -4 -11   0   -2.01    1.17
  -4 -11  -1    0.15    1.03
  -4 -11  -2    0.58    1.12
  -4 -11  -3    4.10    1.57
  -4 -11  -4    9.12    2.27
  -4 -11  -5    8.96    2.07
  -4 -11  -6   10.69    2.26
  -4 -11  -7   22.74    3.17
  -4 -11  -8   12.25    2.56
  -4 -11  -9   16.94    2.97
  -4 -11 -10   13.17    2.68
  -4 -12   8    8.78    2.11
  -4 -12   7    6.76    1.91
  -4 -12   6   13.11    2.77
  -4 -12   5    9.34    2.26
  -4 -12   4   14.30    2.82
  -4 -12   3    9.31    2.24
  -4 -12   2    6.07    1.85
  -4 -12   1    8.21    2.05
  -4 -12   0   11.52    2.69
  -4 -12  -1    8.06    2.05
  -4 -12  -2    2.72    1.77
  -4 -12  -3    2.82    1.44
  -4 -12  -4    2.44    1.43
  -4 -12  -5    4.73    2.28
  -4 -12  -6    3.20    1.57
  -4 -12  -7    4.32    2.08
  -4 -12  -8   -0.65    1.15
  -4 -13   5   16.27    3.03
  -4 -13   4   15.93    2.86
  -4 -13   3   19.18    3.11
  -4 -13   2   19.55    3.10
  -4 -13   1   25.63    3.45
  -4 -13   0   30.39    4.04
  -4 -13  -1   21.01    3.25
  -4 -13  -2   23.25    3.36
  -4 -13  -3   30.05    3.81
  -4 -13  -4   25.96    3.63
   5  -9  -4    8.81    2.04
   5  -9  -3    5.53    1.75
   5  -9  -2   14.10    2.64
   5  -8  -8    4.21    1.76
   5  -8  -7   11.06    2.44
   5  -8  -6   19.54    3.04
   5  -8  -5   16.81    2.72
   5  -8  -4   34.64    3.69
   5  -8  -3   41.61    4.01
   5  -8  -2   27.80    3.06
   5  -8  -1   24.34    2.86
   5  -7 -10    1.60    1.52
   5  -7  -9    3.71    1.71
   5  -7  -8    8.05    2.27
   5  -7  -7   14.92    2.69
   5  -7  -6   10.62    2.29
   5  -7  -5   19.61    2.79
   5  -7  -4   24.43    2.93
   5  -7  -3   30.66    3.16
   5  -7  -2   37.03    3.45
   5  -7  -1   33.01    3.18
   5  -6 -11   -0.80    1.66
   5  -6 -10   -2.21    1.36
   5  -6  -9   -0.12    1.48
   5  -6  -8    1.62    1.36
   5  -6  -7    0.29    1.46
   5  -6  -6    5.22    1.96
   5  -6  -5    8.02    1.99
   5  -6  -4    1.64    1.12
   5  -6  -3    1.07    0.95
   5  -6  -2    4.82    1.43
   5  -6  -1    2.62    1.02
   5  -6   0   19.73    2.29
   5  -5 -13    8.37    2.22
   5  -5 -12   12.82    2.69
   5  -5 -11    3.48    1.54
   5  -5 -10    7.96    1.99
   5  -5  -9    9.44    2.06
   5  -5  -8    9.30    1.99
   5  -5  -7    8.23    2.05
   5  -5  -6    6.73    1.67
   5  -5  -5    0.60    1.02
   5  -5  -4    0.28    1.18
   5  -5  -3    0.38    1.12
   5  -5  -2    3.79    1.38
   5  -5  -1    4.73    1.38
   5  -5   0    2.30    1.05
   5  -5   1    0.76    0.72
   5  -4 -14    8.39    2.27
   5  -4 -13    6.87    2.15
   5  -4 -12    7.05    2.12
   5  -4 -11   16.45    3.04
   5  -4 -10   30.75    3.63
   5  -4  -9   50.19    4.45
   5  -4  -8   53.41    4.46
   5  -4  -7   56.23    4.43
   5  -4  -6   58.44    4.46
   5  -4  -5   22.67    2.71
   5  -4  -4   54.90    4.02
   5  -4  -3   37.55    3.00
   5  -4  -2   14.90    1.86
   5  -4  -1    7.68    1.34
   5  -4   0    4.52    1.20
   5  -4   1    1.50    0.86
   5  -4   2   14.23    1.55
   5  -3 -15    2.10    1.52
   5  -3  -2   63.95    3.66
   5  -3  -1   80.66    4.03
   5  -3   0  127.80    4.69
   5  -3   1  103.97    3.86
   5  -3   2   89.98    3.46
   5  -2   2  100.18    3.50
   5  -2   3  131.83    3.52
  -5  -2   2  181.39    5.18
  -5  -2   1  233.91    5.74
  -5  -2   0  142.55    4.16
  -5  -2  -1  108.22    3.46
  -5  -2  -2  122.56    3.46
  -5  -2  -3   92.44    2.88
  -5  -2  -4   67.13    2.31
  -5  -2  -5   40.48    1.68
  -5  -3   6   22.10    2.25
  -5  -3   5   28.92    2.44
  -5  -3   4   76.72    3.58
  -5  -3   3  133.56    4.60
  -5  -3   2  113.76    4.12
  -5  -3   1   90.63    3.54
  -5  -3   0   94.10    3.38
  -5  -3  -1  296.61    5.92
  -5  -3  -2  147.03    4.01
  -5  -3  -3   89.58    2.98
  -5  -3  -4  126.13    3.44
  -5  -3  -5  153.21    3.69
  -5  -3  -6   81.93    2.74
  -5  -4   8    2.70    1.26
  -5  -4   7   -0.64    0.53
  -5  -4   6   10.37    1.56
  -5  -4   5   15.19    1.75
  -5  -4   4   29.07    2.30
  -5  -4   3   32.07    2.30
  -5  -4   2   11.65    1.41
  -5  -4   1    5.81    1.02
  -5  -4   0   54.95    2.71
  -5  -4  -1   14.21    1.48
  -5  -4  -2   31.16    2.06
  -5  -4  -3  186.03    4.92
  -5  -4  -4   91.30    3.33
  -5  -4  -5   70.27    2.90
  -5  -4  -6   67.73    2.79
  -5  -5  10   46.84    3.51
  -5  -5   9   25.55    2.63
  -5  -5   8   18.94    2.21
  -5  -5   7   40.35    3.00
  -5  -5   6   38.44    2.87
  -5  -5   5   25.88    2.31
  -5  -5   4   26.24    2.25
  -5  -5   3   15.51    1.70
  -5  -5   2   11.87    1.46
  -5  -5   1    5.23    1.15
  -5  -5   0    1.35    0.85
  -5  -5  -1    6.19    1.13
  -5  -5  -2    5.23    1.02
  -5  -5  -3    7.16    1.16
  -5  -5  -4   10.95    1.33
  -5  -5  -5   11.44    1.46
  -5  -5  -6    9.90    1.36
  -5  -5  -7    2.93    0.91
  -5  -6  11   46.62    3.82
  -5  -6  10   43.86    3.40
  -5  -6   9   51.08    3.65
  -5  -6   8   70.88    4.19
  -5  -6   7   60.43    3.79
  -5  -6   6   47.60    3.22
  -5  -6   5   66.98    3.76
  -5  -6   4  123.20    5.00
  -5  -6   3   90.27    4.21
  -5  -6   2   78.96    3.87
  -5  -6   1   63.90    3.53
  -5  -6   0   69.64    3.62
  -5  -6  -1   36.12    2.61
  -5  -6  -2   13.11    1.69
  -5  -6  -3   14.76    1.79
  -5  -6  -4    7.16    1.41
  -5  -6  -5    0.01    0.59
  -5  -6  -6    2.38    1.01
  -5  -6  -7   12.57    1.70
  -5  -6  -8    0.13    1.00
  -5  -7  12    3.16    1.33
  -5  -7  11   12.91    2.10
  -5  -7  10   30.37    3.03
  -5  -7   9   34.18    3.15
  -5  -7   8   34.87    3.06
  -5  -7   7   26.34    2.64
  -5  -7   6   32.63    2.85
  -5  -7   5   64.47    3.86
  -5  -7   4   69.94    3.97
  -5  -7   3   76.10    4.07
  -5  -7   2  127.74    5.38
  -5  -7   1   86.93    4.39
  -5  -7   0   91.79    4.47
  -5  -7  -1  112.09    4.85
  -5  -7  -2   70.96    3.94
  -5  -7  -3   45.06    3.22
  -5  -7  -4   77.80    4.01
  -5  -7  -5   54.32    3.48
  -5  -7  -6   43.71    3.11
  -5  -7  -7   44.11    3.26
  -5  -7  -8   20.38    2.32
  -5  -8  13   -0.51    0.99
  -5  -8  12    0.34    1.00
  -5  -8  11    0.87    1.10
  -5  -8  10    6.30    1.62
  -5  -8   9    2.41    1.16
  -5  -8   8    3.73    1.32
  -5  -8   7   20.81    2.47
  -5  -8   6   35.85    3.12
  -5  -8   5   50.90    3.65
  -5  -8   4   41.15    3.25
  -5  -8   3   35.86    3.13
  -5  -8   2   56.20    3.83
  -5  -8   1  121.75    5.59
  -5  -8   0  106.71    5.14
  -5  -8  -1   81.76    4.52
  -5  -8  -2   68.95    4.29
  -5  -8  -3   78.84    4.41
  -5  -8  -4   72.06    4.29
  -5  -8  -5   55.60    3.77
  -5  -8  -6   60.78    3.94
  -5  -8  -7   66.48    4.22
  -5  -8  -8   67.49    4.33
  -5  -8  -9   43.44    3.53
  -5  -9  12    6.60    2.03
  -5  -9  11    5.15    1.87
  -5  -9  10    0.70    1.45
  -5  -9   9    1.31    1.08
  -5  -9   8    0.78    1.04
  -5  -9   7    2.67    1.23
  -5  -9   6    2.42    1.15
  -5  -9   5    2.33    1.13
  -5  -9   4    0.91    0.97
  -5  -9   3   -0.48    1.17
  -5  -9   2    3.11    1.22
  -5  -9   1   17.10    2.44
  -5  -9   0   21.43    2.56
  -5  -9  -1   37.68    3.31
  -5  -9  -2   32.40    3.16
  -5  -9  -3   14.95    2.30
  -5  -9  -4   28.25    2.90
  -5  -9  -5   47.96    3.80
  -5  -9  -6   30.86    3.21
  -5  -9  -7   25.22    2.84
  -5  -9  -8   14.71    2.44
  -5  -9  -9   11.47    2.06
  -5 -10  12    4.92    1.75
  -5 -10  11   10.12    2.21
  -5 -10  10   11.89    2.27
  -5 -10   9   10.61    2.12
  -5 -10   8   20.57    2.89
  -5 -10   7   17.52    2.70
  -5 -10   6   21.60    2.79
  -5 -10   5   24.38    2.90
  -5 -10   4   42.23    3.97
  -5 -10   3   27.43    3.13
  -5 -10   2   10.53    2.18
  -5 -10   1    3.33    1.59
  -5 -10   0    2.35    1.25
  -5 -10  -1   -0.52    1.27
  -5 -10  -2    0.62    1.32
  -5 -10  -3    0.52    1.04
  -5 -10  -4    0.42    0.92
  -5 -10  -5    2.23    1.23
  -5 -10  -6    2.93    1.30
  -5 -10  -7    3.44    1.76
  -5 -10  -8    9.38    2.03
  -5 -10  -9    8.38    2.13
  -5 -10 -10    5.15    1.70
  -5 -11  10   14.63    2.81
  -5 -11   9   16.88    2.88
  -5 -11   8   17.89    2.88
  -5 -11   7   21.84    2.96
  -5 -11   6   25.61    3.12
  -5 -11   5   62.84    4.88
  -5 -11   4   27.70    3.39
  -5 -11   3   24.82    3.15
  -5 -11   2   27.64    3.29
  -5 -11   1   27.46    3.26
  -5 -11   0   25.12    3.11
  -5 -11  -1   18.37    2.72
  -5 -11  -2   18.66    2.80
  -5 -11  -3   10.81    2.39
  -5 -11  -4    2.60    1.63
  -5 -11  -5    3.54    1.71
  -5 -11  -6    4.94    1.97
  -5 -11  -7    2.16    1.42
  -5 -11  -8   -0.35    1.18
  -5 -11  -9    0.36    1.27
  -5 -11 -10   -1.00    1.18
  -5 -12   8    7.25    2.28
  -5 -12   7   12.12    2.39
  -5 -12   6   20.40    3.16
  -5 -12   5   26.48    3.49
  -5 -12   4   25.56    3.62
  -5 -12   3   35.52    4.04
  -5 -12   2   44.20    4.43
  -5 -12   1   32.39    3.78
  -5 -12   0   39.26    4.03
  -5 -12  -1   67.25    5.49
  -5 -12  -2   63.41    5.29
  -5 -12  -3   41.74    4.19
  -5 -12  -4   32.77    3.74
  -5 -12  -5   24.11    3.43
  -5 -12  -6   14.62    2.64
  -5 -12  -7    8.83    2.52
  -5 -12  -8   10.35    2.79
  -5 -13   5    2.12    1.65
  -5 -13   4    4.74    2.26
  -5 -13   3   11.79    2.56
  -5 -13   2   21.60    3.35
  -5 -13   0   45.99    4.64
  -5 -13  -1   39.52    4.52
  -5 -13  -2   10.99    2.57
  -5 -13  -3    7.95    2.31
  -5 -13  -4   16.14    3.03
  -5 -13  -5   14.85    2.79
   6  -8  -5    4.24    1.84
   6  -8  -4    7.29    2.20
   6  -8  -3   17.49    2.89
   6  -7  -8    1.23    1.86
   6  -7  -7   -0.27    1.08
   6  -7  -6   -0.06    1.11
   6  -7  -5    5.24    1.85
   6  -7  -4    0.82    1.23
   6  -7  -3   -0.73    1.28
   6  -7  -2    1.62    1.19
   6  -6 -10    3.70    2.04
   6  -6  -9   13.66    2.92
   6  -6  -8   18.03    2.99
   6  -6  -7   30.94    3.81
   6  -6  -6   35.56    3.92
   6  -6  -5   26.20    3.34
   6  -6  -4   15.16    2.40
   6  -6  -3   14.92    2.46
   6  -6  -2   16.07    2.32
   6  -6  -1   18.40    2.38
   6  -5 -11    0.89    1.42
   6  -5 -10    4.28    1.70
   6  -5  -9   14.79    2.66
   6  -5  -8   16.87    2.72
   6  -5  -7   35.87    3.78
   6  -5  -6   33.33    3.49
   6  -5  -5   39.97    3.70
   6  -5  -4   61.95    4.48
   6  -5  -3   65.33    4.38
   6  -5  -2   56.00    3.95
   6  -5  -1   52.41    3.72
   6  -4 -12    2.35    1.63
   6  -4 -11    1.47    1.98
   6  -4 -10    6.98    2.15
   6  -4  -9    7.79    2.21
   6  -4  -8   20.54    3.06
   6  -4  -7   20.94    2.99
   6  -4  -6   27.00    3.33
   6  -4  -5   21.72    2.97
   6  -4  -4   14.70    2.45
   6  -4  -3   29.06    2.81
   6  -4  -2   64.21    3.94
   6  -4  -1  134.93    5.49
   6  -4   0  167.90    5.89
   6  -3  -2   54.91    3.65
   6  -3  -1   43.80    3.21
   6  -3   0   28.10    2.38
   6  -3   1   31.25    2.34
  -6  -2  -2   23.01    1.74
  -6  -2  -3   46.68    2.27
  -6  -2  -4   76.91    2.73
  -6  -3   4    0.04    0.69
  -6  -3   3    1.78    1.05
  -6  -3   2    0.42    0.67
  -6  -3   1    2.00    0.94
  -6  -3   0    2.25    0.76
  -6  -3  -1   18.61    1.70
  -6  -3  -2   39.59    2.30
  -6  -3  -3   18.17    1.58
  -6  -3  -4   30.74    1.88
  -6  -4   7   28.26    2.78
  -6  -4   6   37.65    3.12
  -6  -4   5   47.86    3.28
  -6  -4   4   47.03    3.17
  -6  -4   3   55.53    3.27
  -6  -4   2   41.80    2.74
  -6  -4   1   48.81    2.84
  -6  -4   0   35.78    2.33
  -6  -4  -1    9.76    1.27
  -6  -4  -2   24.58    1.86
  -6  -4  -3    0.84    0.54
  -6  -4  -4    5.72    1.00
  -6  -4  -5   12.35    1.33
  -6  -5   9   49.43    3.74
  -6  -5   8   33.86    3.05
  -6  -5   7   53.69    3.61
  -6  -5   6   63.32    3.89
  -6  -5   5   74.92    4.05
  -6  -5   4   78.60    4.08
  -6  -5   3   92.83    4.24
  -6  -5   2   79.07    3.82
  -6  -5   1   85.23    3.86
  -6  -5   0   64.91    3.33
  -6  -5  -1  117.91    4.35
  -6  -5  -2  146.31    4.79
  -6  -5  -3   67.91    3.29
  -6  -5  -4   70.67    3.41
  -6  -5  -5   63.53    3.16
  -6  -5  -6   39.84    2.51
  -6  -6  10   11.62    2.15
  -6  -6   9    8.89    1.71
  -6  -6   8   10.43    1.95
  -6  -6   7   20.66    2.35
  -6  -6   6   37.21    3.16
  -6  -6   5   58.50    3.68
  -6  -6   4   75.34    4.12
  -6  -6   3   70.54    3.86
  -6  -6   2   36.86    2.82
  -6  -6   1   46.77    3.04
  -6  -6   0   87.63    4.09
  -6  -6  -1  105.33    4.46
  -6  -6  -2  118.19    4.81
  -6  -6  -3  164.77    5.56
  -6  -6  -4  109.93    4.56
  -6  -6  -5   62.13    3.40
  -6  -6  -6   36.12    2.62
  -6  -7  12    0.98    1.24
  -6  -7  11    1.98    1.47
  -6  -7  10    2.29    1.21
  -6  -7   9    1.68    1.11
  -6  -7   8   -0.56    1.18
  -6  -7   7    0.99    0.96
  -6  -7   6    4.75    1.49
  -6  -7   5    1.66    1.04
  -6  -7   4    8.06    1.55
  -6  -7   3   12.72    1.82
  -6  -7   2    3.64    1.18
  -6  -7   1   12.32    1.73
  -6  -7   0   59.00    3.77
  -6  -7  -1   78.13    4.24
  -6  -7  -2  104.32    4.77
  -6  -7  -3   97.27    4.64
  -6  -7  -4   63.99    3.77
  -6  -7  -5   58.97    3.63
  -6  -7  -6   68.00    3.99
  -6  -7  -7   76.48    4.24
  -6  -8  13   12.23    2.57
  -6  -8  12   11.44    2.29
  -6  -8  11    6.70    2.09
  -6  -8  10    6.43    1.72
  -6  -8   9    5.31    1.61
  -6  -8   8    2.79    1.51
  -6  -8   7    0.68    0.97
  -6  -8   6    0.89    0.94
  -6  -8   5    0.31    0.84
  -6  -8   4    4.99    1.36
  -6  -8   3   15.16    2.11
  -6  -8   2    8.15    1.61
  -6  -8   1    0.09    0.78
  -6  -8   0    6.81    1.55
  -6  -8  -1    0.23    1.09
  -6  -8  -2    2.54    1.28
  -6  -8  -3   19.30    2.30
  -6  -8  -4   16.65    2.24
  -6  -8  -5   23.05    2.52
  -6  -8  -6   56.45    3.93
  -6  -8  -7   23.26    2.53
  -6  -9  13    5.32    2.00
  -6  -9  12    7.11    2.18
  -6  -9  11   13.98    2.42
  -6  -9  10   32.48    3.64
  -6  -9   9   40.64    3.81
  -6  -9   8   31.57    3.26
  -6  -9   7   29.62    3.25
  -6  -9   6   17.47    2.48
  -6  -9   5   24.93    2.91
  -6  -9   4   36.98    3.35
  -6  -9   3   29.47    2.98
  -6  -9   2   42.47    3.75
  -6  -9   1   31.11    3.16
  -6  -9   0    7.08    1.65
  -6  -9  -1    5.55    1.55
  -6  -9  -2   13.69    2.29
  -6  -9  -3    9.76    1.87
  -6  -9  -5    6.91    1.80
  -6  -9  -6    0.03    1.32
  -6  -9  -7    1.70    1.34
  -6  -9  -8    3.69    1.47
  -6 -10  11   13.19    2.66
  -6 -10  10   18.34    2.99
  -6 -10   9   14.34    2.45
  -6 -10   8   20.38    3.00
  -6 -10   7   30.43    3.38
  -6 -10   6   42.07    3.95
  -6 -10   5   34.17    3.45
  -6 -10   4   46.35    3.91
  -6 -10   3   49.79    4.29
  -6 -10   2   39.47    3.85
  -6 -10   1   37.61    3.70
  -6 -10   0   55.45    4.44
  -6 -10  -1   64.31    4.68
  -6 -10  -2   39.03    3.64
  -6 -10  -3   44.72    3.86
  -6 -10  -4   37.34    3.76
  -6 -10  -5   19.77    2.77
  -6 -10  -6    6.63    1.70
  -6 -10  -7    7.08    1.96
  -6 -10  -8    7.54    1.81
  -6 -11  10    2.25    1.82
  -6 -11   9    4.69    1.71
  -6 -11   8    3.54    1.85
  -6 -11   7    3.74    1.67
  -6 -11   6    8.76    2.02
  -6 -11   5   21.06    3.06
  -6 -11   4   22.41    2.99
  -6 -11   3   17.13    2.72
  -6 -11   2   16.39    2.71
  -6 -11   1   21.15    2.96
  -6 -11   0   44.31    4.21
  -6 -11  -1   56.16    4.59
  -6 -11  -2   83.07    5.63
  -6 -11  -3   66.99    5.10
  -6 -11  -4   32.62    3.79
  -6 -11  -5   23.89    3.26
  -6 -11  -6   20.95    2.93
  -6 -11  -8   16.90    2.81
  -6 -11  -9   13.95    2.66
  -6 -12   8    1.01    1.36
  -6 -12   7    1.02    1.46
  -6 -12   6    0.53    1.67
  -6 -12   5    0.61    1.72
  -6 -12   4    0.59    1.32
  -6 -12   3    1.37    1.40
  -6 -12   2   15.14    3.01
  -6 -12   1   24.02    3.32
  -6 -12   0   22.96    3.30
  -6 -12  -1   30.26    3.67
  -6 -12  -2   30.21    3.79
  -6 -12  -3   20.09    3.32
  -6 -12  -4   17.98    3.19
  -6 -12  -5   18.95    3.10
  -6 -12  -6   21.23    3.30
  -6 -12  -7   15.78    2.78
  -6 -12  -8   17.82    2.88
  -6 -13   4    2.83    1.81
  -6 -13   3    0.93    1.57
  -6 -13   2    0.18    2.02
  -6 -13   1    1.61    1.63
  -6 -13   0   -0.38    1.83
  -6 -13  -1    0.47    1.45
  -6 -13  -2    0.68    1.33
  -6 -13  -3    3.55    1.65
  -6 -13  -4    3.83    2.16
   7  -7  -4   15.02    2.64
   7  -6  -7   13.48    2.65
   7  -6  -6   24.95    3.54
   7  -6  -5   34.45    3.83
   7  -6  -4   25.69    3.32
   7  -6  -3   19.94    2.64
   7  -5  -9    3.55    2.24
   7  -5  -8    9.94    2.53
   7  -5  -7   17.46    2.84
   7  -5  -6   24.50    3.32
   7  -5  -5    8.75    2.22
   7  -5  -4    2.35    1.33
   7  -5  -3   10.97    2.21
   7  -5  -2   27.19    3.03
   7  -4 -11    1.40    1.74
   7  -4 -10    2.19    1.66
   7  -4  -9    0.23    1.84
   7  -4  -8    0.71    1.86
   7  -4  -7    1.29    1.50
   7  -4  -6    0.28    1.66
   7  -4  -5   -0.63    1.08
   7  -4  -4    6.22    1.71
   7  -4  -3   19.53    2.65
   7  -4  -2   33.24    3.14
   7  -4  -1   48.90    3.59
   7  -3  -2    2.57    1.47
   7  -3  -1   -0.97    1.09
  -7  -3   1   51.69    3.13
  -7  -3   0   43.21    2.82
  -7  -3  -1   28.65    2.16
  -7  -3  -2   18.04    1.71
  -7  -3  -3   14.91    1.53
  -7  -4   5   71.29    4.14
  -7  -4   4  101.08    4.90
  -7  -4   3   79.87    4.04
  -7  -4   2   85.31    4.21
  -7  -4   1   56.37    3.32
  -7  -4   0   38.67    2.63
  -7  -4  -1   22.43    2.00
  -7  -4  -2   19.06    1.80
  -7  -4  -3   67.43    3.14
  -7  -4  -4  129.48    4.20
  -7  -5   7    4.00    1.46
  -7  -5   6    9.78    1.73
  -7  -5   5   37.68    3.12
  -7  -5   4   44.06    3.21
  -7  -5   3   55.51    3.59
  -7  -5   2   68.58    3.81
  -7  -5   1   43.78    2.96
  -7  -5   0   29.58    2.43
  -7  -5  -1   57.44    3.21
  -7  -5  -2  158.28    5.22
  -7  -5  -3  106.64    4.20
  -7  -5  -4   61.59    3.15
  -7  -6   9    2.54    1.30
  -7  -6   8    4.94    1.48
  -7  -6   7    3.24    1.29
  -7  -6   6    1.53    0.99
  -7  -6   5    1.40    0.97
  -7  -6   4    4.28    1.24
  -7  -6   3    1.38    0.88
  -7  -6   2    8.10    1.49
  -7  -6   1    5.67    1.25
  -7  -6   0    6.59    1.44
  -7  -6  -1   23.34    2.28
  -7  -6  -2   20.80    2.05
  -7  -6  -3    9.12    1.52
  -7  -6  -4   34.16    2.51
  -7  -6  -5   32.71    2.62
  -7  -7  11   16.66    2.76
  -7  -7  10   12.28    2.42
  -7  -7   9   33.55    3.47
  -7  -7   8   22.80    2.80
  -7  -7   7   20.21    2.54
  -7  -7   6   22.00    2.61
  -7  -7   5   14.33    2.11
  -7  -7   4    4.75    1.49
  -7  -7   3    2.74    1.26
  -7  -7   2    0.46    1.09
  -7  -7   1    3.10    1.29
  -7  -7   0    5.75    1.31
  -7  -7  -1    0.39    0.79
  -7  -7  -2   -0.29    0.68
  -7  -7  -3   -1.07    0.90
  -7  -7  -4    2.20    1.22
  -7  -7  -5    0.41    1.06
  -7  -8  12    3.10    1.56
  -7  -8  11    4.12    1.70
  -7  -8  10   17.58    2.90
  -7  -8   9   23.70    2.97
  -7  -8   8   36.02    3.54
  -7  -8   7   41.08    3.71
  -7  -8   6   44.93    3.78
  -7  -8   5   30.93    3.16
  -7  -8   4   23.35    2.64
  -7  -8   3   70.35    4.44
  -7  -8   2   57.64    3.93
  -7  -8   1   21.01    2.44
  -7  -8   0   16.81    2.26
  -7  -8  -1   11.52    2.04
  -7  -8  -2    7.59    1.63
  -7  -8  -3   22.95    2.65
  -7  -8  -4   31.37    3.04
  -7  -8  -5   18.33    2.43
  -7  -8  -6    6.16    1.70
  -7  -9  12    3.46    1.60
  -7  -9  11    5.24    2.02
  -7  -9  10    5.77    1.81
  -7  -9   9   15.33    2.56
  -7  -9   8   21.44    3.01
  -7  -9   7   21.55    2.95
  -7  -9   6   23.51    2.88
  -7  -9   5   31.98    3.24
  -7  -9   4   38.32    3.54
  -7  -9   3   54.62    4.10
  -7  -9   2   61.35    4.31
  -7  -9   1   57.59    4.14
  -7  -9   0   48.20    3.88
  -7  -9  -1   61.99    4.48
  -7  -9  -2   67.85    4.59
  -7  -9  -3   62.08    4.32
  -7  -9  -4   51.18    4.00
  -7  -9  -5   33.27    3.31
  -7  -9  -6   21.12    2.69
  -7 -10  11   -1.04    1.60
  -7 -10  10    1.02    1.80
  -7 -10   9    1.35    1.31
  -7 -10   8   -0.19    1.15
  -7 -10   7    1.59    1.60
  -7 -10   6    4.13    1.83
  -7 -10   5    8.28    1.95
  -7 -10   4   16.51    2.53
  -7 -10   3   20.66    2.78
  -7 -10   2   21.85    2.94
  -7 -10   1   28.38    3.37
  -7 -10   0   30.83    3.43
  -7 -10  -1   42.74    4.00
  -7 -10  -2   31.32    3.36
  -7 -10  -3   34.53    3.53
  -7 -10  -4   52.52    4.29
  -7 -10  -5   44.06    3.91
  -7 -10  -6   31.64    3.46
  -7 -10  -7   20.00    2.86
  -7 -11   9    4.94    1.83
  -7 -11   8    1.35    1.88
  -7 -11   7    1.27    1.64
  -7 -11   6    0.64    1.21
  -7 -11   5    1.05    1.21
  -7 -11   4    0.17    1.11
  -7 -11   3    2.00    1.71
  -7 -11   2    2.60    1.73
  -7 -11   1    2.34    1.43
  -7 -11   0    5.71    2.16
  -7 -11  -1    9.86    2.18
  -7 -11  -2   17.63    2.75
  -7 -11  -3   18.04    2.79
  -7 -11  -4   18.31    2.78
  -7 -11  -5   10.09    2.16
  -7 -11  -6   17.90    2.95
  -7 -11  -7   31.84    3.78
  -7 -12   7   14.58    2.71
  -7 -12   6    8.19    2.21
  -7 -12   5    0.81    1.36
  -7 -12   4    0.68    1.33
  -7 -12   3    2.85    1.48
  -7 -12   2    6.22    2.27
  -7 -12   1    2.91    1.66
  -7 -12   0    7.93    2.44
  -7 -12  -1    4.40    2.22
  -7 -12  -2   -0.07    1.23
  -7 -12  -3    1.50    1.61
  -7 -12  -4   -0.91    1.58
  -7 -12  -5    0.24    1.27
  -7 -12  -6    0.52    1.78
  -7 -12  -7    2.67    1.57
  -7 -13   1   22.48    3.69
  -7 -13   0   13.33    2.89
  -7 -13  -1    8.24    2.27
  -7 -13  -2    9.74    2.43
  -7 -13  -3    6.96    2.28
   8  -5  -7    2.91    1.70
   8  -5  -6    1.54    1.73
   8  -5  -5    0.44    1.66
   8  -5  -4    0.53    1.17
   8  -4  -9   12.45    2.83
   8  -4  -8    5.63    2.09
   8  -4  -7    2.47    1.74
   8  -4  -6    2.02    2.06
   8  -4  -5    8.82    2.39
   8  -4  -4   11.69    2.37
   8  -4  -3   14.64    2.51
   8  -3  -3   36.55    3.62
   8  -3  -2   43.36    3.86
  -8  -4   3    7.56    1.52
  -8  -4   2    4.94    1.39
  -8  -4   1   23.31    2.43
  -8  -4   0   80.31    3.96
  -8  -4  -1  120.35    4.85
  -8  -4  -2  124.47    4.78
  -8  -5   6   13.41    2.20
  -8  -5   5   18.38    2.50
  -8  -5   4    4.93    1.32
  -8  -5   3   -0.70    0.68
  -8  -5   2    1.64    0.91
  -8  -5   1    0.47    0.96
  -8  -5   0    1.07    1.02
  -8  -5  -1    7.36    1.36
  -8  -5  -2    0.42    0.68
  -8  -5  -3   10.02    1.53
  -8  -6   8   23.60    2.98
  -8  -6   7   47.64    3.92
  -8  -6   6   36.30    3.26
  -8  -6   5   32.99    3.23
  -8  -6   4   22.88    2.58
  -8  -6   3   23.04    2.65
  -8  -6   2   31.90    2.87
  -8  -6   1   48.73    3.43
  -8  -6   0   44.89    3.21
  -8  -6  -1   32.78    2.75
  -8  -6  -2    2.55    1.14
  -8  -6  -3    1.49    0.98
  -8  -6  -4    1.54    0.95
  -8  -7   9   14.04    2.56
  -8  -7   8   22.56    2.88
  -8  -7   7   18.02    2.57
  -8  -7   6   16.92    2.43
  -8  -7   5   28.14    3.11
  -8  -7   4   48.59    3.77
  -8  -7   3   31.91    3.00
  -8  -7   2   64.55    4.15
  -8  -7   1   80.70    4.50
  -8  -7   0   65.36    4.06
  -8  -7  -1   39.08    3.16
  -8  -7  -2   44.73    3.23
  -8  -7  -3   40.55    3.04
  -8  -7  -4   24.52    2.47
  -8  -8  11    2.90    1.86
  -8  -8  10    3.24    1.80
  -8  -8   9    8.69    2.16
  -8  -8   8    8.57    2.05
  -8  -8   7   10.77    2.29
  -8  -8   6   10.89    2.09
  -8  -8   5    8.79    1.88
  -8  -8   4   10.97    1.98
  -8  -8   3   27.63    3.04
  -8  -8   2   36.26    3.27
  -8  -8   1   54.51    4.01
  -8  -8   0   55.43    3.89
  -8  -8  -1   51.20    3.78
  -8  -8  -2   64.33    4.16
  -8  -8  -3   52.68    3.74
  -8  -8  -4   67.32    4.22
  -8  -8  -5   42.85    3.51
  -8  -9  11    0.86    1.33
  -8  -9  10   -1.09    0.98
  -8  -9   8   -0.17    1.10
  -8  -9   7   -1.09    0.94
  -8  -9   6   -0.04    0.98
  -8  -9   5   -0.86    1.27
  -8  -9   4    1.24    1.41
  -8  -9   3   14.30    2.27
  -8  -9   2   23.55    2.85
  -8  -9   1   24.61    2.83
  -8  -9   0   12.00    2.18
  -8  -9  -1    4.52    1.46
  -8  -9  -2   12.19    2.16
  -8  -9  -4   38.39    3.62
  -8  -9  -5   42.93    3.74
  -8 -10  10    4.93    1.86
  -8 -10   9    6.06    1.90
  -8 -10   8    9.79    2.17
  -8 -10   7    4.74    1.71
  -8 -10   6    3.28    1.49
  -8 -10   5    4.42    1.86
  -8 -10   4    0.67    1.37
  -8 -10   3    0.43    1.17
  -8 -10   2    4.78    1.75
  -8 -10   1    1.31    1.15
  -8 -10   0   -0.98    1.25
  -8 -10  -1   -0.55    0.83
  -8 -10  -2    1.09    1.08
  -8 -10  -3   -0.52    0.97
  -8 -10  -4   -0.35    1.51
  -8 -10  -5    2.60    1.68
  -8 -11   8   18.09    3.26
  -8 -11   7   17.04    2.88
  -8 -11   6   14.16    2.57
  -8 -11   5   13.72    2.51
  -8 -11   4   12.27    2.60
  -8 -11   3    8.64    2.06
  -8 -11   2    9.16    2.08
  -8 -11   1   14.33    2.54
  -8 -11   0   16.58    2.79
  -8 -11  -1   10.63    2.51
  -8 -11  -2    5.37    2.11
  -8 -11  -3    0.68    1.69
  -8 -11  -5    2.88    1.47
  -8 -11  -6    2.40    1.74
  -8 -12   4   20.56    3.13
  -8 -12   3   23.31    3.31
  -8 -12   2   35.35    4.01
  -8 -12   1   35.33    4.13
  -8 -12   0   21.78    3.24
  -8 -12  -1   24.76    3.45
  -8 -12  -2   25.81    3.62
  -8 -12  -3   15.69    3.16
  -8 -12  -4   15.69    2.99
  -8 -12  -5    8.08    2.18
  -8 -12  -6    6.81    2.27
   9  -4  -5   16.16    2.80
   9  -3  -6    8.46    2.24
   9  -3  -5   14.73    2.96
   9  -3  -4   17.93    3.05
  -9  -5   3   39.30    3.36
  -9  -5   2   58.62    4.05
  -9  -5   1   45.35    3.44
  -9  -5   0   58.77    3.77
  -9  -5  -1   32.07    2.79
  -9  -6   6   29.13    3.15
  -9  -6   5   38.35    3.54
  -9  -6   4   31.40    3.05
  -9  -6   3   46.54    3.64
  -9  -6   2   45.14    3.57
  -9  -6   1   51.08    3.65
  -9  -6   0   95.38    4.89
  -9  -6  -1  109.39    5.17
  -9  -6  -2   60.10    3.81
  -9  -7   8    1.37    1.21
  -9  -7   7    4.59    1.56
  -9  -7   6    6.14    1.85
  -9  -7   5   12.00    2.14
  -9  -7   4    9.50    2.05
  -9  -7   3   14.80    2.35
  -9  -7   2   36.76    3.43
  -9  -7   1   46.53    3.70
  -9  -7   0   63.01    4.13
  -9  -7  -1   52.77    3.72
  -9  -7  -2   28.58    2.81
  -9  -8   9    1.24    1.67
  -9  -8   8    0.55    1.11
  -9  -8   7    2.42    1.73
  -9  -8   6    2.27    1.29
  -9  -8   5    3.29    1.62
  -9  -8   4   -0.38    1.01
  -9  -8   3    2.15    1.24
  -9  -8   2    5.53    1.73
  -9  -8   1    8.56    1.89
  -9  -8   0   14.73    2.25
  -9  -8  -2   16.34    2.31
  -9  -8  -3   24.47    2.83
  -9  -9   9    8.87    2.18
  -9  -9   8   11.92    2.64
  -9  -9   7    7.99    2.02
  -9  -9   6    5.97    1.81
  -9  -9   5    7.82    1.93
  -9  -9   4   12.98    2.29
  -9  -9   3   27.86    3.14
  -9  -9   2   11.97    2.27
  -9  -9   1    1.38    1.38
  -9  -9   0    4.85    1.62
  -9  -9  -1    1.17    1.32
  -9  -9  -2    1.39    1.35
  -9  -9  -3   -0.20    1.19
  -9  -9  -4    0.24    0.87
  -9 -10   8   12.29    2.76
  -9 -10   7   15.93    2.81
  -9 -10   6   20.09    3.04
  -9 -10   5   30.15    3.61
  -9 -10   4   26.61    3.24
  -9 -10   3   20.14    2.87
  -9 -10   2   37.68    3.84
  -9 -10   1   40.62    3.93
  -9 -10   0   26.98    3.18
  -9 -10  -1   18.92    2.67
  -9 -10  -2    9.50    1.96
  -9 -10  -3    9.27    2.18
  -9 -10  -4    7.12    1.77
  -9 -11   5   12.62    2.46
  -9 -11   4   24.13    3.46
  -9 -11   3   19.57    3.00
  -9 -11   2   30.36    3.63
  -9 -11   1   32.41    3.65
  -9 -11   0   36.44    4.02
  -9 -11  -1   34.24    3.81
  -9 -11  -2   21.50    3.02
  -9 -11  -3   23.00    3.07
  -9 -11  -4   29.22    3.63
  -9 -12   2   11.56    2.56
  -9 -12   1   18.15    2.99
  -9 -12   0   16.87    2.83
  -9 -12  -1   13.04    2.62
  -9 -12  -2   10.52    2.32
  -9 -12  -3   21.28    3.44
 -10  -6   3    7.54    1.72
 -10  -6   2   11.28    2.13
 -10  -6   1    6.96    1.65
 -10  -6   0    6.60    1.67
 -10  -7   6    1.93    1.62
 -10  -7   5    0.92    1.48
 -10  -7   4    0.73    1.35
 -10  -7   3    0.58    1.43
 -10  -7   2    1.23    1.10
 -10  -7   1   -0.66    0.81
 -10  -7   0   -0.10    1.15
 -10  -7  -1    1.02    1.27
 -10  -8   8   16.84    2.99
 -10  -8   7    9.31    2.41
 -10  -8   6    8.47    2.01
 -10  -8   5   12.21    2.31
 -10  -8   4   15.53    2.54
 -10  -8   3   11.64    2.17
 -10  -8   2   14.79    2.32
 -10  -8   1   17.70    2.54
 -10  -8   0    8.75    1.98
 -10  -8  -1    7.63    1.71
 -10  -9   7   23.35    3.46
 -10  -9   6   21.26    3.24
 -10  -9   5   12.81    2.42
 -10  -9   4   23.67    3.12
 -10  -9   3   40.47    3.97
 -10  -9   2   35.37    3.68
 -10  -9   1   31.21    3.35
 -10  -9   0   28.93    3.18
 -10  -9  -1   37.01    3.64
 -10  -9  -2   28.67    3.09
 -10 -10   6    3.09    1.66
 -10 -10   5    8.33    2.19
 -10 -10   4   20.97    3.27
 -10 -10   3   22.76    3.22
 -10 -10   2   22.89    3.26
 -10 -10   1   31.19    3.63
 -10 -10   0   33.15    3.67
 -10 -10  -1   30.23    3.39
 -10 -10  -2   30.68    3.52
 -10 -11   3    1.11    1.37
 -10 -11   2    4.79    2.07
 -10 -11   1   14.29    2.77
 -10 -11   0   12.64    2.40
 -10 -11  -1   11.79    2.43
 -10 -11  -2   10.17    2.50
 -10 -11  -3    8.64    2.04
 -11  -7   3   16.05    2.71
 -11  -7   2   10.20    2.06
 -11  -7   1   19.08    2.63
 -11  -8   6    9.15    2.28
 -11  -8   5   18.80    3.01
 -11  -8   4   19.47    3.02
 -11  -8   3   12.32    2.26
 -11  -8   2   19.04    2.92
 -11  -8   1   20.74    2.96
 -11  -8   0   17.43    2.69
 -11  -9   4    5.69    2.20
 -11  -9   3    8.63    2.32
 -11  -9   2   13.07    2.39
 -11  -9   1   18.66    2.95
 -11  -9   0   20.92    2.90
 -11 -10   2    0.60    1.85
 -11 -10   1    1.48    1.75
 -11 -10   0    2.05    1.37
 -11 -10  -1    0.80    1.59
   0   0   2  174.96    2.80
   0  -1   9   10.66    1.59
   0  -1   8    4.93    1.19
   0  -1   7    1.06    0.66
   0  -1   6    3.15    0.91
   0  -1   5   29.09    1.78
   0  -1   4    1.66    0.67
   0  -1   3  175.53    3.30
   0  -1   2  287.12    3.85
   0  -1   1  214.81    2.88
   0  -2  12   18.37    2.45
   0  -2  11   31.69    2.83
   0  -2  10   18.46    2.11
   0  -2   9   13.63    1.77
   0  -2   8   12.03    1.55
   0  -2   7   60.52    2.99
   0  -2   6   45.66    2.40
   0  -2   5   77.57    2.80
   0  -2   4   86.76    2.73
   0  -2   3   10.76    0.95
   0  -2   2    0.44    0.55
   0  -3  13   22.74    2.82
   0  -3  12   37.01    3.29
   0  -3  11   40.68    3.20
   0  -3  10   34.12    2.83
   0  -3   9   27.33    2.35
   0  -3   8   36.01    2.59
   0  -3   7   38.70    2.41
   0  -3   6   66.28    3.01
   0  -3   5  336.19    6.42
   0  -3   4  202.35    4.67
   0  -3   2   85.08    2.72
   0  -4  15    8.42    2.09
   0  -4  14   15.00    2.45
   0  -4  13   15.76    2.46
   0  -4  12   29.95    2.97
   0  -4  11   49.88    3.70
   0  -4  10   43.75    3.21
   0  -4   9   28.19    2.49
   0  -4   8   33.39    2.53
   0  -4   7   67.71    3.37
   0  -4   6  103.19    4.00
   0  -4   5   77.65    3.33
   0  -4   4  103.43    3.62
   0  -4   3  211.08    5.04
   0  -5  16    2.71    1.89
   0  -5  15    0.09    1.25
   0  -5  14   -0.15    0.95
   0  -5  13    2.88    1.28
   0  -5  12    9.53    2.04
   0  -5  11    1.76    1.29
   0  -5  10    6.86    1.46
   0  -5   9   32.64    2.76
   0  -5   8   27.68    2.43
   0  -5   7   25.83    2.33
   0  -5   6   59.15    3.24
   0  -5   5   90.09    3.82
   0  -5   4  120.68    4.36
   0  -5   3  204.23    5.51
   0  -6  16    2.69    1.66
   0  -6  15    1.05    1.24
   0  -6  14    0.70    1.57
   0  -6  13    0.97    1.58
   0  -6  12    1.17    1.39
   0  -6  11    0.69    1.18
   0  -6  10    0.88    0.91
   0  -6   9    1.10    1.12
   0  -6   8    0.63    0.80
   0  -6   7    3.94    1.30
   0  -6   6   12.94    1.80
   0  -6   5    1.15    0.74
   0  -6   4    1.89    0.85
   0  -6   3   14.59    1.77
   0  -7  15    5.96    1.95
   0  -7  14   11.31    2.74
   0  -7  13    6.62    2.06
   0  -7  12    9.91    2.14
   0  -7  11   10.76    2.11
   0  -7  10   11.95    2.04
   0  -7   8   13.89    2.03
   0  -7   7    4.71    1.30
   0  -7   6    0.62    0.85
   0  -7   5   13.82    1.86
   0  -7   4    2.26    1.12
   0  -7   3    1.70    0.85
   0  -8  14    6.12    2.00
   0  -8  13   17.63    3.01
   0  -8  12   17.66    2.81
   0  -8  11    9.34    2.01
   0  -8  10   13.42    2.25
   0  -8   9    7.48    1.74
   0  -8   8   17.63    2.54
   0  -8   7   30.79    3.00
   0  -8   6   81.19    4.60
   0  -8   5   61.39    3.98
   0  -8   4   32.54    2.96
   0  -8   3   40.74    3.23
   0  -9  13    6.75    2.30
   0  -9  12    7.84    2.23
   0  -9  11   12.24    2.49
   0  -9  10   21.37    2.96
   0  -9   9   27.04    3.22
   0  -9   8   31.24    3.27
   0  -9   7   32.50    3.36
   0  -9   6   33.93    3.23
   0  -9   5   40.93    3.51
   0  -9   3   71.55    4.56
   0 -10  11    6.62    2.25
   0 -10  10    4.65    2.01
   0 -10   9    2.69    1.46
   0 -10   8    8.35    2.31
   0 -10   7    8.91    1.93
   0 -10   6   13.15    2.38
   0 -10   5   19.69    2.76
   0 -10   4   33.14    3.45
   0 -10   3   32.63    3.43
   0 -10   2   33.61    3.36
   0 -11   8    1.24    1.87
   0 -11   7    0.82    1.67
   0 -11   6    0.12    1.05
   0 -11   5   -0.46    1.46
   0 -11   4    3.77    1.93
   0 -11   3    4.34    1.52
   0 -11   2   12.92    2.43
   0 -12   5    6.73    2.16
   0 -12   4    1.09    1.71
   0 -12   3    0.71    1.15
   0 -12   2    0.66    1.31
   0 -12   1   -0.37    1.03
   1 -12   1   10.69    2.71
   1 -12   2    9.59    2.72
   1 -11   2   20.75    2.97
   1 -11   3   20.75    2.94
   1 -11   4   37.09    4.03
   1 -11   5   24.33    3.38
   1 -11   6   11.46    2.35
   1 -11   7   12.71    2.51
   1 -10   2   21.30    2.71
   1 -10   3   31.05    3.50
   1 -10   4   27.48    3.23
   1 -10   5   23.87    3.14
   1 -10   6   32.01    3.47
   1 -10   7   38.89    4.02
   1 -10   8   33.19    3.67
   1 -10   9   16.75    2.72
   1 -10  10   12.41    2.90
   1  -9   3    2.61    1.24
   1  -9   4   11.31    1.96
   1  -9   5   20.75    2.64
   1  -9   6   23.44    2.85
   1  -9   7   13.66    2.48
   1  -9   8   12.17    2.28
   1  -9   9   15.12    2.71
   1  -9  10   11.77    2.33
   1  -9  11   14.45    2.60
   1  -9  12   11.25    2.39
   1  -8   3    5.80    1.43
   1  -8   4   10.96    1.97
   1  -8   5   14.22    2.11
   1  -8   6    0.67    0.96
   1  -8   7   -0.05    0.86
   1  -8   8    0.54    1.03
   1  -8   9    1.83    1.53
   1  -8  10    2.71    1.41
   1  -8  11    5.10    2.02
   1  -8  12    4.10    1.93
   1  -8  13    4.72    2.07
   1  -7   3   56.77    3.71
   1  -7   4   87.27    4.57
   1  -7   5   45.03    3.37
   1  -7   6   10.90    1.82
   1  -7   7   15.69    2.17
   1  -7   8    5.95    1.75
   1  -7   9    3.14    1.30
   1  -7  10    1.52    1.13
   1  -7  11    0.44    1.00
   1  -7  12   -1.17    1.38
   1  -7  13   -0.70    1.49
   1  -7  14    1.16    1.40
   1  -7  15   -0.61    1.30
   1  -6   3  126.48    5.06
   1  -6   4   90.69    4.34
   1  -6   5   34.90    2.87
   1  -6   6   92.15    4.60
   1  -6   7  102.94    4.97
   1  -6   8   52.84    3.74
   1  -6   9   15.59    2.27
   1  -6  10   21.24    2.68
   1  -6  11   19.75    2.53
   1  -6  12   11.62    2.13
   1  -6  13   11.31    2.19
   1  -6  14    9.70    2.26
   1  -6  15    3.38    1.95
   1  -6  16   -0.56    1.20
   1  -5   3   62.61    3.27
   1  -5   4   31.85    2.52
   1  -5   5   97.94    4.24
   1  -5   6   86.92    4.16
   1  -5   7   50.69    3.30
   1  -5   8  114.77    5.07
   1  -5   9   92.61    4.78
   1  -5  10   45.42    3.41
   1  -5  11   18.94    2.42
   1  -5  12   23.24    2.82
   1  -5  13   28.37    3.27
   1  -5  14   20.58    2.93
   1  -5  15   16.95    2.88
   1  -5  16    7.53    2.47
   1  -4   3    0.23    0.53
   1  -4   4    1.28    0.69
   1  -4   5   12.04    1.54
   1  -4   6   56.85    3.21
   1  -4   7   71.08    3.70
   1  -4   8   40.87    2.91
   1  -4   9   31.16    2.76
   1  -4  10   33.54    2.92
   1  -4  11   28.68    2.87
   1  -4  12   23.17    2.77
   1  -4  13    6.98    1.76
   1  -4  14    6.78    2.00
   1  -4  15    6.76    2.02
   1  -4  16    7.60    2.10
   1  -3   3  169.61    4.49
   1  -3   4   74.70    3.06
   1  -3   5    0.32    0.52
   1  -3   6    5.29    1.02
   1  -3   7    0.21    0.81
   1  -3   8    0.81    0.75
   1  -3   9    0.45    0.71
   1  -3  10    0.55    1.07
   1  -3  11    3.45    1.50
   1  -3  12   11.88    2.00
   1  -3  13   14.88    2.43
   1  -3  14   15.62    2.51
   1  -3  15    9.87    2.22
   1  -2   2  326.15    5.49
   1  -2   3  221.70    4.61
   1  -2   4   89.21    3.06
   1  -2   5    3.26    0.91
   1  -2   6   27.44    2.03
   1  -2   7   31.48    2.20
   1  -2   8   26.24    2.19
   1  -2   9   25.32    2.33
   1  -2  10   14.10    1.88
   1  -2  11    3.08    1.11
   1  -2  12    0.09    1.23
   1  -2  13   -0.75    0.89
   1  -1   2  539.61    6.37
   1  -1   3  100.10    2.74
   1  -1   4  131.71    3.45
   1  -1   5  280.24    5.49
   1  -1   6  140.87    4.25
   1  -1   7   97.53    3.85
   1  -1   8  166.31    5.37
   1  -1   9   81.24    3.96
   1  -1  10   51.83    3.43
   1  -1  11   23.99    2.53
   1   0   1  267.04    3.27
   1   0   2    8.37    0.73
   1   0   3   16.47    1.09
   1   0   4   21.46    1.45
   1   0   5  114.93    3.51
   1   0   6  130.96    4.06
   1   0   7  224.22    5.87
   1   0   8  136.06    4.89
  -1  -1   4   39.13    1.81
  -1  -1   3  170.29    3.18
  -1  -1   2   62.53    1.53
  -1  -2   9   95.05    4.34
  -1  -2   8   86.48    3.75
  -1  -2   7   91.83    3.58
  -1  -2   6  202.73    4.88
  -1  -2   5  234.66    4.88
  -1  -2   4  160.17    3.55
  -1  -2   3  106.96    2.52
  -1  -2   2  198.51    3.12
  -1  -2   1    2.06    0.40
  -1  -3  11   28.97    2.76
  -1  -3  10   29.34    2.57
  -1  -3   9   75.47    3.77
  -1  -3   8  124.97    4.64
  -1  -3   7  157.23    4.72
  -1  -3   6   93.77    3.38
  -1  -3   5  154.44    3.95
  -1  -3   4  255.38    4.79
  -1  -3   3  137.96    3.24
  -1  -3   2  250.20    4.23
  -1  -4  13    0.96    1.02
  -1  -4  12    0.04    1.39
  -1  -4  11    1.76    1.00
  -1  -4  10    4.07    1.35
  -1  -4   9    2.24    1.08
  -1  -4   8    7.05    1.31
  -1  -4   7   19.13    1.78
  -1  -4   6   47.44    2.60
  -1  -4   5  191.92    4.79
  -1  -4   4  270.78    5.49
  -1  -4   3  235.17    4.90
  -1  -4   2  160.29    3.83
  -1  -5  15   10.12    2.53
  -1  -5  14    5.75    1.96
  -1  -5  13    7.19    1.76
  -1  -5  12   10.06    2.03
  -1  -5  11    8.02    1.64
  -1  -5  10   12.79    1.96
  -1  -5   9   -0.07    0.61
  -1  -5   8    0.61    0.67
  -1  -5   7   -0.42    0.75
  -1  -5   6    4.61    0.98
  -1  -5   5    0.15    0.52
  -1  -5   4   14.29    1.47
  -1  -5   3    0.98    0.57
  -1  -6  16   10.16    2.63
  -1  -6  15   14.16    2.55
  -1  -6  14   16.43    2.74
  -1  -6  13   22.85    2.82
  -1  -6  12   19.16    2.72
  -1  -6  11   20.09    2.50
  -1  -6  10   39.22    3.17
  -1  -6   9   50.12    3.40
  -1  -6   8   30.54    2.60
  -1  -6   7   32.54    2.62
  -1  -6   6   49.46    3.04
  -1  -6   5   25.84    2.19
  -1  -6   4   38.21    2.54
  -1  -6   3   48.30    2.68
  -1  -7  15    7.81    2.13
  -1  -7  14   14.07    2.75
  -1  -7  13   14.69    2.50
  -1  -7  12   18.67    2.58
  -1  -7  11   25.81    2.87
  -1  -7  10   17.73    2.37
  -1  -7   9   38.37    3.25
  -1  -7   8   63.18    3.88
  -1  -7   7   81.76    4.22
  -1  -7   6   42.83    3.01
  -1  -7   5   62.37    3.54
  -1  -7   4   99.14    4.38
  -1  -7   3   72.43    3.64
  -1  -8  14    1.07    1.35
  -1  -8  13    1.78    1.33
  -1  -8  12    3.42    1.44
  -1  -8  11   10.96    2.04
  -1  -8  10   28.75    3.07
  -1  -8   9   38.36    3.34
  -1  -8   8   38.68    3.32
  -1  -8   7   39.67    3.31
  -1  -8   6   65.61    4.03
  -1  -8   5   93.38    4.68
  -1  -8   4   37.57    3.04
  -1  -8   3   43.94    3.10
  -1  -9  13   -0.25    1.16
  -1  -9  12    0.67    1.15
  -1  -9  11    0.31    1.01
  -1  -9  10    2.91    1.57
  -1  -9   9    3.16    1.28
  -1  -9   8    2.26    1.15
  -1  -9   7    2.82    1.21
  -1  -9   6   15.93    2.27
  -1  -9   5    8.15    1.64
  -1  -9   4   23.68    2.67
  -1  -9   3   66.92    4.19
  -1 -10  10    2.64    1.73
  -1 -10   9    0.77    1.43
  -1 -10   8    1.59    1.14
  -1 -10   7    1.43    1.41
  -1 -10   6    2.96    1.55
  -1 -10   5    2.10    1.12
  -1 -10   4   -0.23    1.20
  -1 -10   3    1.19    1.25
  -1 -10   2    5.18    1.35
  -1 -11   6   10.54    2.29
  -1 -11   5   12.83    2.38
  -1 -11   4    7.28    1.76
  -1 -11   3    2.57    1.24
  -1 -11   2    0.11    0.94
  -1 -12   1   12.81    2.28
   2 -11   1    9.65    2.21
   2 -11   2   12.33    2.46
   2 -11   3    7.85    2.24
   2 -11   4   12.31    2.77
   2 -11   5   22.95    3.40
   2 -10   2    0.81    1.21
   2 -10   3    2.64    1.28
   2 -10   4    4.90    1.67
   2 -10   5    3.49    1.88
   2 -10   6    3.23    1.85
   2 -10   7    5.40    1.81
   2 -10   8    7.72    2.09
   2 -10   9    7.88    2.18
   2  -9   2   10.23    2.01
   2  -9   3    9.01    2.12
   2  -9   4   11.01    2.08
   2  -9   5    9.18    2.16
   2  -9   6    2.19    1.22
   2  -9   7   -0.06    1.55
   2  -9   8   -0.04    1.10
   2  -9   9    1.55    1.34
   2  -9  10   -1.56    1.54
   2  -9  11   -0.33    1.67
   2  -8   3   92.96    5.22
   2  -8   4   56.65    4.11
   2  -8   5   39.89    3.58
   2  -8   6   17.97    2.50
   2  -8   7   11.43    2.11
   2  -8   8   12.33    2.41
   2  -8   9   16.24    2.54
   2  -8  10    8.30    1.98
   2  -8  11    3.34    1.92
   2  -8  12    0.82    1.66
   2  -8  13    0.47    1.79
   2  -7   3   48.69    3.63
   2  -7   4   49.69    3.65
   2  -7   5   62.82    4.18
   2  -7   6   49.64    3.91
   2  -7   7   33.43    3.38
   2  -7   8   36.30    3.58
   2  -7   9   38.31    3.60
   2  -7  10   27.09    3.26
   2  -7  11   18.26    2.70
   2  -7  12    9.98    2.17
   2  -7  13    6.09    1.87
   2  -7  14    5.42    1.99
   2  -6   3   49.52    3.37
   2  -6   4   38.69    3.03
   2  -6   5    2.53    1.08
   2  -6   6   22.42    2.47
   2  -6   7  118.94    5.61
   2  -6   8   73.51    4.56
   2  -6   9   61.68    4.31
   2  -6  10   37.83    3.51
   2  -6  11   31.20    3.26
   2  -6  12   19.16    2.70
   2  -6  13   20.95    3.03
   2  -6  14   18.11    2.92
   2  -6  15   14.38    2.98
   2  -5   3    1.14    0.78
   2  -5   4   -0.23    0.56
   2  -5   5    2.26    0.97
   2  -5   6    9.38    1.59
   2  -5   7    5.12    1.46
   2  -5   8   18.14    2.26
   2  -5   9   39.72    3.28
   2  -5  10   23.19    2.84
   2  -5  11   14.42    2.21
   2  -5  12    9.77    1.97
   2  -5  13    7.66    1.93
   2  -5  14    4.34    1.98
   2  -5  15    6.94    2.10
   2  -5  16    6.12    2.32
   2  -4   3   72.32    3.51
   2  -4   4   59.17    3.30
   2  -4   5   27.30    2.34
   2  -4   6    1.36    0.79
   2  -4   7    0.62    0.77
   2  -4   8    2.52    1.24
   2  -4   9    6.21    1.54
   2  -4  10    2.01    1.07
   2  -4  11    5.09    1.64
   2  -4  12    0.49    1.29
   2  -4  13    1.09    1.56
   2  -4  14    4.97    1.71
   2  -4  15    5.83    2.02
   2  -4  16    3.32    1.81
   2  -3   3  319.05    6.66
   2  -3   4  153.95    4.79
   2  -3   5  100.37    3.99
   2  -3   6   73.89    3.57
   2  -3   7   46.64    2.94
   2  -3   8   39.43    2.92
   2  -3   9   26.64    2.43
   2  -3  10   20.79    2.34
   2  -3  11    3.47    1.27
   2  -3  12    1.73    1.20
   2  -3  13   -0.14    1.35
   2  -3  14    3.40    1.39
   2  -3  15    5.02    1.74
   2  -3  16    1.08    1.72
   2  -2   3  268.76    5.63
   2  -2   4  261.55    5.75
   2  -2   5   85.81    3.49
   2  -2   6  125.40    4.36
   2  -2   8  102.81    4.32
   2  -2   9   87.08    4.28
   2  -2  10   64.74    3.98
   2  -2  11   30.25    3.04
   2  -2  12   29.72    2.98
   2  -2  13   18.45    2.69
   2  -2  14    6.63    2.05
   2  -2  15   10.03    2.51
   2  -1   2   48.47    2.00
   2  -1   3   58.68    2.31
   2  -1   4  106.16    3.32
   2  -1   5   73.92    2.97
   2  -1   6  180.12    4.89
   2  -1   7   84.90    3.66
   2  -1   8   84.07    3.92
   2  -1   9  108.29    4.81
   2  -1  10   69.52    3.98
   2  -1  11   44.63    3.48
   2  -1  12   22.71    2.68
   2  -1  13   27.15    3.14
   2   0   1    5.62    0.59
   2   0   2   35.26    1.48
   2   0   3    4.40    0.67
   2   0   4   25.81    1.54
   2   0   5    0.16    0.47
   2   0   6   35.48    2.23
   2   0   7   44.63    2.70
   2   0   8   36.29    2.62
   2   0   9   11.72    1.71
   2   0  10    1.00    0.87
   2   0  11   -0.18    1.22
   2   1   1   23.77    0.88
   2   1   2  274.24    3.92
   2   1   3  108.53    2.79
   2   1   4  170.26    3.98
   2   1   5   84.00    3.11
   2   1   6   82.26    3.35
   2   1   7   27.72    2.22
  -2  -2   4  189.18    3.87
  -2  -2   3  215.88    3.50
  -2  -2   2  118.24    2.07
  -2  -3   9    0.29    0.67
  -2  -3   8    0.33    0.58
  -2  -3   7    2.80    0.88
  -2  -3   6   35.30    2.05
  -2  -3   5   17.44    1.34
  -2  -3   4   51.37    1.97
  -2  -3   3   63.20    1.91
  -2  -3   2  125.93    2.43
  -2  -3   1   44.43    1.31
  -2  -4  11   27.32    2.75
  -2  -4  10   19.20    2.23
  -2  -4   9    8.77    1.48
  -2  -4   8    0.24    0.63
  -2  -4   7   -0.34    0.68
  -2  -4   6   21.60    1.65
  -2  -4   5    7.50    1.00
  -2  -4   4    6.36    0.86
  -2  -4   3    1.97    0.57
  -2  -4   2    2.36    0.57
  -2  -5  13   18.15    2.67
  -2  -5  12   17.52    2.32
  -2  -5  11   36.62    3.13
  -2  -5  10   34.51    2.79
  -2  -5   9   45.20    3.05
  -2  -5   8  101.57    4.19
  -2  -5   7  124.63    4.33
  -2  -5   6   81.33    3.38
  -2  -5   5   76.04    3.05
  -2  -5   4  131.75    3.81
  -2  -5   3   42.77    2.12
  -2  -5   2   33.41    1.84
  -2  -6  14    6.49    1.74
  -2  -6  13   11.66    2.26
  -2  -6  12    6.07    1.68
  -2  -6  11   11.98    2.07
  -2  -6  10   51.22    3.54
  -2  -6   9   73.41    3.95
  -2  -6   8   78.30    3.82
  -2  -6   7  113.85    4.46
  -2  -6   6  115.09    4.21
  -2  -6   5  147.94    4.67
  -2  -6   4  110.67    3.87
  -2  -6   3   79.37    3.25
  -2  -6   2  135.13    4.05
  -2  -7  14   -1.83    1.44
  -2  -7  13    1.15    1.11
  -2  -7  12   -0.47    1.26
  -2  -7  11    3.84    1.54
  -2  -7  10    4.08    1.25
  -2  -7   9    5.48    1.44
  -2  -7   8   50.56    3.33
  -2  -7   7   66.92    3.64
  -2  -7   6   34.63    2.60
  -2  -7   5   27.22    2.25
  -2  -7   4   49.89    2.86
  -2  -7   3   59.97    3.10
  -2  -7   2  127.76    4.43
  -2  -8  12   -0.23    0.96
  -2  -8  11   -0.38    0.88
  -2  -8  10   -0.37    1.09
  -2  -8   9   -0.62    1.04
  -2  -8   8   -0.14    0.99
  -2  -8   7   -0.15    0.94
  -2  -8   6   -0.76    0.85
  -2  -8   5    8.20    1.37
  -2  -8   4    6.62    1.27
  -2  -8   3    1.48    0.96
  -2  -8   2   33.86    2.58
  -2  -9   8    8.64    1.93
  -2  -9   7   13.21    1.94
  -2  -9   6    9.04    1.79
  -2  -9   5    2.27    1.16
  -2  -9   4    6.85    1.49
  -2  -9   3    0.21    0.93
  -2  -9   2    0.79    0.71
  -2 -10   4   32.42    3.03
  -2 -10   3   18.58    2.37
  -2 -10   2   25.31    2.71
   3 -10   2   15.59    2.70
   3 -10   3   16.42    2.72
   3 -10   4    8.31    2.09
   3 -10   5    8.32    2.18
   3 -10   6    5.21    1.86
   3 -10   7    1.01    1.39
   3  -9   2   47.51    4.12
   3  -9   3   58.47    4.78
   3  -9   5   34.79    3.69
   3  -9   6   25.65    3.24
   3  -9   7   13.49    2.89
   3  -9   8   12.98    2.74
   3  -9   9    9.28    2.58
   3  -8   3   45.94    3.94
   3  -8   4   50.13    4.13
   3  -8   5   51.19    4.30
   3  -8   6   25.54    3.06
   3  -8   7   20.31    3.05
   3  -8   8   28.40    3.38
   3  -8   9   24.87    3.25
   3  -8  10   21.57    3.14
   3  -8  11   11.60    2.49
   3  -7   3    2.38    1.18
   3  -7   4    3.28    1.23
   3  -7   5   15.39    2.31
   3  -7   6   14.32    2.24
   3  -7   7   11.06    2.11
   3  -7   8   15.61    2.66
   3  -7   9   20.52    2.80
   3  -7  10   20.89    2.92
   3  -7  11   22.05    3.22
   3  -7  12   25.55    3.48
   3  -7  13   11.92    2.52
   3  -6   3   -0.02    0.76
   3  -6   4    0.01    0.72
   3  -6   5    0.45    0.87
   3  -6   6    4.70    1.40
   3  -6   7    2.44    1.22
   3  -6   8    4.87    1.54
   3  -6   9    6.58    1.93
   3  -6  10    6.58    1.74
   3  -6  11    3.14    1.43
   3  -6  12    1.45    1.28
   3  -6  13    4.69    1.75
   3  -6  14    5.60    1.93
   3  -5   3   72.69    4.06
   3  -5   4   42.21    3.15
   3  -5   5   60.74    3.86
   3  -5   6   56.47    3.81
   3  -5   7   12.35    1.91
   3  -5   8    7.46    1.64
   3  -5   9    5.64    1.50
   3  -5  10   11.62    2.06
   3  -5  11    4.36    1.79
   3  -5  12    2.01    1.62
   3  -5  13   -0.15    1.54
   3  -5  14    0.04    1.16
   3  -5  15    1.57    1.58
   3  -4   3   95.87    4.34
   3  -4   4  135.71    5.25
   3  -4   5  186.60    6.25
   3  -4   6   82.53    4.28
   3  -4   7  144.31    5.82
   3  -4   8  151.07    6.08
   3  -4   9   78.30    4.55
   3  -4  10   23.14    2.76
   3  -4  11    5.03    1.50
   3  -4  12    4.17    1.50
   3  -4  13    3.33    1.71
   3  -4  14    1.29    1.33
   3  -4  15    1.61    1.40
   3  -4  16   -0.84    1.16
   3  -3   3  100.70    4.02
   3  -3   4  120.18    4.58
   3  -3   5   79.96    3.85
   3  -3   6   54.55    3.27
   3  -3   7   42.28    2.98
   3  -3   8   28.35    2.55
   3  -3   9   57.89    3.77
   3  -3  10   88.67    4.78
   3  -3  11   88.01    5.04
   3  -3  12   37.61    3.57
   3  -3  13   19.71    2.91
   3  -3  14   20.91    2.91
   3  -3  15    8.61    2.08
   3  -3  16    8.49    2.50
   3  -2   2   23.58    1.77
   3  -2   3   23.40    1.84
   3  -2   4   42.09    2.53
   3  -2   5   19.07    1.78
   3  -2   6    3.88    0.96
   3  -2   7   26.22    2.22
   3  -2   8   50.10    3.26
   3  -2   9   54.16    3.48
   3  -2  10   43.76    3.42
   3  -2  11   27.50    2.94
   3  -2  12   26.16    2.98
   3  -2  13   45.46    3.91
   3  -2  14   25.59    3.19
   3  -2  15   18.56    2.91
   3  -2  16   10.34    2.50
   3  -1   2   15.65    1.37
   3  -1   3   81.47    3.01
   3  -1   4   30.84    2.01
   3  -1   5   16.55    1.55
   3  -1   6    2.78    0.83
   3  -1   7    0.83    0.68
   3  -1   8    0.00    0.62
   3  -1   9   -0.07    0.96
   3  -1  10    2.79    1.33
   3  -1  11    3.93    1.29
   3  -1  12    8.20    1.76
   3  -1  13   13.57    2.33
   3  -1  14    6.60    1.80
   3   0   1  152.79    3.35
   3   0   2   86.71    2.66
   3   0   3   64.97    2.45
   3   0   4  175.03    4.33
   3   0   5  253.61    5.64
   3   0   6  122.77    4.14
   3   0   7  153.12    4.99
   3   0   8   82.27    3.98
   3   0   9   32.06    2.65
   3   0  10   12.29    1.82
   3   0  12    1.28    1.07
   3   1   1   75.11    1.94
   3   1   2  257.83    4.12
   3   1   3  221.78    4.23
   3   1   4  170.71    4.11
   3   1   5  136.76    4.03
   3   1   6  148.94    4.67
   3   1   7  118.19    4.38
   3   1   8   66.71    3.59
   3   1   9   63.61    3.70
   3   1  10   63.38    4.12
   3   2   1   57.47    1.45
   3   2   2  326.43    4.51
   3   2   3   46.24    1.93
   3   2   4    6.64    0.89
   3   2   5   45.04    2.45
  -3  -4   8   36.45    2.57
  -3  -4   7   64.24    2.99
  -3  -4   6  145.88    4.04
  -3  -4   5  185.46    4.21
  -3  -4   4   82.39    2.47
  -3  -4   3   66.30    1.90
  -3  -4   2    2.43    0.45
  -3  -4   1   10.05    0.71
  -3  -5  10   29.32    2.59
  -3  -5   9   34.70    2.66
  -3  -5   8   50.07    2.86
  -3  -5   7   83.12    3.52
  -3  -5   6  174.76    4.63
  -3  -5   5  125.27    3.55
  -3  -5   4  124.92    3.30
  -3  -5   3  190.11    3.88
  -3  -5   2   83.50    2.46
  -3  -6  12    0.13    1.24
  -3  -6  11    0.87    0.94
  -3  -6  10    1.98    1.10
  -3  -6   9   17.95    2.05
  -3  -6   8   12.04    1.53
  -3  -6   7   24.74    2.04
  -3  -6   6   37.98    2.29
  -3  -6   5   13.16    1.40
  -3  -6   4   39.44    2.13
  -3  -6   3   99.18    3.17
  -3  -6   2   73.74    2.68
  -3  -7   9    8.53    1.58
  -3  -7   8    2.33    0.90
  -3  -7   7    0.01    0.75
  -3  -7   6    2.09    0.88
  -3  -7   5    3.97    0.97
  -3  -7   4    1.40    0.70
  -3  -7   2    2.58    0.84
  -3  -8   5   10.09    1.47
  -3  -8   4    0.30    0.70
  -3  -8   3    3.12    1.00
  -3  -8   2    5.70    1.17
   4 -10   1   15.74    2.75
   4 -10   2   11.31    2.94
   4  -9   2    7.60    2.01
   4  -9   3   12.25    2.34
   4  -9   4   11.34    2.36
   4  -9   5   14.49    2.67
   4  -9   6   25.85    3.42
   4  -9   7   25.02    3.65
   4  -8   2    1.70    1.44
   4  -8   3   -0.12    1.36
   4  -8   4    3.15    1.49
   4  -8   5    9.24    2.08
   4  -8   6    4.34    1.92
   4  -8   7   -1.00    1.59
   4  -8   8   -0.61    1.52
   4  -8   9    0.45    1.80
   4  -8  10    2.51    2.16
   4  -7   2   16.60    2.45
   4  -7   3   10.63    2.22
   4  -7   4    5.00    1.53
   4  -7   5    2.58    1.27
   4  -7   6    1.94    1.59
   4  -7   7    0.49    1.09
   4  -7   8   -0.24    1.09
   4  -7   9   -0.12    1.52
   4  -7  10    0.43    1.58
   4  -7  11    1.16    1.80
   4  -7  12    0.24    1.81
   4  -6   3   35.52    3.30
   4  -6   4   37.88    3.42
   4  -6   5   41.41    3.58
   4  -6   6   21.08    2.67
   4  -6   7   16.75    2.61
   4  -6   8   12.67    2.21
   4  -6   9    8.51    2.12
   4  -6  10    4.91    1.65
   4  -6  11    9.56    2.16
   4  -6  12    4.54    1.66
   4  -6  13    0.43    1.82
   4  -5   3   91.30    4.85
   4  -5   5   42.76    3.45
   4  -5   6  128.98    5.95
   4  -5   7   87.56    5.04
   4  -5   8   43.79    3.72
   4  -5   9   24.80    3.05
   4  -5  10   18.78    2.63
   4  -5  11   16.91    2.59
   4  -5  12   13.79    2.42
   4  -5  13   12.22    2.39
   4  -5  14   13.77    2.96
   4  -4   3  126.80    5.30
   4  -4   4  154.01    5.97
   4  -4   5  160.01    6.22
   4  -4   6   28.91    2.76
   4  -4   7    0.56    1.16
   4  -4   8   14.21    2.31
   4  -4   9   17.85    2.35
   4  -4  10   18.80    2.66
   4  -4  11   16.80    2.45
   4  -4  12   16.53    2.55
   4  -4  13   11.88    2.56
   4  -4  15   11.91    2.62
   4  -3   2    1.13    0.73
   4  -3   3    1.84    1.05
   4  -3   4    0.12    0.64
   4  -3   5    5.33    1.37
   4  -3   6    2.28    1.27
   4  -3   7   23.98    2.45
   4  -3   8   23.82    2.48
   4  -3   9   12.90    1.96
   4  -3  10   13.45    2.06
   4  -3  11    8.15    1.80
   4  -3  12    7.95    1.86
   4  -3  13    7.99    2.01
   4  -3  14   11.33    2.69
   4  -3  15    5.69    1.91
   4  -3  16    3.26    1.70
   4  -2   2  115.74    4.22
   4  -2   3   43.30    2.69
   4  -2   4   15.36    1.66
   4  -2   5    6.02    1.17
   4  -2   6    1.68    0.85
   4  -2   7    2.25    1.09
   4  -2   8    2.35    1.19
   4  -2   9   -0.20    0.70
   4  -2  10   -0.44    1.14
   4  -2  11    3.63    1.57
   4  -2  12    2.34    1.56
   4  -2  13    1.22    1.17
   4  -2  14    0.92    1.59
   4  -2  15    0.72    1.70
   4  -2  16    0.78    1.44
   4  -1   2  237.23    5.49
   4  -1   3  230.68    5.62
   4  -1   4  154.11    4.70
   4  -1   5  118.76    4.31
   4  -1   6   81.24    3.67
   4  -1   7   47.43    3.04
   4  -1   8   31.07    2.59
   4  -1   9   28.43    2.59
   4  -1  10   23.78    2.52
   4  -1  11   26.28    2.87
   4  -1  12   12.16    2.29
   4  -1  13    1.30    1.14
   4  -1  14    0.81    1.27
   4  -1  15    1.30    1.40
   4   0   1  271.94    5.17
   4   0   2  418.31    6.74
   4   0   3  403.35    6.84
   4   0   4  378.45    6.97
   4   0   5  267.61    6.08
   4   0   6   69.19    3.23
   4   0   7   43.26    2.82
   4   0   8   86.11    4.13
   4   0   9   74.02    4.11
   4   0  10   74.82    4.45
   4   0  11   45.51    3.57
   4   0  12   22.23    2.74
   4   0  13   13.65    2.30
   4   0  14   10.30    2.21
   4   1   1  174.27    3.52
   4   1   2   77.80    2.47
   4   1   3   19.00    1.39
   4   1   4   13.89    1.36
   4   1   5   25.03    1.86
   4   1   6   31.86    2.26
   4   1   7  150.79    5.22
   4   1   8  100.97    4.55
   4   1   9   39.52    2.99
   4   1  10   54.71    3.75
   4   1  11   58.86    4.10
   4   2   0   24.67    0.97
   4   2   1   22.46    1.04
   4   2   2    2.70    0.58
   4   2   3    2.09    0.59
   4   2   4    0.54    0.63
   4   2   5    0.60    0.66
   4   2   6   -0.14    0.77
   4   2   7   11.35    1.53
   4   2   8   46.40    3.18
  -4  -5   6    0.28    0.56
  -4  -5   5   21.69    1.48
  -4  -5   4   24.95    1.35
  -4  -5   3    8.06    0.72
  -4  -5   2   19.51    0.92
  -4  -5   1   57.12    1.46
  -4  -6   3    4.35    0.67
  -4  -6   2    1.48    0.48
  -4  -6   1   -0.01    0.45
   5  -9   1   14.92    2.99
   5  -9   2    8.21    2.21
   5  -9   3    2.73    1.91
   5  -9   4    1.02    1.42
   5  -8   2   36.09    4.06
   5  -8   3   29.16    3.49
   5  -8   4   39.28    4.11
   5  -8   5   25.43    3.40
   5  -8   6    8.50    2.19
   5  -8   7    8.37    2.20
   5  -8   8    5.19    1.90
   5  -7   2   31.48    3.48
   5  -7   3   39.51    3.94
   5  -7   4   39.48    4.01
   5  -7   5   27.62    3.31
   5  -7   6   30.68    3.55
   5  -7   7   35.65    3.89
   5  -7   8   30.70    3.83
   5  -7   9   23.44    3.47
   5  -7  10   12.29    2.79
   5  -6   2    9.65    1.91
   5  -6   3   10.36    1.97
   5  -6   4   31.37    3.41
   5  -6   5   50.98    4.22
   5  -6   6   55.56    4.53
   5  -6   7   46.16    4.13
   5  -6   8   32.29    3.55
   5  -6   9   25.20    3.43
   5  -6  10   20.12    3.21
   5  -6  11   23.80    3.49
   5  -6  12   19.49    3.03
   5  -5   2    3.47    1.25
   5  -5   3   20.79    2.49
   5  -5   4   13.81    2.16
   5  -5   5    1.36    1.36
   5  -5   6   12.47    2.26
   5  -5   7   19.57    2.61
   5  -5   8   10.98    2.34
   5  -5   9   17.00    2.63
   5  -5  10   16.71    2.62
   5  -5  11   14.22    2.54
   5  -5  12   11.44    2.36
   5  -5  13   11.76    2.49
   5  -4   2   11.96    1.82
   5  -4   3   37.35    3.08
   5  -4   4   45.54    3.48
   5  -4   5   35.82    3.13
   5  -4   6    2.43    1.18
   5  -4   7    7.62    1.68
   5  -4   8    0.19    0.88
   5  -4   9    0.37    0.98
   5  -4  10    0.53    1.40
   5  -4  11    3.26    1.73
   5  -4  12    4.51    1.89
   5  -4  13    2.50    1.56
   5  -4  14    4.34    1.87
   5  -3   2   92.39    4.50
   5  -3   3   62.95    3.77
   5  -3   4   45.26    3.28
   5  -3   5   13.52    1.99
   5  -3   6   27.97    2.67
   5  -3   7   47.81    3.57
   5  -3   8   14.35    2.09
   5  -3   9    8.59    1.87
   5  -3  10    1.20    1.33
   5  -3  11    2.91    1.31
   5  -3  12    3.46    1.78
   5  -3  13    1.01    1.63
   5  -3  15   -1.43    1.08
   5  -2   2  100.30    4.33
   5  -2   3  115.59    4.70
   5  -2   4  114.03    4.70
   5  -2   5   80.54    4.06
   5  -2   6   76.92    4.16
   5  -2   7   18.86    2.16
   5  -2   8   18.80    2.23
   5  -2   9   47.47    3.64
   5  -2  10   50.96    3.83
   5  -2  11   29.68    3.22
   5  -2  12   21.15    2.89
   5  -2  13   18.56    2.83
   5  -2  14    9.68    2.46
   5  -2  15    2.66    1.83
   5  -2  16    1.86    1.82
   5  -1   2   73.79    3.29
   5  -1   3  152.93    4.94
   5  -1   4  101.59    4.11
   5  -1   5   59.14    3.26
   5  -1   6   63.75    3.48
   5  -1   7   45.48    3.08
   5  -1   8   56.15    3.51
   5  -1   9   51.61    3.62
   5  -1  10   39.85    3.39
   5  -1  11   45.04    3.78
   5  -1  12   61.08    4.58
   5  -1  13   26.05    3.29
   5  -1  14   15.79    2.77
   5  -1  15   15.24    2.95
   5  -1  16    9.35    2.64
   5   0   1   20.68    1.64
   5   0   2    0.91    0.67
   5   0   3    3.34    0.85
   5   0   4    5.43    1.09
   5   0   5   13.39    1.52
   5   0   6   21.39    1.98
   5   0   7    2.60    0.96
   5   0   8    8.62    1.59
   5   0   9   30.46    2.80
   5   0  10   23.53    2.69
   5   0  11   15.97    2.29
   5   0  12    9.73    2.13
   5   0  13    3.80    1.81
   5   0  14    7.16    2.19
   5   0  15    7.22    2.07
   5   1   1  100.00    3.04
   5   1   2   21.12    1.48
   5   1   3    5.70    0.90
   5   1   4   24.53    1.78
   5   1   5   14.73    1.54
   5   1   6    4.37    0.93
   5   1   7    0.41    0.88
   5   1   8    2.37    1.16
   5   1   9    0.25    0.75
   5   1  10    0.31    1.17
   5   1  11   -0.09    1.30
   5   1  12    3.40    1.60
   5   1  13    5.13    1.71
   5   2   0  145.32    2.96
   5   2   1  111.27    2.72
   5   2   2  131.27    3.20
   5   2   3   95.63    2.98
   5   2   4   67.30    2.79
   5   2   5   41.12    2.41
   5   2   6   48.06    2.87
   5   2   7   12.90    1.68
   5   2   8    6.07    1.29
   5   2   9    6.00    1.53
   5   2  10   15.07    2.28
   5   3   1  321.39    4.22
   5   3   2  157.78    3.32
   5   3   3  100.89    3.08
   5   3   4  128.80    3.88
   5   3   5  173.08    4.95
   6  -8   1   42.81    4.45
   6  -8   2   48.83    4.96
   6  -8   3   35.68    4.24
   6  -8   4   24.35    3.44
   6  -7   1    3.55    1.86
   6  -7   2   10.78    2.54
   6  -7   3   18.81    3.00
   6  -7   4   34.44    4.01
   6  -7   5   27.45    3.67
   6  -7   6   15.02    2.84
   6  -7   7   12.85    2.85
   6  -7   8   14.96    2.81
   6  -6   2   -1.74    1.28
   6  -6   3    0.04    1.05
   6  -6   4    0.37    1.10
   6  -6   5    1.40    1.60
   6  -6   6    1.86    1.61
   6  -6   7    9.71    2.18
   6  -6   8    6.04    1.98
   6  -6   9   11.45    2.42
   6  -6  10    8.85    2.57
   6  -5   2   19.16    2.60
   6  -5   3   12.49    2.16
   6  -5   4   28.06    3.25
   6  -5   5   27.30    3.11
   6  -5   6   11.11    2.28
   6  -5   7    3.64    1.42
   6  -5   8   -0.33    1.11
   6  -5   9    0.07    1.13
   6  -5  10    0.38    1.15
   6  -5  11    0.17    1.32
   6  -5  12   -0.73    1.76
   6  -4   2  119.49    5.84
   6  -4   3   78.00    4.70
   6  -4   4   49.00    3.84
   6  -4   5   71.41    4.61
   6  -4   6   52.53    4.07
   6  -4   7   32.28    3.39
   6  -4   8   18.91    2.61
   6  -4   9    7.21    1.78
   6  -4  10    4.40    1.54
   6  -4  11    1.16    1.23
   6  -4  12    3.50    1.62
   6  -4  13    3.51    2.00
   6  -3   2   45.51    3.44
   6  -3   3   62.00    4.02
   6  -3   4  107.88    5.27
   6  -3   5   86.06    4.75
   6  -3   6   34.41    3.14
   6  -3   7   76.50    4.72
   6  -3   8   62.80    4.44
   6  -3   9   40.01    3.62
   6  -3  10   27.44    3.12
   6  -3  11   25.49    3.07
   6  -3  12   17.92    2.88
   6  -3  13    7.23    2.30
   6  -3  14    5.58    1.96
   6  -2   2    7.75    1.55
   6  -2   3    7.58    1.58
   6  -2   4   23.85    2.44
   6  -2   5   23.01    2.40
   6  -2   6   54.77    3.78
   6  -2   7   72.76    4.40
   6  -2   8   24.78    2.66
   6  -2   9   53.26    4.07
   6  -2  10   51.48    4.02
   6  -2  11   39.39    3.73
   6  -2  12   20.01    2.86
   6  -2  13   22.15    3.26
   6  -2  14   13.86    2.65
   6  -2  15   10.27    2.63
   6  -1   1   32.75    2.49
   6  -1   2    3.98    1.09
   6  -1   3    1.16    0.88
   6  -1   4    1.10    0.86
   6  -1   5    0.74    0.94
   6  -1   6    1.79    0.89
   6  -1   7    0.70    0.81
   6  -1   8   10.92    1.94
   6  -1   9   15.37    2.10
   6  -1  10   12.76    2.03
   6  -1  11   13.13    2.42
   6  -1  12   10.10    2.32
   6  -1  13    8.48    2.34
   6  -1  14    5.44    1.77
   6  -1  15    4.98    1.92
   6   0   1   67.49    3.21
   6   0   2   98.16    3.84
   6   0   3   98.91    3.87
   6   0   4   67.04    3.35
   6   0   5   28.93    2.33
   6   0   6   19.69    1.99
   6   0   7   18.20    1.97
   6   0   8   15.74    2.05
   6   0   9   10.43    1.91
   6   0  10    3.42    1.54
   6   0  11   -0.14    0.97
   6   0  12    1.95    1.22
   6   0  13   -0.12    1.36
   6   0  14    1.76    1.79
   6   0  15    0.83    1.70
   6   1   0   86.37    3.10
   6   1   1  113.06    3.63
   6   1   2  105.91    3.54
   6   1   3   92.03    3.48
   6   1   4  131.83    4.33
   6   1   5  106.26    4.10
   6   1   6   87.37    3.86
   6   1   7   67.45    3.69
   6   1   8   41.90    3.11
   6   1   9   19.37    2.41
   6   1  10   10.08    2.01
   6   1  11    6.72    1.58
   6   1  12   15.49    2.45
   6   1  13    9.55    2.07
   6   2   0   75.54    2.49
   6   2   1   44.42    1.95
   6   2   2   22.14    1.49
   6   2   3   53.72    2.49
   6   2   4   86.10    3.27
   6   2   5   89.73    3.67
   6   2   6  162.23    5.28
   6   2   7  125.52    5.07
   6   2   8   31.75    2.74
   6   2   9   53.41    3.72
   6   2  10   50.70    3.77
   6   2  11   36.32    3.47
   6   3   3   20.13    1.53
   6   3   4   35.04    2.16
   6   3   5   36.17    2.34
   6   3   6   47.94    2.98
   6   3   7   61.93    3.55
   6   3   8   93.07    4.69
   7  -7   0   11.08    2.49
   7  -7   1    4.82    2.22
   7  -7   2    1.34    1.59
   7  -7   3    3.51    1.72
   7  -7   4    0.22    1.72
   7  -6   1   29.83    3.75
   7  -6   2   23.42    3.41
   7  -6   3   19.34    3.04
   7  -6   4   11.64    2.49
   7  -6   5    7.97    2.08
   7  -6   6   11.94    2.41
   7  -6   7    4.67    1.85
   7  -6   8    3.49    1.83
   7  -5   1   54.09    4.49
   7  -5   2   42.99    4.01
   7  -5   3   32.85    3.62
   7  -5   4   31.35    3.62
   7  -5   5   41.63    4.16
   7  -5   6   32.44    3.63
   7  -5   7   26.01    3.36
   7  -5   8   29.03    3.54
   7  -5   9   13.61    2.62
   7  -5  10   10.87    2.62
   7  -4   1   26.10    3.15
   7  -4   2   35.74    3.44
   7  -4   3   17.25    2.69
   7  -4   4   13.97    2.30
   7  -4   5   18.27    2.73
   7  -4   6   28.77    3.26
   7  -4   7   26.72    3.38
   7  -4   8   30.33    3.53
   7  -4   9   25.18    3.37
   7  -4  10   31.89    3.79
   7  -4  11   18.55    2.92
   7  -3   1    1.04    1.24
   7  -3   2   -0.51    1.11
   7  -3   3    2.81    1.49
   7  -3   4    8.74    1.93
   7  -3   5   14.92    2.30
   7  -3   6    6.14    1.64
   7  -3   7   10.05    2.22
   7  -3   8   23.81    2.92
   7  -3   9   11.53    2.17
   7  -3  10    8.55    2.02
   7  -3  11    7.55    2.17
   7  -3  12   13.33    2.66
   7  -2   1   40.37    3.26
   7  -2   2   16.41    2.08
   7  -2   3    3.39    1.34
   7  -2   4    1.14    0.94
   7  -2   5    1.24    0.96
   7  -2   6    1.49    1.08
   7  -2   7    0.37    1.24
   7  -2   8    0.74    1.06
   7  -2   9   -1.22    0.83
   7  -2  10    4.84    1.60
   7  -2  11    3.17    1.42
   7  -2  12    4.37    1.87
   7  -2  13    2.79    1.62
   7  -1   1  109.20    4.88
   7  -1   2   82.88    4.23
   7  -1   3   58.16    3.62
   7  -1   4   37.05    2.93
   7  -1   5   38.50    3.00
   7  -1   6   21.76    2.34
   7  -1   7   22.12    2.52
   7  -1   8   44.55    3.53
   7  -1   9   15.82    2.22
   7  -1  10    9.34    1.90
   7  -1  11    1.64    1.28
   7  -1  12    0.80    1.56
   7  -1  13   -0.61    1.60
   7  -1  14    0.23    1.35
   7   0   0  101.80    4.17
   7   0   1   70.92    3.51
   7   0   2   69.71    3.55
   7   0   3   92.61    4.08
   7   0   4  103.42    4.44
   7   0   5  117.54    4.87
   7   0   6   89.27    4.36
   7   0   7  105.38    4.91
   7   0   8   65.16    4.02
   7   0   9   31.15    3.07
   7   0  10   25.22    2.82
   7   0  11   20.65    2.83
   7   0  12    6.07    1.76
   7   0  13    5.19    1.71
   7   0  14    5.08    1.85
   7   0  15    1.85    1.51
   7   1   1    6.10    1.11
   7   1   2   27.57    2.05
   7   1   3   33.35    2.30
   7   1   4   39.55    2.56
   7   1   5   48.43    2.99
   7   1   6   29.95    2.51
   7   1   7   37.93    2.94
   7   1   8   71.15    4.20
   7   1   9   63.79    4.18
   7   1  10   51.15    3.96
   7   1  11   30.74    3.18
   7   1  12   21.66    2.95
   7   1  13   18.77    2.82
   7   1  14   18.27    2.97
   7   2   5    0.61    0.81
   7   2   6   14.66    1.83
   7   2   7   33.87    2.77
   7   2   8   19.80    2.37
   7   2   9   14.74    2.06
   7   2  10   22.44    2.67
   7   2  11   21.96    2.89
   7   2  12   29.06    3.46
   7   3   9   -1.11    1.12
   8  -6   0   28.17    3.97
   8  -6   1   21.54    3.64
   8  -6   2   25.15    3.71
   8  -6   3   21.85    3.35
   8  -5   0    8.07    2.38
   8  -5   1   10.57    2.35
   8  -5   2    7.46    2.04
   8  -5   3   12.23    2.45
   8  -5   4   14.26    2.63
   8  -5   5   16.97    3.03
   8  -5   6   16.92    3.02
   8  -5   7    8.11    2.56
   8  -4   0    9.49    2.31
   8  -4   1   10.69    2.21
   8  -4   2    1.75    1.30
   8  -4   3   -0.11    1.12
   8  -4   4   -0.66    1.57
   8  -4   5    0.27    1.51
   8  -4   6    5.60    1.98
   8  -4   7    8.48    2.42
   8  -4   8   10.33    2.53
   8  -4   9    3.47    2.05
   8  -3   0   52.78    4.33
   8  -3   1   35.51    3.54
   8  -3   2   24.58    3.07
   8  -3   3   17.02    2.62
   8  -3   4    8.37    2.04
   8  -3   5    3.27    1.38
   8  -3   6    5.64    1.92
   8  -3   7   11.13    2.39
   8  -3   8    3.48    1.90
   8  -3   9    0.46    1.57
   8  -3  10    0.95    1.77
   8  -2   0   72.89    4.68
   8  -2   1   60.03    4.14
   8  -2   2   57.78    4.11
   8  -2   3   44.63    3.62
   8  -2   4   39.91    3.38
   8  -2   5   22.00    2.77
   8  -2   6   32.48    3.22
   8  -2   7   24.33    2.96
   8  -2   8    8.78    2.11
   8  -2   9   11.69    2.37
   8  -2  10    9.56    2.24
   8  -2  11    7.06    1.92
   8  -2  12    3.39    1.96
   8  -1   0   55.91    3.78
   8  -1   1   48.19    3.53
   8  -1   2   56.54    3.79
   8  -1   3   58.90    3.80
   8  -1   4   62.65    3.95
   8  -1   5   72.23    4.38
   8  -1   6   81.12    4.73
   8  -1   7   26.45    2.76
   8  -1   8   38.13    3.51
   8  -1   9   34.32    3.31
   8  -1  10   27.53    3.12
   8  -1  11   14.24    2.67
   8  -1  12   15.60    2.65
   8   0   5   25.81    2.61
   8   0   6    7.71    1.68
   8   0   7   10.85    2.03
   8   0   8   26.20    2.71
   8   0   9   14.36    2.29
   8   0  10   18.68    2.74
   8   0  11   18.36    2.71
   8   0  12   21.30    3.21
   8   0  13   16.45    2.94
   8   1  10    9.41    1.91
   8   1  11   13.08    2.49
   8   1  12    8.14    2.18
   8   1  13    2.68    1.97
   8   1  14    4.49    1.85
   9  -4  -1   27.74    3.58
   9  -4   0   30.41    4.04
   9  -4   1   27.60    3.66
   9  -4   2   23.54    3.51
   9  -4   3   12.12    2.72
   9  -4   4   11.03    2.41
   9  -4   5   16.35    2.83
   9  -4   6   10.93    2.62
   9  -3   2   34.88    3.65
   9  -3   3   34.09    3.79
   9  -3   4   35.95    3.79
   9  -3   5   31.76    3.65
   9  -3   6   34.94    3.94
   9  -3   7   23.54    3.37
   9  -3   8   16.32    2.75
   9  -2   7   33.06    3.59
   9  -2   8   23.65    3.23
   9  -2   9   11.77    2.58
   0   0   0    0.00    0.00
;
_shelx_hkl_checksum              25725
loop_
_space_group_symop_operation_xyz
'x, y, z'
'-x, -y, -z'
loop_
_atom_site_label
_atom_site_type_symbol
_atom_site_fract_x
_atom_site_fract_y
_atom_site_fract_z
_atom_site_U_iso_or_equiv
_atom_site_adp_type
_atom_site_occupancy
_atom_site_site_symmetry_order
_atom_site_calc_flag
_atom_site_refinement_flags_posn
_atom_site_refinement_flags_adp
Gd1 Gd 0.34781(3) 0.39726(3) 0.51429(2) 0.02544(14) Uani 1 1 d . .
O1 O 0.3269(5) 0.5602(5) 0.6421(4) 0.0369(11) Uani 1 1 d . .
O2 O 0.5267(5) 0.6389(5) 0.6421(3) 0.0353(11) Uani 1 1 d . .
O3 O 0.2019(5) 0.9172(5) 0.6927(4) 0.0380(12) Uani 1 1 d . .
O4 O -0.1631(5) 1.3801(4) 0.5533(4) 0.0322(11) Uani 1 1 d . .
O5 O -0.3874(5) 1.3528(5) 0.5414(4) 0.0332(11) Uani 1 1 d . .
O6 O -0.3617(6) 0.8437(5) 0.5236(4) 0.0401(13) Uani 1 1 d . .
O7 O -0.1702(5) 0.6743(4) 0.5971(4) 0.0341(11) Uani 1 1 d . .
O8 O 0.0995(5) 0.4351(5) 0.5994(4) 0.0346(11) Uani 1 1 d . .
H8B H 0.0552 0.3839 0.5745 0.041 Uiso 1 1 d R U
H8C H 0.0389 0.5217 0.5954 0.041 Uiso 1 1 d R U
O9 O 0.4099(6) 0.2557(5) 0.6606(4) 0.0460(13) Uani 1 1 d . .
O10 O 0.156(2) 0.696(2) 0.1725(10) 0.242(10) Uani 1 1 d . .
N1 N 0.5188(9) 0.0760(7) 0.7657(5) 0.0503(18) Uani 1 1 d . .
N2 N 0.0254(12) 0.5536(11) 0.1575(7) 0.080(3) Uani 1 1 d . .
C1 C 0.4063(8) 0.6262(7) 0.6780(5) 0.0305(15) Uani 1 1 d . .
C2 C 0.3414(8) 0.6990(7) 0.7737(5) 0.0318(15) Uani 1 1 d . .
C3 C 0.3849(9) 0.6225(9) 0.8589(6) 0.047(2) Uani 1 1 d . .
H3 H 0.4600 0.5309 0.8576 0.056 Uiso 1 1 calc R U
C4 C 0.3149(12) 0.6844(11) 0.9466(7) 0.067(3) Uani 1 1 d . .
H4 H 0.3429 0.6335 1.0034 0.080 Uiso 1 1 calc R U
C5 C 0.2053(11) 0.8200(11) 0.9479(7) 0.064(3) Uani 1 1 d . .
H5 H 0.1592 0.8604 1.0061 0.077 Uiso 1 1 calc R U
C6 C 0.1616(10) 0.8988(10) 0.8632(6) 0.054(2) Uani 1 1 d . .
H6 H 0.0866 0.9905 0.8644 0.065 Uiso 1 1 calc R U
C7 C 0.2325(8) 0.8370(8) 0.7782(5) 0.0350(16) Uani 1 1 d . .
C8 C 0.0505(7) 0.9612(7) 0.6581(5) 0.0292(15) Uani 1 1 d . .
C9 C -0.0215(7) 1.1030(7) 0.6307(5) 0.0296(15) Uani 1 1 d . .
H9 H 0.0275 1.1666 0.6415 0.035 Uiso 1 1 calc R U
C10 C -0.1666(7) 1.1497(6) 0.5872(5) 0.0241(13) Uani 1 1 d . .
C11 C -0.2446(7) 1.3034(6) 0.5599(5) 0.0265(14) Uani 1 1 d . .
C12 C -0.2367(8) 1.0521(6) 0.5693(5) 0.0262(14) Uani 1 1 d . .
H12 H -0.3328 1.0822 0.5396 0.031 Uiso 1 1 calc R U
C13 C -0.1640(7) 0.9097(7) 0.5955(5) 0.0277(14) Uani 1 1 d . .
C14 C -0.0213(7) 0.8654(6) 0.6408(5) 0.0285(15) Uani 1 1 d . .
H14 H 0.0264 0.7712 0.6597 0.034 Uiso 1 1 calc R U
C15 C -0.2367(7) 0.8034(6) 0.5722(5) 0.0261(14) Uani 1 1 d . .
C16 C 0.4418(9) 0.1314(8) 0.6863(6) 0.0418(18) Uani 1 1 d . .
H16 H 0.4099 0.0730 0.6478 0.050 Uiso 1 1 calc R U
C17 C 0.5782(16) 0.1604(13) 0.8254(9) 0.090(4) Uani 1 1 d . .
H17A H 0.5541 0.2525 0.7972 0.136 Uiso 1 1 calc R U
H17B H 0.6891 0.1138 0.8304 0.136 Uiso 1 1 calc R U
H17C H 0.5307 0.1707 0.8883 0.136 Uiso 1 1 calc R U
C18 C 0.5596(12) -0.0750(9) 0.7898(7) 0.065(3) Uani 1 1 d . .
H18A H 0.5251 -0.1208 0.7399 0.097 Uiso 1 1 calc R U
H18B H 0.5098 -0.0824 0.8495 0.097 Uiso 1 1 calc R U
H18C H 0.6705 -0.1201 0.7956 0.097 Uiso 1 1 calc R U
C19 C 0.152(3) 0.568(3) 0.1844(12) 0.174(10) Uani 1 1 d . .
H19 H 0.2345 0.4928 0.2103 0.208 Uiso 1 1 calc R U
C20 C -0.097(3) 0.666(2) 0.1225(15) 0.206(12) Uani 1 1 d . .
H20A H -0.0824 0.7530 0.1359 0.309 Uiso 1 1 calc R U
H20B H -0.1924 0.6688 0.1527 0.309 Uiso 1 1 calc R U
H20C H -0.1027 0.6556 0.0543 0.309 Uiso 1 1 calc R U
C21 C -0.004(2) 0.4260(19) 0.1747(12) 0.143(7) Uani 1 1 d . .
H21A H -0.0012 0.3785 0.1148 0.215 Uiso 1 1 calc R U
H21B H -0.1048 0.4498 0.2048 0.215 Uiso 1 1 calc R U
H21C H 0.0742 0.3645 0.2161 0.215 Uiso 1 1 calc R U
loop_
_atom_site_aniso_label
_atom_site_aniso_U_11
_atom_site_aniso_U_22
_atom_site_aniso_U_33
_atom_site_aniso_U_23
_atom_site_aniso_U_13
_atom_site_aniso_U_12
Gd1 0.0170(2) 0.01617(19) 0.0424(2) 0.00046(13) -0.00543(13) -0.00512(13)
O1 0.031(3) 0.030(3) 0.051(3) -0.010(2) -0.001(2) -0.014(2)
O2 0.028(3) 0.043(3) 0.039(3) -0.005(2) -0.001(2) -0.018(2)
O3 0.023(3) 0.029(3) 0.062(3) 0.011(2) -0.016(2) -0.009(2)
O4 0.019(2) 0.017(2) 0.061(3) 0.007(2) -0.009(2) -0.0080(19)
O5 0.019(2) 0.027(3) 0.053(3) 0.007(2) -0.011(2) -0.007(2)
O6 0.037(3) 0.022(3) 0.066(4) 0.007(2) -0.026(3) -0.015(2)
O7 0.030(3) 0.015(2) 0.057(3) 0.000(2) -0.007(2) -0.008(2)
O8 0.024(3) 0.031(3) 0.050(3) -0.001(2) -0.007(2) -0.011(2)
O9 0.042(3) 0.031(3) 0.055(3) 0.004(2) -0.003(3) -0.003(2)
O10 0.40(3) 0.35(2) 0.133(11) -0.077(12) 0.093(13) -0.33(2)
N1 0.061(5) 0.048(4) 0.043(4) 0.012(3) -0.018(3) -0.021(4)
N2 0.087(7) 0.084(7) 0.076(6) -0.001(5) 0.017(5) -0.042(6)
C1 0.028(4) 0.026(4) 0.033(4) 0.004(3) -0.007(3) -0.005(3)
C2 0.027(4) 0.028(4) 0.039(4) 0.001(3) -0.006(3) -0.008(3)
C3 0.038(5) 0.039(5) 0.050(5) 0.010(4) -0.008(4) 0.002(4)
C4 0.065(6) 0.072(7) 0.042(5) 0.008(4) -0.015(4) -0.003(5)
C5 0.051(6) 0.082(7) 0.044(5) -0.014(5) 0.002(4) -0.008(5)
C6 0.038(5) 0.054(5) 0.054(5) -0.022(4) 0.000(4) 0.002(4)
C7 0.030(4) 0.034(4) 0.040(4) 0.003(3) -0.012(3) -0.010(3)
C8 0.017(3) 0.023(3) 0.042(4) 0.004(3) -0.009(3) -0.001(3)
C9 0.024(3) 0.022(3) 0.045(4) -0.002(3) -0.006(3) -0.010(3)
C10 0.020(3) 0.021(3) 0.029(3) 0.001(2) 0.001(3) -0.005(3)
C11 0.025(4) 0.017(3) 0.037(4) -0.003(3) -0.007(3) -0.008(3)
C12 0.024(3) 0.021(3) 0.037(4) 0.000(3) -0.002(3) -0.012(3)
C13 0.019(3) 0.022(3) 0.039(4) -0.004(3) -0.006(3) -0.005(3)
C14 0.027(4) 0.014(3) 0.043(4) 0.006(3) -0.003(3) -0.005(3)
C15 0.021(3) 0.019(3) 0.036(4) -0.003(3) -0.002(3) -0.004(3)
C16 0.036(4) 0.033(4) 0.051(5) 0.002(3) -0.006(4) -0.006(3)
C17 0.120(11) 0.073(8) 0.086(8) 0.007(6) -0.042(8) -0.043(8)
C18 0.077(7) 0.043(5) 0.074(7) 0.023(5) -0.011(5) -0.022(5)
C19 0.20(2) 0.33(3) 0.099(12) -0.038(14) 0.032(12) -0.22(2)
C20 0.18(2) 0.18(2) 0.17(2) 0.042(16) 0.063(16) 0.037(17)
C21 0.21(2) 0.146(15) 0.132(14) 0.001(11) -0.014(13) -0.132(16)
loop_
_atom_type_symbol
_atom_type_description
_atom_type_scat_dispersion_real
_atom_type_scat_dispersion_imag
_atom_type_scat_source
C C 0.0033 0.0016 'International Tables Vol C Tables 4.2.6.8 and 6.1.1.4'
H H 0.0000 0.0000 'International Tables Vol C Tables 4.2.6.8 and 6.1.1.4'
N N 0.0061 0.0033 'International Tables Vol C Tables 4.2.6.8 and 6.1.1.4'
O O 0.0106 0.0060 'International Tables Vol C Tables 4.2.6.8 and 6.1.1.4'
Gd Gd -0.1653 3.9035 'International Tables Vol C Tables 4.2.6.8 and 6.1.1.4'
loop_
_geom_angle_atom_site_label_1
_geom_angle_atom_site_label_2
_geom_angle_atom_site_label_3
_geom_angle
_geom_angle_site_symmetry_1
_geom_angle_site_symmetry_3
O5 Gd1 O1 78.98(16) 1_645 .
O5 Gd1 O2 74.00(16) 1_645 2_666
O1 Gd1 O2 133.06(16) . 2_666
O5 Gd1 O9 74.77(17) 1_645 .
O1 Gd1 O9 73.89(17) . .
O2 Gd1 O9 131.70(17) 2_666 .
O5 Gd1 O6 100.57(15) 1_645 2_566
O1 Gd1 O6 144.19(17) . 2_566
O2 Gd1 O6 79.06(17) 2_666 2_566
O9 Gd1 O6 71.57(17) . 2_566
O5 Gd1 O4 124.15(14) 1_645 2_576
O1 Gd1 O4 78.98(16) . 2_576
O2 Gd1 O4 85.35(17) 2_666 2_576
O9 Gd1 O4 142.94(18) . 2_576
O6 Gd1 O4 125.95(14) 2_566 2_576
O5 Gd1 O8 142.03(17) 1_645 .
O1 Gd1 O8 73.50(16) . .
O2 Gd1 O8 143.74(15) 2_666 .
O9 Gd1 O8 72.81(17) . .
O6 Gd1 O8 87.47(17) 2_566 .
O4 Gd1 O8 75.62(15) 2_576 .
O5 Gd1 O7 141.53(16) 1_645 2_566
O1 Gd1 O7 139.38(16) . 2_566
O2 Gd1 O7 74.19(15) 2_666 2_566
O9 Gd1 O7 112.66(16) . 2_566
O6 Gd1 O7 52.26(14) 2_566 2_566
O4 Gd1 O7 73.73(14) 2_576 2_566
O8 Gd1 O7 70.98(16) . 2_566
O5 Gd1 O5 75.17(15) 1_645 2_576
O1 Gd1 O5 65.14(16) . 2_576
O2 Gd1 O5 71.17(15) 2_666 2_576
O9 Gd1 O5 132.72(16) . 2_576
O6 Gd1 O5 149.99(17) 2_566 2_576
O4 Gd1 O5 49.00(13) 2_576 2_576
O8 Gd1 O5 114.46(15) . 2_576
O7 Gd1 O5 113.66(14) 2_566 2_576
O5 Gd1 C15 124.14(17) 1_645 2_566
O1 Gd1 C15 148.31(18) . 2_566
O2 Gd1 C15 77.75(17) 2_666 2_566
O9 Gd1 C15 90.62(18) . 2_566
O6 Gd1 C15 26.29(16) 2_566 2_566
O4 Gd1 C15 99.89(16) 2_576 2_566
O8 Gd1 C15 75.57(17) . 2_566
O7 Gd1 C15 26.22(16) 2_566 2_566
O5 Gd1 C15 136.61(16) 2_576 2_566
O5 Gd1 C11 99.84(16) 1_645 2_576
O1 Gd1 C11 69.29(17) . 2_576
O2 Gd1 C11 78.34(17) 2_666 2_576
O9 Gd1 C11 143.12(18) . 2_576
O6 Gd1 C11 143.86(16) 2_566 2_576
O4 Gd1 C11 24.37(15) 2_576 2_576
O8 Gd1 C11 94.40(17) . 2_576
O7 Gd1 C11 94.35(15) 2_566 2_576
O5 Gd1 C11 24.68(14) 2_576 2_576
C15 Gd1 C11 120.21(17) 2_566 2_576
C1 O1 Gd1 138.9(5) . .
C1 O2 Gd1 135.8(4) . 2_666
C8 O3 C7 116.9(5) . .
C11 O4 Gd1 102.5(4) . 2_576
C11 O5 Gd1 168.0(4) . 1_465
C11 O5 Gd1 87.1(3) . 2_576
Gd1 O5 Gd1 104.83(15) 1_465 2_576
C15 O6 Gd1 95.4(4) . 2_566
C15 O7 Gd1 90.3(4) . 2_566
Gd1 O8 H8B 110.1 . .
Gd1 O8 H8C 110.1 . .
H8B O8 H8C 108.5 . .
C16 O9 Gd1 139.2(5) . .
C16 N1 C17 120.1(7) . .
C16 N1 C18 121.3(7) . .
C17 N1 C18 118.3(7) . .
C19 N2 C20 121.6(18) . .
C19 N2 C21 122.2(16) . .
C20 N2 C21 115.7(15) . .
O2 C1 O1 127.1(7) . .
O2 C1 C2 118.9(6) . .
O1 C1 C2 114.0(6) . .
C7 C2 C3 118.7(7) . .
C7 C2 C1 121.7(6) . .
C3 C2 C1 119.5(6) . .
C2 C3 C4 119.9(8) . .
C2 C3 H3 120.1 . .
C4 C3 H3 120.1 . .
C5 C4 C3 119.7(8) . .
C5 C4 H4 120.1 . .
C3 C4 H4 120.1 . .
C4 C5 C6 121.2(8) . .
C4 C5 H5 119.4 . .
C6 C5 H5 119.4 . .
C7 C6 C5 118.3(8) . .
C7 C6 H6 120.9 . .
C5 C6 H6 120.9 . .
C6 C7 C2 122.2(7) . .
C6 C7 O3 120.0(7) . .
C2 C7 O3 117.7(7) . .
C14 C8 C9 120.0(6) . .
C14 C8 O3 121.8(5) . .
C9 C8 O3 117.8(5) . .
C8 C9 C10 120.3(6) . .
C8 C9 H9 119.9 . .
C10 C9 H9 119.9 . .
C12 C10 C9 119.2(6) . .
C12 C10 C11 121.0(6) . .
C9 C10 C11 119.8(5) . .
O5 C11 O4 121.1(6) . .
O5 C11 C10 119.9(5) . .
O4 C11 C10 118.9(5) . .
O5 C11 Gd1 68.2(3) . 2_576
O4 C11 Gd1 53.1(3) . 2_576
C10 C11 Gd1 169.8(4) . 2_576
C13 C12 C10 120.7(6) . .
C13 C12 H12 119.6 . .
C10 C12 H12 119.6 . .
C14 C13 C12 119.5(6) . .
C14 C13 C15 119.9(6) . .
C12 C13 C15 120.6(5) . .
C8 C14 C13 120.3(6) . .
C8 C14 H14 119.8 . .
C13 C14 H14 119.8 . .
O7 C15 O6 120.9(6) . .
O7 C15 C13 120.0(6) . .
O6 C15 C13 119.1(5) . .
O7 C15 Gd1 63.5(3) . 2_566
O6 C15 Gd1 58.3(3) . 2_566
C13 C15 Gd1 167.3(5) . 2_566
O9 C16 N1 124.1(8) . .
O9 C16 H16 118.0 . .
N1 C16 H16 118.0 . .
N1 C17 H17A 109.5 . .
N1 C17 H17B 109.5 . .
H17A C17 H17B 109.5 . .
N1 C17 H17C 109.5 . .
H17A C17 H17C 109.5 . .
H17B C17 H17C 109.5 . .
N1 C18 H18A 109.5 . .
N1 C18 H18B 109.5 . .
H18A C18 H18B 109.5 . .
N1 C18 H18C 109.5 . .
H18A C18 H18C 109.5 . .
H18B C18 H18C 109.5 . .
N2 C19 O10 115(2) . .
N2 C19 H19 122.3 . .
O10 C19 H19 122.3 . .
N2 C20 H20A 109.5 . .
N2 C20 H20B 109.5 . .
H20A C20 H20B 109.5 . .
N2 C20 H20C 109.5 . .
H20A C20 H20C 109.5 . .
H20B C20 H20C 109.5 . .
N2 C21 H21A 109.5 . .
N2 C21 H21B 109.5 . .
H21A C21 H21B 109.5 . .
N2 C21 H21C 109.5 . .
H21A C21 H21C 109.5 . .
H21B C21 H21C 109.5 . .
loop_
_geom_bond_atom_site_label_1
_geom_bond_atom_site_label_2
_geom_bond_distance
_geom_bond_site_symmetry_2
Gd1 O5 2.357(4) 1_645
Gd1 O1 2.389(5) .
Gd1 O2 2.412(5) 2_666
Gd1 O9 2.440(5) .
Gd1 O6 2.457(4) 2_566
Gd1 O4 2.465(4) 2_576
Gd1 O8 2.465(5) .
Gd1 O7 2.575(5) 2_566
Gd1 O5 2.797(4) 2_576
Gd1 C15 2.876(6) 2_566
Gd1 C11 3.008(6) 2_576
O1 C1 1.273(8) .
O2 C1 1.262(8) .
O2 Gd1 2.412(5) 2_666
O3 C8 1.397(7) .
O3 C7 1.412(9) .
O4 C11 1.271(7) .
O4 Gd1 2.465(4) 2_576
O5 C11 1.257(7) .
O5 Gd1 2.357(4) 1_465
O5 Gd1 2.797(4) 2_576
O6 C15 1.280(7) .
O6 Gd1 2.457(4) 2_566
O7 C15 1.271(7) .
O7 Gd1 2.575(5) 2_566
O8 H8B 0.8500 .
O8 H8C 0.8500 .
O9 C16 1.236(9) .
O10 C19 1.32(2) .
N1 C16 1.332(10) .
N1 C17 1.449(12) .
N1 C18 1.473(10) .
N2 C19 1.294(18) .
N2 C20 1.371(19) .
N2 C21 1.436(16) .
C1 C2 1.525(10) .
C2 C7 1.387(10) .
C2 C3 1.397(10) .
C3 C4 1.406(12) .
C3 H3 0.9300 .
C4 C5 1.371(13) .
C4 H4 0.9300 .
C5 C6 1.402(13) .
C5 H5 0.9300 .
C6 C7 1.377(11) .
C6 H6 0.9300 .
C8 C14 1.390(9) .
C8 C9 1.396(9) .
C9 C10 1.396(9) .
C9 H9 0.9300 .
C10 C12 1.395(8) .
C10 C11 1.504(8) .
C11 Gd1 3.008(6) 2_576
C12 C13 1.397(9) .
C12 H12 0.9300 .
C13 C14 1.390(9) .
C13 C15 1.507(9) .
C14 H14 0.9300 .
C15 Gd1 2.876(6) 2_566
C16 H16 0.9300 .
C17 H17A 0.9600 .
C17 H17B 0.9600 .
C17 H17C 0.9600 .
C18 H18A 0.9600 .
C18 H18B 0.9600 .
C18 H18C 0.9600 .
C19 H19 0.9300 .
C20 H20A 0.9600 .
C20 H20B 0.9600 .
C20 H20C 0.9600 .
C21 H21A 0.9600 .
C21 H21B 0.9600 .
C21 H21C 0.9600 .
loop_
_geom_torsion_atom_site_label_1
_geom_torsion_atom_site_label_2
_geom_torsion_atom_site_label_3
_geom_torsion_atom_site_label_4
_geom_torsion
_geom_torsion_site_symmetry_1
_geom_torsion_site_symmetry_4
Gd1 O2 C1 O1 15.3(11) 2_666 .
Gd1 O2 C1 C2 -162.9(4) 2_666 .
Gd1 O1 C1 O2 11.9(11) . .
Gd1 O1 C1 C2 -169.8(4) . .
O2 C1 C2 C7 89.5(8) . .
O1 C1 C2 C7 -89.0(8) . .
O2 C1 C2 C3 -94.6(8) . .
O1 C1 C2 C3 86.9(8) . .
C7 C2 C3 C4 1.9(12) . .
C1 C2 C3 C4 -174.2(8) . .
C2 C3 C4 C5 -0.6(15) . .
C3 C4 C5 C6 -0.1(16) . .
C4 C5 C6 C7 -0.5(15) . .
C5 C6 C7 C2 1.9(13) . .
C5 C6 C7 O3 -174.4(7) . .
C3 C2 C7 C6 -2.6(11) . .
C1 C2 C7 C6 173.4(7) . .
C3 C2 C7 O3 173.8(6) . .
C1 C2 C7 O3 -10.3(10) . .
C8 O3 C7 C6 -66.1(9) . .
C8 O3 C7 C2 117.4(7) . .
C7 O3 C8 C14 -54.6(9) . .
C7 O3 C8 C9 132.6(7) . .
C14 C8 C9 C10 0.9(10) . .
O3 C8 C9 C10 173.9(6) . .
C8 C9 C10 C12 -1.6(10) . .
C8 C9 C10 C11 178.7(6) . .
Gd1 O5 C11 O4 179.3(18) 1_465 .
Gd1 O5 C11 O4 4.8(6) 2_576 .
Gd1 O5 C11 C10 1(3) 1_465 .
Gd1 O5 C11 C10 -173.1(6) 2_576 .
Gd1 O5 C11 Gd1 175(2) 1_465 2_576
Gd1 O4 C11 O5 -5.6(7) 2_576 .
Gd1 O4 C11 C10 172.4(5) 2_576 .
C12 C10 C11 O5 16.5(10) . .
C9 C10 C11 O5 -163.9(6) . .
C12 C10 C11 O4 -161.5(6) . .
C9 C10 C11 O4 18.1(9) . .
C12 C10 C11 Gd1 -125(2) . 2_576
C9 C10 C11 Gd1 55(3) . 2_576
C9 C10 C12 C13 0.8(10) . .
C11 C10 C12 C13 -179.6(6) . .
C10 C12 C13 C14 0.7(10) . .
C10 C12 C13 C15 -177.4(6) . .
C9 C8 C14 C13 0.7(10) . .
O3 C8 C14 C13 -172.1(6) . .
C12 C13 C14 C8 -1.5(10) . .
C15 C13 C14 C8 176.6(6) . .
Gd1 O7 C15 O6 10.8(7) 2_566 .
Gd1 O7 C15 C13 -166.1(6) 2_566 .
Gd1 O6 C15 O7 -11.4(7) 2_566 .
Gd1 O6 C15 C13 165.5(5) 2_566 .
C14 C13 C15 O7 2.5(10) . .
C12 C13 C15 O7 -179.4(6) . .
C14 C13 C15 O6 -174.4(6) . .
C12 C13 C15 O6 3.7(10) . .
C14 C13 C15 Gd1 -100(2) . 2_566
C12 C13 C15 Gd1 78(2) . 2_566
Gd1 O9 C16 N1 157.1(6) . .
C17 N1 C16 O9 -3.3(14) . .
C18 N1 C16 O9 -177.0(8) . .
C20 N2 C19 O10 -2(2) . .
C21 N2 C19 O10 -173.4(14) . .
