#------------------------------------------------------------------------------
#$Date: 2017-09-06 14:00:00 +0300 (Wed, 06 Sep 2017) $
#$Revision: 200217 $
#$URL: file:///home/coder/svn-repositories/cod/cif/4/51/41/4514175.cif $
#------------------------------------------------------------------------------
#
# This file is available in the Crystallography Open Database (COD),
# http://www.crystallography.net/
#
# All data on this site have been placed in the public domain by the
# contributors.
#
data_4514175
loop_
_publ_author_name
'Chen, Ya'
'Wang, Bin'
'Wang, Xiaoqing'
'Xie, Lin-Hua'
'Li, Jinping'
'Xie, Yabo'
'Li, Jian-Rong'
_publ_section_title
;
 A Copper(II)-Paddlewheel Metal-Organic Framework with Exceptional
 Hydrolytic Stability and Selective Adsorption and Detection Ability of
 Aniline in Water.
;
_journal_issue                   32
_journal_name_full               'ACS applied materials &amp; interfaces'
_journal_page_first              27027
_journal_page_last               27035
_journal_paper_doi               10.1021/acsami.7b07920
_journal_volume                  9
_journal_year                    2017
_chemical_formula_moiety         '0.25(C100 H60 Cu8 O32)'
_chemical_formula_sum            'C25 H15 Cu2 O8'
_chemical_formula_weight         570.45
_chemical_name_systematic
;
 ?
;
_space_group_crystal_system      tetragonal
_space_group_IT_number           129
_space_group_name_Hall           '-P 4a 2a'
_space_group_name_H-M_alt        'P 4/n m m'
_symmetry_space_group_name_Hall  '-P 4a 2a'
_symmetry_space_group_name_H-M   'P 4/n m m :2'
_atom_sites_solution_hydrogens   geom
_atom_sites_solution_primary     direct
_audit_creation_date             2017-04-19
_audit_creation_method
;
Olex2 1.2
(compiled 2017.03.28 svn.r3405 for OlexSys, GUI svn.r5335)
;
_cell_angle_alpha                90
_cell_angle_beta                 90
_cell_angle_gamma                90
_cell_formula_units_Z            4
_cell_length_a                   18.9060(6)
_cell_length_b                   18.9060(6)
_cell_length_c                   13.6216(8)
_cell_measurement_reflns_used    1258
_cell_measurement_temperature    373.01(10)
_cell_measurement_theta_max      57.9280
_cell_measurement_theta_min      3.9700
_cell_volume                     4868.9(4)
_computing_cell_refinement
;
CrysAlisPro, Agilent Technologies,
Version 1.171.37.35 (release 13-08-2014 CrysAlis171 .NET)
(compiled Aug 13 2014,18:06:01)
;
_computing_data_collection
;
CrysAlisPro, Agilent Technologies,
Version 1.171.37.35 (release 13-08-2014 CrysAlis171 .NET)
(compiled Aug 13 2014,18:06:01)
;
_computing_data_reduction
;
CrysAlisPro, Agilent Technologies,
Version 1.171.37.35 (release 13-08-2014 CrysAlis171 .NET)
(compiled Aug 13 2014,18:06:01)
;
_computing_molecular_graphics    'Olex2 (Dolomanov et al., 2009)'
_computing_publication_material  'Olex2 (Dolomanov et al., 2009)'
_computing_structure_refinement  'ShelXL (Sheldrick, 2015)'
_computing_structure_solution    'SIR2004 (Burla et al., 2007)'
_diffrn_ambient_environment      air
_diffrn_ambient_temperature      373.01(10)
_diffrn_detector                 'CCD plate'
_diffrn_detector_area_resol_mean 10.3376
_diffrn_detector_type            AtlasS2
_diffrn_measured_fraction_theta_full 0.999
_diffrn_measured_fraction_theta_max 0.986
_diffrn_measurement_details
;
#__ type_ start__ end____ width___ exp.time_
  1 omega -114.00  -14.00   1.0000   10.0000
omega____ theta____ kappa____ phi______ frames
    -      -41.6855  -57.0000  -60.0000 100

#__ type_ start__ end____ width___ exp.time_
  2 omega -116.00  -17.00   1.0000   10.0000
omega____ theta____ kappa____ phi______ frames
    -      -41.6855  -37.0000    0.0000 99

#__ type_ start__ end____ width___ exp.time_
  3 omega   30.00   90.00   1.0000   30.0000
omega____ theta____ kappa____ phi______ frames
    -      105.8759  -30.0000 -180.0000 60

#__ type_ start__ end____ width___ exp.time_
  4 omega   94.00  174.00   1.0000   30.0000
omega____ theta____ kappa____ phi______ frames
    -      105.8759  125.0000  -90.0000 80

#__ type_ start__ end____ width___ exp.time_
  5 omega  103.00  178.00   1.0000   30.0000
omega____ theta____ kappa____ phi______ frames
    -      105.8759  125.0000 -180.0000 75

#__ type_ start__ end____ width___ exp.time_
  6 omega   23.00   96.00   1.0000   30.0000
omega____ theta____ kappa____ phi______ frames
    -      105.8759  -94.0000  120.0000 73
;
_diffrn_measurement_device       'four-circle diffractometer'
_diffrn_measurement_device_type  'SuperNova, Dual, Cu at zero, AtlasS2'
_diffrn_measurement_method       '\w scans'
_diffrn_orient_matrix_UB_11      -0.0487831000
_diffrn_orient_matrix_UB_12      0.0535967000
_diffrn_orient_matrix_UB_13      0.0516033000
_diffrn_orient_matrix_UB_21      0.0274479000
_diffrn_orient_matrix_UB_22      -0.0251982000
_diffrn_orient_matrix_UB_23      0.1006558000
_diffrn_orient_matrix_UB_31      0.0591793000
_diffrn_orient_matrix_UB_32      0.0559193000
_diffrn_orient_matrix_UB_33      -0.0039359000
_diffrn_radiation_monochromator  mirror
_diffrn_radiation_probe          x-ray
_diffrn_radiation_type           CuK\a
_diffrn_radiation_wavelength     1.54184
_diffrn_reflns_av_R_equivalents  0.1464
_diffrn_reflns_av_unetI/netI     0.0880
_diffrn_reflns_Laue_measured_fraction_full 0.999
_diffrn_reflns_Laue_measured_fraction_max 0.986
_diffrn_reflns_limit_h_max       23
_diffrn_reflns_limit_h_min       -13
_diffrn_reflns_limit_k_max       18
_diffrn_reflns_limit_k_min       -21
_diffrn_reflns_limit_l_max       16
_diffrn_reflns_limit_l_min       -16
_diffrn_reflns_number            14175
_diffrn_reflns_point_group_measured_fraction_full 0.999
_diffrn_reflns_point_group_measured_fraction_max 0.986
_diffrn_reflns_theta_full        67.684
_diffrn_reflns_theta_max         73.947
_diffrn_reflns_theta_min         4.000
_diffrn_source                   'sealed X-ray tube'
_diffrn_source_type              'SuperNova (Cu) X-ray Source'
_exptl_absorpt_coefficient_mu    1.284
_exptl_absorpt_correction_T_max  1.00000
_exptl_absorpt_correction_T_min  0.55349
_exptl_absorpt_correction_type   multi-scan
_exptl_absorpt_process_details
;
CrysAlisPro, Agilent Technologies,
Version 1.171.37.35 (release 13-08-2014 CrysAlis171 .NET)
(compiled Aug 13 2014,18:06:01)
Empirical absorption correction using spherical harmonics,
 implemented in SCALE3 ABSPACK scaling algorithm.
;
_exptl_crystal_density_diffrn    0.778
_exptl_crystal_description
;
;
_exptl_crystal_F_000             1148
_refine_diff_density_max         0.619
_refine_diff_density_min         -0.371
_refine_diff_density_rms         0.064
_refine_ls_extinction_method     none
_refine_ls_goodness_of_fit_ref   0.982
_refine_ls_hydrogen_treatment    constr
_refine_ls_matrix_type           full
_refine_ls_number_parameters     95
_refine_ls_number_reflns         2706
_refine_ls_number_restraints     0
_refine_ls_restrained_S_all      0.982
_refine_ls_R_factor_all          0.1468
_refine_ls_R_factor_gt           0.0665
_refine_ls_shift/su_max          0.001
_refine_ls_shift/su_mean         0.000
_refine_ls_structure_factor_coef Fsqd
_refine_ls_weighting_details
'w=1/[\s^2^(Fo^2^)+(0.0840P)^2^] where P=(Fo^2^+2Fc^2^)/3'
_refine_ls_weighting_scheme      calc
_refine_ls_wR_factor_gt          0.1536
_refine_ls_wR_factor_ref         0.1916
_reflns_Friedel_coverage         0.000
_reflns_number_gt                1345
_reflns_number_total             2706
_reflns_threshold_expression     'I > 2\s(I)'
_iucr_refine_instructions_details
;
TITL exp_295_a.res in P4/nmm
REM Old TITL exp_295 in P4/nmm
REM SHELXT solution in P4/nmm
REM R1 0.178, Rweak 0.242, Alpha 0.047, Orientation as input
REM Formula found by SHELXT: C25 Cu2 O8
CELL 1.54184 18.906 18.906 13.6216 90 90 90
ZERR 4 0.0006 0.0006 0.0008 0 0 0
LATT 1
SYMM 0.5-X,0.5-Y,+Z
SYMM 0.5-Y,+X,+Z
SYMM +Y,0.5-X,+Z
SYMM -X,0.5+Y,-Z
SYMM 0.5+X,-Y,-Z
SYMM 0.5+Y,0.5+X,-Z
SYMM -Y,-X,-Z
SFAC C Cu O H
UNIT 100 8 32 60
 
L.S. 10
PLAN  20
BOND $H
list 4
fmap 2
acta
ABIN
REM <olex2.extras>
REM <HklSrc "%.\\exp_295.hkl">
REM </olex2.extras>
 
WGHT    0.084000
FVAR       0.23488
CU1   2    0.968418    0.531582    0.432553    10.50000    0.04339    0.04339 =
         0.05135    0.00756   -0.00756   -0.00796
O1    3    0.959435    0.437863    0.378003    11.00000    0.06650    0.04272 =
         0.06358    0.00398   -0.01607   -0.00455
O2    3    1.017244    0.380556    0.497563    11.00000    0.06481    0.04880 =
         0.06656   -0.00210   -0.01883   -0.00856
C6    1    0.813271    0.250000    0.209090    10.50000    0.04970    0.03888 =
         0.04051    0.00000   -0.00562    0.00000
C10   1    0.750000    0.250000    0.055263    10.25000    0.05122    0.04508 =
         0.03492    0.00000    0.00000    0.00000
C7    1    0.750000    0.250000    0.260088    10.25000    0.06523    0.04688 =
         0.03175    0.00000    0.00000    0.00000
C1    1    0.980702    0.383437    0.419237    11.00000    0.04593    0.04934 =
         0.05591   -0.00018   -0.00569   -0.00504
C9    1    0.814328    0.250000    0.104663    10.50000    0.05234    0.04615 =
         0.04104    0.00000   -0.00240    0.00000
C5    1    0.879892    0.250000    0.268848    10.50000    0.05727    0.05163 =
         0.04157    0.00000   -0.00450    0.00000
C3    1    0.959789    0.313471    0.375195    11.00000    0.05038    0.05097 =
         0.05498   -0.00047   -0.00962    0.00060
C4    1    0.907265    0.312558    0.302881    11.00000    0.05759    0.04799 =
         0.05275    0.00353   -0.01208   -0.00242
AFIX  43
H4    4    0.890627    0.355070    0.277455    11.00000   -1.20000
AFIX   0
C2    1    0.985009    0.250000    0.412026    10.50000    0.04480    0.06039 =
         0.06333    0.00000   -0.00980    0.00000
AFIX  43
H2    4    1.018895    0.250000    0.461518    10.50000   -1.20000
AFIX   0
C11   1    0.883485    0.250000    0.050627    10.50000    0.05220    0.11282 =
         0.05213    0.00000   -0.00188    0.00000
PART -1
AFIX 137
H11A  4    0.900039    0.202268    0.043554    10.50000   -1.50000
H11B  4    0.917610    0.277053    0.086873    10.50000   -1.50000
H11C  4    0.877053    0.270679   -0.013118    10.50000   -1.50000
AFIX   0
PART 0
C8    1    0.750000    0.250000    0.371383    10.25000    0.07594    0.12304 =
         0.03478    0.00000    0.00000    0.00000
PART -1
AFIX  33
H8A   4    0.773939    0.208542    0.394875    10.25000   -1.50000
H8B   4    0.702127    0.249997    0.394875    10.25000   -1.50000
H8C   4    0.773934    0.291461    0.394875    10.25000   -1.50000
AFIX   0
HKLF 4
 
REM  exp_295_a.res in P4/nmm
REM R1 =  0.0665 for    1345 Fo > 4sig(Fo)  and  0.1468 for all    2706 data
REM     95 parameters refined using      0 restraints
 
END  
     
WGHT      0.0838      0.0000 

REM Highest difference peak  0.619,  deepest hole -0.371,  1-sigma level  0.064
Q1    1   1.0000  0.5000  0.5000  10.25000  0.05    0.62
Q2    1   1.0115  0.4885  0.4083  10.50000  0.05    0.46
Q3    1   0.9932  0.4244  0.5260  11.00000  0.05    0.43
Q4    1   0.9287  0.5713  0.4618  10.50000  0.05    0.33
Q5    1   0.9346  0.4837  0.3900  11.00000  0.05    0.33
Q6    1   0.9010  0.5761  0.3044  11.00000  0.05    0.31
Q7    1   1.2500  0.2500  0.1092  10.12500  0.05    0.31
Q8    1   0.9746  0.4594  0.4255  11.00000  0.05    0.27
Q9    1   0.9157  0.4328  0.3739  11.00000  0.05    0.26
Q10   1   0.8087  0.2500  0.1438  10.50000  0.05    0.26
Q11   1   0.9566  0.4566  0.5000  10.50000  0.05    0.25
Q12   1   0.8906  0.2500  0.2463  10.50000  0.05    0.25
Q13   1   1.0426  0.3955  0.4935  11.00000  0.05    0.23
Q14   1   0.8875  0.3568  0.3025  11.00000  0.05    0.23
Q15   1   0.7897  0.2793  0.0875  11.00000  0.05    0.22
Q16   1   0.8854  0.2187  0.2973  11.00000  0.05    0.22
Q17   1   0.9638  0.3436  0.3976  11.00000  0.05    0.22
Q18   1   1.0346  0.4654  0.3178  10.50000  0.05    0.21
Q19   1   1.0479  0.2500  0.3958  10.50000  0.05    0.20
Q20   1   1.0157  0.4289  0.3607  11.00000  0.05    0.20

  REM The information below was added by Olex2.
  REM
  REM R1 = 0.0665 for 1345 Fo > 4sig(Fo) and 0.1468 for all 14582 data
  REM n/a parameters refined using n/a restraints
  REM Highest difference peak 0.62, deepest hole -0.37
  REM Mean Shift 0, Max Shift 0.001.

  REM +++ Tabular Listing of Refinement Information +++
  REM R1_all = 0.1468
  REM R1_gt = 0.0665
  REM wR_ref = 0.1916
  REM GOOF = 0.982
  REM Shift_max = 0.001
  REM Shift_mean = 0
  REM Reflections_all = 14582
  REM Reflections_gt = 1345
  REM Parameters = n/a
  REM Hole = -0.37
  REM Peak = 0.62
  REM Flack = n/a

  
;
_cod_data_source_file            am7b07920_si_002.cif
_cod_data_source_block           BUT-155
_cod_database_code               4514175
_shelxl_version_number           2014-1
_chemical_oxdiff_formula         CHOCu
_shelx_space_group_comment
;
The symmetry employed for this shelxl refinement is uniquely defined
by the following loop, which should always be used as a source of
symmetry information in preference to the above space-group names.
They are only intended as comments.
;
_reflns_odcompleteness_completeness 99.88
_reflns_odcompleteness_iscentric 1
_reflns_odcompleteness_theta     66.97
_olex2_refinement_description
;
1. Fixed Uiso
 At 1.2 times of:
  All C(H) groups
 At 1.5 times of:
  All C(H,H,H) groups
2. Others
 Fixed Sof: H11a(0.5) H11b(0.5) H11c(0.5) H8a(0.25) H8b(0.25) H8c(0.25)
3.a Me refined with riding coordinates:
 C8(H8a,H8b,H8c)
3.b Aromatic/amide H refined with riding coordinates:
 C4(H4), C2(H2)
3.c Idealised Me refined as rotating group:
 C11(H11a,H11b,H11c)
;
_shelx_fab_file
;
0 0 2 0.0000 0.0000
0 0 3 0.0000 0.0000
0 0 4 0.0000 0.0000
0 0 5 0.0000 0.0000
0 0 6 0.0000 0.0000
0 0 7 0.0000 0.0000
0 0 8 0.0000 0.0000
0 0 9 0.0000 0.0000
0 0 10 0.0000 0.0000
0 0 11 0.0000 0.0000
0 0 12 0.0000 0.0000
0 0 13 0.0000 0.0000
0 0 14 0.0000 0.0000
0 0 15 0.0000 0.0000
0 0 16 0.0000 0.0000
1 0 1 0.0000 0.0000
1 0 2 0.0000 0.0000
1 0 3 0.0000 0.0000
1 0 4 0.0000 0.0000
1 0 5 0.0000 0.0000
1 0 6 0.0000 0.0000
1 0 7 0.0000 0.0000
1 0 8 0.0000 0.0000
1 0 9 0.0000 0.0000
1 0 10 0.0000 0.0000
1 0 11 0.0000 0.0000
1 0 12 0.0000 0.0000
1 0 13 0.0000 0.0000
1 0 14 0.0000 0.0000
1 0 15 0.0000 0.0000
1 0 16 0.0000 0.0000
1 1 1 0.0000 0.0000
1 1 2 0.0000 0.0000
1 1 3 0.0000 0.0000
1 1 4 0.0000 0.0000
1 1 5 0.0000 0.0000
1 1 6 0.0000 0.0000
1 1 7 0.0000 0.0000
1 1 8 0.0000 0.0000
1 1 9 0.0000 0.0000
1 1 10 0.0000 0.0000
1 1 11 0.0000 0.0000
1 1 12 0.0000 0.0000
1 1 13 0.0000 0.0000
1 1 14 0.0000 0.0000
1 1 15 0.0000 0.0000
1 1 16 0.0000 0.0000
2 0 0 0.0000 0.0000
2 0 1 0.0000 0.0000
2 0 2 0.0000 0.0000
2 0 3 0.0000 0.0000
2 0 4 0.0000 0.0000
2 0 5 0.0000 0.0000
2 0 6 0.0000 0.0000
2 0 7 0.0000 0.0000
2 0 8 0.0000 0.0000
2 0 9 0.0000 0.0000
2 0 10 0.0000 0.0000
2 0 11 0.0000 0.0000
2 0 12 0.0000 0.0000
2 0 13 0.0000 0.0000
2 0 14 0.0000 0.0000
2 0 15 0.0000 0.0000
2 0 16 0.0000 0.0000
2 1 1 0.0000 0.0000
2 1 2 0.0000 0.0000
2 1 3 0.0000 0.0000
2 1 4 0.0000 0.0000
2 1 5 0.0000 0.0000
2 1 6 0.0000 0.0000
2 1 7 0.0000 0.0000
2 1 8 0.0000 0.0000
2 1 9 0.0000 0.0000
2 1 10 0.0000 0.0000
2 1 11 0.0000 0.0000
2 1 12 0.0000 0.0000
2 1 13 0.0000 0.0000
2 1 14 0.0000 0.0000
2 1 15 0.0000 0.0000
2 1 16 0.0000 0.0000
2 2 0 0.0000 0.0000
2 2 1 0.0000 0.0000
2 2 2 0.0000 0.0000
2 2 3 0.0000 0.0000
2 2 4 0.0000 0.0000
2 2 5 0.0000 0.0000
2 2 6 0.0000 0.0000
2 2 7 0.0000 0.0000
2 2 8 0.0000 0.0000
2 2 9 0.0000 0.0000
2 2 10 0.0000 0.0000
2 2 11 0.0000 0.0000
2 2 12 0.0000 0.0000
2 2 13 0.0000 0.0000
2 2 14 0.0000 0.0000
2 2 15 0.0000 0.0000
2 2 16 0.0000 0.0000
3 0 1 0.0000 0.0000
3 0 2 0.0000 0.0000
3 0 3 0.0000 0.0000
3 0 4 0.0000 0.0000
3 0 5 0.0000 0.0000
3 0 6 0.0000 0.0000
3 0 7 0.0000 0.0000
3 0 8 0.0000 0.0000
3 0 9 0.0000 0.0000
3 0 10 0.0000 0.0000
3 0 11 0.0000 0.0000
3 0 12 0.0000 0.0000
3 0 13 0.0000 0.0000
3 0 14 0.0000 0.0000
3 0 15 0.0000 0.0000
3 0 16 0.0000 0.0000
3 1 0 0.0000 0.0000
3 1 1 0.0000 0.0000
3 1 2 0.0000 0.0000
3 1 3 0.0000 0.0000
3 1 4 0.0000 0.0000
3 1 5 0.0000 0.0000
3 1 6 0.0000 0.0000
3 1 7 0.0000 0.0000
3 1 8 0.0000 0.0000
3 1 9 0.0000 0.0000
3 1 10 0.0000 0.0000
3 1 11 0.0000 0.0000
3 1 12 0.0000 0.0000
3 1 13 0.0000 0.0000
3 1 14 0.0000 0.0000
3 1 15 0.0000 0.0000
3 1 16 0.0000 0.0000
3 2 1 0.0000 0.0000
3 2 2 0.0000 0.0000
3 2 3 0.0000 0.0000
3 2 4 0.0000 0.0000
3 2 5 0.0000 0.0000
3 2 6 0.0000 0.0000
3 2 7 0.0000 0.0000
3 2 8 0.0000 0.0000
3 2 9 0.0000 0.0000
3 2 10 0.0000 0.0000
3 2 11 0.0000 0.0000
3 2 12 0.0000 0.0000
3 2 13 0.0000 0.0000
3 2 14 0.0000 0.0000
3 2 15 0.0000 0.0000
3 2 16 0.0000 0.0000
3 3 0 0.0000 0.0000
3 3 1 0.0000 0.0000
3 3 2 0.0000 0.0000
3 3 3 0.0000 0.0000
3 3 4 0.0000 0.0000
3 3 5 0.0000 0.0000
3 3 6 0.0000 0.0000
3 3 7 0.0000 0.0000
3 3 8 0.0000 0.0000
3 3 9 0.0000 0.0000
3 3 10 0.0000 0.0000
3 3 11 0.0000 0.0000
3 3 12 0.0000 0.0000
3 3 13 0.0000 0.0000
3 3 14 0.0000 0.0000
3 3 15 0.0000 0.0000
3 3 16 0.0000 0.0000
4 0 0 0.0000 0.0000
4 0 1 0.0000 0.0000
4 0 2 0.0000 0.0000
4 0 3 0.0000 0.0000
4 0 4 0.0000 0.0000
4 0 5 0.0000 0.0000
4 0 6 0.0000 0.0000
4 0 7 0.0000 0.0000
4 0 8 0.0000 0.0000
4 0 9 0.0000 0.0000
4 0 10 0.0000 0.0000
4 0 11 0.0000 0.0000
4 0 12 0.0000 0.0000
4 0 13 0.0000 0.0000
4 0 14 0.0000 0.0000
4 0 15 0.0000 0.0000
4 0 16 0.0000 0.0000
4 1 1 0.0000 0.0000
4 1 2 0.0000 0.0000
4 1 3 0.0000 0.0000
4 1 4 0.0000 0.0000
4 1 5 0.0000 0.0000
4 1 6 0.0000 0.0000
4 1 7 0.0000 0.0000
4 1 8 0.0000 0.0000
4 1 9 0.0000 0.0000
4 1 10 0.0000 0.0000
4 1 11 0.0000 0.0000
4 1 12 0.0000 0.0000
4 1 13 0.0000 0.0000
4 1 14 0.0000 0.0000
4 1 15 0.0000 0.0000
4 1 16 0.0000 0.0000
4 2 0 0.0000 0.0000
4 2 1 0.0000 0.0000
4 2 2 0.0000 0.0000
4 2 3 0.0000 0.0000
4 2 4 0.0000 0.0000
4 2 5 0.0000 0.0000
4 2 6 0.0000 0.0000
4 2 7 0.0000 0.0000
4 2 8 0.0000 0.0000
4 2 9 0.0000 0.0000
4 2 10 0.0000 0.0000
4 2 11 0.0000 0.0000
4 2 12 0.0000 0.0000
4 2 13 0.0000 0.0000
4 2 14 0.0000 0.0000
4 2 15 0.0000 0.0000
4 2 16 0.0000 0.0000
4 3 1 0.0000 0.0000
4 3 2 0.0000 0.0000
4 3 3 0.0000 0.0000
4 3 4 0.0000 0.0000
4 3 5 0.0000 0.0000
4 3 6 0.0000 0.0000
4 3 7 0.0000 0.0000
4 3 8 0.0000 0.0000
4 3 9 0.0000 0.0000
4 3 10 0.0000 0.0000
4 3 11 0.0000 0.0000
4 3 12 0.0000 0.0000
4 3 13 0.0000 0.0000
4 3 14 0.0000 0.0000
4 3 15 0.0000 0.0000
4 3 16 0.0000 0.0000
4 4 0 0.0000 0.0000
4 4 1 0.0000 0.0000
4 4 2 0.0000 0.0000
4 4 3 0.0000 0.0000
4 4 4 0.0000 0.0000
4 4 5 0.0000 0.0000
4 4 6 0.0000 0.0000
4 4 7 0.0000 0.0000
4 4 8 0.0000 0.0000
4 4 9 0.0000 0.0000
4 4 10 0.0000 0.0000
4 4 11 0.0000 0.0000
4 4 12 0.0000 0.0000
4 4 13 0.0000 0.0000
4 4 14 0.0000 0.0000
4 4 15 0.0000 0.0000
4 4 16 0.0000 0.0000
5 0 1 0.0000 0.0000
5 0 2 0.0000 0.0000
5 0 3 0.0000 0.0000
5 0 4 0.0000 0.0000
5 0 5 0.0000 0.0000
5 0 6 0.0000 0.0000
5 0 7 0.0000 0.0000
5 0 8 0.0000 0.0000
5 0 9 0.0000 0.0000
5 0 10 0.0000 0.0000
5 0 11 0.0000 0.0000
5 0 12 0.0000 0.0000
5 0 13 0.0000 0.0000
5 0 14 0.0000 0.0000
5 0 15 0.0000 0.0000
5 0 16 0.0000 0.0000
5 1 0 0.0000 0.0000
5 1 1 0.0000 0.0000
5 1 2 0.0000 0.0000
5 1 3 0.0000 0.0000
5 1 4 0.0000 0.0000
5 1 5 0.0000 0.0000
5 1 6 0.0000 0.0000
5 1 7 0.0000 0.0000
5 1 8 0.0000 0.0000
5 1 9 0.0000 0.0000
5 1 10 0.0000 0.0000
5 1 11 0.0000 0.0000
5 1 12 0.0000 0.0000
5 1 13 0.0000 0.0000
5 1 14 0.0000 0.0000
5 1 15 0.0000 0.0000
5 1 16 0.0000 0.0000
5 2 1 0.0000 0.0000
5 2 2 0.0000 0.0000
5 2 3 0.0000 0.0000
5 2 4 0.0000 0.0000
5 2 5 0.0000 0.0000
5 2 6 0.0000 0.0000
5 2 7 0.0000 0.0000
5 2 8 0.0000 0.0000
5 2 9 0.0000 0.0000
5 2 10 0.0000 0.0000
5 2 11 0.0000 0.0000
5 2 12 0.0000 0.0000
5 2 13 0.0000 0.0000
5 2 14 0.0000 0.0000
5 2 15 0.0000 0.0000
5 2 16 0.0000 0.0000
5 3 0 0.0000 0.0000
5 3 1 0.0000 0.0000
5 3 2 0.0000 0.0000
5 3 3 0.0000 0.0000
5 3 4 0.0000 0.0000
5 3 5 0.0000 0.0000
5 3 6 0.0000 0.0000
5 3 7 0.0000 0.0000
5 3 8 0.0000 0.0000
5 3 9 0.0000 0.0000
5 3 10 0.0000 0.0000
5 3 11 0.0000 0.0000
5 3 12 0.0000 0.0000
5 3 13 0.0000 0.0000
5 3 14 0.0000 0.0000
5 3 15 0.0000 0.0000
5 3 16 0.0000 0.0000
5 4 1 0.0000 0.0000
5 4 2 0.0000 0.0000
5 4 3 0.0000 0.0000
5 4 4 0.0000 0.0000
5 4 5 0.0000 0.0000
5 4 6 0.0000 0.0000
5 4 7 0.0000 0.0000
5 4 8 0.0000 0.0000
5 4 9 0.0000 0.0000
5 4 10 0.0000 0.0000
5 4 11 0.0000 0.0000
5 4 12 0.0000 0.0000
5 4 13 0.0000 0.0000
5 4 14 0.0000 0.0000
5 4 15 0.0000 0.0000
5 4 16 0.0000 0.0000
5 5 0 0.0000 0.0000
5 5 1 0.0000 0.0000
5 5 2 0.0000 0.0000
5 5 3 0.0000 0.0000
5 5 4 0.0000 0.0000
5 5 5 0.0000 0.0000
5 5 6 0.0000 0.0000
5 5 7 0.0000 0.0000
5 5 8 0.0000 0.0000
5 5 9 0.0000 0.0000
5 5 10 0.0000 0.0000
5 5 11 0.0000 0.0000
5 5 12 0.0000 0.0000
5 5 13 0.0000 0.0000
5 5 14 0.0000 0.0000
5 5 15 0.0000 0.0000
5 5 16 0.0000 0.0000
6 0 0 0.0000 0.0000
6 0 1 0.0000 0.0000
6 0 2 0.0000 0.0000
6 0 3 0.0000 0.0000
6 0 4 0.0000 0.0000
6 0 5 0.0000 0.0000
6 0 6 0.0000 0.0000
6 0 7 0.0000 0.0000
6 0 8 0.0000 0.0000
6 0 9 0.0000 0.0000
6 0 10 0.0000 0.0000
6 0 11 0.0000 0.0000
6 0 12 0.0000 0.0000
6 0 13 0.0000 0.0000
6 0 14 0.0000 0.0000
6 0 15 0.0000 0.0000
6 0 16 0.0000 0.0000
6 1 1 0.0000 0.0000
6 1 2 0.0000 0.0000
6 1 3 0.0000 0.0000
6 1 4 0.0000 0.0000
6 1 5 0.0000 0.0000
6 1 6 0.0000 0.0000
6 1 7 0.0000 0.0000
6 1 8 0.0000 0.0000
6 1 9 0.0000 0.0000
6 1 10 0.0000 0.0000
6 1 11 0.0000 0.0000
6 1 12 0.0000 0.0000
6 1 13 0.0000 0.0000
6 1 14 0.0000 0.0000
6 1 15 0.0000 0.0000
6 1 16 0.0000 0.0000
6 2 0 0.0000 0.0000
6 2 1 0.0000 0.0000
6 2 2 0.0000 0.0000
6 2 3 0.0000 0.0000
6 2 4 0.0000 0.0000
6 2 5 0.0000 0.0000
6 2 6 0.0000 0.0000
6 2 7 0.0000 0.0000
6 2 8 0.0000 0.0000
6 2 9 0.0000 0.0000
6 2 10 0.0000 0.0000
6 2 11 0.0000 0.0000
6 2 12 0.0000 0.0000
6 2 13 0.0000 0.0000
6 2 14 0.0000 0.0000
6 2 15 0.0000 0.0000
6 2 16 0.0000 0.0000
6 3 1 0.0000 0.0000
6 3 2 0.0000 0.0000
6 3 3 0.0000 0.0000
6 3 4 0.0000 0.0000
6 3 5 0.0000 0.0000
6 3 6 0.0000 0.0000
6 3 7 0.0000 0.0000
6 3 8 0.0000 0.0000
6 3 9 0.0000 0.0000
6 3 10 0.0000 0.0000
6 3 11 0.0000 0.0000
6 3 12 0.0000 0.0000
6 3 13 0.0000 0.0000
6 3 14 0.0000 0.0000
6 3 15 0.0000 0.0000
6 3 16 0.0000 0.0000
6 4 0 0.0000 0.0000
6 4 1 0.0000 0.0000
6 4 2 0.0000 0.0000
6 4 3 0.0000 0.0000
6 4 4 0.0000 0.0000
6 4 5 0.0000 0.0000
6 4 6 0.0000 0.0000
6 4 7 0.0000 0.0000
6 4 8 0.0000 0.0000
6 4 9 0.0000 0.0000
6 4 10 0.0000 0.0000
6 4 11 0.0000 0.0000
6 4 12 0.0000 0.0000
6 4 13 0.0000 0.0000
6 4 14 0.0000 0.0000
6 4 15 0.0000 0.0000
6 4 16 0.0000 0.0000
6 5 1 0.0000 0.0000
6 5 2 0.0000 0.0000
6 5 3 0.0000 0.0000
6 5 4 0.0000 0.0000
6 5 5 0.0000 0.0000
6 5 6 0.0000 0.0000
6 5 7 0.0000 0.0000
6 5 8 0.0000 0.0000
6 5 9 0.0000 0.0000
6 5 10 0.0000 0.0000
6 5 11 0.0000 0.0000
6 5 12 0.0000 0.0000
6 5 13 0.0000 0.0000
6 5 14 0.0000 0.0000
6 5 15 0.0000 0.0000
6 5 16 0.0000 0.0000
6 6 0 0.0000 0.0000
6 6 1 0.0000 0.0000
6 6 2 0.0000 0.0000
6 6 3 0.0000 0.0000
6 6 4 0.0000 0.0000
6 6 5 0.0000 0.0000
6 6 6 0.0000 0.0000
6 6 7 0.0000 0.0000
6 6 8 0.0000 0.0000
6 6 9 0.0000 0.0000
6 6 10 0.0000 0.0000
6 6 11 0.0000 0.0000
6 6 12 0.0000 0.0000
6 6 13 0.0000 0.0000
6 6 14 0.0000 0.0000
6 6 15 0.0000 0.0000
7 0 1 0.0000 0.0000
7 0 2 0.0000 0.0000
7 0 3 0.0000 0.0000
7 0 4 0.0000 0.0000
7 0 5 0.0000 0.0000
7 0 6 0.0000 0.0000
7 0 7 0.0000 0.0000
7 0 8 0.0000 0.0000
7 0 9 0.0000 0.0000
7 0 10 0.0000 0.0000
7 0 11 0.0000 0.0000
7 0 12 0.0000 0.0000
7 0 13 0.0000 0.0000
7 0 14 0.0000 0.0000
7 0 15 0.0000 0.0000
7 0 16 0.0000 0.0000
7 1 0 0.0000 0.0000
7 1 1 0.0000 0.0000
7 1 2 0.0000 0.0000
7 1 3 0.0000 0.0000
7 1 4 0.0000 0.0000
7 1 5 0.0000 0.0000
7 1 6 0.0000 0.0000
7 1 7 0.0000 0.0000
7 1 8 0.0000 0.0000
7 1 9 0.0000 0.0000
7 1 10 0.0000 0.0000
7 1 11 0.0000 0.0000
7 1 12 0.0000 0.0000
7 1 13 0.0000 0.0000
7 1 14 0.0000 0.0000
7 1 15 0.0000 0.0000
7 1 16 0.0000 0.0000
7 2 1 0.0000 0.0000
7 2 2 0.0000 0.0000
7 2 3 0.0000 0.0000
7 2 4 0.0000 0.0000
7 2 5 0.0000 0.0000
7 2 6 0.0000 0.0000
7 2 7 0.0000 0.0000
7 2 8 0.0000 0.0000
7 2 9 0.0000 0.0000
7 2 10 0.0000 0.0000
7 2 11 0.0000 0.0000
7 2 12 0.0000 0.0000
7 2 13 0.0000 0.0000
7 2 14 0.0000 0.0000
7 2 15 0.0000 0.0000
7 2 16 0.0000 0.0000
7 3 0 0.0000 0.0000
7 3 1 0.0000 0.0000
7 3 2 0.0000 0.0000
7 3 3 0.0000 0.0000
7 3 4 0.0000 0.0000
7 3 5 0.0000 0.0000
7 3 6 0.0000 0.0000
7 3 7 0.0000 0.0000
7 3 8 0.0000 0.0000
7 3 9 0.0000 0.0000
7 3 10 0.0000 0.0000
7 3 11 0.0000 0.0000
7 3 12 0.0000 0.0000
7 3 13 0.0000 0.0000
7 3 14 0.0000 0.0000
7 3 15 0.0000 0.0000
7 3 16 0.0000 0.0000
7 4 1 0.0000 0.0000
7 4 2 0.0000 0.0000
7 4 3 0.0000 0.0000
7 4 4 0.0000 0.0000
7 4 5 0.0000 0.0000
7 4 6 0.0000 0.0000
7 4 7 0.0000 0.0000
7 4 8 0.0000 0.0000
7 4 9 0.0000 0.0000
7 4 10 0.0000 0.0000
7 4 11 0.0000 0.0000
7 4 12 0.0000 0.0000
7 4 13 0.0000 0.0000
7 4 14 0.0000 0.0000
7 4 15 0.0000 0.0000
7 5 0 0.0000 0.0000
7 5 1 0.0000 0.0000
7 5 2 0.0000 0.0000
7 5 3 0.0000 0.0000
7 5 4 0.0000 0.0000
7 5 5 0.0000 0.0000
7 5 6 0.0000 0.0000
7 5 7 0.0000 0.0000
7 5 8 0.0000 0.0000
7 5 9 0.0000 0.0000
7 5 10 0.0000 0.0000
7 5 11 0.0000 0.0000
7 5 12 0.0000 0.0000
7 5 13 0.0000 0.0000
7 5 14 0.0000 0.0000
7 5 15 0.0000 0.0000
7 6 1 0.0000 0.0000
7 6 2 0.0000 0.0000
7 6 3 0.0000 0.0000
7 6 4 0.0000 0.0000
7 6 5 0.0000 0.0000
7 6 6 0.0000 0.0000
7 6 7 0.0000 0.0000
7 6 8 0.0000 0.0000
7 6 9 0.0000 0.0000
7 6 10 0.0000 0.0000
7 6 11 0.0000 0.0000
7 6 12 0.0000 0.0000
7 6 13 0.0000 0.0000
7 6 14 0.0000 0.0000
7 6 15 0.0000 0.0000
7 7 0 0.0000 0.0000
7 7 1 0.0000 0.0000
7 7 2 0.0000 0.0000
7 7 3 0.0000 0.0000
7 7 4 0.0000 0.0000
7 7 5 0.0000 0.0000
7 7 6 0.0000 0.0000
7 7 7 0.0000 0.0000
7 7 8 0.0000 0.0000
7 7 9 0.0000 0.0000
7 7 10 0.0000 0.0000
7 7 11 0.0000 0.0000
7 7 12 0.0000 0.0000
7 7 13 0.0000 0.0000
7 7 14 0.0000 0.0000
7 7 15 0.0000 0.0000
8 0 0 0.0000 0.0000
8 0 1 0.0000 0.0000
8 0 2 0.0000 0.0000
8 0 3 0.0000 0.0000
8 0 4 0.0000 0.0000
8 0 5 0.0000 0.0000
8 0 6 0.0000 0.0000
8 0 7 0.0000 0.0000
8 0 8 0.0000 0.0000
8 0 9 0.0000 0.0000
8 0 10 0.0000 0.0000
8 0 11 0.0000 0.0000
8 0 12 0.0000 0.0000
8 0 13 0.0000 0.0000
8 0 14 0.0000 0.0000
8 0 15 0.0000 0.0000
8 1 1 0.0000 0.0000
8 1 2 0.0000 0.0000
8 1 3 0.0000 0.0000
8 1 4 0.0000 0.0000
8 1 5 0.0000 0.0000
8 1 6 0.0000 0.0000
8 1 7 0.0000 0.0000
8 1 8 0.0000 0.0000
8 1 9 0.0000 0.0000
8 1 10 0.0000 0.0000
8 1 11 0.0000 0.0000
8 1 12 0.0000 0.0000
8 1 13 0.0000 0.0000
8 1 14 0.0000 0.0000
8 1 15 0.0000 0.0000
8 2 0 0.0000 0.0000
8 2 1 0.0000 0.0000
8 2 2 0.0000 0.0000
8 2 3 0.0000 0.0000
8 2 4 0.0000 0.0000
8 2 5 0.0000 0.0000
8 2 6 0.0000 0.0000
8 2 7 0.0000 0.0000
8 2 8 0.0000 0.0000
8 2 9 0.0000 0.0000
8 2 10 0.0000 0.0000
8 2 11 0.0000 0.0000
8 2 12 0.0000 0.0000
8 2 13 0.0000 0.0000
8 2 14 0.0000 0.0000
8 2 15 0.0000 0.0000
8 3 1 0.0000 0.0000
8 3 2 0.0000 0.0000
8 3 3 0.0000 0.0000
8 3 4 0.0000 0.0000
8 3 5 0.0000 0.0000
8 3 6 0.0000 0.0000
8 3 7 0.0000 0.0000
8 3 8 0.0000 0.0000
8 3 9 0.0000 0.0000
8 3 10 0.0000 0.0000
8 3 11 0.0000 0.0000
8 3 12 0.0000 0.0000
8 3 13 0.0000 0.0000
8 3 14 0.0000 0.0000
8 3 15 0.0000 0.0000
8 4 0 0.0000 0.0000
8 4 1 0.0000 0.0000
8 4 2 0.0000 0.0000
8 4 3 0.0000 0.0000
8 4 4 0.0000 0.0000
8 4 5 0.0000 0.0000
8 4 6 0.0000 0.0000
8 4 7 0.0000 0.0000
8 4 8 0.0000 0.0000
8 4 9 0.0000 0.0000
8 4 10 0.0000 0.0000
8 4 11 0.0000 0.0000
8 4 12 0.0000 0.0000
8 4 13 0.0000 0.0000
8 4 14 0.0000 0.0000
8 4 15 0.0000 0.0000
8 5 1 0.0000 0.0000
8 5 2 0.0000 0.0000
8 5 3 0.0000 0.0000
8 5 4 0.0000 0.0000
8 5 5 0.0000 0.0000
8 5 6 0.0000 0.0000
8 5 7 0.0000 0.0000
8 5 8 0.0000 0.0000
8 5 9 0.0000 0.0000
8 5 10 0.0000 0.0000
8 5 11 0.0000 0.0000
8 5 12 0.0000 0.0000
8 5 13 0.0000 0.0000
8 5 14 0.0000 0.0000
8 5 15 0.0000 0.0000
8 6 0 0.0000 0.0000
8 6 1 0.0000 0.0000
8 6 2 0.0000 0.0000
8 6 3 0.0000 0.0000
8 6 4 0.0000 0.0000
8 6 5 0.0000 0.0000
8 6 6 0.0000 0.0000
8 6 7 0.0000 0.0000
8 6 8 0.0000 0.0000
8 6 9 0.0000 0.0000
8 6 10 0.0000 0.0000
8 6 11 0.0000 0.0000
8 6 12 0.0000 0.0000
8 6 13 0.0000 0.0000
8 6 14 0.0000 0.0000
8 6 15 0.0000 0.0000
8 7 1 0.0000 0.0000
8 7 2 0.0000 0.0000
8 7 3 0.0000 0.0000
8 7 4 0.0000 0.0000
8 7 5 0.0000 0.0000
8 7 6 0.0000 0.0000
8 7 7 0.0000 0.0000
8 7 8 0.0000 0.0000
8 7 9 0.0000 0.0000
8 7 10 0.0000 0.0000
8 7 11 0.0000 0.0000
8 7 12 0.0000 0.0000
8 7 13 0.0000 0.0000
8 7 14 0.0000 0.0000
8 7 15 0.0000 0.0000
8 8 0 0.0000 0.0000
8 8 1 0.0000 0.0000
8 8 2 0.0000 0.0000
8 8 3 0.0000 0.0000
8 8 4 0.0000 0.0000
8 8 5 0.0000 0.0000
8 8 6 0.0000 0.0000
8 8 7 0.0000 0.0000
8 8 8 0.0000 0.0000
8 8 9 0.0000 0.0000
8 8 10 0.0000 0.0000
8 8 11 0.0000 0.0000
8 8 12 0.0000 0.0000
8 8 13 0.0000 0.0000
8 8 14 0.0000 0.0000
9 0 1 0.0000 0.0000
9 0 2 0.0000 0.0000
9 0 3 0.0000 0.0000
9 0 4 0.0000 0.0000
9 0 5 0.0000 0.0000
9 0 6 0.0000 0.0000
9 0 7 0.0000 0.0000
9 0 8 0.0000 0.0000
9 0 9 0.0000 0.0000
9 0 10 0.0000 0.0000
9 0 11 0.0000 0.0000
9 0 12 0.0000 0.0000
9 0 13 0.0000 0.0000
9 0 14 0.0000 0.0000
9 0 15 0.0000 0.0000
9 1 0 0.0000 0.0000
9 1 1 0.0000 0.0000
9 1 2 0.0000 0.0000
9 1 3 0.0000 0.0000
9 1 4 0.0000 0.0000
9 1 5 0.0000 0.0000
9 1 6 0.0000 0.0000
9 1 7 0.0000 0.0000
9 1 8 0.0000 0.0000
9 1 9 0.0000 0.0000
9 1 10 0.0000 0.0000
9 1 11 0.0000 0.0000
9 1 12 0.0000 0.0000
9 1 13 0.0000 0.0000
9 1 14 0.0000 0.0000
9 1 15 0.0000 0.0000
9 2 1 0.0000 0.0000
9 2 2 0.0000 0.0000
9 2 3 0.0000 0.0000
9 2 4 0.0000 0.0000
9 2 5 0.0000 0.0000
9 2 6 0.0000 0.0000
9 2 7 0.0000 0.0000
9 2 8 0.0000 0.0000
9 2 9 0.0000 0.0000
9 2 10 0.0000 0.0000
9 2 11 0.0000 0.0000
9 2 12 0.0000 0.0000
9 2 13 0.0000 0.0000
9 2 14 0.0000 0.0000
9 2 15 0.0000 0.0000
9 3 0 0.0000 0.0000
9 3 1 0.0000 0.0000
9 3 2 0.0000 0.0000
9 3 3 0.0000 0.0000
9 3 4 0.0000 0.0000
9 3 5 0.0000 0.0000
9 3 6 0.0000 0.0000
9 3 7 0.0000 0.0000
9 3 8 0.0000 0.0000
9 3 9 0.0000 0.0000
9 3 10 0.0000 0.0000
9 3 11 0.0000 0.0000
9 3 12 0.0000 0.0000
9 3 13 0.0000 0.0000
9 3 14 0.0000 0.0000
9 3 15 0.0000 0.0000
9 4 1 0.0000 0.0000
9 4 2 0.0000 0.0000
9 4 3 0.0000 0.0000
9 4 4 0.0000 0.0000
9 4 5 0.0000 0.0000
9 4 6 0.0000 0.0000
9 4 7 0.0000 0.0000
9 4 8 0.0000 0.0000
9 4 9 0.0000 0.0000
9 4 10 0.0000 0.0000
9 4 11 0.0000 0.0000
9 4 12 0.0000 0.0000
9 4 13 0.0000 0.0000
9 4 14 0.0000 0.0000
9 4 15 0.0000 0.0000
9 5 0 0.0000 0.0000
9 5 1 0.0000 0.0000
9 5 2 0.0000 0.0000
9 5 3 0.0000 0.0000
9 5 4 0.0000 0.0000
9 5 5 0.0000 0.0000
9 5 6 0.0000 0.0000
9 5 7 0.0000 0.0000
9 5 8 0.0000 0.0000
9 5 9 0.0000 0.0000
9 5 10 0.0000 0.0000
9 5 11 0.0000 0.0000
9 5 12 0.0000 0.0000
9 5 13 0.0000 0.0000
9 5 14 0.0000 0.0000
9 5 15 0.0000 0.0000
9 6 1 0.0000 0.0000
9 6 2 0.0000 0.0000
9 6 3 0.0000 0.0000
9 6 4 0.0000 0.0000
9 6 5 0.0000 0.0000
9 6 6 0.0000 0.0000
9 6 7 0.0000 0.0000
9 6 8 0.0000 0.0000
9 6 9 0.0000 0.0000
9 6 10 0.0000 0.0000
9 6 11 0.0000 0.0000
9 6 12 0.0000 0.0000
9 6 13 0.0000 0.0000
9 6 14 0.0000 0.0000
9 6 15 0.0000 0.0000
9 7 0 0.0000 0.0000
9 7 1 0.0000 0.0000
9 7 2 0.0000 0.0000
9 7 3 0.0000 0.0000
9 7 4 0.0000 0.0000
9 7 5 0.0000 0.0000
9 7 6 0.0000 0.0000
9 7 7 0.0000 0.0000
9 7 8 0.0000 0.0000
9 7 9 0.0000 0.0000
9 7 10 0.0000 0.0000
9 7 11 0.0000 0.0000
9 7 12 0.0000 0.0000
9 7 13 0.0000 0.0000
9 7 14 0.0000 0.0000
9 8 1 0.0000 0.0000
9 8 2 0.0000 0.0000
9 8 3 0.0000 0.0000
9 8 4 0.0000 0.0000
9 8 5 0.0000 0.0000
9 8 6 0.0000 0.0000
9 8 7 0.0000 0.0000
9 8 8 0.0000 0.0000
9 8 9 0.0000 0.0000
9 8 10 0.0000 0.0000
9 8 11 0.0000 0.0000
9 8 12 0.0000 0.0000
9 8 13 0.0000 0.0000
9 8 14 0.0000 0.0000
9 9 0 0.0000 0.0000
9 9 1 0.0000 0.0000
9 9 2 0.0000 0.0000
9 9 3 0.0000 0.0000
9 9 4 0.0000 0.0000
9 9 5 0.0000 0.0000
9 9 6 0.0000 0.0000
9 9 7 0.0000 0.0000
9 9 8 0.0000 0.0000
9 9 9 0.0000 0.0000
9 9 10 0.0000 0.0000
9 9 11 0.0000 0.0000
9 9 12 0.0000 0.0000
9 9 13 0.0000 0.0000
9 9 14 0.0000 0.0000
10 0 0 0.0000 0.0000
10 0 1 0.0000 0.0000
10 0 2 0.0000 0.0000
10 0 3 0.0000 0.0000
10 0 4 0.0000 0.0000
10 0 5 0.0000 0.0000
10 0 6 0.0000 0.0000
10 0 7 0.0000 0.0000
10 0 8 0.0000 0.0000
10 0 9 0.0000 0.0000
10 0 10 0.0000 0.0000
10 0 11 0.0000 0.0000
10 0 12 0.0000 0.0000
10 0 13 0.0000 0.0000
10 0 14 0.0000 0.0000
10 0 15 0.0000 0.0000
10 1 1 0.0000 0.0000
10 1 2 0.0000 0.0000
10 1 3 0.0000 0.0000
10 1 4 0.0000 0.0000
10 1 5 0.0000 0.0000
10 1 6 0.0000 0.0000
10 1 7 0.0000 0.0000
10 1 8 0.0000 0.0000
10 1 9 0.0000 0.0000
10 1 10 0.0000 0.0000
10 1 11 0.0000 0.0000
10 1 12 0.0000 0.0000
10 1 13 0.0000 0.0000
10 1 14 0.0000 0.0000
10 1 15 0.0000 0.0000
10 2 0 0.0000 0.0000
10 2 1 0.0000 0.0000
10 2 2 0.0000 0.0000
10 2 3 0.0000 0.0000
10 2 4 0.0000 0.0000
10 2 5 0.0000 0.0000
10 2 6 0.0000 0.0000
10 2 7 0.0000 0.0000
10 2 8 0.0000 0.0000
10 2 9 0.0000 0.0000
10 2 10 0.0000 0.0000
10 2 11 0.0000 0.0000
10 2 12 0.0000 0.0000
10 2 13 0.0000 0.0000
10 2 14 0.0000 0.0000
10 2 15 0.0000 0.0000
10 3 1 0.0000 0.0000
10 3 2 0.0000 0.0000
10 3 3 0.0000 0.0000
10 3 4 0.0000 0.0000
10 3 5 0.0000 0.0000
10 3 6 0.0000 0.0000
10 3 7 0.0000 0.0000
10 3 8 0.0000 0.0000
10 3 9 0.0000 0.0000
10 3 10 0.0000 0.0000
10 3 11 0.0000 0.0000
10 3 12 0.0000 0.0000
10 3 13 0.0000 0.0000
10 3 14 0.0000 0.0000
10 3 15 0.0000 0.0000
10 4 0 0.0000 0.0000
10 4 1 0.0000 0.0000
10 4 2 0.0000 0.0000
10 4 3 0.0000 0.0000
10 4 4 0.0000 0.0000
10 4 5 0.0000 0.0000
10 4 6 0.0000 0.0000
10 4 7 0.0000 0.0000
10 4 8 0.0000 0.0000
10 4 9 0.0000 0.0000
10 4 10 0.0000 0.0000
10 4 11 0.0000 0.0000
10 4 12 0.0000 0.0000
10 4 13 0.0000 0.0000
10 4 14 0.0000 0.0000
10 4 15 0.0000 0.0000
10 5 1 0.0000 0.0000
10 5 2 0.0000 0.0000
10 5 3 0.0000 0.0000
10 5 4 0.0000 0.0000
10 5 5 0.0000 0.0000
10 5 6 0.0000 0.0000
10 5 7 0.0000 0.0000
10 5 8 0.0000 0.0000
10 5 9 0.0000 0.0000
10 5 10 0.0000 0.0000
10 5 11 0.0000 0.0000
10 5 12 0.0000 0.0000
10 5 13 0.0000 0.0000
10 5 14 0.0000 0.0000
10 6 0 0.0000 0.0000
10 6 1 0.0000 0.0000
10 6 2 0.0000 0.0000
10 6 3 0.0000 0.0000
10 6 4 0.0000 0.0000
10 6 5 0.0000 0.0000
10 6 6 0.0000 0.0000
10 6 7 0.0000 0.0000
10 6 8 0.0000 0.0000
10 6 9 0.0000 0.0000
10 6 10 0.0000 0.0000
10 6 11 0.0000 0.0000
10 6 12 0.0000 0.0000
10 6 13 0.0000 0.0000
10 6 14 0.0000 0.0000
10 7 1 0.0000 0.0000
10 7 2 0.0000 0.0000
10 7 3 0.0000 0.0000
10 7 4 0.0000 0.0000
10 7 5 0.0000 0.0000
10 7 6 0.0000 0.0000
10 7 7 0.0000 0.0000
10 7 8 0.0000 0.0000
10 7 9 0.0000 0.0000
10 7 10 0.0000 0.0000
10 7 11 0.0000 0.0000
10 7 12 0.0000 0.0000
10 7 13 0.0000 0.0000
10 7 14 0.0000 0.0000
10 8 0 0.0000 0.0000
10 8 1 0.0000 0.0000
10 8 2 0.0000 0.0000
10 8 3 0.0000 0.0000
10 8 4 0.0000 0.0000
10 8 5 0.0000 0.0000
10 8 6 0.0000 0.0000
10 8 7 0.0000 0.0000
10 8 8 0.0000 0.0000
10 8 9 0.0000 0.0000
10 8 10 0.0000 0.0000
10 8 11 0.0000 0.0000
10 8 12 0.0000 0.0000
10 8 13 0.0000 0.0000
10 8 14 0.0000 0.0000
10 9 1 0.0000 0.0000
10 9 2 0.0000 0.0000
10 9 3 0.0000 0.0000
10 9 4 0.0000 0.0000
10 9 5 0.0000 0.0000
10 9 6 0.0000 0.0000
10 9 7 0.0000 0.0000
10 9 8 0.0000 0.0000
10 9 9 0.0000 0.0000
10 9 10 0.0000 0.0000
10 9 11 0.0000 0.0000
10 9 12 0.0000 0.0000
10 9 13 0.0000 0.0000
10 10 0 0.0000 0.0000
10 10 1 0.0000 0.0000
10 10 2 0.0000 0.0000
10 10 3 0.0000 0.0000
10 10 4 0.0000 0.0000
10 10 5 0.0000 0.0000
10 10 6 0.0000 0.0000
10 10 7 0.0000 0.0000
10 10 8 0.0000 0.0000
10 10 9 0.0000 0.0000
10 10 10 0.0000 0.0000
10 10 11 0.0000 0.0000
10 10 12 0.0000 0.0000
10 10 13 0.0000 0.0000
11 0 1 0.0000 0.0000
11 0 2 0.0000 0.0000
11 0 3 0.0000 0.0000
11 0 4 0.0000 0.0000
11 0 5 0.0000 0.0000
11 0 6 0.0000 0.0000
11 0 7 0.0000 0.0000
11 0 8 0.0000 0.0000
11 0 9 0.0000 0.0000
11 0 10 0.0000 0.0000
11 0 11 0.0000 0.0000
11 0 12 0.0000 0.0000
11 0 13 0.0000 0.0000
11 0 14 0.0000 0.0000
11 0 15 0.0000 0.0000
11 1 0 0.0000 0.0000
11 1 1 0.0000 0.0000
11 1 2 0.0000 0.0000
11 1 3 0.0000 0.0000
11 1 4 0.0000 0.0000
11 1 5 0.0000 0.0000
11 1 6 0.0000 0.0000
11 1 7 0.0000 0.0000
11 1 8 0.0000 0.0000
11 1 9 0.0000 0.0000
11 1 10 0.0000 0.0000
11 1 11 0.0000 0.0000
11 1 12 0.0000 0.0000
11 1 13 0.0000 0.0000
11 1 14 0.0000 0.0000
11 1 15 0.0000 0.0000
11 2 1 0.0000 0.0000
11 2 2 0.0000 0.0000
11 2 3 0.0000 0.0000
11 2 4 0.0000 0.0000
11 2 5 0.0000 0.0000
11 2 6 0.0000 0.0000
11 2 7 0.0000 0.0000
11 2 8 0.0000 0.0000
11 2 9 0.0000 0.0000
11 2 10 0.0000 0.0000
11 2 11 0.0000 0.0000
11 2 12 0.0000 0.0000
11 2 13 0.0000 0.0000
11 2 14 0.0000 0.0000
11 3 0 0.0000 0.0000
11 3 1 0.0000 0.0000
11 3 2 0.0000 0.0000
11 3 3 0.0000 0.0000
11 3 4 0.0000 0.0000
11 3 5 0.0000 0.0000
11 3 6 0.0000 0.0000
11 3 7 0.0000 0.0000
11 3 8 0.0000 0.0000
11 3 9 0.0000 0.0000
11 3 10 0.0000 0.0000
11 3 11 0.0000 0.0000
11 3 12 0.0000 0.0000
11 3 13 0.0000 0.0000
11 3 14 0.0000 0.0000
11 4 1 0.0000 0.0000
11 4 2 0.0000 0.0000
11 4 3 0.0000 0.0000
11 4 4 0.0000 0.0000
11 4 5 0.0000 0.0000
11 4 6 0.0000 0.0000
11 4 7 0.0000 0.0000
11 4 8 0.0000 0.0000
11 4 9 0.0000 0.0000
11 4 10 0.0000 0.0000
11 4 11 0.0000 0.0000
11 4 12 0.0000 0.0000
11 4 13 0.0000 0.0000
11 4 14 0.0000 0.0000
11 5 0 0.0000 0.0000
11 5 1 0.0000 0.0000
11 5 2 0.0000 0.0000
11 5 3 0.0000 0.0000
11 5 4 0.0000 0.0000
11 5 5 0.0000 0.0000
11 5 6 0.0000 0.0000
11 5 7 0.0000 0.0000
11 5 8 0.0000 0.0000
11 5 9 0.0000 0.0000
11 5 10 0.0000 0.0000
11 5 11 0.0000 0.0000
11 5 12 0.0000 0.0000
11 5 13 0.0000 0.0000
11 5 14 0.0000 0.0000
11 6 1 0.0000 0.0000
11 6 2 0.0000 0.0000
11 6 3 0.0000 0.0000
11 6 4 0.0000 0.0000
11 6 5 0.0000 0.0000
11 6 6 0.0000 0.0000
11 6 7 0.0000 0.0000
11 6 8 0.0000 0.0000
11 6 9 0.0000 0.0000
11 6 10 0.0000 0.0000
11 6 11 0.0000 0.0000
11 6 12 0.0000 0.0000
11 6 13 0.0000 0.0000
11 6 14 0.0000 0.0000
11 7 0 0.0000 0.0000
11 7 1 0.0000 0.0000
11 7 2 0.0000 0.0000
11 7 3 0.0000 0.0000
11 7 4 0.0000 0.0000
11 7 5 0.0000 0.0000
11 7 6 0.0000 0.0000
11 7 7 0.0000 0.0000
11 7 8 0.0000 0.0000
11 7 9 0.0000 0.0000
11 7 10 0.0000 0.0000
11 7 11 0.0000 0.0000
11 7 12 0.0000 0.0000
11 7 13 0.0000 0.0000
11 7 14 0.0000 0.0000
11 8 1 0.0000 0.0000
11 8 2 0.0000 0.0000
11 8 3 0.0000 0.0000
11 8 4 0.0000 0.0000
11 8 5 0.0000 0.0000
11 8 6 0.0000 0.0000
11 8 7 0.0000 0.0000
11 8 8 0.0000 0.0000
11 8 9 0.0000 0.0000
11 8 10 0.0000 0.0000
11 8 11 0.0000 0.0000
11 8 12 0.0000 0.0000
11 8 13 0.0000 0.0000
11 9 0 0.0000 0.0000
11 9 1 0.0000 0.0000
11 9 2 0.0000 0.0000
11 9 3 0.0000 0.0000
11 9 4 0.0000 0.0000
11 9 5 0.0000 0.0000
11 9 6 0.0000 0.0000
11 9 7 0.0000 0.0000
11 9 8 0.0000 0.0000
11 9 9 0.0000 0.0000
11 9 10 0.0000 0.0000
11 9 11 0.0000 0.0000
11 9 12 0.0000 0.0000
11 9 13 0.0000 0.0000
11 10 1 0.0000 0.0000
11 10 2 0.0000 0.0000
11 10 3 0.0000 0.0000
11 10 4 0.0000 0.0000
11 10 5 0.0000 0.0000
11 10 6 0.0000 0.0000
11 10 7 0.0000 0.0000
11 10 8 0.0000 0.0000
11 10 9 0.0000 0.0000
11 10 10 0.0000 0.0000
11 10 11 0.0000 0.0000
11 10 12 0.0000 0.0000
11 10 13 0.0000 0.0000
11 11 0 0.0000 0.0000
11 11 1 0.0000 0.0000
11 11 2 0.0000 0.0000
11 11 3 0.0000 0.0000
11 11 4 0.0000 0.0000
11 11 5 0.0000 0.0000
11 11 6 0.0000 0.0000
11 11 7 0.0000 0.0000
11 11 8 0.0000 0.0000
11 11 9 0.0000 0.0000
11 11 10 0.0000 0.0000
11 11 11 0.0000 0.0000
11 11 12 0.0000 0.0000
12 0 0 0.0000 0.0000
12 0 1 0.0000 0.0000
12 0 2 0.0000 0.0000
12 0 3 0.0000 0.0000
12 0 4 0.0000 0.0000
12 0 5 0.0000 0.0000
12 0 6 0.0000 0.0000
12 0 7 0.0000 0.0000
12 0 8 0.0000 0.0000
12 0 9 0.0000 0.0000
12 0 10 0.0000 0.0000
12 0 11 0.0000 0.0000
12 0 12 0.0000 0.0000
12 0 13 0.0000 0.0000
12 0 14 0.0000 0.0000
12 1 1 0.0000 0.0000
12 1 2 0.0000 0.0000
12 1 3 0.0000 0.0000
12 1 4 0.0000 0.0000
12 1 5 0.0000 0.0000
12 1 6 0.0000 0.0000
12 1 7 0.0000 0.0000
12 1 8 0.0000 0.0000
12 1 9 0.0000 0.0000
12 1 10 0.0000 0.0000
12 1 11 0.0000 0.0000
12 1 12 0.0000 0.0000
12 1 13 0.0000 0.0000
12 1 14 0.0000 0.0000
12 2 0 0.0000 0.0000
12 2 1 0.0000 0.0000
12 2 2 0.0000 0.0000
12 2 3 0.0000 0.0000
12 2 4 0.0000 0.0000
12 2 5 0.0000 0.0000
12 2 6 0.0000 0.0000
12 2 7 0.0000 0.0000
12 2 8 0.0000 0.0000
12 2 9 0.0000 0.0000
12 2 10 0.0000 0.0000
12 2 11 0.0000 0.0000
12 2 12 0.0000 0.0000
12 2 13 0.0000 0.0000
12 2 14 0.0000 0.0000
12 3 1 0.0000 0.0000
12 3 2 0.0000 0.0000
12 3 3 0.0000 0.0000
12 3 4 0.0000 0.0000
12 3 5 0.0000 0.0000
12 3 6 0.0000 0.0000
12 3 7 0.0000 0.0000
12 3 8 0.0000 0.0000
12 3 9 0.0000 0.0000
12 3 10 0.0000 0.0000
12 3 11 0.0000 0.0000
12 3 12 0.0000 0.0000
12 3 13 0.0000 0.0000
12 3 14 0.0000 0.0000
12 4 0 0.0000 0.0000
12 4 1 0.0000 0.0000
12 4 2 0.0000 0.0000
12 4 3 0.0000 0.0000
12 4 4 0.0000 0.0000
12 4 5 0.0000 0.0000
12 4 6 0.0000 0.0000
12 4 7 0.0000 0.0000
12 4 8 0.0000 0.0000
12 4 9 0.0000 0.0000
12 4 10 0.0000 0.0000
12 4 11 0.0000 0.0000
12 4 12 0.0000 0.0000
12 4 13 0.0000 0.0000
12 4 14 0.0000 0.0000
12 5 1 0.0000 0.0000
12 5 2 0.0000 0.0000
12 5 3 0.0000 0.0000
12 5 4 0.0000 0.0000
12 5 5 0.0000 0.0000
12 5 6 0.0000 0.0000
12 5 7 0.0000 0.0000
12 5 8 0.0000 0.0000
12 5 9 0.0000 0.0000
12 5 10 0.0000 0.0000
12 5 11 0.0000 0.0000
12 5 12 0.0000 0.0000
12 5 13 0.0000 0.0000
12 5 14 0.0000 0.0000
12 6 0 0.0000 0.0000
12 6 1 0.0000 0.0000
12 6 2 0.0000 0.0000
12 6 3 0.0000 0.0000
12 6 4 0.0000 0.0000
12 6 5 0.0000 0.0000
12 6 6 0.0000 0.0000
12 6 7 0.0000 0.0000
12 6 8 0.0000 0.0000
12 6 9 0.0000 0.0000
12 6 10 0.0000 0.0000
12 6 11 0.0000 0.0000
12 6 12 0.0000 0.0000
12 6 13 0.0000 0.0000
12 7 1 0.0000 0.0000
12 7 2 0.0000 0.0000
12 7 3 0.0000 0.0000
12 7 4 0.0000 0.0000
12 7 5 0.0000 0.0000
12 7 6 0.0000 0.0000
12 7 7 0.0000 0.0000
12 7 8 0.0000 0.0000
12 7 9 0.0000 0.0000
12 7 10 0.0000 0.0000
12 7 11 0.0000 0.0000
12 7 12 0.0000 0.0000
12 7 13 0.0000 0.0000
12 8 0 0.0000 0.0000
12 8 1 0.0000 0.0000
12 8 2 0.0000 0.0000
12 8 3 0.0000 0.0000
12 8 4 0.0000 0.0000
12 8 5 0.0000 0.0000
12 8 6 0.0000 0.0000
12 8 7 0.0000 0.0000
12 8 8 0.0000 0.0000
12 8 9 0.0000 0.0000
12 8 10 0.0000 0.0000
12 8 11 0.0000 0.0000
12 8 12 0.0000 0.0000
12 8 13 0.0000 0.0000
12 9 1 0.0000 0.0000
12 9 2 0.0000 0.0000
12 9 3 0.0000 0.0000
12 9 4 0.0000 0.0000
12 9 5 0.0000 0.0000
12 9 6 0.0000 0.0000
12 9 7 0.0000 0.0000
12 9 8 0.0000 0.0000
12 9 9 0.0000 0.0000
12 9 10 0.0000 0.0000
12 9 11 0.0000 0.0000
12 9 12 0.0000 0.0000
12 9 13 0.0000 0.0000
12 10 0 0.0000 0.0000
12 10 1 0.0000 0.0000
12 10 2 0.0000 0.0000
12 10 3 0.0000 0.0000
12 10 4 0.0000 0.0000
12 10 5 0.0000 0.0000
12 10 6 0.0000 0.0000
12 10 7 0.0000 0.0000
12 10 8 0.0000 0.0000
12 10 9 0.0000 0.0000
12 10 10 0.0000 0.0000
12 10 11 0.0000 0.0000
12 10 12 0.0000 0.0000
12 11 1 0.0000 0.0000
12 11 2 0.0000 0.0000
12 11 3 0.0000 0.0000
12 11 4 0.0000 0.0000
12 11 5 0.0000 0.0000
12 11 6 0.0000 0.0000
12 11 7 0.0000 0.0000
12 11 8 0.0000 0.0000
12 11 9 0.0000 0.0000
12 11 10 0.0000 0.0000
12 11 11 0.0000 0.0000
12 11 12 0.0000 0.0000
12 12 0 0.0000 0.0000
12 12 1 0.0000 0.0000
12 12 2 0.0000 0.0000
12 12 3 0.0000 0.0000
12 12 4 0.0000 0.0000
12 12 5 0.0000 0.0000
12 12 6 0.0000 0.0000
12 12 7 0.0000 0.0000
12 12 8 0.0000 0.0000
12 12 9 0.0000 0.0000
12 12 10 0.0000 0.0000
12 12 11 0.0000 0.0000
13 0 1 0.0000 0.0000
13 0 2 0.0000 0.0000
13 0 3 0.0000 0.0000
13 0 4 0.0000 0.0000
13 0 5 0.0000 0.0000
13 0 6 0.0000 0.0000
13 0 7 0.0000 0.0000
13 0 8 0.0000 0.0000
13 0 9 0.0000 0.0000
13 0 10 0.0000 0.0000
13 0 11 0.0000 0.0000
13 0 12 0.0000 0.0000
13 0 13 0.0000 0.0000
13 0 14 0.0000 0.0000
13 1 0 0.0000 0.0000
13 1 1 0.0000 0.0000
13 1 2 0.0000 0.0000
13 1 3 0.0000 0.0000
13 1 4 0.0000 0.0000
13 1 5 0.0000 0.0000
13 1 6 0.0000 0.0000
13 1 7 0.0000 0.0000
13 1 8 0.0000 0.0000
13 1 9 0.0000 0.0000
13 1 10 0.0000 0.0000
13 1 11 0.0000 0.0000
13 1 12 0.0000 0.0000
13 1 13 0.0000 0.0000
13 1 14 0.0000 0.0000
13 2 1 0.0000 0.0000
13 2 2 0.0000 0.0000
13 2 3 0.0000 0.0000
13 2 4 0.0000 0.0000
13 2 5 0.0000 0.0000
13 2 6 0.0000 0.0000
13 2 7 0.0000 0.0000
13 2 8 0.0000 0.0000
13 2 9 0.0000 0.0000
13 2 10 0.0000 0.0000
13 2 11 0.0000 0.0000
13 2 12 0.0000 0.0000
13 2 13 0.0000 0.0000
13 2 14 0.0000 0.0000
13 3 0 0.0000 0.0000
13 3 1 0.0000 0.0000
13 3 2 0.0000 0.0000
13 3 3 0.0000 0.0000
13 3 4 0.0000 0.0000
13 3 5 0.0000 0.0000
13 3 6 0.0000 0.0000
13 3 7 0.0000 0.0000
13 3 8 0.0000 0.0000
13 3 9 0.0000 0.0000
13 3 10 0.0000 0.0000
13 3 11 0.0000 0.0000
13 3 12 0.0000 0.0000
13 3 13 0.0000 0.0000
13 4 1 0.0000 0.0000
13 4 2 0.0000 0.0000
13 4 3 0.0000 0.0000
13 4 4 0.0000 0.0000
13 4 5 0.0000 0.0000
13 4 6 0.0000 0.0000
13 4 7 0.0000 0.0000
13 4 8 0.0000 0.0000
13 4 9 0.0000 0.0000
13 4 10 0.0000 0.0000
13 4 11 0.0000 0.0000
13 4 12 0.0000 0.0000
13 4 13 0.0000 0.0000
13 5 0 0.0000 0.0000
13 5 1 0.0000 0.0000
13 5 2 0.0000 0.0000
13 5 3 0.0000 0.0000
13 5 4 0.0000 0.0000
13 5 5 0.0000 0.0000
13 5 6 0.0000 0.0000
13 5 7 0.0000 0.0000
13 5 8 0.0000 0.0000
13 5 9 0.0000 0.0000
13 5 10 0.0000 0.0000
13 5 11 0.0000 0.0000
13 5 12 0.0000 0.0000
13 5 13 0.0000 0.0000
13 6 1 0.0000 0.0000
13 6 2 0.0000 0.0000
13 6 3 0.0000 0.0000
13 6 4 0.0000 0.0000
13 6 5 0.0000 0.0000
13 6 6 0.0000 0.0000
13 6 7 0.0000 0.0000
13 6 8 0.0000 0.0000
13 6 9 0.0000 0.0000
13 6 10 0.0000 0.0000
13 6 11 0.0000 0.0000
13 6 12 0.0000 0.0000
13 6 13 0.0000 0.0000
13 7 0 0.0000 0.0000
13 7 1 0.0000 0.0000
13 7 2 0.0000 0.0000
13 7 3 0.0000 0.0000
13 7 4 0.0000 0.0000
13 7 5 0.0000 0.0000
13 7 6 0.0000 0.0000
13 7 7 0.0000 0.0000
13 7 8 0.0000 0.0000
13 7 9 0.0000 0.0000
13 7 10 0.0000 0.0000
13 7 11 0.0000 0.0000
13 7 12 0.0000 0.0000
13 7 13 0.0000 0.0000
13 8 1 0.0000 0.0000
13 8 2 0.0000 0.0000
13 8 3 0.0000 0.0000
13 8 4 0.0000 0.0000
13 8 5 0.0000 0.0000
13 8 6 0.0000 0.0000
13 8 7 0.0000 0.0000
13 8 8 0.0000 0.0000
13 8 9 0.0000 0.0000
13 8 10 0.0000 0.0000
13 8 11 0.0000 0.0000
13 8 12 0.0000 0.0000
13 9 0 0.0000 0.0000
13 9 1 0.0000 0.0000
13 9 2 0.0000 0.0000
13 9 3 0.0000 0.0000
13 9 4 0.0000 0.0000
13 9 5 0.0000 0.0000
13 9 6 0.0000 0.0000
13 9 7 0.0000 0.0000
13 9 8 0.0000 0.0000
13 9 9 0.0000 0.0000
13 9 10 0.0000 0.0000
13 9 11 0.0000 0.0000
13 9 12 0.0000 0.0000
13 10 1 0.0000 0.0000
13 10 2 0.0000 0.0000
13 10 3 0.0000 0.0000
13 10 4 0.0000 0.0000
13 10 5 0.0000 0.0000
13 10 6 0.0000 0.0000
13 10 7 0.0000 0.0000
13 10 8 0.0000 0.0000
13 10 9 0.0000 0.0000
13 10 10 0.0000 0.0000
13 10 11 0.0000 0.0000
13 10 12 0.0000 0.0000
13 11 0 0.0000 0.0000
13 11 1 0.0000 0.0000
13 11 2 0.0000 0.0000
13 11 3 0.0000 0.0000
13 11 4 0.0000 0.0000
13 11 5 0.0000 0.0000
13 11 6 0.0000 0.0000
13 11 7 0.0000 0.0000
13 11 8 0.0000 0.0000
13 11 9 0.0000 0.0000
13 11 10 0.0000 0.0000
13 11 11 0.0000 0.0000
13 12 1 0.0000 0.0000
13 12 2 0.0000 0.0000
13 12 3 0.0000 0.0000
13 12 4 0.0000 0.0000
13 12 5 0.0000 0.0000
13 12 6 0.0000 0.0000
13 12 7 0.0000 0.0000
13 12 8 0.0000 0.0000
13 12 9 0.0000 0.0000
13 12 10 0.0000 0.0000
13 12 11 0.0000 0.0000
13 13 0 0.0000 0.0000
13 13 1 0.0000 0.0000
13 13 2 0.0000 0.0000
13 13 3 0.0000 0.0000
13 13 4 0.0000 0.0000
13 13 5 0.0000 0.0000
13 13 6 0.0000 0.0000
13 13 7 0.0000 0.0000
13 13 8 0.0000 0.0000
13 13 9 0.0000 0.0000
13 13 10 0.0000 0.0000
14 0 0 0.0000 0.0000
14 0 1 0.0000 0.0000
14 0 2 0.0000 0.0000
14 0 3 0.0000 0.0000
14 0 4 0.0000 0.0000
14 0 5 0.0000 0.0000
14 0 6 0.0000 0.0000
14 0 7 0.0000 0.0000
14 0 8 0.0000 0.0000
14 0 9 0.0000 0.0000
14 0 10 0.0000 0.0000
14 0 11 0.0000 0.0000
14 0 12 0.0000 0.0000
14 0 13 0.0000 0.0000
14 1 1 0.0000 0.0000
14 1 2 0.0000 0.0000
14 1 3 0.0000 0.0000
14 1 4 0.0000 0.0000
14 1 5 0.0000 0.0000
14 1 6 0.0000 0.0000
14 1 7 0.0000 0.0000
14 1 8 0.0000 0.0000
14 1 9 0.0000 0.0000
14 1 10 0.0000 0.0000
14 1 11 0.0000 0.0000
14 1 12 0.0000 0.0000
14 1 13 0.0000 0.0000
14 2 0 0.0000 0.0000
14 2 1 0.0000 0.0000
14 2 2 0.0000 0.0000
14 2 3 0.0000 0.0000
14 2 4 0.0000 0.0000
14 2 5 0.0000 0.0000
14 2 6 0.0000 0.0000
14 2 7 0.0000 0.0000
14 2 8 0.0000 0.0000
14 2 9 0.0000 0.0000
14 2 10 0.0000 0.0000
14 2 11 0.0000 0.0000
14 2 12 0.0000 0.0000
14 2 13 0.0000 0.0000
14 3 1 0.0000 0.0000
14 3 2 0.0000 0.0000
14 3 3 0.0000 0.0000
14 3 4 0.0000 0.0000
14 3 5 0.0000 0.0000
14 3 6 0.0000 0.0000
14 3 7 0.0000 0.0000
14 3 8 0.0000 0.0000
14 3 9 0.0000 0.0000
14 3 10 0.0000 0.0000
14 3 11 0.0000 0.0000
14 3 12 0.0000 0.0000
14 3 13 0.0000 0.0000
14 4 0 0.0000 0.0000
14 4 1 0.0000 0.0000
14 4 2 0.0000 0.0000
14 4 3 0.0000 0.0000
14 4 4 0.0000 0.0000
14 4 5 0.0000 0.0000
14 4 6 0.0000 0.0000
14 4 7 0.0000 0.0000
14 4 8 0.0000 0.0000
14 4 9 0.0000 0.0000
14 4 10 0.0000 0.0000
14 4 11 0.0000 0.0000
14 4 12 0.0000 0.0000
14 4 13 0.0000 0.0000
14 5 1 0.0000 0.0000
14 5 2 0.0000 0.0000
14 5 3 0.0000 0.0000
14 5 4 0.0000 0.0000
14 5 5 0.0000 0.0000
14 5 6 0.0000 0.0000
14 5 7 0.0000 0.0000
14 5 8 0.0000 0.0000
14 5 9 0.0000 0.0000
14 5 10 0.0000 0.0000
14 5 11 0.0000 0.0000
14 5 12 0.0000 0.0000
14 5 13 0.0000 0.0000
14 6 0 0.0000 0.0000
14 6 1 0.0000 0.0000
14 6 2 0.0000 0.0000
14 6 3 0.0000 0.0000
14 6 4 0.0000 0.0000
14 6 5 0.0000 0.0000
14 6 6 0.0000 0.0000
14 6 7 0.0000 0.0000
14 6 8 0.0000 0.0000
14 6 9 0.0000 0.0000
14 6 10 0.0000 0.0000
14 6 11 0.0000 0.0000
14 6 12 0.0000 0.0000
14 7 1 0.0000 0.0000
14 7 2 0.0000 0.0000
14 7 3 0.0000 0.0000
14 7 4 0.0000 0.0000
14 7 5 0.0000 0.0000
14 7 6 0.0000 0.0000
14 7 7 0.0000 0.0000
14 7 8 0.0000 0.0000
14 7 9 0.0000 0.0000
14 7 10 0.0000 0.0000
14 7 11 0.0000 0.0000
14 7 12 0.0000 0.0000
14 8 0 0.0000 0.0000
14 8 1 0.0000 0.0000
14 8 2 0.0000 0.0000
14 8 3 0.0000 0.0000
14 8 4 0.0000 0.0000
14 8 5 0.0000 0.0000
14 8 6 0.0000 0.0000
14 8 7 0.0000 0.0000
14 8 8 0.0000 0.0000
14 8 9 0.0000 0.0000
14 8 10 0.0000 0.0000
14 8 11 0.0000 0.0000
14 8 12 0.0000 0.0000
14 9 1 0.0000 0.0000
14 9 2 0.0000 0.0000
14 9 3 0.0000 0.0000
14 9 4 0.0000 0.0000
14 9 5 0.0000 0.0000
14 9 6 0.0000 0.0000
14 9 7 0.0000 0.0000
14 9 8 0.0000 0.0000
14 9 9 0.0000 0.0000
14 9 10 0.0000 0.0000
14 9 11 0.0000 0.0000
14 10 0 0.0000 0.0000
14 10 1 0.0000 0.0000
14 10 2 0.0000 0.0000
14 10 3 0.0000 0.0000
14 10 4 0.0000 0.0000
14 10 5 0.0000 0.0000
14 10 6 0.0000 0.0000
14 10 7 0.0000 0.0000
14 10 8 0.0000 0.0000
14 10 9 0.0000 0.0000
14 10 10 0.0000 0.0000
14 10 11 0.0000 0.0000
14 11 1 0.0000 0.0000
14 11 2 0.0000 0.0000
14 11 3 0.0000 0.0000
14 11 4 0.0000 0.0000
14 11 5 0.0000 0.0000
14 11 6 0.0000 0.0000
14 11 7 0.0000 0.0000
14 11 8 0.0000 0.0000
14 11 9 0.0000 0.0000
14 11 10 0.0000 0.0000
14 11 11 0.0000 0.0000
14 12 0 0.0000 0.0000
14 12 1 0.0000 0.0000
14 12 2 0.0000 0.0000
14 12 3 0.0000 0.0000
14 12 4 0.0000 0.0000
14 12 5 0.0000 0.0000
14 12 6 0.0000 0.0000
14 12 7 0.0000 0.0000
14 12 8 0.0000 0.0000
14 12 9 0.0000 0.0000
14 12 10 0.0000 0.0000
14 13 1 0.0000 0.0000
14 13 2 0.0000 0.0000
14 13 3 0.0000 0.0000
14 13 4 0.0000 0.0000
14 13 5 0.0000 0.0000
14 13 6 0.0000 0.0000
14 13 7 0.0000 0.0000
14 13 8 0.0000 0.0000
14 13 9 0.0000 0.0000
14 14 0 0.0000 0.0000
14 14 1 0.0000 0.0000
14 14 2 0.0000 0.0000
14 14 3 0.0000 0.0000
14 14 4 0.0000 0.0000
14 14 5 0.0000 0.0000
14 14 6 0.0000 0.0000
14 14 7 0.0000 0.0000
14 14 8 0.0000 0.0000
14 14 9 0.0000 0.0000
15 0 1 0.0000 0.0000
15 0 2 0.0000 0.0000
15 0 3 0.0000 0.0000
15 0 4 0.0000 0.0000
15 0 5 0.0000 0.0000
15 0 6 0.0000 0.0000
15 0 7 0.0000 0.0000
15 0 8 0.0000 0.0000
15 0 9 0.0000 0.0000
15 0 10 0.0000 0.0000
15 0 11 0.0000 0.0000
15 0 12 0.0000 0.0000
15 0 13 0.0000 0.0000
15 1 0 0.0000 0.0000
15 1 1 0.0000 0.0000
15 1 2 0.0000 0.0000
15 1 3 0.0000 0.0000
15 1 4 0.0000 0.0000
15 1 5 0.0000 0.0000
15 1 6 0.0000 0.0000
15 1 7 0.0000 0.0000
15 1 8 0.0000 0.0000
15 1 9 0.0000 0.0000
15 1 10 0.0000 0.0000
15 1 11 0.0000 0.0000
15 1 12 0.0000 0.0000
15 1 13 0.0000 0.0000
15 2 1 0.0000 0.0000
15 2 2 0.0000 0.0000
15 2 3 0.0000 0.0000
15 2 4 0.0000 0.0000
15 2 5 0.0000 0.0000
15 2 6 0.0000 0.0000
15 2 7 0.0000 0.0000
15 2 8 0.0000 0.0000
15 2 9 0.0000 0.0000
15 2 10 0.0000 0.0000
15 2 11 0.0000 0.0000
15 2 12 0.0000 0.0000
15 3 0 0.0000 0.0000
15 3 1 0.0000 0.0000
15 3 2 0.0000 0.0000
15 3 3 0.0000 0.0000
15 3 4 0.0000 0.0000
15 3 5 0.0000 0.0000
15 3 6 0.0000 0.0000
15 3 7 0.0000 0.0000
15 3 8 0.0000 0.0000
15 3 9 0.0000 0.0000
15 3 10 0.0000 0.0000
15 3 11 0.0000 0.0000
15 3 12 0.0000 0.0000
15 4 1 0.0000 0.0000
15 4 2 0.0000 0.0000
15 4 3 0.0000 0.0000
15 4 4 0.0000 0.0000
15 4 5 0.0000 0.0000
15 4 6 0.0000 0.0000
15 4 7 0.0000 0.0000
15 4 8 0.0000 0.0000
15 4 9 0.0000 0.0000
15 4 10 0.0000 0.0000
15 4 11 0.0000 0.0000
15 4 12 0.0000 0.0000
15 5 0 0.0000 0.0000
15 5 1 0.0000 0.0000
15 5 2 0.0000 0.0000
15 5 3 0.0000 0.0000
15 5 4 0.0000 0.0000
15 5 5 0.0000 0.0000
15 5 6 0.0000 0.0000
15 5 7 0.0000 0.0000
15 5 8 0.0000 0.0000
15 5 9 0.0000 0.0000
15 5 10 0.0000 0.0000
15 5 11 0.0000 0.0000
15 5 12 0.0000 0.0000
15 6 1 0.0000 0.0000
15 6 2 0.0000 0.0000
15 6 3 0.0000 0.0000
15 6 4 0.0000 0.0000
15 6 5 0.0000 0.0000
15 6 6 0.0000 0.0000
15 6 7 0.0000 0.0000
15 6 8 0.0000 0.0000
15 6 9 0.0000 0.0000
15 6 10 0.0000 0.0000
15 6 11 0.0000 0.0000
15 6 12 0.0000 0.0000
15 7 0 0.0000 0.0000
15 7 1 0.0000 0.0000
15 7 2 0.0000 0.0000
15 7 3 0.0000 0.0000
15 7 4 0.0000 0.0000
15 7 5 0.0000 0.0000
15 7 6 0.0000 0.0000
15 7 7 0.0000 0.0000
15 7 8 0.0000 0.0000
15 7 9 0.0000 0.0000
15 7 10 0.0000 0.0000
15 7 11 0.0000 0.0000
15 8 1 0.0000 0.0000
15 8 2 0.0000 0.0000
15 8 3 0.0000 0.0000
15 8 4 0.0000 0.0000
15 8 5 0.0000 0.0000
15 8 6 0.0000 0.0000
15 8 7 0.0000 0.0000
15 8 8 0.0000 0.0000
15 8 9 0.0000 0.0000
15 8 10 0.0000 0.0000
15 8 11 0.0000 0.0000
15 9 0 0.0000 0.0000
15 9 1 0.0000 0.0000
15 9 2 0.0000 0.0000
15 9 3 0.0000 0.0000
15 9 4 0.0000 0.0000
15 9 5 0.0000 0.0000
15 9 6 0.0000 0.0000
15 9 7 0.0000 0.0000
15 9 8 0.0000 0.0000
15 9 9 0.0000 0.0000
15 9 10 0.0000 0.0000
15 9 11 0.0000 0.0000
15 10 1 0.0000 0.0000
15 10 2 0.0000 0.0000
15 10 3 0.0000 0.0000
15 10 4 0.0000 0.0000
15 10 5 0.0000 0.0000
15 10 6 0.0000 0.0000
15 10 7 0.0000 0.0000
15 10 8 0.0000 0.0000
15 10 9 0.0000 0.0000
15 10 10 0.0000 0.0000
15 11 0 0.0000 0.0000
15 11 1 0.0000 0.0000
15 11 2 0.0000 0.0000
15 11 3 0.0000 0.0000
15 11 4 0.0000 0.0000
15 11 5 0.0000 0.0000
15 11 6 0.0000 0.0000
15 11 7 0.0000 0.0000
15 11 8 0.0000 0.0000
15 11 9 0.0000 0.0000
15 11 10 0.0000 0.0000
15 12 1 0.0000 0.0000
15 12 2 0.0000 0.0000
15 12 3 0.0000 0.0000
15 12 4 0.0000 0.0000
15 12 5 0.0000 0.0000
15 12 6 0.0000 0.0000
15 12 7 0.0000 0.0000
15 12 8 0.0000 0.0000
15 12 9 0.0000 0.0000
15 13 0 0.0000 0.0000
15 13 1 0.0000 0.0000
15 13 2 0.0000 0.0000
15 13 3 0.0000 0.0000
15 13 4 0.0000 0.0000
15 13 5 0.0000 0.0000
15 13 6 0.0000 0.0000
15 13 7 0.0000 0.0000
15 13 8 0.0000 0.0000
15 13 9 0.0000 0.0000
15 14 1 0.0000 0.0000
15 14 2 0.0000 0.0000
15 14 3 0.0000 0.0000
15 14 4 0.0000 0.0000
15 14 5 0.0000 0.0000
15 14 6 0.0000 0.0000
15 14 7 0.0000 0.0000
15 14 8 0.0000 0.0000
15 15 0 0.0000 0.0000
15 15 1 0.0000 0.0000
15 15 2 0.0000 0.0000
15 15 3 0.0000 0.0000
15 15 4 0.0000 0.0000
15 15 5 0.0000 0.0000
15 15 6 0.0000 0.0000
15 15 7 0.0000 0.0000
16 0 0 0.0000 0.0000
16 0 1 0.0000 0.0000
16 0 2 0.0000 0.0000
16 0 3 0.0000 0.0000
16 0 4 0.0000 0.0000
16 0 5 0.0000 0.0000
16 0 6 0.0000 0.0000
16 0 7 0.0000 0.0000
16 0 8 0.0000 0.0000
16 0 9 0.0000 0.0000
16 0 10 0.0000 0.0000
16 0 11 0.0000 0.0000
16 0 12 0.0000 0.0000
16 1 1 0.0000 0.0000
16 1 2 0.0000 0.0000
16 1 3 0.0000 0.0000
16 1 4 0.0000 0.0000
16 1 5 0.0000 0.0000
16 1 6 0.0000 0.0000
16 1 7 0.0000 0.0000
16 1 8 0.0000 0.0000
16 1 9 0.0000 0.0000
16 1 10 0.0000 0.0000
16 1 11 0.0000 0.0000
16 1 12 0.0000 0.0000
16 2 0 0.0000 0.0000
16 2 1 0.0000 0.0000
16 2 2 0.0000 0.0000
16 2 3 0.0000 0.0000
16 2 4 0.0000 0.0000
16 2 5 0.0000 0.0000
16 2 6 0.0000 0.0000
16 2 7 0.0000 0.0000
16 2 8 0.0000 0.0000
16 2 9 0.0000 0.0000
16 2 10 0.0000 0.0000
16 2 11 0.0000 0.0000
16 2 12 0.0000 0.0000
16 3 1 0.0000 0.0000
16 3 2 0.0000 0.0000
16 3 3 0.0000 0.0000
16 3 4 0.0000 0.0000
16 3 5 0.0000 0.0000
16 3 6 0.0000 0.0000
16 3 7 0.0000 0.0000
16 3 8 0.0000 0.0000
16 3 9 0.0000 0.0000
16 3 10 0.0000 0.0000
16 3 11 0.0000 0.0000
16 3 12 0.0000 0.0000
16 4 0 0.0000 0.0000
16 4 1 0.0000 0.0000
16 4 2 0.0000 0.0000
16 4 3 0.0000 0.0000
16 4 4 0.0000 0.0000
16 4 5 0.0000 0.0000
16 4 6 0.0000 0.0000
16 4 7 0.0000 0.0000
16 4 8 0.0000 0.0000
16 4 9 0.0000 0.0000
16 4 10 0.0000 0.0000
16 4 11 0.0000 0.0000
16 5 1 0.0000 0.0000
16 5 2 0.0000 0.0000
16 5 3 0.0000 0.0000
16 5 4 0.0000 0.0000
16 5 5 0.0000 0.0000
16 5 6 0.0000 0.0000
16 5 7 0.0000 0.0000
16 5 8 0.0000 0.0000
16 5 9 0.0000 0.0000
16 5 10 0.0000 0.0000
16 5 11 0.0000 0.0000
16 6 0 0.0000 0.0000
16 6 1 0.0000 0.0000
16 6 2 0.0000 0.0000
16 6 3 0.0000 0.0000
16 6 4 0.0000 0.0000
16 6 5 0.0000 0.0000
16 6 6 0.0000 0.0000
16 6 7 0.0000 0.0000
16 6 8 0.0000 0.0000
16 6 9 0.0000 0.0000
16 6 10 0.0000 0.0000
16 6 11 0.0000 0.0000
16 7 1 0.0000 0.0000
16 7 2 0.0000 0.0000
16 7 3 0.0000 0.0000
16 7 4 0.0000 0.0000
16 7 5 0.0000 0.0000
16 7 6 0.0000 0.0000
16 7 7 0.0000 0.0000
16 7 8 0.0000 0.0000
16 7 9 0.0000 0.0000
16 7 10 0.0000 0.0000
16 8 0 0.0000 0.0000
16 8 1 0.0000 0.0000
16 8 2 0.0000 0.0000
16 8 3 0.0000 0.0000
16 8 4 0.0000 0.0000
16 8 5 0.0000 0.0000
16 8 6 0.0000 0.0000
16 8 7 0.0000 0.0000
16 8 8 0.0000 0.0000
16 8 9 0.0000 0.0000
16 8 10 0.0000 0.0000
16 9 1 0.0000 0.0000
16 9 2 0.0000 0.0000
16 9 3 0.0000 0.0000
16 9 4 0.0000 0.0000
16 9 5 0.0000 0.0000
16 9 6 0.0000 0.0000
16 9 7 0.0000 0.0000
16 9 8 0.0000 0.0000
16 9 9 0.0000 0.0000
16 9 10 0.0000 0.0000
16 10 0 0.0000 0.0000
16 10 1 0.0000 0.0000
16 10 2 0.0000 0.0000
16 10 3 0.0000 0.0000
16 10 4 0.0000 0.0000
16 10 5 0.0000 0.0000
16 10 6 0.0000 0.0000
16 10 7 0.0000 0.0000
16 10 8 0.0000 0.0000
16 10 9 0.0000 0.0000
16 11 1 0.0000 0.0000
16 11 2 0.0000 0.0000
16 11 3 0.0000 0.0000
16 11 4 0.0000 0.0000
16 11 5 0.0000 0.0000
16 11 6 0.0000 0.0000
16 11 7 0.0000 0.0000
16 11 8 0.0000 0.0000
16 11 9 0.0000 0.0000
16 12 0 0.0000 0.0000
16 12 1 0.0000 0.0000
16 12 2 0.0000 0.0000
16 12 3 0.0000 0.0000
16 12 4 0.0000 0.0000
16 12 5 0.0000 0.0000
16 12 6 0.0000 0.0000
16 12 7 0.0000 0.0000
16 12 8 0.0000 0.0000
16 13 1 0.0000 0.0000
16 13 2 0.0000 0.0000
16 13 3 0.0000 0.0000
16 13 4 0.0000 0.0000
16 13 5 0.0000 0.0000
16 13 6 0.0000 0.0000
16 13 7 0.0000 0.0000
16 13 8 0.0000 0.0000
16 14 0 0.0000 0.0000
16 14 1 0.0000 0.0000
16 14 2 0.0000 0.0000
16 14 3 0.0000 0.0000
16 14 4 0.0000 0.0000
16 14 5 0.0000 0.0000
16 14 6 0.0000 0.0000
16 14 7 0.0000 0.0000
16 15 1 0.0000 0.0000
16 15 2 0.0000 0.0000
16 15 3 0.0000 0.0000
16 15 4 0.0000 0.0000
16 15 5 0.0000 0.0000
16 16 0 0.0000 0.0000
16 16 1 0.0000 0.0000
16 16 2 0.0000 0.0000
16 16 3 0.0000 0.0000
16 16 4 0.0000 0.0000
17 0 1 0.0000 0.0000
17 0 2 0.0000 0.0000
17 0 3 0.0000 0.0000
17 0 4 0.0000 0.0000
17 0 5 0.0000 0.0000
17 0 6 0.0000 0.0000
17 0 7 0.0000 0.0000
17 0 8 0.0000 0.0000
17 0 9 0.0000 0.0000
17 0 10 0.0000 0.0000
17 0 11 0.0000 0.0000
17 1 0 0.0000 0.0000
17 1 1 0.0000 0.0000
17 1 2 0.0000 0.0000
17 1 3 0.0000 0.0000
17 1 4 0.0000 0.0000
17 1 5 0.0000 0.0000
17 1 6 0.0000 0.0000
17 1 7 0.0000 0.0000
17 1 8 0.0000 0.0000
17 1 9 0.0000 0.0000
17 1 10 0.0000 0.0000
17 1 11 0.0000 0.0000
17 2 1 0.0000 0.0000
17 2 2 0.0000 0.0000
17 2 3 0.0000 0.0000
17 2 4 0.0000 0.0000
17 2 5 0.0000 0.0000
17 2 6 0.0000 0.0000
17 2 7 0.0000 0.0000
17 2 8 0.0000 0.0000
17 2 9 0.0000 0.0000
17 2 10 0.0000 0.0000
17 2 11 0.0000 0.0000
17 3 0 0.0000 0.0000
17 3 1 0.0000 0.0000
17 3 2 0.0000 0.0000
17 3 3 0.0000 0.0000
17 3 4 0.0000 0.0000
17 3 5 0.0000 0.0000
17 3 6 0.0000 0.0000
17 3 7 0.0000 0.0000
17 3 8 0.0000 0.0000
17 3 9 0.0000 0.0000
17 3 10 0.0000 0.0000
17 3 11 0.0000 0.0000
17 4 1 0.0000 0.0000
17 4 2 0.0000 0.0000
17 4 3 0.0000 0.0000
17 4 4 0.0000 0.0000
17 4 5 0.0000 0.0000
17 4 6 0.0000 0.0000
17 4 7 0.0000 0.0000
17 4 8 0.0000 0.0000
17 4 9 0.0000 0.0000
17 4 10 0.0000 0.0000
17 4 11 0.0000 0.0000
17 5 0 0.0000 0.0000
17 5 1 0.0000 0.0000
17 5 2 0.0000 0.0000
17 5 3 0.0000 0.0000
17 5 4 0.0000 0.0000
17 5 5 0.0000 0.0000
17 5 6 0.0000 0.0000
17 5 7 0.0000 0.0000
17 5 8 0.0000 0.0000
17 5 9 0.0000 0.0000
17 5 10 0.0000 0.0000
17 6 1 0.0000 0.0000
17 6 2 0.0000 0.0000
17 6 3 0.0000 0.0000
17 6 4 0.0000 0.0000
17 6 5 0.0000 0.0000
17 6 6 0.0000 0.0000
17 6 7 0.0000 0.0000
17 6 8 0.0000 0.0000
17 6 9 0.0000 0.0000
17 6 10 0.0000 0.0000
17 7 0 0.0000 0.0000
17 7 1 0.0000 0.0000
17 7 2 0.0000 0.0000
17 7 3 0.0000 0.0000
17 7 4 0.0000 0.0000
17 7 5 0.0000 0.0000
17 7 6 0.0000 0.0000
17 7 7 0.0000 0.0000
17 7 8 0.0000 0.0000
17 7 9 0.0000 0.0000
17 8 1 0.0000 0.0000
17 8 2 0.0000 0.0000
17 8 3 0.0000 0.0000
17 8 4 0.0000 0.0000
17 8 5 0.0000 0.0000
17 8 6 0.0000 0.0000
17 8 7 0.0000 0.0000
17 8 8 0.0000 0.0000
17 8 9 0.0000 0.0000
17 9 0 0.0000 0.0000
17 9 1 0.0000 0.0000
17 9 2 0.0000 0.0000
17 9 3 0.0000 0.0000
17 9 4 0.0000 0.0000
17 9 5 0.0000 0.0000
17 9 6 0.0000 0.0000
17 9 7 0.0000 0.0000
17 9 8 0.0000 0.0000
17 9 9 0.0000 0.0000
17 10 1 0.0000 0.0000
17 10 2 0.0000 0.0000
17 10 3 0.0000 0.0000
17 10 4 0.0000 0.0000
17 10 5 0.0000 0.0000
17 10 6 0.0000 0.0000
17 10 7 0.0000 0.0000
17 10 8 0.0000 0.0000
17 11 0 0.0000 0.0000
17 11 1 0.0000 0.0000
17 11 2 0.0000 0.0000
17 11 3 0.0000 0.0000
17 11 4 0.0000 0.0000
17 11 5 0.0000 0.0000
17 11 6 0.0000 0.0000
17 11 7 0.0000 0.0000
17 11 8 0.0000 0.0000
17 12 1 0.0000 0.0000
17 12 2 0.0000 0.0000
17 12 3 0.0000 0.0000
17 12 4 0.0000 0.0000
17 12 5 0.0000 0.0000
17 12 6 0.0000 0.0000
17 12 7 0.0000 0.0000
17 13 0 0.0000 0.0000
17 13 1 0.0000 0.0000
17 13 2 0.0000 0.0000
17 13 3 0.0000 0.0000
17 13 4 0.0000 0.0000
17 13 5 0.0000 0.0000
17 13 6 0.0000 0.0000
17 14 1 0.0000 0.0000
17 14 2 0.0000 0.0000
17 14 3 0.0000 0.0000
17 14 4 0.0000 0.0000
17 14 5 0.0000 0.0000
17 15 0 0.0000 0.0000
17 15 1 0.0000 0.0000
17 15 2 0.0000 0.0000
17 15 3 0.0000 0.0000
17 15 4 0.0000 0.0000
18 0 0 0.0000 0.0000
18 0 1 0.0000 0.0000
18 0 2 0.0000 0.0000
18 0 3 0.0000 0.0000
18 0 4 0.0000 0.0000
18 0 5 0.0000 0.0000
18 0 6 0.0000 0.0000
18 0 7 0.0000 0.0000
18 0 8 0.0000 0.0000
18 0 9 0.0000 0.0000
18 0 10 0.0000 0.0000
18 1 1 0.0000 0.0000
18 1 2 0.0000 0.0000
18 1 3 0.0000 0.0000
18 1 4 0.0000 0.0000
18 1 5 0.0000 0.0000
18 1 6 0.0000 0.0000
18 1 7 0.0000 0.0000
18 1 8 0.0000 0.0000
18 1 9 0.0000 0.0000
18 1 10 0.0000 0.0000
18 2 0 0.0000 0.0000
18 2 1 0.0000 0.0000
18 2 2 0.0000 0.0000
18 2 3 0.0000 0.0000
18 2 4 0.0000 0.0000
18 2 5 0.0000 0.0000
18 2 6 0.0000 0.0000
18 2 7 0.0000 0.0000
18 2 8 0.0000 0.0000
18 2 9 0.0000 0.0000
18 2 10 0.0000 0.0000
18 3 1 0.0000 0.0000
18 3 2 0.0000 0.0000
18 3 3 0.0000 0.0000
18 3 4 0.0000 0.0000
18 3 5 0.0000 0.0000
18 3 6 0.0000 0.0000
18 3 7 0.0000 0.0000
18 3 8 0.0000 0.0000
18 3 9 0.0000 0.0000
18 3 10 0.0000 0.0000
18 4 0 0.0000 0.0000
18 4 1 0.0000 0.0000
18 4 2 0.0000 0.0000
18 4 3 0.0000 0.0000
18 4 4 0.0000 0.0000
18 4 5 0.0000 0.0000
18 4 6 0.0000 0.0000
18 4 7 0.0000 0.0000
18 4 8 0.0000 0.0000
18 4 9 0.0000 0.0000
18 4 10 0.0000 0.0000
18 5 1 0.0000 0.0000
18 5 2 0.0000 0.0000
18 5 3 0.0000 0.0000
18 5 4 0.0000 0.0000
18 5 5 0.0000 0.0000
18 5 6 0.0000 0.0000
18 5 7 0.0000 0.0000
18 5 8 0.0000 0.0000
18 5 9 0.0000 0.0000
18 5 10 0.0000 0.0000
18 6 0 0.0000 0.0000
18 6 1 0.0000 0.0000
18 6 2 0.0000 0.0000
18 6 3 0.0000 0.0000
18 6 4 0.0000 0.0000
18 6 5 0.0000 0.0000
18 6 6 0.0000 0.0000
18 6 7 0.0000 0.0000
18 6 8 0.0000 0.0000
18 6 9 0.0000 0.0000
18 7 1 0.0000 0.0000
18 7 2 0.0000 0.0000
18 7 3 0.0000 0.0000
18 7 4 0.0000 0.0000
18 7 5 0.0000 0.0000
18 7 6 0.0000 0.0000
18 7 7 0.0000 0.0000
18 7 8 0.0000 0.0000
18 7 9 0.0000 0.0000
18 8 0 0.0000 0.0000
18 8 1 0.0000 0.0000
18 8 2 0.0000 0.0000
18 8 3 0.0000 0.0000
18 8 4 0.0000 0.0000
18 8 5 0.0000 0.0000
18 8 6 0.0000 0.0000
18 8 7 0.0000 0.0000
18 8 8 0.0000 0.0000
18 9 1 0.0000 0.0000
18 9 2 0.0000 0.0000
18 9 3 0.0000 0.0000
18 9 4 0.0000 0.0000
18 9 5 0.0000 0.0000
18 9 6 0.0000 0.0000
18 9 7 0.0000 0.0000
18 10 0 0.0000 0.0000
18 10 1 0.0000 0.0000
18 10 2 0.0000 0.0000
18 10 3 0.0000 0.0000
18 10 4 0.0000 0.0000
18 10 5 0.0000 0.0000
18 10 6 0.0000 0.0000
18 10 7 0.0000 0.0000
18 11 1 0.0000 0.0000
18 11 2 0.0000 0.0000
18 11 3 0.0000 0.0000
18 11 4 0.0000 0.0000
18 11 5 0.0000 0.0000
18 11 6 0.0000 0.0000
18 12 0 0.0000 0.0000
18 12 1 0.0000 0.0000
18 12 2 0.0000 0.0000
18 12 3 0.0000 0.0000
18 12 4 0.0000 0.0000
18 12 5 0.0000 0.0000
18 12 6 0.0000 0.0000
18 13 1 0.0000 0.0000
18 13 2 0.0000 0.0000
18 13 3 0.0000 0.0000
18 13 4 0.0000 0.0000
18 13 5 0.0000 0.0000
18 14 0 0.0000 0.0000
18 14 1 0.0000 0.0000
18 14 2 0.0000 0.0000
18 14 3 0.0000 0.0000
18 14 4 0.0000 0.0000
19 0 1 0.0000 0.0000
19 0 2 0.0000 0.0000
19 0 3 0.0000 0.0000
19 0 4 0.0000 0.0000
19 0 5 0.0000 0.0000
19 0 6 0.0000 0.0000
19 0 7 0.0000 0.0000
19 0 8 0.0000 0.0000
19 0 9 0.0000 0.0000
19 0 10 0.0000 0.0000
19 1 0 0.0000 0.0000
19 1 1 0.0000 0.0000
19 1 2 0.0000 0.0000
19 1 3 0.0000 0.0000
19 1 4 0.0000 0.0000
19 1 5 0.0000 0.0000
19 1 6 0.0000 0.0000
19 1 7 0.0000 0.0000
19 1 8 0.0000 0.0000
19 1 9 0.0000 0.0000
19 1 10 0.0000 0.0000
19 2 1 0.0000 0.0000
19 2 2 0.0000 0.0000
19 2 3 0.0000 0.0000
19 2 4 0.0000 0.0000
19 2 5 0.0000 0.0000
19 2 6 0.0000 0.0000
19 2 7 0.0000 0.0000
19 2 8 0.0000 0.0000
19 2 9 0.0000 0.0000
19 3 0 0.0000 0.0000
19 3 1 0.0000 0.0000
19 3 2 0.0000 0.0000
19 3 3 0.0000 0.0000
19 3 4 0.0000 0.0000
19 3 5 0.0000 0.0000
19 3 6 0.0000 0.0000
19 3 7 0.0000 0.0000
19 3 8 0.0000 0.0000
19 3 9 0.0000 0.0000
19 4 1 0.0000 0.0000
19 4 2 0.0000 0.0000
19 4 3 0.0000 0.0000
19 4 4 0.0000 0.0000
19 4 5 0.0000 0.0000
19 4 6 0.0000 0.0000
19 4 7 0.0000 0.0000
19 4 8 0.0000 0.0000
19 4 9 0.0000 0.0000
19 5 0 0.0000 0.0000
19 5 1 0.0000 0.0000
19 5 2 0.0000 0.0000
19 5 3 0.0000 0.0000
19 5 4 0.0000 0.0000
19 5 5 0.0000 0.0000
19 5 6 0.0000 0.0000
19 5 7 0.0000 0.0000
19 5 8 0.0000 0.0000
19 5 9 0.0000 0.0000
19 6 1 0.0000 0.0000
19 6 2 0.0000 0.0000
19 6 3 0.0000 0.0000
19 6 4 0.0000 0.0000
19 6 5 0.0000 0.0000
19 6 6 0.0000 0.0000
19 6 7 0.0000 0.0000
19 6 8 0.0000 0.0000
19 7 0 0.0000 0.0000
19 7 1 0.0000 0.0000
19 7 2 0.0000 0.0000
19 7 3 0.0000 0.0000
19 7 4 0.0000 0.0000
19 7 5 0.0000 0.0000
19 7 6 0.0000 0.0000
19 7 7 0.0000 0.0000
19 7 8 0.0000 0.0000
19 8 1 0.0000 0.0000
19 8 2 0.0000 0.0000
19 8 3 0.0000 0.0000
19 8 4 0.0000 0.0000
19 8 5 0.0000 0.0000
19 8 6 0.0000 0.0000
19 8 7 0.0000 0.0000
19 9 0 0.0000 0.0000
19 9 1 0.0000 0.0000
19 9 2 0.0000 0.0000
19 9 3 0.0000 0.0000
19 9 4 0.0000 0.0000
19 9 5 0.0000 0.0000
19 9 6 0.0000 0.0000
19 10 1 0.0000 0.0000
19 10 2 0.0000 0.0000
19 10 3 0.0000 0.0000
19 10 4 0.0000 0.0000
19 10 5 0.0000 0.0000
19 10 6 0.0000 0.0000
19 11 0 0.0000 0.0000
19 11 1 0.0000 0.0000
19 11 2 0.0000 0.0000
19 11 3 0.0000 0.0000
19 11 4 0.0000 0.0000
19 11 5 0.0000 0.0000
19 12 1 0.0000 0.0000
19 12 2 0.0000 0.0000
19 12 3 0.0000 0.0000
19 12 4 0.0000 0.0000
19 13 0 0.0000 0.0000
19 13 1 0.0000 0.0000
19 13 2 0.0000 0.0000
19 13 3 0.0000 0.0000
20 0 0 0.0000 0.0000
20 0 1 0.0000 0.0000
20 0 2 0.0000 0.0000
20 0 3 0.0000 0.0000
20 0 4 0.0000 0.0000
20 0 5 0.0000 0.0000
20 0 6 0.0000 0.0000
20 0 7 0.0000 0.0000
20 0 8 0.0000 0.0000
20 1 1 0.0000 0.0000
20 1 2 0.0000 0.0000
20 1 3 0.0000 0.0000
20 1 4 0.0000 0.0000
20 1 5 0.0000 0.0000
20 1 6 0.0000 0.0000
20 1 7 0.0000 0.0000
20 1 8 0.0000 0.0000
20 2 0 0.0000 0.0000
20 2 1 0.0000 0.0000
20 2 2 0.0000 0.0000
20 2 3 0.0000 0.0000
20 2 4 0.0000 0.0000
20 2 5 0.0000 0.0000
20 2 6 0.0000 0.0000
20 2 7 0.0000 0.0000
20 2 8 0.0000 0.0000
20 3 1 0.0000 0.0000
20 3 2 0.0000 0.0000
20 3 3 0.0000 0.0000
20 3 4 0.0000 0.0000
20 3 5 0.0000 0.0000
20 3 6 0.0000 0.0000
20 3 7 0.0000 0.0000
20 3 8 0.0000 0.0000
20 4 0 0.0000 0.0000
20 4 1 0.0000 0.0000
20 4 2 0.0000 0.0000
20 4 3 0.0000 0.0000
20 4 4 0.0000 0.0000
20 4 5 0.0000 0.0000
20 4 6 0.0000 0.0000
20 4 7 0.0000 0.0000
20 4 8 0.0000 0.0000
20 5 1 0.0000 0.0000
20 5 2 0.0000 0.0000
20 5 3 0.0000 0.0000
20 5 4 0.0000 0.0000
20 5 5 0.0000 0.0000
20 5 6 0.0000 0.0000
20 5 7 0.0000 0.0000
20 5 8 0.0000 0.0000
20 6 0 0.0000 0.0000
20 6 1 0.0000 0.0000
20 6 2 0.0000 0.0000
20 6 3 0.0000 0.0000
20 6 4 0.0000 0.0000
20 6 5 0.0000 0.0000
20 6 6 0.0000 0.0000
20 6 7 0.0000 0.0000
20 7 1 0.0000 0.0000
20 7 2 0.0000 0.0000
20 7 3 0.0000 0.0000
20 7 4 0.0000 0.0000
20 7 5 0.0000 0.0000
20 7 6 0.0000 0.0000
20 7 7 0.0000 0.0000
20 8 0 0.0000 0.0000
20 8 1 0.0000 0.0000
20 8 2 0.0000 0.0000
20 8 3 0.0000 0.0000
20 8 4 0.0000 0.0000
20 8 5 0.0000 0.0000
20 8 6 0.0000 0.0000
20 9 1 0.0000 0.0000
20 9 2 0.0000 0.0000
20 9 3 0.0000 0.0000
20 9 4 0.0000 0.0000
20 9 5 0.0000 0.0000
20 10 0 0.0000 0.0000
20 10 1 0.0000 0.0000
20 10 2 0.0000 0.0000
20 10 3 0.0000 0.0000
20 10 4 0.0000 0.0000
20 10 5 0.0000 0.0000
20 11 1 0.0000 0.0000
20 11 2 0.0000 0.0000
20 11 3 0.0000 0.0000
20 11 4 0.0000 0.0000
20 12 1 0.0000 0.0000
20 12 2 0.0000 0.0000
21 0 1 0.0000 0.0000
21 0 2 0.0000 0.0000
21 0 3 0.0000 0.0000
21 0 4 0.0000 0.0000
21 0 5 0.0000 0.0000
21 0 6 0.0000 0.0000
21 0 7 0.0000 0.0000
21 1 0 0.0000 0.0000
21 1 1 0.0000 0.0000
21 1 2 0.0000 0.0000
21 1 3 0.0000 0.0000
21 1 4 0.0000 0.0000
21 1 5 0.0000 0.0000
21 1 6 0.0000 0.0000
21 1 7 0.0000 0.0000
21 2 1 0.0000 0.0000
21 2 2 0.0000 0.0000
21 2 3 0.0000 0.0000
21 2 4 0.0000 0.0000
21 2 5 0.0000 0.0000
21 2 6 0.0000 0.0000
21 2 7 0.0000 0.0000
21 3 0 0.0000 0.0000
21 3 1 0.0000 0.0000
21 3 2 0.0000 0.0000
21 3 3 0.0000 0.0000
21 3 4 0.0000 0.0000
21 3 5 0.0000 0.0000
21 3 6 0.0000 0.0000
21 3 7 0.0000 0.0000
21 4 1 0.0000 0.0000
21 4 2 0.0000 0.0000
21 4 3 0.0000 0.0000
21 4 4 0.0000 0.0000
21 4 5 0.0000 0.0000
21 4 6 0.0000 0.0000
21 4 7 0.0000 0.0000
21 5 0 0.0000 0.0000
21 5 1 0.0000 0.0000
21 5 2 0.0000 0.0000
21 5 3 0.0000 0.0000
21 5 4 0.0000 0.0000
21 5 5 0.0000 0.0000
21 5 6 0.0000 0.0000
21 6 1 0.0000 0.0000
21 6 2 0.0000 0.0000
21 6 3 0.0000 0.0000
21 6 4 0.0000 0.0000
21 6 5 0.0000 0.0000
21 6 6 0.0000 0.0000
21 7 0 0.0000 0.0000
21 7 1 0.0000 0.0000
21 7 2 0.0000 0.0000
21 7 3 0.0000 0.0000
21 7 4 0.0000 0.0000
21 7 5 0.0000 0.0000
21 8 1 0.0000 0.0000
21 8 2 0.0000 0.0000
21 8 3 0.0000 0.0000
21 8 4 0.0000 0.0000
21 9 0 0.0000 0.0000
21 9 1 0.0000 0.0000
21 9 2 0.0000 0.0000
21 9 3 0.0000 0.0000
21 10 1 0.0000 0.0000
21 10 2 0.0000 0.0000
22 0 0 0.0000 0.0000
22 0 1 0.0000 0.0000
22 0 2 0.0000 0.0000
22 0 3 0.0000 0.0000
22 0 4 0.0000 0.0000
22 0 5 0.0000 0.0000
22 1 1 0.0000 0.0000
22 1 2 0.0000 0.0000
22 1 3 0.0000 0.0000
22 1 4 0.0000 0.0000
22 1 5 0.0000 0.0000
22 2 0 0.0000 0.0000
22 2 1 0.0000 0.0000
22 2 2 0.0000 0.0000
22 2 3 0.0000 0.0000
22 2 4 0.0000 0.0000
22 2 5 0.0000 0.0000
22 3 1 0.0000 0.0000
22 3 2 0.0000 0.0000
22 3 3 0.0000 0.0000
22 3 4 0.0000 0.0000
22 3 5 0.0000 0.0000
22 4 0 0.0000 0.0000
22 4 1 0.0000 0.0000
22 4 2 0.0000 0.0000
22 4 3 0.0000 0.0000
22 4 4 0.0000 0.0000
22 4 5 0.0000 0.0000
22 5 1 0.0000 0.0000
22 5 2 0.0000 0.0000
22 5 3 0.0000 0.0000
22 5 4 0.0000 0.0000
22 6 0 0.0000 0.0000
22 6 1 0.0000 0.0000
22 6 2 0.0000 0.0000
22 6 3 0.0000 0.0000
22 6 4 0.0000 0.0000
22 7 1 0.0000 0.0000
22 7 2 0.0000 0.0000
22 7 3 0.0000 0.0000
22 8 1 0.0000 0.0000
23 0 1 0.0000 0.0000
23 0 2 0.0000 0.0000
23 0 3 0.0000 0.0000
23 1 0 0.0000 0.0000
23 1 1 0.0000 0.0000
23 1 2 0.0000 0.0000
23 1 3 0.0000 0.0000
23 2 1 0.0000 0.0000
23 2 2 0.0000 0.0000
23 2 3 0.0000 0.0000
23 3 0 0.0000 0.0000
23 3 1 0.0000 0.0000
23 3 2 0.0000 0.0000
23 4 1 0.0000 0.0000
23 4 2 0.0000 0.0000
23 5 0 0.0000 0.0000
0 0 0 0.0 0.0
;
_olex2_submission_special_instructions 'No special instructions were received'
loop_
_space_group_symop_operation_xyz
'x, y, z'
'-x+1/2, -y+1/2, z'
'-y+1/2, x, z'
'y, -x+1/2, z'
'-x, y+1/2, -z'
'x+1/2, -y, -z'
'y+1/2, x+1/2, -z'
'-y, -x, -z'
'-x, -y, -z'
'x-1/2, y-1/2, -z'
'y-1/2, -x, -z'
'-y, x-1/2, -z'
'x, -y-1/2, z'
'-x-1/2, y, z'
'-y-1/2, -x-1/2, z'
'y, x, z'
loop_
_atom_site_label
_atom_site_type_symbol
_atom_site_fract_x
_atom_site_fract_y
_atom_site_fract_z
_atom_site_U_iso_or_equiv
_atom_site_adp_type
_atom_site_occupancy
_atom_site_site_symmetry_order
_atom_site_calc_flag
_atom_site_refinement_flags_posn
_atom_site_refinement_flags_adp
_atom_site_refinement_flags_occupancy
_atom_site_disorder_assembly
_atom_site_disorder_group
Cu1 Cu 0.96842(3) 0.53158(3) 0.43255(7) 0.0460(3) Uani 1 2 d S T P . .
O1 O 0.95943(19) 0.43786(17) 0.3780(3) 0.0576(9) Uani 1 1 d . . . . .
O2 O 1.01724(18) 0.38056(17) 0.4976(3) 0.0601(10) Uani 1 1 d . . . . .
C6 C 0.8133(3) 0.2500 0.2091(5) 0.0430(15) Uani 1 2 d S T P . .
C10 C 0.7500 0.2500 0.0553(6) 0.044(2) Uani 1 4 d S T P . .
C7 C 0.7500 0.2500 0.2601(7) 0.048(2) Uani 1 4 d S T P . .
C1 C 0.9807(3) 0.3834(3) 0.4192(4) 0.0504(12) Uani 1 1 d . . . . .
C9 C 0.8143(4) 0.2500 0.1047(5) 0.0465(16) Uani 1 2 d S T P . .
C5 C 0.8799(4) 0.2500 0.2688(5) 0.0502(17) Uani 1 2 d S T P . .
C3 C 0.9598(3) 0.3135(3) 0.3752(4) 0.0521(12) Uani 1 1 d . . . . .
C4 C 0.9073(3) 0.3126(3) 0.3029(4) 0.0528(13) Uani 1 1 d . . . . .
H4 H 0.8906 0.3551 0.2775 0.063 Uiso 1 1 calc R . . . .
C2 C 0.9850(4) 0.2500 0.4120(5) 0.0562(19) Uani 1 2 d S T P . .
H2 H 1.0189 0.2500 0.4615 0.067 Uiso 1 2 calc RS T P . .
C11 C 0.8835(4) 0.2500 0.0506(6) 0.072(2) Uani 1 2 d S T P . .
H11A H 0.9000 0.2023 0.0436 0.109 Uiso 0.5 1 calc GR . . A -1
H11B H 0.9176 0.2771 0.0869 0.109 Uiso 0.5 1 calc GR . . A -1
H11C H 0.8771 0.2707 -0.0131 0.109 Uiso 0.5 1 calc GR . . A -1
C8 C 0.7500 0.2500 0.3714(7) 0.078(4) Uani 1 4 d S T P . .
H8A H 0.7739 0.2085 0.3949 0.117 Uiso 0.25 1 calc R . . B -1
H8B H 0.7021 0.2500 0.3949 0.117 Uiso 0.25 1 calc RS T P B -1
H8C H 0.7739 0.2915 0.3949 0.117 Uiso 0.25 1 calc R . . B -1
loop_
_atom_site_aniso_label
_atom_site_aniso_U_11
_atom_site_aniso_U_22
_atom_site_aniso_U_33
_atom_site_aniso_U_23
_atom_site_aniso_U_13
_atom_site_aniso_U_12
Cu1 0.0434(4) 0.0434(4) 0.0514(5) 0.0076(4) -0.0076(4) -0.0080(5)
O1 0.067(2) 0.0427(18) 0.064(2) 0.0040(17) -0.016(2) -0.0046(18)
O2 0.065(2) 0.049(2) 0.067(2) -0.0021(18) -0.0188(19) -0.0086(17)
C6 0.050(4) 0.039(3) 0.041(3) 0.000 -0.006(3) 0.000
C10 0.051(5) 0.045(5) 0.035(5) 0.000 0.000 0.000
C7 0.065(7) 0.047(6) 0.032(5) 0.000 0.000 0.000
C1 0.046(3) 0.049(3) 0.056(3) 0.000(3) -0.006(2) -0.005(2)
C9 0.052(4) 0.046(4) 0.041(3) 0.000 -0.002(3) 0.000
C5 0.057(4) 0.052(4) 0.042(3) 0.000 -0.005(3) 0.000
C3 0.050(3) 0.051(3) 0.055(3) 0.000(2) -0.010(3) 0.001(3)
C4 0.058(3) 0.048(3) 0.053(3) 0.004(2) -0.012(3) -0.002(2)
C2 0.045(4) 0.060(4) 0.063(5) 0.000 -0.010(3) 0.000
C11 0.052(4) 0.113(7) 0.052(5) 0.000 -0.002(4) 0.000
C8 0.076(8) 0.123(11) 0.035(5) 0.000 0.000 0.000
loop_
_atom_type_symbol
_atom_type_description
_atom_type_scat_dispersion_real
_atom_type_scat_dispersion_imag
_atom_type_scat_source
C C 0.0181 0.0091 'International Tables Vol C Tables 4.2.6.8 and 6.1.1.4'
Cu Cu -1.9646 0.5888 'International Tables Vol C Tables 4.2.6.8 and 6.1.1.4'
O O 0.0492 0.0322 'International Tables Vol C Tables 4.2.6.8 and 6.1.1.4'
H H 0.0000 0.0000 'International Tables Vol C Tables 4.2.6.8 and 6.1.1.4'
loop_
_geom_angle_atom_site_label_1
_geom_angle_atom_site_label_2
_geom_angle_atom_site_label_3
_geom_angle
_geom_angle_site_symmetry_1
_geom_angle_site_symmetry_3
O1 Cu1 Cu1 83.47(11) 15_775 9_766
O1 Cu1 Cu1 83.47(11) . 9_766
O1 Cu1 O1 90.8(2) . 15_775
O1 Cu1 O2 89.16(15) . 7_546
O1 Cu1 O2 89.16(15) 15_775 9_766
O1 Cu1 O2 172.37(15) 15_775 7_546
O1 Cu1 O2 172.37(15) . 9_766
O2 Cu1 Cu1 88.94(11) 9_766 9_766
O2 Cu1 Cu1 88.94(11) 7_546 9_766
O2 Cu1 O2 89.9(2) 9_766 7_546
C1 O1 Cu1 124.0(3) . .
C1 O2 Cu1 116.9(3) . 9_766
C7 C6 C9 121.0(7) . .
C7 C6 C5 117.0(6) . .
C9 C6 C5 122.1(6) . .
C9 C10 C10 119.0(4) 2_655 11_665
C9 C10 C10 119.0(4) . 11_665
C9 C10 C9 122.1(8) . 2_655
C6 C7 C6 119.7(9) . 2_655
C6 C7 C8 120.1(4) 2_655 .
C6 C7 C8 120.1(4) . .
O1 C1 O2 126.3(5) . .
O1 C1 C3 117.6(4) . .
O2 C1 C3 116.1(4) . .
C6 C9 C11 120.2(6) . .
C10 C9 C6 118.2(7) . .
C10 C9 C11 121.7(6) . .
C4 C5 C6 120.0(3) . .
C4 C5 C6 120.0(3) 13_565 .
C4 C5 C4 119.1(7) 13_565 .
C4 C3 C1 118.6(4) . .
C2 C3 C1 121.8(5) . .
C2 C3 C4 119.3(5) . .
C5 C4 C3 121.1(5) . .
C5 C4 H4 119.5 . .
C3 C4 H4 119.5 . .
C3 C2 C3 120.0(7) 13_565 .
C3 C2 H2 120.0 13_565 .
C3 C2 H2 120.0 . .
C9 C11 H11A 109.5 . .
C9 C11 H11B 109.5 . .
C9 C11 H11C 109.5 . .
H11A C11 H11B 109.5 . .
H11A C11 H11C 109.5 . .
H11B C11 H11C 109.5 . .
C7 C8 H8A 109.5 . .
C7 C8 H8B 109.5 . .
C7 C8 H8C 109.5 . .
H8A C8 H8B 109.5 . .
H8A C8 H8C 109.5 . .
H8B C8 H8C 109.5 . .
loop_
_geom_bond_atom_site_label_1
_geom_bond_atom_site_label_2
_geom_bond_distance
_geom_bond_site_symmetry_2
Cu1 Cu1 2.4956(18) 9_766
Cu1 O1 1.929(3) .
Cu1 O1 1.929(3) 15_775
Cu1 O2 1.934(3) 7_546
Cu1 O2 1.934(3) 9_766
O1 C1 1.239(6) .
O2 Cu1 1.934(3) 9_766
O2 C1 1.272(6) .
C6 C7 1.383(8) .
C6 C9 1.423(8) .
C6 C5 1.500(9) .
C10 C10 1.506(16) 11_665
C10 C9 1.390(8) .
C10 C9 1.390(8) 2_655
C7 C6 1.383(8) 2_655
C7 C8 1.516(12) .
C1 C3 1.505(7) .
C9 C11 1.500(9) .
C5 C4 1.372(6) 13_565
C5 C4 1.372(6) .
C3 C4 1.399(6) .
C3 C2 1.385(6) .
C4 H4 0.9300 .
C2 C3 1.385(6) 13_565
C2 H2 0.9300 .
C11 H11A 0.9600 .
C11 H11B 0.9600 .
C11 H11C 0.9600 .
C8 H8A 0.9600 .
C8 H8B 0.9600 .
C8 H8C 0.9600 .
loop_
_refln_index_h
_refln_index_k
_refln_index_l
_refln_F_squared_meas
_refln_F_squared_sigma
0 0 2 2736.83 27.7
0 0 3 306.64 12.23
0 0 -4 352.89 16.89
0 0 -5 491.92 21.27
0 0 -6 1582.14 40.35
0 0 -7 147.3 16.82
0 0 -8 44.17 15.65
0 0 -9 86.7 19.77
0 0 -10 67.5 22.08
0 0 -11 -4.24 23.61
0 0 -11 4.86 7.13
0 0 -12 1.08 6.67
0 0 -13 79.99 9.54
0 0 -14 82.83 9.08
0 0 -15 103.42 8.72
0 0 16 55.07 7.37
0 -1 1 175.02 6.73
1 0 -1 181.65 5.89
1 0 1 166.38 5.9
0 -1 -1 183.52 6.68
0 -1 2 130.03 8.17
1 0 -2 133.89 7.5
1 0 2 136.91 7.61
0 -1 -2 134.84 8.42
-1 0 2 132.45 5.98
0 -1 -3 45.74 9.81
1 0 -3 50.43 8.76
0 -1 3 47.52 8.34
1 0 3 47.23 7.72
1 0 4 16.69 7.25
0 -1 4 22.38 7.6
1 0 -4 18.57 9.07
0 -1 -4 32.7 10.43
0 1 -5 10.25 9.15
1 0 -5 13.6 9.43
0 -1 5 13.09 7.45
0 -1 -5 17.36 10.39
1 0 -6 39.93 12.04
0 -1 -6 36.61 12.63
0 1 -6 30.85 10.88
-1 0 -6 43.58 12.25
0 -1 -7 23.03 12.41
0 1 -7 16.91 11.89
-1 0 -7 13.32 11.4
1 0 -7 19.27 12.49
1 0 -8 3.97 13.04
0 -1 -8 11.92 14.74
-1 0 -8 6.77 12.35
0 1 -8 -5.95 12.15
0 1 -9 8.4 13.67
0 -1 -9 15.96 16.1
1 0 -9 -8.92 15.18
-1 0 -9 -5.17 15.51
-1 0 -10 20.46 7.43
-1 0 -10 31.89 20.61
0 1 -10 22.08 18.78
0 -1 -10 24.08 19.29
1 0 -10 13.37 20.49
0 1 -10 18.05 7.11
-1 0 -11 47.19 23.9
0 1 -11 10.07 7.06
-1 0 -11 14.5 7.02
0 -1 -11 40.29 22.41
0 -1 -12 -3.64 6.49
0 1 -12 4.06 6.84
1 0 -12 6.1 6.54
-1 0 -12 0.99 6.75
0 -1 -13 0.6 6.12
1 0 -13 5.99 7
0 1 -13 -0.18 6.4
-1 0 -13 -0.8 6.21
0 1 -14 9.2 6.34
0 -1 -14 -5.51 5.84
1 0 -14 7.65 6.3
-1 0 -14 3.44 6.05
1 0 -15 0.57 5.26
0 1 -15 1.69 5.39
0 -1 -15 -0.45 5.01
-1 0 -15 0.34 5.04
1 0 -16 4.43 4.12
0 1 16 1.85 6.1
1 0 16 3.2 5.41
0 1 -16 6.81 4.14
0 -1 16 6.86 5.86
1 -1 -1 155.56 7.04
-1 -1 1 154.2 5.79
1 -1 1 146.24 7.46
1 1 -2 305.47 8.72
1 -1 2 303.25 12.84
-1 -1 2 297.62 10.18
1 -1 -2 293.93 11.61
1 -1 -3 417.02 16.63
1 1 -3 432.87 14.23
1 -1 3 443.87 16.67
-1 -1 3 424.05 14.5
-1 -1 4 1.83 6.42
1 -1 4 0.24 7.66
1 1 -4 5.26 7.64
1 -1 -4 -5.03 9.32
1 -1 -5 3.7 9.26
1 -1 5 3.44 7.99
1 1 -5 4.98 8.08
-1 -1 -5 -1.41 9.8
-1 -1 5 -0.72 6.54
1 -1 6 174.78 14.8
-1 -1 -6 164.03 16.93
1 1 -6 157.16 15.13
1 -1 -6 145.67 15.71
-1 1 -7 8.95 10.96
-1 -1 -7 18.88 12.74
1 1 -7 10.54 11.43
1 -1 -7 19.67 13.08
-1 -1 -8 -9.65 14.78
1 1 -8 -6.24 12.85
-1 1 -8 7.21 13.42
1 -1 -8 0.17 13.69
1 -1 -9 33.97 17.21
1 1 -9 24.28 15.73
-1 -1 -9 41.04 17.41
-1 1 -9 22.99 15.62
-1 -1 -10 6.58 20.21
-1 1 -10 -0.19 6.9
-1 1 -10 -6.48 19.11
1 -1 -10 18.77 18.57
-1 -1 -11 6.12 21.99
-1 -1 -11 -1.99 6.99
1 -1 -11 2.24 21.9
1 1 -11 -6.17 6.95
-1 1 -11 -6.04 7.38
1 1 -12 22.28 7.85
1 -1 -12 19.61 7.15
-1 -1 -12 24.06 8.01
-1 1 -12 24.93 8.13
1 1 -13 1.48 6.78
1 -1 -13 -2.22 6.59
-1 -1 -13 1.52 6.08
-1 1 -13 -4.03 6.25
-1 1 -14 8.44 6.3
1 -1 -14 3.69 6.17
-1 -1 -14 3 5.84
1 1 -14 0.13 5.94
-1 1 -15 0.95 5.25
1 1 -15 6.11 5.37
1 -1 -15 1.45 5.46
-1 1 16 -2.58 6.7
1 -1 16 -0.55 4.84
1 1 16 -1.8 5.63
1 1 -16 5.4 4.17
2 0 0 2247.15 15.24
0 -2 0 2286.15 19.94
2 0 1 9999 47.95
0 -2 1 9986.45 56.41
0 -2 -1 9978.92 53.35
2 0 -1 9953.8 45.62
0 -2 2 3524.09 41.07
2 0 2 3627.49 36.29
0 -2 -2 3614.72 39.34
2 0 -2 3525.41 34.46
0 -2 3 283.12 15.76
2 0 3 304.95 14.12
0 -2 -3 302.17 16.45
2 0 -3 286.62 13.87
2 0 4 297.95 15.52
0 -2 4 320.06 16.76
0 -2 -4 300.06 17.78
2 0 -4 297.36 16.39
0 -2 -5 722.71 27.77
2 0 -5 720.82 25.17
0 -2 5 721.76 25.66
0 2 -6 146.41 14.36
2 0 -6 165.53 15.9
0 -2 6 172.33 15
0 -2 -6 137.69 16.97
0 -2 -7 452.05 27.85
-2 0 -7 468.98 27.31
2 0 -7 431.72 25.59
0 2 -7 463.18 24.91
-2 0 -8 111.47 18.64
0 2 -8 118.95 17.15
0 -2 -8 126.25 20.11
2 0 -8 99.05 17.42
0 2 -9 55.12 17.66
2 0 -9 43.23 18.5
-2 0 -9 46.24 19.08
0 -2 -9 58.72 19.71
-2 0 -10 15.32 19.88
0 2 -10 -0.1 6.41
2 0 -10 -3.95 18.93
-2 0 -10 5.2 6.21
0 -2 -10 13.31 18.42
-2 0 -11 24.62 20.93
-2 0 -11 -6.47 7.29
0 2 -11 2.75 7.49
0 -2 -11 -2.46 22.38
-2 0 -12 32.57 8.07
2 0 -12 45.18 9.12
0 2 -12 47.94 8.68
0 -2 -12 32.18 7.95
-2 0 -13 26.05 7.36
0 2 -13 19.35 7.59
0 -2 -13 18.92 6.81
2 0 -13 20.37 7.11
0 -2 -14 59.64 8.18
-2 0 -14 64.54 8.29
0 2 -14 67.65 8.61
2 0 -14 64.29 8.75
2 0 15 64.49 9.37
0 2 -15 58.1 7.35
2 0 -15 62.23 7.66
0 -2 16 18.83 5.75
0 2 -16 15.11 4.54
0 2 16 24.88 6.88
2 0 16 17.27 5.49
2 0 -16 19.22 4.88
1 -2 0 -0.23 3.28
2 -1 0 -1.41 3.01
-1 -2 0 1.09 2.41
2 -1 0 0.25 3.23
1 -2 0 0.66 3.92
2 -1 -1 758.02 15.81
-2 -1 1 724.87 9.32
-1 -2 1 726.01 14.81
-1 -2 -1 743.55 14.92
1 -2 -1 745.01 16.65
1 -2 1 735.98 17.45
2 1 -1 733.46 9.38
2 -1 1 750.19 16.14
-1 -2 -2 286.51 12.41
1 -2 2 299.47 14.16
2 1 -2 310.2 9.45
2 -1 -2 300.06 13.14
2 -1 2 295.74 12.81
1 -2 -2 292.4 13.66
-2 -1 2 294.32 8.65
-1 -2 2 316.9 12.9
1 -2 3 51.89 10.98
2 -1 -3 58.28 10.99
2 1 -3 61.4 8.55
-1 -2 -3 70.46 11.5
1 -2 -3 77.47 11.7
2 -1 3 58.42 9.59
-1 -2 3 53.67 9.11
-2 -1 3 58.64 6.71
1 -2 -4 95.56 12.84
1 -2 4 91.45 12.03
-1 -2 -4 88.08 12.49
-1 -2 4 83.44 10.06
2 1 -4 69.19 9.49
2 -1 -4 100.57 12.1
-2 -1 4 85.3 8.03
1 2 -4 84.9 9.4
2 -1 4 80.63 10.77
2 -1 5 -4.02 8.4
1 -2 5 3.69 7.95
1 2 -5 -2.95 7.78
1 -2 -5 3.55 10
2 -1 -5 -1.74 9.25
2 1 -5 7.64 8.86
-1 -2 -5 14.1 10.84
-1 -2 5 2.83 7.37
2 -1 -6 48.88 13.49
1 2 -6 40.18 9.99
-1 -2 -6 34.46 13.13
2 1 -6 42.72 11.19
1 -2 -6 44.45 12.62
-1 -2 6 29.56 8.71
-2 -1 -6 49.48 13.07
1 -2 6 44.87 10.12
2 -1 6 34.43 9.82
2 -1 -7 35 13.47
1 -2 7 27.88 10.43
1 2 -7 22.1 11.66
1 -2 -7 31.1 12.99
-2 -1 -7 20.26 13.32
-1 -2 -7 25.56 13.72
2 1 -7 24.84 12.75
-1 2 -7 36.61 12.65
2 -1 -8 -1.33 14.01
-2 -1 -8 17.82 15.24
1 2 -8 14.96 12.38
-1 2 -8 17.76 12.52
2 1 -8 34.26 14.47
-2 1 -8 13.68 13.69
-1 -2 -8 21.55 15.58
1 -2 -8 41.62 15.93
1 -2 -9 -0.18 16.47
2 -1 -9 5.43 17.2
-2 -1 -9 13.12 17.05
-1 -2 -9 -8.22 17.75
1 2 -9 2.57 14.65
-2 1 -9 10.85 16.02
2 1 -9 -3.08 15.12
-1 2 -9 -7.92 15.01
2 -1 -10 25.06 20.02
-2 1 -10 28.65 20.24
-1 2 -10 14.59 17.34
-2 -1 -10 11.42 19.03
1 2 -10 17.2 6.65
-2 -1 -10 11.78 7.23
-1 2 -10 4.18 6.99
-2 1 -10 9.67 6.99
1 -2 -10 27.76 22.46
-1 -2 -10 23.94 21.94
-1 2 -11 23.1 7.58
-1 -2 -11 11.97 7.25
1 2 -11 12.3 7.16
1 -2 -11 21.73 23.97
-2 1 -11 12.17 20.53
-2 1 -11 18.99 7.68
-1 -2 -11 30.2 23.93
-2 -1 -11 5.8 7.29
-2 -1 -11 9.53 22.37
1 2 -12 9.38 6.89
-1 2 -12 2.47 6.59
-2 -1 -12 10.02 7.1
2 1 -12 1.43 6.47
-1 -2 -12 0.44 6.67
-2 1 -12 9.71 7.25
2 -1 -13 3.12 6.21
1 2 -13 -4.01 6.5
-1 2 -13 -3.23 6.21
1 -2 -13 -4.98 6.69
2 1 -13 3.75 6.02
-2 1 -13 4.79 6.7
-1 -2 -13 5.82 6.66
1 2 -14 3.17 6.11
-2 1 -14 -0.97 6.05
-1 2 -14 -4.91 6.25
2 -1 -14 -0.32 5.92
2 1 -14 1.91 6.34
1 -2 -14 4.06 5.92
2 1 15 6.12 7.75
2 -1 -15 3.23 5.32
1 2 -15 -5.08 5.86
2 -1 15 12.99 7.3
-1 2 -15 -1.91 5.12
2 1 -15 -1.42 5.54
1 -2 -15 5.26 5.22
2 1 16 8.38 5.51
1 2 -16 3.24 4.4
2 -1 16 -3.04 4.53
1 2 16 0.64 5.55
1 -2 16 8.98 4.95
-1 2 16 7.2 6.35
2 -1 -16 -4.44 4.2
2 1 -16 -3.05 4.34
2 -2 0 4056.57 37.08
2 -2 0 4071.77 36.62
2 -2 -1 809.04 18.53
2 -2 1 787.31 19.06
-2 -2 1 775.64 14.56
2 -2 2 587.72 19.65
2 -2 -2 552.61 18.53
-2 -2 2 596.45 15.56
2 -2 3 218.5 15.05
-2 -2 3 202.9 11.9
2 2 -3 220.91 9.81
2 -2 -3 211.15 15.1
2 2 -4 70.7 9
2 -2 4 87.9 12.28
-2 -2 4 79.17 8.87
2 -2 -4 67.8 12.5
-2 -2 5 380.38 17.06
2 -2 5 369.65 20.08
2 2 -5 372.57 17.48
-2 -2 -5 377.38 21.99
2 -2 -5 372.75 21.31
-2 -2 6 640.45 23.26
2 -2 6 650.71 27.61
2 2 -6 633.57 25.01
-2 -2 -6 654.34 30.54
2 -2 -6 614.47 29.01
2 -2 7 117.62 14.89
2 2 -7 124.18 15.8
2 -2 -7 103.06 17.64
-2 -2 -7 122.44 18.25
2 2 -8 179.26 20.56
-2 -2 -8 152.45 21.16
-2 2 -8 144.06 19.74
2 -2 -8 142.6 21.41
-2 -2 -9 163.59 25.62
2 -2 -9 143.15 22.79
-2 2 -9 124.43 21.58
2 -2 -10 21.47 21.13
-2 -2 -10 42.82 22.12
-2 2 -10 35.97 8.12
-2 2 -10 44.4 21.28
-2 -2 -11 4.65 23.66
2 2 -11 2.24 7.81
-2 2 -11 13.99 7.89
2 -2 -11 -4.38 22.07
2 2 -12 -6.15 7.55
-2 2 -12 12.11 7.67
2 2 -13 53.63 9.28
2 -2 -13 40.8 7.87
-2 2 -13 38.27 7.79
-2 2 -14 22.32 6.67
2 2 -14 28.43 7.29
2 -2 -14 36.77 7.43
2 -2 15 32.87 8.08
2 2 15 30.78 8.5
2 -2 -15 21.25 5.96
2 2 -15 24.38 6.4
-2 2 -15 20.06 5.72
2 2 -16 13.1 4.68
-2 2 16 15.32 6.74
2 2 16 12.33 5.64
0 -3 0 -0.24 4.06
3 0 0 -1.84 2.39
0 -3 1 2516.57 23.54
3 0 -1 2505.21 27.3
3 0 1 2510.41 26.53
0 -3 -1 2568.94 31.31
0 -3 1 2579.98 34.02
0 -3 2 636.49 21.12
3 0 -2 635.69 16.43
0 -3 -2 649.62 19.96
3 0 2 639.74 17.07
0 -3 3 438.69 19.89
3 0 -3 439.3 16.7
0 -3 -3 424.13 19.76
3 0 3 425.76 17.22
0 -3 -4 -2.74 10.56
3 0 -4 0.91 9.07
0 -3 4 -1.58 9.59
3 0 4 -3.96 7.5
3 0 -5 618.24 24.65
0 -3 -5 604.19 26.86
0 -3 5 606.85 25.08
0 -3 -6 108.05 16.18
0 -3 6 122.29 13.83
3 0 -6 128.61 15.67
3 0 -7 3.06 11.94
0 -3 -7 9.17 14
0 3 -7 4.71 10.4
0 -3 7 -0.11 8.86
0 3 -8 84.58 15.36
3 0 -8 61.72 17.15
-3 0 -8 82.31 19
0 -3 -8 85.26 18.37
3 0 -9 103.04 20.01
0 -3 -9 88.7 22.29
0 3 -9 95 18.96
-3 0 -9 101.8 21.05
0 -3 -10 36.32 20.5
0 3 -10 38.86 8.5
-3 0 -10 57.1 22.2
-3 0 -10 36.38 8.11
-3 0 -11 20.28 7.99
0 -3 -11 -16.45 22.14
0 3 -11 26.82 8.72
-3 0 -11 6.3 21.61
-3 0 -12 31.34 7.84
0 -3 -12 23.77 7.16
0 3 -12 41.71 9.07
0 -3 -13 50.03 7.97
0 3 -13 34 7.78
3 0 -13 44.71 8.18
0 3 -14 4.59 6.05
3 0 -14 2.49 6.21
0 3 -15 2.87 5.12
3 0 15 2.77 7.15
3 0 -15 7.93 5.81
3 0 16 7.47 4.6
0 3 -16 2.4 3.9
0 3 16 6.78 6.06
3 0 -16 -2.95 4.41
0 -3 16 11.58 5.07
3 -1 0 183.79 7.78
3 -1 0 188.63 9.46
1 -3 0 183.78 10.61
-1 -3 0 178.89 7.38
1 -3 0 177.63 8.83
-1 -3 1 114.11 4.35
-1 -3 -1 101.99 7.66
3 -1 -1 116.88 8.4
1 -3 -1 106.93 9.07
3 -1 1 87.33 7.68
1 -3 1 112.12 7.32
-1 -3 1 106.53 9.46
1 -3 1 112.08 10.22
3 -1 -1 107.64 5.66
3 1 -1 110.86 5.82
-3 -1 2 24.71 2.85
-1 -3 -2 32.76 8.8
-1 -3 2 22.81 8.32
1 -3 2 -3 10.21
3 -1 2 20.2 7.56
3 1 -2 18.32 5.22
3 -1 -2 33.61 8.31
1 -3 -2 25.15 9.31
-3 -1 3 307.68 9.28
3 -1 3 293.94 15.74
3 -1 -3 301.12 16.38
3 1 -3 305.78 12.84
1 -3 -3 318.48 17.84
-1 -3 3 311.19 16.7
-1 -3 -3 312.97 17.61
1 -3 3 305.06 18.47
3 -1 4 80.98 10.5
3 -1 -4 65.4 10.82
-1 -3 -4 80.05 12.73
1 -3 4 76.92 12.38
-1 -3 4 68.14 11.33
3 1 -4 81.54 10.07
1 -3 -4 73.99 13.01
1 -3 5 7.77 9.38
-1 -3 5 6.62 8.41
3 1 -5 8.8 8.66
-1 -3 -5 4.13 10.9
1 3 -5 2.03 7.26
3 -1 5 6.13 7.95
1 -3 -5 0.01 10.65
3 -1 -5 3.05 10.31
-1 -3 -6 28.91 12.66
3 1 -6 20.49 10.48
3 -1 -6 17.66 11.36
1 -3 6 18.91 9.66
1 -3 -6 21.96 13.01
1 3 -6 17.94 9.13
-1 -3 6 27.56 9.2
3 -1 6 22.13 9.29
1 3 -7 20 10.62
-1 -3 7 30 9.64
3 -1 -7 20.25 13.33
-3 -1 -7 36.58 14.75
3 1 -7 25.14 12.74
-1 -3 -7 29.04 15.16
1 -3 7 24.32 10.36
1 -3 -7 35.65 14.93
-3 -1 -8 -2.11 14.41
1 -3 -8 7.87 13.95
-1 3 -8 -0.79 12.34
1 3 -8 -3.25 11.67
3 1 -8 -4.93 12.99
-3 1 -8 -2.59 14.35
3 -1 -8 -9.85 14.82
-1 -3 -8 10.31 14.64
1 -3 8 1.48 9.43
-1 -3 -9 27.34 19.55
-3 1 -9 24.31 18.2
-3 -1 -9 10.21 17.49
-1 3 -9 21.78 15.01
3 -1 -9 8.47 16.47
1 -3 -9 17.41 16.96
3 -1 -10 -1.86 17.35
-1 3 -10 2.64 7.31
-3 -1 -10 -1.99 20.91
1 3 -10 4.89 7.49
-3 1 -10 -8.24 19.61
-3 1 -10 0.66 6.84
1 -3 -10 2.57 20.72
-1 -3 -10 20.18 23.58
-1 3 -11 -6.41 7.26
-1 -3 -11 -2.75 24.1
1 3 -11 1.06 6.75
-3 1 -11 -11.42 23.26
-3 1 -11 3.54 7.52
-3 -1 -11 -5.77 24.06
1 -3 -11 45.07 25.72
-1 3 -12 5.35 7.14
1 3 -12 -2.9 6.36
-3 1 -12 1.78 6.63
3 1 -12 2.87 6.53
1 3 -13 7.44 6.88
-3 1 -13 9.58 6.76
3 1 -13 2.63 6.37
-1 3 -13 23.98 7.06
1 -3 -13 5.54 6.27
3 -1 -13 5.56 6.46
3 -1 -14 2.49 6.13
-1 3 -14 -0.28 5.89
1 -3 -14 0.12 5.6
1 3 -14 -1.89 6.38
3 1 -14 7.85 6.65
3 1 15 9.93 7.07
1 3 -15 -7.91 5.85
3 -1 15 5.11 6.89
1 3 15 10.47 8.27
3 1 -15 0.82 5.43
3 -1 -15 1.96 5.22
-1 3 -15 -1.87 4.89
3 1 -16 -5.12 4.64
-1 3 -16 -0.47 3.63
-1 3 16 3.68 6.05
3 -1 -16 0.48 4.24
1 3 -16 0.23 4.26
1 3 16 3.03 5.63
3 1 16 -2.03 4.83
-2 -3 0 4.13 3.75
3 -2 0 1.99 5.67
3 -2 0 -1.18 5.76
2 -3 0 -0.13 6.79
2 -3 0 2.76 5.76
3 -2 -1 73.72 8.71
-3 -2 1 80.78 6.35
-2 -3 1 83.53 8.86
2 -3 1 90.27 10.96
-2 -3 -1 83.37 7.84
2 -3 -1 73.58 9.26
3 -2 1 81.83 9.41
3 -2 -1 77.39 7.74
-2 -3 2 80.7 9.57
2 -3 2 110.16 13.8
2 -3 -2 65.95 11.41
3 2 -2 70.43 4.23
-2 -3 -2 86.7 10.78
-3 -2 2 94.59 7.73
3 -2 -2 83.57 11.29
3 -2 2 87.16 11.16
-2 -3 -3 268.12 16.88
3 2 -3 263.29 9.88
-2 -3 3 255.43 14.57
2 -3 3 247.83 17.86
3 -2 3 249.08 15.87
3 -2 -3 264.32 15.97
2 3 -3 245.6 8.4
2 -3 -3 263.34 17.11
-3 -2 3 269.9 11.37
2 3 -4 614.45 16.72
3 -2 4 597.56 23.61
3 -2 -4 590.07 23.84
-3 -2 4 572.49 16.71
-2 -3 -4 602.68 24.98
3 2 -4 587.76 17.55
2 -3 4 582.62 25.29
2 -3 -4 577.97 24.61
-2 -3 4 580.33 21.35
-3 -2 5 151.98 10.53
3 2 -5 150.51 12.2
3 -2 5 144.71 14.69
-2 -3 5 145.45 12.76
3 -2 -5 149.14 16.42
2 -3 5 162.19 15.67
2 3 -5 150.49 11.67
-2 -3 -5 147.06 16.09
2 -3 -5 141.54 16.07
-2 -3 6 95.38 11.35
2 -3 -6 101.13 16.14
2 3 -6 97.05 12.61
-2 -3 -6 86.16 15.56
3 -2 -6 98.37 15.43
2 -3 6 92.49 13.93
3 -2 6 98.58 13.57
-3 -2 -6 101.71 16.09
3 2 -6 104.91 12.92
3 -2 7 13.16 10.67
-2 -3 7 12.11 7.63
3 2 -7 15.24 11.18
2 -3 7 7.49 10.41
-2 -3 -7 18.23 13.92
-3 -2 -7 11.05 13.09
3 -2 -7 6.38 12.82
2 -3 -7 10.79 13.05
2 3 -7 15.59 10.55
-2 3 -8 -2.68 12.23
-2 -3 -8 -9.86 15.29
2 -3 8 2.57 10.56
-3 -2 -8 7.77 15.13
3 -2 -8 19.45 15.86
2 -3 -8 14.96 15.21
2 -3 -9 53.89 20.04
-3 -2 -9 24.17 18.64
-3 2 -9 8.42 17.66
-2 3 -9 39.07 17.12
-2 -3 -9 18.25 19.12
3 -2 -9 33.69 17.18
-2 3 -10 70.41 9.52
-2 -3 -10 41.61 22.11
-3 2 -10 41.92 22.53
2 -3 -10 67.45 21.86
-3 -2 -10 47.63 21.61
2 3 -10 63.21 9.52
-3 2 -10 78.44 9.79
3 -2 -10 51.29 20.29
-2 3 -10 78.98 20.6
2 3 -11 63.32 10.43
-3 -2 -11 43.3 23.49
-2 3 -11 54.6 9.43
2 -3 -11 61.4 25.18
-3 2 -11 66.73 24.84
3 2 -11 77.54 10.43
-3 2 -11 68.18 9.34
-2 -3 -11 78.41 26.28
-3 2 -12 31.65 8.22
-2 3 -12 25.17 8.19
2 3 -12 25.21 8.58
3 2 -12 27.38 8.33
3 -2 -13 11.35 6.45
2 -3 -13 1.45 6.34
-2 3 -13 1.41 6.43
-3 2 -13 0.2 6.57
2 3 -13 -0.16 6.54
3 2 -13 11.22 7.49
3 -2 -14 3.25 6.37
3 2 14 9.93 9.26
2 -3 -14 -0.77 5.61
2 3 -14 -2.34 6.65
3 2 -14 5.86 6.18
-3 2 -14 4.88 5.85
-2 3 -14 -2.5 5.92
-2 3 -15 0.81 5.15
2 3 15 10.4 7.72
3 2 15 0.06 6.85
3 -2 -15 -2.56 5.23
3 -2 15 -1.04 5.84
2 3 -15 -3.93 5.84
2 -3 -15 2.6 5.13
3 2 -15 -0.3 5.41
2 3 16 4.69 5.42
3 -2 -16 -0.41 3.96
2 3 -16 -6.42 4.5
-2 3 16 0.75 6.13
3 2 16 0.57 5.17
3 2 -16 1.38 4.35
3 -3 0 68.44 10.69
3 -3 0 58.21 8.94
-3 -3 1 18.41 7.4
3 -3 -1 17.21 8.6
3 -3 -1 10.35 8.74
3 -3 1 0.92 10.43
-3 -3 2 120.74 9.98
3 -3 2 142.56 13.92
3 -3 -2 139.78 13.68
3 -3 3 57.46 11.86
-3 -3 3 52.69 8.63
-3 -3 -4 525.89 23.74
3 -3 4 486.76 23.45
-3 -3 4 502.94 18.39
3 -3 -4 483.72 22.88
3 3 -4 489.91 13.75
3 -3 -5 187.81 18.06
-3 -3 5 206.41 13.13
-3 -3 -5 201.7 17.89
3 -3 5 208 17.6
3 3 -5 224.87 13.03
-3 -3 -6 0.07 12.19
3 3 -6 -3.51 8.27
-3 -3 6 2.42 6.43
3 -3 6 -1.5 8.96
3 -3 -6 5.07 12.1
3 -3 7 195.21 19.35
-3 -3 -7 187 21.72
3 -3 -7 199.11 21.66
3 -3 -8 137.68 21.02
3 -3 8 176.01 19.44
-3 -3 -8 157.91 23.08
-3 -3 -9 12.78 18.08
3 -3 -9 -6.11 17.72
-3 3 -9 22.59 17.84
-3 3 -10 -11.77 19.75
-3 3 -10 16.91 8.02
-3 -3 -10 3.03 20.93
3 -3 -10 2.83 18.89
3 3 -11 -0.77 8.7
3 -3 -11 35.31 23.3
-3 -3 -11 23.31 22.48
-3 3 -11 11.71 8.12
3 3 -12 -0.41 7.65
-3 3 -12 7.44 7.24
-3 3 -13 5.47 6.49
3 3 -13 11.62 7.9
3 -3 -14 1.06 5.89
-3 3 -14 -3.36 5.95
3 3 14 20.38 10.02
3 3 -14 9.63 6.91
3 3 -15 7.21 5.76
3 -3 -15 2.83 5.09
3 3 15 9.51 7.46
-3 3 -15 8.63 5.07
3 3 -16 -5.17 4.63
3 3 16 0.34 5.03
-3 3 16 -0.57 6.06
0 -4 0 4366.22 49.45
4 0 0 4297.73 28.59
0 -4 0 4262.81 39.16
0 -4 -1 1286.92 25.87
0 -4 1 1272.24 20.15
4 0 -1 1303.94 22.84
0 -4 1 1297.16 28.72
4 0 1 1275.29 20.78
0 -4 -2 669.25 21.84
4 0 -2 640.11 18.01
4 0 2 649.99 18.21
0 -4 2 655.39 23.52
0 -4 -3 49.49 12.17
4 0 -3 31.09 8.47
4 0 3 31.78 8
0 -4 3 37.92 12.58
0 -4 4 362.94 21.31
0 -4 -4 385.71 21.44
4 0 4 368.74 17.93
4 0 -4 375.87 17.5
0 -4 5 844.82 30.59
4 0 -5 869.66 27.99
0 -4 -5 816.89 32.27
0 -4 -6 865.73 36.27
0 -4 6 846.6 32.84
4 0 -6 871.75 31.46
0 -4 -7 118.63 19.47
0 -4 7 94.82 13.7
4 0 -7 86.43 14.64
0 4 -7 93.55 13.74
0 -4 8 47.52 12.17
4 0 -8 53.92 15.82
0 4 -8 54.51 14.11
0 -4 -8 63.18 18.75
-4 0 -8 58.43 16.61
0 4 -9 40.74 7.44
-4 0 -9 48.77 20.16
0 -4 -9 59.95 20.17
-4 0 -10 49.21 21.49
0 -4 -10 5.38 20.17
0 4 -10 23.61 8.25
0 -4 -11 -1.82 21.72
0 4 -11 7.9 7.52
-4 0 -11 9.76 23.32
0 4 -12 -2.11 7.12
0 -4 -12 -3 6.65
0 4 -13 52.46 9.12
4 0 -13 34.9 8.24
4 0 14 10.39 8.84
0 4 -14 24.03 7.4
4 0 -14 16.58 7
0 4 15 19.57 9.02
4 0 15 11.55 6.51
0 4 -15 20.03 6.19
4 0 -15 14.77 6.08
4 0 -16 11.58 4.83
0 4 16 8.75 6.05
0 4 -16 13.27 4.38
4 -1 0 2.71 5.13
1 -4 0 -1.33 8.78
-1 -4 0 -0.58 5.74
1 -4 0 -5.94 6.81
-1 -4 1 214.52 7.79
4 -1 -1 187.23 7.32
-1 -4 -1 194.58 12.19
1 -4 1 202.74 14.68
1 -4 1 206.35 10.75
1 -4 -1 212.54 13.47
4 -1 -1 214.83 11.9
-1 -4 1 205.25 14.5
4 -1 1 198.02 10.93
-1 -4 2 267.28 16.75
4 -1 -2 254.63 8.66
4 -1 -2 279.28 14.35
-1 -4 -2 284.38 15.99
1 -4 2 275.56 17.38
4 1 -2 277.77 10.94
1 -4 -2 299.9 17.36
4 -1 2 287.61 13.99
4 -1 -3 100.02 11.93
1 -4 3 109.5 14.47
-1 -4 -3 94.87 12.99
4 -1 3 103.88 11.26
-1 -4 3 106.09 13.56
4 1 -3 100.04 8.8
1 -4 -3 110.98 13.82
4 -1 -4 148.48 13.74
4 -1 4 124.15 12.4
-1 -4 4 139.04 14.13
1 -4 4 147.87 15.6
1 -4 -4 137.72 15.42
4 1 -4 150.31 11.26
-1 -4 -4 144.73 15.15
-1 -4 -5 148.06 17.21
1 4 -5 170.44 11.6
4 -1 5 175.17 14.99
-1 -4 5 169.65 15.49
4 -1 -5 168.95 15.26
1 -4 -5 167.13 17.41
1 -4 5 149.49 15.93
4 1 -5 155.07 12.85
-1 -4 6 46.48 11.4
1 -4 6 63.4 12.78
4 -1 -6 49.82 13.22
4 1 -6 52.19 11.97
4 -1 6 58.69 11.47
1 -4 -6 53.52 14.67
1 4 -6 55.92 10.1
-1 -4 -6 46.23 13.97
-1 -4 7 29.89 10.52
1 4 -7 23.67 10.98
-1 -4 -7 20.53 14.84
4 -1 -7 18.98 13.54
1 -4 -7 34.43 15.99
1 -4 7 12.06 9.49
4 1 -7 20.19 11.99
1 -4 8 -2.05 10.73
1 -4 -8 0.13 14.86
-1 -4 8 -8.06 9.98
4 -1 -8 3.43 14.02
-1 4 -8 -10.31 12.35
-1 -4 -8 -1.53 15.24
-4 -1 -8 0.29 14.3
-4 -1 -9 11.99 18.33
1 4 -9 -2.4 5.78
-1 -4 -9 8.58 18.15
-4 1 -9 -0.7 16.74
1 -4 -9 -14.47 18.93
-1 4 -9 13.94 7.2
4 -1 -9 1.75 17.6
-4 -1 -10 8.62 19.99
-4 1 -10 -0.49 7.33
-1 4 -10 -2.82 7.08
-4 1 -10 -2.64 19.81
-1 -4 -10 -9.99 20.74
1 4 -10 0.99 6.83
1 -4 -10 -4.1 20.77
-1 -4 -11 -15.34 23.71
-4 1 -11 6.27 7.74
-4 -1 -11 8.81 21.25
1 4 -11 0.99 7.14
1 -4 -11 -34.55 24.15
-1 4 -11 0.83 7.21
-4 1 -11 17 22.24
4 1 -12 3.59 7.31
-1 4 -12 7.48 7.11
1 4 -12 3.59 6.95
4 1 -13 0.42 7.37
-1 4 -13 5.67 6.77
1 4 -13 6.33 6.15
4 -1 -13 3.15 6.25
1 -4 -13 -0.65 5.99
4 1 -14 -7.93 6.69
4 1 14 17.36 8.78
1 4 -14 7.03 6.27
1 -4 -14 2.48 5.49
-1 4 -14 -7.39 6.22
4 -1 14 -1.54 7.79
4 -1 -14 2.38 6.43
4 1 15 14.61 6.94
4 -1 15 -0.92 5.65
4 1 -15 4.6 5.38
1 4 -15 -6.1 5.63
-1 4 -15 2.34 5.05
4 -1 -15 -5.15 5.65
1 4 15 8.94 7.73
4 1 16 -8.12 4.47
4 -1 -16 0.07 4.21
-1 4 16 8.54 6.19
1 4 16 4.27 5.55
-1 4 -16 -7.59 3.93
1 4 -16 -1.79 4.08
4 1 -16 0.31 4.34
-2 -4 0 38.57 6.54
4 -2 0 32.93 8.61
2 -4 0 28.88 8.94
4 -2 0 19.7 7.39
2 -4 0 25.67 10.55
2 -4 1 50.05 8.18
4 -2 -1 63.82 10.12
-4 -2 1 53.53 6.03
-2 -4 -1 59.85 9.15
4 -2 -1 62.72 8.57
4 -2 1 55.29 10.09
-2 -4 1 49.48 3.66
2 -4 1 68.41 12.37
-2 -4 1 66.14 11.81
2 -4 -1 66.87 10.92
2 -4 2 8.07 12.15
4 -2 -2 14.21 9.37
4 -2 2 6.38 8.72
-2 -4 -2 18.57 9.44
-4 -2 2 13.95 3.91
2 -4 -2 15.82 10.3
-2 -4 2 24.49 10.02
4 -2 -2 15.57 7.45
4 -2 3 63.69 10.84
-4 -2 3 56.49 5.12
2 -4 -3 51.27 11.59
-2 -4 -3 64.28 11.68
4 2 -3 58.27 6.12
4 -2 -3 61.75 11.55
-2 -4 3 73.6 10.74
2 -4 3 68.56 13.2
2 4 -3 52.87 3.71
4 -2 4 28.89 9.22
2 -4 -4 26.69 11.78
-2 -4 -4 22.56 11.11
-4 -2 4 23.01 4.82
2 4 -4 22.87 5.52
-2 -4 4 13.63 8.5
2 -4 4 17.78 11.1
4 -2 -4 24.9 10.53
4 2 -4 26.35 6.54
4 -2 -5 109.17 13.92
4 -2 5 112.5 13.62
-2 -4 -5 127.4 16.1
2 4 -5 127.37 10.3
4 2 -5 124.54 11.01
2 -4 5 115.96 14.85
-2 -4 5 133.03 13.36
2 -4 -5 102.24 15.69
-2 -4 6 244.15 17.71
2 -4 -6 224.49 21.36
4 -2 -6 221.83 20.11
4 -2 6 258.51 19.47
-2 -4 -6 232.37 21.94
2 -4 6 245.94 20.71
2 4 -6 260.64 15.86
4 2 -6 253.09 16.46
-2 -4 7 577.36 26.28
2 -4 7 586.9 30.05
4 -2 7 635.65 30.74
2 -4 -7 547.66 33.71
4 -2 -7 593.74 32.2
-2 -4 -7 613.35 34.75
-4 -2 -7 603.21 33.57
-4 -2 -8 364.86 31.41
4 -2 -8 369.04 28.88
2 -4 8 384.67 27.01
-2 -4 -8 357.93 30.75
2 -4 -8 383.89 31.13
-2 4 -9 131.2 21.61
-2 -4 -9 118.07 24.33
2 4 -9 108.3 10.44
-4 2 -9 109.43 21.57
-4 -2 -9 135.36 24.94
2 -4 -9 117.4 23.68
-2 4 -9 107.5 10.06
4 -2 -9 120.94 21.61
-2 4 -10 37.19 8.82
-4 2 -10 41.96 21.52
4 -2 -10 33.26 20.26
2 -4 -10 35.65 23.14
-4 -2 -10 49.58 22.43
2 4 -10 35.54 9.17
-2 -4 -10 48.97 23.22
-4 2 -10 40.49 8.96
2 4 -11 -0.1 7.36
-2 4 -11 9.13 7
-2 -4 -11 43.2 26.36
-4 -2 -11 -30.91 21.96
-4 2 -11 -54.43 22.82
-4 2 -11 2.24 7.55
2 -4 -11 2.99 21.76
2 4 -12 -4.33 7.46
4 2 -12 3.61 7.16
-2 4 -12 16.18 7.76
-4 2 -12 -4.91 7.48
-4 2 -13 -5.16 6.56
4 2 -13 3.56 6.55
2 4 -13 4.46 6.37
2 -4 -13 -2.46 6.31
-2 4 -13 1.92 6.56
4 -2 -14 -1.02 6.34
4 -2 14 10.97 8.03
2 4 -14 9.95 6.41
4 2 14 20.4 9.08
4 2 -14 13.44 7.13
-2 4 -14 9.53 6.27
2 4 14 15.08 10.16
2 -4 -14 4.9 5.7
4 -2 -15 7.96 5.38
4 2 -15 10.73 5.81
2 4 15 17.51 7.86
-2 4 -15 4.79 5.1
4 2 15 14.28 6.98
2 4 -15 8.98 5.52
2 4 16 1.94 5.22
2 4 -16 2.94 4.17
4 2 -16 -0.05 4.33
4 2 16 2.47 4.57
4 -2 -16 1.43 4.13
-2 4 16 2.47 5.71
4 -3 0 2.99 8.57
4 -3 0 2.83 9.13
3 -4 0 4.47 8.44
-3 -4 0 4.84 5.76
3 -4 0 -7.17 10.51
-4 -3 1 18.75 7.28
3 -4 -1 16.55 9.91
4 -3 -1 7.02 8.61
4 -3 -1 20.54 9.41
4 -3 1 -5.48 10.47
3 -4 -1 14.09 9.52
3 -4 1 6.94 7.93
-3 -4 1 12.51 9.78
3 -4 1 13.74 10.88
-3 -4 -1 24.52 7.79
-3 -4 -2 34.57 9.44
-3 -4 2 36.83 9.29
3 -4 -2 30.78 10.7
4 -3 -2 32.22 8.77
-4 -3 2 39.06 6.83
4 -3 -2 32.75 10.31
3 -4 2 12.38 11.18
4 -3 2 39.57 11.08
4 -3 3 123.82 14.09
-4 -3 3 116.07 9.07
3 -4 -3 117.14 13.72
-3 -4 3 107.89 11.18
-3 -4 -3 111.19 13.18
4 -3 -3 127.09 13.57
3 -4 3 126.58 14.89
-3 -4 -4 192.44 16.77
4 -3 4 190.88 16.66
3 -4 4 170.62 17.13
-3 -4 4 175.27 13.57
4 -3 -4 167.61 16.47
4 3 -4 161.5 8.13
-4 -3 4 185.81 10.7
3 -4 -4 178.24 16.6
3 -4 5 107.5 14.78
3 -4 -5 92.87 14.64
4 -3 -5 101.16 14.95
4 -3 5 112.32 14.34
-3 -4 -5 97.77 15.21
4 3 -5 101.9 8.4
-4 -3 5 121.14 9.7
-3 -4 5 108.09 11.77
4 -3 6 50.66 12.09
3 -4 -6 34.65 13.6
-3 -4 6 46.03 9.47
4 -3 -6 55.23 14.73
-4 -3 -6 46.23 15.03
3 -4 6 54.16 12.76
-3 -4 -6 55.02 15.37
-3 -4 -7 1.81 14.9
-3 -4 7 16.48 7.82
4 -3 7 0.7 10.54
-4 -3 -7 4.64 13.99
3 -4 7 7.01 10.71
3 -4 -7 0.57 13.3
4 -3 -7 3.64 13.61
-3 -4 -8 14.52 17.53
4 -3 -8 5.99 14.87
4 -3 8 -0.59 11.73
-4 -3 -8 -2.17 16.4
3 -4 8 -1.43 11.68
3 -4 -8 2.42 15.68
3 4 -9 9 7.15
3 -4 -9 19.94 17.19
-3 4 -9 9.82 6.88
-3 4 -9 18.6 18.59
4 -3 -9 21.36 18.39
-3 -4 -9 -11.48 20.99
-4 -3 -9 -8.63 19.71
-4 3 -9 -5.08 17.35
4 -3 -10 6.02 19.85
-3 4 -10 31.69 8.75
-4 3 -10 21.65 8.32
-4 3 -10 35.86 21.57
3 4 -10 6.43 7.99
-4 -3 -10 24.47 22.29
3 -4 -10 45.36 22.08
-3 -4 -10 7.63 20.54
-4 -3 -11 12.48 22.92
-3 4 -11 39.64 8.68
-3 -4 -11 14.69 22.99
3 -4 -11 25.15 22.03
3 4 -11 25.36 8.13
4 3 -11 29.23 7.91
-4 3 -11 17.84 7.8
-4 3 -12 6.71 7.26
3 4 -12 7.12 6.9
4 3 -12 5.92 7.26
-3 4 -12 10.89 6.75
-4 3 -13 3.46 6.56
-3 4 -13 -1.76 6.31
4 3 13 19.26 10.49
3 4 -13 5.23 7.33
4 3 -13 -3.44 6.42
3 4 14 3.17 8.9
3 4 -14 4.67 6.63
3 -4 -14 -2.1 5.79
4 3 14 8.93 8.8
-4 3 -14 7.92 5.98
4 -3 -14 -4.44 6.6
4 3 -14 4.57 6.08
-3 4 -14 -0.57 5.55
3 4 15 -0.31 6.85
3 4 -15 -4.76 5.84
4 3 15 -4.73 6.57
4 3 -15 7.69 5.69
3 -4 -15 8.85 5.22
-3 4 -15 2.25 4.63
4 -3 -15 3.44 5.16
4 3 16 -0.62 4.52
3 4 16 -5.99 5.14
-3 4 16 6.03 5.96
4 3 -16 -2.55 4.14
3 4 -16 -0.97 4
4 -3 -16 -0.36 3.83
4 -4 0 57.6 10.34
4 -4 0 73.98 12.1
-4 -4 0 56.53 6.5
-4 -4 1 -3.46 7.54
4 -4 1 3.04 10.11
-4 -4 1 1.91 2.32
4 -4 -1 -2.72 9.64
4 -4 -1 5.37 9.4
4 -4 -2 127.42 13.71
4 -4 -2 123.85 12.57
4 -4 2 139.08 15.07
-4 -4 2 124.85 10.52
4 -4 -3 164.71 15.48
-4 -4 3 172.53 12.16
4 -4 3 164.97 16.27
-4 -4 4 461.95 18.52
4 -4 4 483.87 25.73
-4 -4 -4 488.63 24.59
4 -4 -4 479.75 24.21
-4 -4 5 441.23 18.43
4 -4 -5 420.56 24.59
4 -4 5 489 26.47
-4 -4 -5 428.62 26.19
-4 -4 -6 351.32 26.38
4 -4 -6 352.4 25.55
4 -4 6 305.44 23.03
-4 -4 6 344.26 17.22
4 -4 7 268.41 22.79
-4 -4 -7 262.26 26.06
4 -4 -7 268.14 24.6
-4 -4 -8 189.19 26.47
4 -4 8 207.95 21.55
4 -4 -8 179.92 23.92
-4 4 -9 167.23 12.14
-4 -4 -9 130.17 27.15
4 -4 -9 180.76 26.48
4 -4 -10 69.25 23.51
-4 4 -10 45.28 9.47
4 4 -10 47.19 9.23
-4 4 -10 40.88 19.54
-4 -4 -10 66.69 24.66
4 4 -11 7.44 8.33
-4 4 -11 15.87 7.27
-4 4 -12 1.01 6.63
4 4 -12 -1.53 7.93
4 4 13 10.86 10.33
-4 4 -13 -2.8 6.5
4 4 -13 -5.17 6.21
-4 4 -14 5.45 5.67
4 -4 -14 -1.27 6.02
4 4 14 0.01 8.17
4 4 -14 -1.9 5.81
4 4 -15 3.83 5.12
4 -4 -15 3.95 5.04
4 4 15 4.94 6.49
-4 4 16 12.51 5.99
4 4 16 1.39 4.72
4 4 -16 9.21 4.14
5 0 0 0.34 4
0 -5 0 6.45 11.31
0 -5 0 0.63 6.88
0 -5 -1 156.67 13.16
0 -5 1 168.58 10.16
0 -5 1 163.33 15.19
5 0 1 162.6 9.32
0 -5 2 2691.44 47.79
5 0 -2 2762.85 37.16
0 -5 -2 2739.55 44.49
5 0 2 2844.39 38.04
0 -5 3 1423.9 37.24
5 0 3 1459.2 31.64
5 0 -3 1428.34 29.16
0 -5 -3 1448.28 35.73
5 0 4 1116.83 30.15
5 0 -4 1085.81 28.18
0 -5 4 1087.02 34.72
0 -5 -4 1059.25 34.61
0 -5 -5 166.54 17.97
0 -5 5 169.1 16.99
5 0 -5 179.21 14.76
5 0 -6 145.82 15.58
0 -5 6 166.36 17.44
0 -5 -6 143.47 19.05
0 -5 7 2.8 10
0 5 -7 1.41 9.57
5 0 -7 0.89 10.8
0 -5 -7 -8.31 15.39
5 0 -8 82.29 17.41
0 -5 8 87.57 15.12
0 -5 -8 76.25 20.93
0 5 -9 118.78 10.34
0 -5 -9 105.59 24.64
-5 0 -9 107.92 22.69
0 -5 9 107.12 16.99
0 5 -10 118.18 11.54
-5 0 -10 131.64 25.97
0 -5 -10 102.99 26.97
-5 0 -11 104.97 28.21
0 5 -11 117.55 11.36
0 -5 -11 143.72 29.65
0 5 -12 49.44 9.43
0 5 -13 45.38 8.98
5 0 13 44.65 10.45
5 0 -13 35.05 7.77
5 0 14 25.83 7.94
0 5 -14 29.48 7.18
5 0 -14 27.12 7.04
5 0 15 -0.54 5.6
0 5 15 3.92 7.46
5 0 -15 4.99 5.26
0 5 -15 -0.16 5.16
5 0 -16 8.23 4.56
0 5 16 3.85 5.41
0 5 -16 14.06 4.45
-1 -5 0 601.74 16.95
1 -5 0 573.8 19.14
1 -5 0 591.57 22.92
5 -1 0 582.12 15.11
5 -1 -1 -0.72 4
-1 -5 -1 0.55 8.76
1 -5 -1 11.31 9.26
-1 -5 1 -2.25 10.79
1 -5 1 2.1 7.25
5 -1 -1 1.18 8.13
5 -1 1 -0.98 6.03
-1 -5 1 0.24 5.25
1 -5 1 2.64 10.96
-1 -5 -2 43.89 10.46
1 -5 -2 47.87 11.2
-1 -5 2 37.33 11.7
5 -1 -2 44.83 9.03
5 1 -2 41.02 6.93
1 -5 2 31.92 11.67
5 -1 2 29.76 7.91
5 -1 -2 25.33 2.96
1 -5 -3 230.89 17.54
5 -1 -3 251.45 14.99
5 1 -3 223.27 11.59
1 -5 3 223.63 17.8
5 -1 -3 216.08 8.02
-1 -5 3 219.7 17.26
5 -1 3 232.65 14.28
-1 -5 -3 232.43 16.63
-1 -5 -4 194.8 17.39
-1 -5 4 207.17 17.7
5 1 -4 193.07 12.07
5 -1 -4 212.12 15.67
1 -5 4 218.03 19.05
5 -1 4 197.31 14.57
1 -5 -4 190.94 17.67
-1 -5 -5 94.99 16.31
-1 -5 5 100.63 13.87
1 -5 5 87.47 14.84
5 -1 -5 106.7 13.17
5 1 -5 96.96 11.22
5 -1 5 90.94 12.16
1 -5 -5 88.93 15.61
5 -1 -6 45.53 11.84
5 1 -6 34.62 10.06
1 -5 -6 52.61 15.92
-1 -5 -6 38.68 14.65
-1 -5 6 41.49 11.95
1 -5 6 47.67 13.73
1 5 -6 44.01 9.12
-1 -5 7 67.98 12.95
5 -1 -7 56.48 14.33
1 -5 7 69.6 13.71
5 1 -7 69.01 13.32
-1 -5 -7 62.74 17.4
1 -5 -7 46.36 16.36
1 -5 -8 72.33 20.38
-5 -1 -8 60.77 18.89
1 -5 8 88.25 15.91
5 -1 -8 77.98 17.37
-1 -5 8 69.14 14.94
-1 -5 -8 66.01 19.37
-5 1 -9 42.11 21.37
-5 -1 -9 33.72 19.76
1 -5 -9 61.01 21.73
-1 -5 -9 41.81 22.14
1 5 -9 48.96 7.93
1 -5 9 44.05 13.32
-1 5 -9 50.47 8.16
-1 -5 -10 -9.94 20.84
1 5 -10 8.94 8.09
-5 -1 -10 4.73 19.99
1 -5 -10 -16.77 22.42
-5 1 -10 -5.05 20.62
-1 5 -10 7.73 7.05
-1 -5 -11 -3.12 21.46
-1 5 -11 -2.39 6.99
1 -5 -11 -3.68 19.95
1 5 -11 -7.4 8.44
-5 -1 -11 24.21 24.13
-5 1 -11 10.95 20.23
-1 5 -12 8.3 6.85
1 5 -12 13.09 7.39
5 -1 13 7.47 9.35
-1 5 -13 2.73 6.21
1 -5 -13 -2.57 6.64
5 1 13 7.8 9.1
5 1 -13 -7.4 7.5
1 5 -13 6.77 6.63
5 -1 -14 3.91 5.95
-1 5 -14 -1.56 5.87
1 5 -14 -1.43 6.38
5 1 -14 3.43 6.03
5 1 14 10.35 8.17
1 5 14 9.09 9.32
5 -1 14 -2.22 7.02
5 1 15 1.64 6
-1 5 15 1.15 7.75
5 1 -15 4 5.27
1 5 -15 1.6 5.43
1 5 15 4.46 7.32
5 -1 -15 -2.03 5.05
-1 5 -15 4.84 5.04
5 1 -16 -0.46 4.15
1 5 16 -2.3 5.21
5 -1 -16 -4.06 4.16
-1 5 -16 4.3 3.75
-1 5 16 2.2 5.43
1 5 -16 -0.83 3.86
2 -5 0 3.09 11.05
-2 -5 0 -4.04 6.55
2 -5 0 13.65 9
5 -2 0 5.87 7.35
5 -2 1 298.06 14.73
2 -5 1 340.34 19.4
2 -5 -1 309.95 17
-5 -2 1 275.23 8.4
-2 -5 1 320.13 9.12
5 -2 -1 294.74 12.06
2 -5 1 306.34 15.06
2 -5 -1 288.77 17.43
-2 -5 1 330.7 18.05
-2 -5 -1 284.17 14.3
5 -2 -1 343.86 16.52
5 -2 -2 123.09 8.63
5 -2 -2 155.64 13.21
2 -5 2 112.83 14.8
-2 -5 2 139.64 14.12
-2 -5 -2 132.56 13.2
2 -5 -2 136.08 13.82
5 -2 2 119.2 11.79
5 -2 -3 551.93 23.05
5 2 -3 530.97 13.51
5 -2 3 556.62 22.35
-2 -5 -3 530.35 23.25
-2 -5 3 529.65 22.66
2 -5 -3 537.24 24.06
2 -5 3 555.24 26.36
-2 -5 4 697.29 26.59
2 5 -4 598.44 12.6
5 2 -4 668.23 17.58
2 -5 -4 644.69 28.3
2 -5 4 701.47 30.25
5 -2 4 641.19 25.22
-2 -5 -4 666.96 27.83
5 -2 -4 687.75 26.49
2 -5 5 609.97 30.77
-2 -5 -5 617.17 30.44
5 2 -5 635.29 20
-2 -5 5 605.45 26.72
2 -5 -5 630.96 30.84
5 -2 -5 623.21 27.48
5 -2 5 609.82 26.32
2 -5 -6 215.8 22.1
-2 -5 6 224.89 17.4
2 -5 6 234.49 20.85
-2 -5 -6 237.1 22.61
5 -2 -6 235.52 19.99
5 -2 6 236.15 18.91
-2 -5 -7 9.07 15.2
5 -2 7 17.06 9.93
-2 -5 7 15.67 9.51
2 -5 7 23.31 11.22
2 -5 -7 13.8 14.87
5 -2 -7 18.01 13.08
-5 -2 -7 19.64 15.17
-2 -5 8 -6.34 9.81
2 -5 8 0.99 11.11
2 -5 -8 6.63 16.58
-5 -2 -8 -7.73 16.11
5 -2 -8 12.45 14.59
-2 -5 -8 -2.41 17.18
2 -5 9 105.05 18.36
-2 5 -9 119.36 11.15
5 -2 -9 131.23 23.37
2 5 -9 103.12 10.81
-2 -5 -9 139.07 27.1
-5 -2 -9 91.56 22.59
2 -5 -9 78.55 23.08
-5 2 -10 161.82 27.91
2 -5 -10 166.92 27.4
-2 -5 -10 176.64 30.37
2 5 -10 145.76 12.49
-2 5 -10 165.88 13.07
-5 -2 -10 163.4 29.51
-5 2 -11 116.79 26.86
-2 5 -11 77.15 10.04
2 -5 -11 65.55 23.48
-5 -2 -11 75.06 24.28
2 5 -11 82.84 11.43
-2 -5 -11 58.14 24.9
2 5 -12 75.91 10
5 2 12 78.45 12.87
-2 5 -12 87.09 10.34
5 2 -12 67.58 9.55
2 5 -13 26.98 7.8
5 2 -13 18.29 6.88
5 2 13 26.19 9.75
-2 5 -13 26.98 7.35
-2 5 -14 1.07 5.55
5 2 -14 -0.24 6.32
5 -2 -14 -1.21 6.38
2 -5 -14 -2.55 5.56
5 2 14 2.1 7.71
2 5 14 -2.59 8.82
2 5 -14 -0.94 6.27
-2 5 -15 -3.01 4.8
5 2 -15 -3.3 5.04
2 5 15 -1.26 6.93
-2 5 15 -3.1 7.72
2 5 -15 -4.19 5.65
5 -2 -15 -1.69 5.19
5 2 15 7.86 6.19
2 5 -16 -1.55 3.94
2 5 16 -0.62 5
-2 5 16 3.47 5.51
5 2 -16 -6.74 4.23
5 -2 -16 3.64 4.08
3 -5 0 152.82 12.65
5 -3 0 132.89 12.13
-3 -5 0 147.6 9.47
3 -5 0 142.14 14.37
5 -3 0 147.77 13.03
-3 -5 1 162.79 5.33
3 -5 -1 188.63 15.35
5 -3 -1 206.09 14.72
5 -3 -1 198.75 12.48
3 -5 1 211.99 17.17
3 -5 1 199.48 13.62
3 -5 -1 198.28 15.07
-3 -5 1 194.43 15.3
-3 -5 -1 193.6 12.13
-5 -3 1 195.42 10.1
5 -3 1 200.21 14.89
3 -5 -2 73.93 12.06
3 -5 2 75.86 13.4
-3 -5 2 89.73 12.73
-3 -5 -2 74.43 10.69
5 -3 -2 87.13 12.72
5 -3 2 65.9 11.26
5 -3 -2 71.25 9.47
-5 -3 2 66.88 5.83
-5 -3 3 92.38 6.2
-3 -5 -3 108.6 13.54
5 -3 -3 111.12 13.29
-3 -5 3 104.36 12.44
3 -5 -3 97.04 13.63
3 -5 3 118.31 15.49
5 -3 3 88.09 12.59
5 -3 -3 104.09 10.77
5 -3 4 47.61 10.95
-3 -5 -4 46.84 12.37
-5 -3 4 47.92 5.48
-3 -5 4 56.44 10.33
3 -5 4 44.56 12.89
3 -5 -4 66.24 13.56
5 -3 -4 50.3 12.56
3 -5 -5 6.97 11.46
5 -3 -5 11.96 11.29
-3 -5 -5 8.76 11.97
3 -5 5 -8.17 12.1
-3 -5 5 4.9 8.68
5 -3 5 6.51 8.62
3 -5 6 46.51 13.71
5 -3 -6 39.1 13.56
-5 -3 -6 51.11 15.56
3 -5 -6 48.12 15.22
5 -3 6 50.7 12.46
-3 -5 6 39.04 10.27
-3 -5 -6 44.67 15.29
3 -5 -7 136.32 21.25
-5 -3 -7 157.93 21.62
5 -3 -7 147.14 19.34
-3 -5 7 150.35 14.91
3 -5 7 145.45 18.55
5 -3 7 129.69 17.02
-3 -5 -7 134.75 21.41
-3 -5 -8 173.81 26.28
-5 -3 -8 160.99 25.17
3 -5 -8 193.07 25.12
-3 -5 8 164.97 16.15
5 -3 -8 161.7 23.03
3 -5 8 182.47 21.28
3 -5 9 74.52 17.11
3 -5 -9 79.95 22.18
-3 -5 -9 67.56 23.42
5 -3 -9 73.64 20.91
-5 3 -9 65.23 9.29
-3 5 -9 90.74 10.49
-3 5 -9 87.38 20.71
-5 -3 -9 70.19 22.45
3 5 -9 83.58 10.09
-5 -3 -10 3.64 21.61
5 -3 -10 20.15 19.25
-5 3 -10 14.66 8.21
3 -5 -10 26.2 20.8
-5 3 -10 24.01 22.52
-3 -5 -10 40.58 23.48
3 5 -10 4.16 7.98
-3 5 -10 22.64 8.4
3 -5 -11 -3.15 17.95
-5 3 -11 -17.18 8.85
-5 -3 -11 17.77 23.9
-3 5 -11 -10 8.07
5 3 -11 -1.92 8.13
-3 -5 -11 -9.35 22.05
3 5 -11 -2.01 8.39
3 5 -12 -1.55 7.26
-3 5 -12 2.18 6.8
-5 3 -12 8.2 6.98
5 3 -12 2.15 6.59
5 3 12 -1.06 9.75
-3 5 -13 11.58 6.91
5 3 -13 6.95 6.24
3 5 13 11.95 10.29
5 3 13 7.91 9.43
3 5 -13 18.7 8.02
3 5 -14 17.66 7.01
-3 5 -14 6.31 5.91
5 3 14 15.47 8.44
3 -5 -14 8.51 5.81
3 5 14 17.22 9.15
5 -3 -14 12.8 6.37
5 3 -14 9.72 6.26
3 5 15 6.1 6.83
5 -3 -15 6.26 5.35
3 5 -15 9.85 5.31
5 3 -15 8.64 5.67
-3 5 -15 9.71 4.98
5 3 15 6.08 6.3
5 3 16 1.02 4.35
5 -3 -16 10.1 4.2
3 5 16 9.34 5.25
5 3 -16 2.99 3.98
3 5 -16 4.58 3.74
-3 5 16 8.79 5.44
4 -5 0 6.88 8.56
-4 -5 0 3.64 5.71
4 -5 0 12.6 10.38
5 -4 0 -0.24 8.61
5 -4 0 -5.7 9.23
-4 -5 -1 5.21 6.89
4 -5 -1 6.36 10.41
4 -5 -1 9.08 9.23
-5 -4 1 8.2 7.3
4 -5 1 3.1 10.42
-4 -5 1 2.62 1.6
5 -4 1 -2.57 10.15
5 -4 -1 9.61 9.28
5 -4 -1 24.14 9.9
-4 -5 1 13.94 9.28
4 -5 -2 100.34 12.8
5 -4 -2 93.13 11.86
4 -5 -2 111.76 13.91
-4 -5 2 106.46 11.63
5 -4 -2 110.99 13.17
4 -5 2 94.39 14.2
-4 -5 -2 111.21 11.63
5 -4 2 112.3 13.77
-5 -4 2 97.42 8.7
5 -4 3 252.02 19.42
5 -4 -3 284.52 19.33
4 -5 3 245.7 20.41
-4 -5 3 263.8 15.59
-5 -4 3 275.22 12.57
-4 -5 -3 276.57 18.44
5 -4 -3 260.14 15.89
4 -5 -3 280.94 19.94
5 -4 -4 313.43 21.01
-4 -5 4 291.3 16.64
-4 -5 -4 289.64 21.42
4 -5 4 283.91 22.09
5 -4 4 299.19 21.53
4 -5 -4 285.29 20.92
-5 -4 4 304.11 13.54
4 -5 -5 330.77 23.56
-5 -4 -5 315.97 24.54
4 -5 5 325.35 23.85
5 -4 -5 329.83 23.32
-4 -5 -5 341.29 24.55
-4 -5 5 359.87 18.8
5 -4 5 368.62 23.91
-4 -5 6 102.92 11.97
4 -5 -6 108.08 17.8
5 -4 -6 118.38 17.14
-5 -4 -6 96.91 18
4 -5 6 110.46 17.76
5 -4 6 105.39 15.85
-4 -5 -6 101.21 18.29
5 -4 -7 24.59 14.49
4 -5 -7 41.52 15.74
5 -4 7 24.41 13.2
4 -5 7 9.14 11.25
-4 -5 -7 17.2 16.92
-5 -4 -7 17.97 16.98
-5 -4 -8 13 18.22
4 -5 -8 -3.47 16.86
-4 -5 -8 -7.18 20.51
5 -4 8 -5.61 12.99
5 -4 -8 0.94 16.09
4 -5 8 8.67 13.14
4 -5 -9 11.85 17.54
4 5 -9 17.89 7.58
-5 4 -9 10.73 7.61
4 -5 9 25.81 14.1
-4 -5 -9 43.18 22.32
-5 -4 -9 45.13 21.86
5 -4 -9 42.45 21.64
-4 5 -9 2.22 7.69
-5 -4 -10 30.01 23.28
4 -5 -10 68.82 22.72
4 5 -10 41.04 9.17
-4 -5 -10 39.21 25.51
5 -4 -10 33.6 20.43
-5 4 -10 51.25 22.53
-4 5 -10 45.65 10.02
5 4 -10 32.39 8.94
-5 4 -10 36.4 8.99
-5 4 -11 65.76 9.85
5 4 11 79.49 13.98
5 4 -11 63.14 10.25
4 5 -11 72.58 10.13
-4 5 -11 55.81 9.65
5 4 12 22.41 10.64
-5 4 -12 17.79 6.91
5 4 -12 22.12 8.57
4 5 -12 23.86 7.92
-4 5 -12 23.06 7.83
4 5 12 44.15 11.88
5 4 -13 6.73 6.45
4 5 13 3.01 9.57
-5 4 -13 13.01 6.83
5 4 13 -1.05 8.84
4 5 -13 9.17 6.97
-4 5 -13 4.01 6.28
4 5 -14 6.74 6.21
5 4 -14 3.86 5.46
5 -4 -14 -12.04 6.34
-4 5 -14 2.97 5.44
5 4 14 0.29 7.87
4 -5 -14 -0.34 5.9
4 5 14 -4.67 7.87
5 4 -15 2.91 4.92
4 -5 -15 -3.49 4.67
5 -4 -15 3.98 4.87
4 5 15 -9.02 6.73
-4 5 -15 0.93 4
4 5 -15 0.5 4.89
5 4 15 -5.01 6.36
4 5 16 2.74 4.79
5 4 -16 -0.21 3.6
5 4 16 -6.04 4.36
-4 5 16 7.63 5.23
4 5 -16 -0.86 3.65
-5 4 16 9.67 5.58
5 -5 0 124.42 12.87
-5 -5 0 115.02 8.36
5 -5 0 126.14 14.5
5 -5 -1 26.62 10.77
5 -5 -1 29.41 10.25
-5 -5 1 18.07 8.6
-5 -5 -1 23.53 7.79
-5 -5 1 19.87 2.91
5 -5 1 14.49 11
5 -5 2 84.21 14.04
-5 -5 2 94.49 10.57
-5 -5 -2 84.85 11.3
5 -5 -2 102.68 13.64
5 -5 -2 76.87 12.59
5 -5 3 164.63 17.23
5 -5 -3 196.96 17.93
5 -5 -3 187.26 15.74
-5 -5 -3 165.53 16.54
-5 -5 3 178.45 12.69
5 -5 4 8.89 10.94
5 -5 -4 21.21 11.98
-5 -5 -4 35.77 12.69
-5 -5 4 20.25 8.29
5 -5 -5 14.74 11.6
5 -5 5 30.84 13.12
-5 -5 -5 25.71 13.8
5 -5 6 290.58 23.91
5 -5 -6 271.89 24.09
-5 -5 -6 259.97 25.05
5 -5 -7 536.12 34.74
-5 -5 -7 509.81 36.03
5 -5 7 585.64 33.69
5 -5 8 523.09 34.05
-5 -5 -8 488.9 38.66
5 -5 -8 539.45 37.03
-5 5 -9 271.27 15.29
5 5 -9 298.2 15.95
-5 -5 -9 250.56 32.93
5 -5 9 312.14 29.43
5 5 9 309.94 20.08
5 -5 -9 298.59 31.95
5 5 -10 25.26 9.24
-5 5 -10 15.79 8.29
5 5 10 47.61 14.34
5 -5 -10 -2.05 20.61
-5 -5 -10 37.91 23.67
-5 5 -11 -8.6 7.47
5 5 -11 -3.92 6.98
5 5 11 6.64 11.01
5 5 -12 2.37 6.72
-5 5 -12 6.25 7.04
5 5 12 1.02 9.41
-5 5 -13 19.83 7.12
5 5 13 24.27 9.51
5 5 -13 29.08 7.98
5 -5 -14 11.45 6.24
5 5 14 19.27 8.45
5 5 -14 22.4 6.91
-5 5 -14 20.99 6.28
5 5 15 1.21 6.18
5 5 -15 2.02 4.98
5 -5 -15 11.74 5.02
5 5 -16 -1.93 3.53
-5 5 16 11.2 4.9
0 -6 0 19.03 12.25
0 -6 0 15.36 8.17
0 -6 -1 670.94 22.4
0 -6 1 676.29 18.89
0 -6 1 657.21 26.33
6 0 1 695.96 17.75
0 -6 2 333.34 20.93
0 -6 -2 311.99 18.05
6 0 2 334.34 14.76
6 0 -2 312.35 14.97
6 0 -3 316.69 15.74
0 -6 3 294.15 20.86
6 0 3 319.25 16.2
0 -6 -3 320.34 20.23
0 -6 -4 16.04 11.68
0 -6 4 20.99 12.74
6 0 -4 -6.58 8.42
6 0 -5 21.12 9.01
0 -6 5 13.63 11.04
0 -6 -5 18.09 12.59
6 0 -6 11.46 9.64
0 -6 6 -20.87 12.8
0 -6 -6 -7.97 13.4
0 -6 -7 67.56 18.39
6 0 -7 57.35 13.67
0 -6 7 64.89 13.58
0 -6 8 30.46 13.27
0 -6 -8 15.74 19.05
0 6 -9 72.11 9.63
-6 0 -9 68 22.12
0 -6 -9 79.62 24.35
0 -6 9 68.5 15.5
-6 0 -10 -10.31 19.97
0 6 -10 11.39 7.54
0 -6 -10 12.29 24.96
0 6 -11 9.82 8.23
6 0 12 18.22 9.7
0 6 -12 33.07 8.85
6 0 13 12.05 8.55
6 0 -13 13.12 6.69
0 6 -13 0.75 7.09
0 6 -14 18.06 6.23
6 0 14 4.88 6.79
6 0 -14 8.44 6.07
0 6 14 24.74 10.16
6 0 -15 7.37 5.49
0 6 15 12.38 7.44
0 6 -15 11.8 5.46
0 6 -16 -1.44 3.64
0 6 16 0.27 5
6 0 -16 1.71 4.02
-1 -6 0 1.94 11.47
1 -6 0 -5.44 8.45
-1 -6 0 0.28 7.19
1 -6 0 -0.06 10.98
6 -1 0 3.94 5.32
-1 -6 1 48.82 13.05
6 -1 -1 29.25 8.44
1 -6 1 24.89 11.61
1 -6 1 31.65 7.86
-1 -6 -1 28.18 9.32
6 -1 1 25.77 6.72
-1 -6 1 29.48 6.46
6 -1 -1 24.89 3.78
1 -6 -1 29.09 9.76
6 -1 -2 76.47 10.08
1 -6 2 74.34 14.38
6 -1 2 61.27 9.1
-1 -6 2 76.39 13.22
-1 -6 -2 57.28 10.85
1 -6 -2 71.87 12.32
1 -6 3 67.89 14.1
-1 -6 3 81.7 13.47
6 -1 -3 86.7 11.01
6 -1 3 68.26 9.68
6 1 -3 68.13 8.14
-1 -6 -3 68.87 12.34
1 -6 -3 71.8 12.66
6 1 -4 101.19 9.87
6 -1 4 94.73 12.11
1 -6 -4 91.45 14.74
-1 -6 4 99.89 14.97
1 -6 4 103.8 15.88
6 -1 -4 108.66 12.29
-1 -6 -4 84.46 14.11
1 -6 -5 -3.88 12.49
-1 -6 5 -21.42 11.78
6 -1 5 -3.73 7.76
6 1 -5 6.9 7.75
6 -1 -5 1.27 9.65
-1 -6 -5 -1.09 11.96
1 -6 5 6.79 11.71
-1 -6 6 31.75 11.48
1 -6 6 29.33 12.6
-1 -6 -6 38.67 15.02
6 1 -6 46.1 10.06
1 -6 -6 51.62 16.23
6 -1 -6 43.29 12.28
1 -6 -7 46.31 17.36
6 -1 -7 46.94 13.73
1 -6 7 47.62 13.44
-1 -6 -7 62.73 18.52
-1 -6 7 48.5 12.54
-1 -6 -8 23.58 19.26
1 -6 -8 10.59 17.95
-1 -6 8 19.13 12.06
6 -1 -8 19.06 13.82
1 -6 8 16.21 12.23
1 -6 -9 -14.14 21.49
-1 -6 9 -17.78 13.91
-6 -1 -9 -13.26 19.41
-1 -6 -9 3.66 19.84
-1 6 -9 -0.72 6.91
1 6 -9 1.44 6.39
1 -6 9 -9.43 12.71
-1 6 -10 5.68 7.94
1 -6 -10 27.6 22.44
-6 -1 -10 16.81 20.09
-6 1 -10 -7.36 20.74
-1 -6 -10 -0.88 21.03
1 6 -10 3.23 7.76
-1 6 -11 4.6 6.71
1 6 -11 -1.44 7.08
6 1 11 10.41 10.98
-1 6 -12 3.47 6.67
1 6 -12 9.61 7.5
6 -1 12 18.24 9.93
6 1 12 6.96 9.49
6 1 13 2.47 8.5
6 1 -13 3.54 6.78
1 6 -13 -2.8 6.62
-1 6 -13 -8.61 6.9
-1 6 -14 2.73 6.24
1 6 14 5.93 8.94
6 -1 -14 1.61 5.82
6 1 -14 3.72 6.38
6 1 14 -6.24 7.35
1 6 -14 8.88 6.74
-1 6 -15 4.82 4.92
6 1 -15 0.76 4.66
6 -1 -15 8.82 5.67
6 1 15 -6.47 5.29
1 6 15 5.42 6.75
1 6 -15 0.22 5.3
-1 6 15 -0.62 7.14
6 -1 -16 10.35 4.37
-1 6 16 -1.55 5.03
6 1 -16 -5.26 4.07
1 6 16 -6.23 5.25
-1 6 -16 1.15 3.47
1 6 -16 -2.7 3.72
2 -6 0 364.26 20.97
6 -2 0 374.42 15.39
-2 -6 0 382.4 14.82
2 -6 0 366.88 17.71
-2 -6 1 6.05 4.86
6 -2 1 -3.43 7.99
2 -6 -1 16.68 10.93
-2 -6 -1 -2.84 8.18
2 -6 1 12.29 11.06
-2 -6 1 11.3 11.22
-6 -2 1 4.59 2.91
2 -6 -1 1.23 9
6 -2 -1 6.79 6
6 -2 -1 -3.58 8.46
2 -6 1 -1.38 7.43
-2 -6 -2 7.6 9.05
6 -2 -2 4.71 4.91
2 -6 -2 1.62 9.02
2 -6 2 5.59 11.09
6 -2 2 5.4 7.42
6 -2 -2 6.31 8.57
-2 -6 2 9.35 11.54
6 -2 -3 40.96 7.82
2 -6 -3 41.05 11.7
6 -2 -3 47.18 11.24
6 -2 3 45.75 9.37
-2 -6 3 41.2 11.43
2 -6 3 33.9 12.46
-2 -6 -3 61.3 12.69
-2 -6 -4 10 10.69
2 -6 4 27.71 12.83
2 -6 -4 11.04 10.72
6 -2 -4 19.16 6.03
6 -2 4 12.95 8.28
6 -2 -4 14.11 9.5
6 2 -4 10.94 5.29
-2 -6 4 14.7 10.79
2 -6 -5 -3.97 12.99
2 -6 5 -9.33 12.44
-2 -6 5 4.43 10.32
6 -2 -5 4.1 10.62
-2 -6 -5 9.49 12.42
6 -2 5 8.79 8.94
-2 -6 6 26.04 11.08
2 -6 6 33.65 13.51
6 -2 6 33.31 10.75
-2 -6 -6 40.59 15.66
2 -6 -6 33.44 14.89
6 -2 -6 31.88 12.1
2 -6 -7 40.9 16.48
6 -2 -7 34.84 14.09
-2 -6 7 37.25 11.77
2 -6 7 44.07 13.87
-2 -6 -7 48.45 17.39
-2 -6 -8 60.91 21.23
2 -6 8 54.27 15.33
2 -6 -8 71.72 21.14
-6 -2 -8 46.3 19.05
6 -2 -8 43.79 16.38
-2 -6 8 61.07 13.64
-2 6 -9 0.33 6.76
2 -6 -9 11.65 18.97
-6 -2 -9 -2.7 18.31
2 6 -9 10.33 7.03
2 -6 9 -6 14.27
-2 -6 -9 30.71 21.66
2 6 -10 16.78 7.78
-6 -2 -10 -12.01 21
-2 -6 -10 25.36 23.24
-6 2 -10 41.6 21.1
-2 6 -10 25.5 8.36
2 -6 -10 -12.46 21.33
2 6 -11 4.01 6.87
6 2 11 16.46 11.24
-2 6 -11 0.55 7.26
6 2 -12 -17.68 7.38
-2 6 -12 -10.31 6.8
2 6 -12 -0.08 7.27
6 2 12 6.71 9.35
2 6 13 13.83 10.26
6 2 -13 -2.01 6.96
2 6 -13 5.44 7.08
6 2 13 6.63 8.64
-2 6 -13 -2.57 6.55
-2 6 -14 -3.7 5.83
2 6 -14 5.88 6.14
6 2 -14 3.84 5.5
2 6 14 11.22 8.84
6 -2 -14 6.41 6.42
6 2 14 7.98 7.54
6 2 -15 9.58 5.38
2 6 -15 6.33 5.62
6 -2 -15 5.03 5.32
2 6 15 1.88 6.86
-2 6 15 1.64 7.19
-2 6 -15 9.92 4.98
6 2 15 -2.42 5.58
2 6 -16 5.11 3.9
6 2 -16 10.63 3.89
2 6 16 5.31 4.97
-2 6 16 3.4 5.05
6 -2 -16 6.06 4.02
-3 -6 0 1.26 6.46
3 -6 0 -7.68 10.99
3 -6 0 -2.76 8.75
6 -3 0 11.64 8.26
6 -3 1 13.15 8.24
-6 -3 1 15.28 5.59
-3 -6 1 18.05 3.66
6 -3 -1 19.21 9.33
-3 -6 1 16.85 10.83
3 -6 -1 12.25 10.98
3 -6 -1 11.2 8.94
3 -6 1 22.42 12.55
-3 -6 -1 20.22 8.17
3 -6 1 22.6 8.34
6 -3 -1 18.73 7.52
-3 -6 -2 -0.08 8.51
3 -6 2 -7.6 12.38
-3 -6 2 7.2 10.14
3 -6 -2 -0.33 10.47
6 -3 2 -3.05 8.38
6 -3 -2 5.33 7.23
3 -6 -2 9.12 9.86
6 -3 -2 -2.64 9.11
-6 -3 2 0.8 1.81
3 -6 3 17.49 12.15
-3 -6 3 1.17 9.09
3 -6 -3 0.87 10.47
6 -3 3 1.25 8.47
6 -3 -3 5.43 6.86
-3 -6 -3 7.39 9.13
6 -3 -3 5.74 9.4
3 -6 4 66.57 15.15
6 -3 -4 55.6 9.01
6 -3 4 64.07 11.41
3 -6 -4 60.98 13.83
-3 -6 -4 60.69 13.24
-3 -6 4 73.52 12.82
6 -3 -4 53.69 11.99
-3 -6 5 7.1 9.43
6 -3 -5 0.19 10.61
6 -3 5 3.35 8.93
-3 -6 -5 -2.59 12.92
3 -6 5 -17.57 14.49
3 -6 -5 6.52 12.3
-3 -6 -6 12.28 14.3
3 -6 -6 12.43 13.38
3 -6 6 17.77 12.26
6 -3 -6 13.65 12.1
6 -3 6 6.93 9.85
-3 -6 6 16.25 9.72
3 -6 7 -8.35 12.52
-3 -6 -7 -7.86 15.58
6 -3 7 -5.38 11.24
6 -3 -7 6.65 12.99
3 -6 -7 6.59 14.3
-6 -3 -7 -6.77 15.72
-3 -6 7 -4.27 9.25
-6 -3 -8 10.35 19.16
3 -6 -8 2.79 17.05
-3 -6 -8 19 19.54
3 -6 8 4.36 12
6 -3 -8 -4.08 15.5
-6 -3 -9 -2.69 20.86
3 -6 -9 39.53 19.14
6 -3 -9 30.61 18.38
-3 -6 -9 31.12 21.9
3 6 -9 30.84 8.15
-3 6 -9 9.19 7.43
6 3 9 19.76 11.8
3 -6 9 28.96 15.12
-6 -3 -10 18.78 23.15
3 -6 -10 9.86 19.19
-6 3 -10 15.07 21.54
3 6 -10 16.64 8.68
-3 -6 -10 38.97 24.63
-3 6 -10 13.35 8.26
6 3 10 25.18 12.47
-3 6 -11 -7.41 8.01
3 6 -11 5.17 8
6 3 11 7.16 10.49
-3 6 -12 3.45 7.13
3 6 -12 1.66 7.33
6 3 12 8.29 9.3
6 3 -12 0.2 7.26
3 6 12 14.46 11.1
-3 6 -13 -2.66 6.14
6 3 -13 -10.13 6.69
3 6 -13 7.89 7.46
3 6 13 3.52 9.17
6 3 13 1.05 8.44
-3 6 -14 6.65 5.79
6 3 14 -1.45 7.47
3 6 -14 -3.49 6.54
6 3 -14 6.8 6.1
3 -6 -14 6.06 5.52
6 -3 -14 4.51 5.56
3 6 14 0.25 7.92
3 6 15 5.91 6.63
6 3 -15 1.55 4.64
6 -3 -15 1.27 5.09
3 6 -15 0 4.93
-3 6 -15 -4.47 4.45
6 3 15 2.86 5.83
-3 6 15 12.61 7.63
3 6 16 2.66 4.76
3 6 -16 -1.71 3.76
-3 6 16 -3.8 4.84
6 3 -16 -0.77 3.64
6 -4 0 75.33 11.41
6 -4 0 99.15 12.37
-4 -6 0 108.87 9.32
4 -6 0 101.02 14.86
4 -6 0 102.18 12.35
4 -6 -1 97.81 13.6
4 -6 1 107.74 15.37
-4 -6 1 121.69 14.22
6 -4 -1 107.07 13.43
-4 -6 -1 108.32 10.95
6 -4 1 116.76 13.3
4 -6 -1 109.31 13.5
6 -4 -1 98.31 11.5
4 -6 1 95.23 11.39
-6 -4 1 92.54 9.24
-6 -4 2 24.73 5.65
4 -6 -2 34.73 10.93
4 -6 -2 25.74 10.72
6 -4 -2 32.88 11.55
6 -4 2 24.76 10
-4 -6 2 37.66 10.76
4 -6 2 27.64 12.14
-4 -6 -2 25.76 9.08
6 -4 -2 32.25 9.52
6 -4 -3 3.95 10.12
6 -4 -3 -4.83 8.36
-4 -6 3 -8.93 9.72
4 -6 -3 -0.81 10.66
-4 -6 -3 8.56 9.84
6 -4 3 -4.36 9.95
4 -6 3 11.05 11.74
4 -6 4 30.32 13.24
6 -4 4 35.01 11.23
6 -4 -4 22.08 11.73
4 -6 -4 23.17 12.25
-4 -6 -4 32.24 12.73
-4 -6 4 20.48 9.87
6 -4 -4 37.44 10.2
-4 -6 -5 60.16 15.48
4 -6 -5 56.71 14.68
4 -6 5 35.83 13.66
-4 -6 5 39.91 10.48
6 -4 5 39.82 12.32
6 -4 -5 64.02 14.74
-6 -4 -6 42.91 16.8
-4 -6 6 62.93 11.9
4 -6 -6 71.46 16.86
4 -6 6 71.17 15.1
6 -4 -6 78.04 16.96
6 -4 6 67.81 14.23
-4 -6 -6 72.98 18.24
4 -6 7 66.37 16.58
6 -4 7 67.88 15.14
-6 -4 -7 60.41 19.94
4 -6 -7 79.62 18.26
-4 -6 -7 58.84 19.14
6 -4 -7 76.17 18.57
6 4 8 59.23 12.33
6 -4 -8 57.25 19.42
4 6 -8 56.58 8.65
6 -4 8 69.66 16.79
-4 -6 -8 39.56 21.54
4 -6 8 39.39 15.78
-6 -4 -8 58.77 21.94
4 -6 -8 47.42 19.83
-4 6 -8 53.96 8.42
6 -4 -9 80.35 23.6
-4 6 -9 77.97 10.39
-6 4 -9 60.79 9.56
-4 -6 -9 49.49 22.93
4 6 -9 78.22 10.36
6 4 9 88.16 14.35
-6 -4 -9 61.62 25.11
4 -6 -9 94.83 24.37
4 -6 9 76.6 18.2
-4 6 -10 1.5 7.33
4 -6 -10 0.49 21.36
4 6 -10 4.38 7.53
-6 4 -10 -14.45 21.72
-6 4 -10 -1.76 8.53
-6 -4 -10 14.28 23.06
6 4 10 6.21 11.67
4 6 10 7.03 13.15
-4 -6 -10 10.49 22.54
6 4 11 7.35 10.62
4 6 -11 9.98 7.5
-4 6 -11 1.6 7.07
4 6 11 22.31 11.7
6 4 -11 -0.3 7.89
-6 4 -11 4.04 7.51
6 4 -12 10.68 7.63
-4 6 -12 -4.08 6.73
4 6 12 16.51 9.79
6 4 12 1.07 9.22
-6 4 -12 -7.03 7.17
4 6 -12 -2.57 7.47
4 6 13 3.61 8.76
6 4 -13 -4.22 6.81
6 4 13 4.88 8.55
4 6 -13 2.13 7.09
-4 6 -13 -0.17 5.87
6 -4 -14 -1.01 5.94
4 -6 -14 2.43 5.5
4 6 14 3.82 7.56
6 4 -14 1.68 5.77
4 6 -14 1.53 6.32
6 4 14 -10.13 7.58
-4 6 -14 -3.82 5.25
6 4 -15 5.1 4.7
-4 6 -15 -3.93 3.94
4 6 -15 -12.96 5.24
6 -4 -15 2.86 5.06
-4 6 15 5.29 7.18
6 4 15 1.75 5.62
4 6 15 0.65 6.36
-4 6 16 1.98 4.33
6 4 -16 0.61 3.29
-6 4 16 4.74 4.84
4 6 -16 1.8 3.43
4 6 16 -7.97 4.75
-5 -6 0 0.6 6.08
5 -6 0 6.11 10.62
5 -6 0 1.47 8.19
6 -5 0 -6.5 8.9
-6 -5 0 -7.75 6.12
6 -5 0 -4.33 9.7
5 -6 1 -1.93 11.78
-6 -5 1 -1.29 7.55
6 -5 -1 3.87 9.14
5 -6 -1 -5.97 11.38
-5 -6 1 -3.75 9.07
6 -5 1 10.69 9.82
-5 -6 -1 6.44 7.47
5 -6 -1 2.07 9.44
6 -5 -1 3.61 9.43
-5 -6 -2 19.17 9.26
6 -5 -2 9.72 10.41
-6 -5 2 5.4 6.44
5 -6 -2 20 10.55
5 -6 -2 8.45 10.62
6 -5 2 1.62 9.51
6 -5 -2 9.21 9.18
-5 -6 2 13.89 8.88
5 -6 2 10.14 11.6
5 -6 -3 38.67 12.44
6 -5 -3 25.06 10.58
-6 -5 3 32.41 7.23
5 -6 3 29.17 13.87
5 -6 -3 32.05 11.5
-6 -5 -3 40.4 12.16
6 -5 3 34.58 12.01
-5 -6 -3 46.97 11.65
6 -5 -3 39.71 11.94
-5 -6 3 38.41 9.96
5 -6 4 38.54 13.88
6 -5 -4 23.73 12.27
6 -5 -4 27.58 10.37
6 -5 4 22.45 11.59
-5 -6 4 40.84 10.17
-5 -6 -4 32.25 13.04
5 -6 -4 33.13 13.35
-6 -5 -4 41.78 13.84
6 -5 -5 86.43 12.84
-5 -6 -5 83.53 16.93
6 -5 5 94.76 16.02
6 -5 -5 89.35 16.68
-6 -5 -5 92.23 18.57
5 -6 -5 94.54 16.78
5 -6 5 81.9 16.08
6 -5 -6 15.64 13.91
-5 -6 -6 31.29 16.78
5 -6 6 13.29 12.96
-6 -5 -6 37.94 18.73
5 -6 -6 6.28 13.12
6 -5 6 18.05 12.35
5 -6 7 -11.8 12.88
-5 -6 -7 -1.75 18.82
-6 -5 -7 -2.19 17.63
6 -5 -7 6.57 15.49
6 -5 7 1.6 11.88
5 -6 -7 2.41 15.71
-6 -5 -8 13.23 19.07
6 -5 -8 19.64 18.48
-6 5 -8 -3.5 7.03
6 5 8 3.05 10.85
5 -6 8 -2.9 13.04
5 6 8 4.68 12.04
5 6 -8 3.6 6.53
6 -5 8 0.7 13.21
-5 6 -8 0.94 7.47
5 -6 -8 13.85 18.43
-5 -6 -8 -10.8 19.3
-6 -5 -9 3.23 21.14
-5 -6 -9 -3.84 23.59
6 -5 -9 -7.12 19.94
5 -6 9 -5.77 14.34
6 5 9 -3.92 11.93
5 -6 -9 -26.2 21.99
5 6 -9 -2.81 7
-6 5 -9 -3.73 7.87
-5 6 -9 4.95 7.5
5 6 9 3.01 11.62
6 5 -9 -2.8 7.92
-6 -5 -10 20.73 23.52
5 -6 -10 22.18 20.33
-6 5 -10 4.48 21.09
-5 -6 -10 16.21 23.24
6 5 -10 -7.66 8.44
-6 5 -10 -8.6 8.82
-5 6 -10 -4.11 7.93
5 6 -10 8.89 8.33
5 6 10 -1.47 11.56
6 -5 -10 10.22 19.13
6 5 10 -2.27 11.96
5 6 11 16.04 10.14
-5 6 -11 22.77 8.26
-6 5 -11 18.5 7.99
5 6 -11 29.74 8.14
6 5 -11 4.86 7.41
6 5 11 18.35 10.75
5 6 12 11.75 9.76
-5 6 -12 6.5 6.5
6 5 12 7.83 9.21
6 5 -12 4.68 6.75
5 6 -12 2.94 7.32
-6 5 -12 14.82 7.63
-6 5 -13 -1.74 6.19
6 5 -13 -0.99 6.5
-5 6 -13 3.1 6.05
6 5 13 -2.29 8.52
5 6 -13 -2.31 6.84
5 6 13 8.77 9.11
-5 6 -14 3.95 5.33
6 5 14 0.89 7.15
5 -6 -14 -5.42 5.77
5 6 14 -4.08 7.56
5 6 -14 -2.01 5.67
6 5 -14 4.05 5.3
6 -5 -14 -5.59 6.14
5 6 15 -0.82 6.05
6 5 15 -4.04 5.8
6 -5 -15 -8.79 4.92
-5 6 15 5.73 6.65
6 5 -15 -2.61 4.47
5 -6 -15 -7.89 4.16
5 6 -15 -3.33 4.67
6 5 -16 4.29 3.08
5 6 -16 7.18 3.38
-6 -6 0 86.98 8.36
6 -6 0 98.85 14.07
6 -6 0 103.86 13.2
6 -6 1 17.7 10.42
-6 -6 1 19.06 9.2
-6 -6 -1 17.17 8
6 -6 -1 28.37 11.23
6 -6 -1 23.9 10.81
6 -6 2 25.84 13.22
6 -6 -2 29.26 11.93
-6 -6 2 15.28 8.5
-6 -6 -2 15.07 9.61
6 -6 -2 6.89 10.41
-6 -6 3 7.66 7.67
6 -6 -3 31.23 12.95
6 -6 -3 17.73 11.75
6 -6 3 14.03 12.26
-6 -6 -3 11.22 10.26
-6 -6 -4 4.39 12.09
6 -6 4 -14.66 13.66
6 -6 -4 1.11 12.37
6 -6 -4 3.24 10.58
-6 -6 -5 26.32 16.12
6 -6 5 17.6 12.12
6 -6 -5 15.05 13.3
6 -6 -5 29.65 12.45
6 -6 6 42.28 15.2
6 -6 -6 19.53 14.5
-6 -6 -6 20.42 17.08
-6 -6 -7 4.62 18.81
6 -6 -7 -14.39 17.22
6 -6 7 7.53 13.7
-6 6 -8 -8.47 8.4
6 -6 8 -5.06 15.19
6 6 -8 2.28 6.49
6 6 8 4.92 11.05
6 -6 -8 13.63 18.64
-6 -6 -8 1.25 21.28
6 -6 9 7.9 13.96
6 -6 -9 21.97 20.88
-6 6 -9 2.69 8.42
6 6 -9 -2 7.52
6 6 9 4.3 11.44
-6 -6 -9 -17.48 23.83
6 6 10 70.97 13.63
6 -6 -10 90.55 23.28
6 6 -10 86.86 10.46
-6 -6 -10 78.6 27.32
-6 6 -10 83.76 10.71
-6 6 -11 7.55 7.03
6 6 -11 -0.54 6.83
6 6 11 1.21 9.91
6 6 -12 10.66 7.02
-6 6 -12 3.07 6.72
6 6 12 -0.23 8.86
-6 6 -13 2.09 5.99
6 6 13 -2 8.17
6 6 -13 -1.44 6.29
6 6 -14 -2.29 5.51
6 6 14 1.44 6.99
6 -6 -15 5.8 4.19
6 6 15 -5.94 6.03
-6 6 15 6.37 6.38
6 6 -15 4.43 4.35
0 -7 0 -6.07 11.46
0 -7 0 -4.22 7.7
0 -7 1 551.36 26.52
0 -7 -1 578.7 22.84
0 -7 1 604.93 19.53
0 -7 -2 670.82 25.4
0 -7 2 689.42 29.8
0 -7 -3 2738.08 54.55
7 0 -3 2722.04 43.95
0 -7 3 2743.59 58.98
0 -7 -4 2627.85 57.81
7 0 -4 2645.71 46.26
0 -7 4 2622.4 59.79
0 -7 5 736.39 35.05
0 -7 -5 747.39 35.74
7 0 -5 748.93 27.19
0 -7 -6 11.87 13.92
0 -7 6 -3.02 12.28
7 0 -6 21.51 9.83
0 -7 -7 76.82 19.89
0 -7 7 60.19 14.37
0 -7 -8 18.59 19.28
0 -7 8 -5.22 12.55
0 7 -8 11.59 7.47
0 7 -9 164.34 12.76
7 0 9 186.03 14.82
0 -7 -9 169.72 27.73
0 -7 9 207.07 23.26
-7 0 -9 158.51 27.58
-7 0 -10 260.8 32.79
0 7 -10 302.5 16.69
0 -7 -10 312.32 37.56
7 0 10 232.49 15.85
0 7 -11 144.66 12.46
7 0 11 153 13.38
0 7 -12 175.95 13.39
7 0 12 146.59 12.55
7 0 -13 24.77 7.64
0 7 -13 19.18 7.91
7 0 13 28.84 8.58
7 0 -14 -0.01 5.48
0 7 -14 -3.81 6.09
0 7 14 10.77 8.85
0 7 15 6.25 6.71
7 0 -15 3.58 4.8
0 7 -15 3.28 5.02
0 7 16 0.51 4.79
7 0 -16 7.31 3.87
0 7 -16 10.51 3.72
7 -1 0 274.84 11.22
-1 -7 0 268.07 14.29
-1 -7 0 261.27 19.93
1 -7 0 255.5 20.16
1 -7 0 274.96 16.14
-1 -7 1 44.92 12.77
1 -7 -1 42.56 10.16
-1 -7 -1 33.72 9.42
7 -1 -1 38.8 3.6
1 -7 -1 35.03 12.59
1 -7 1 43.22 9
-1 -7 1 46.14 7.4
1 -7 1 29.63 12.19
7 -1 1 38.44 6.96
7 -1 -2 8.49 7.39
1 -7 2 20.4 12.16
-1 -7 2 30.35 12.97
-1 -7 -2 9.32 9.17
7 -1 2 10.5 6.5
1 -7 -2 24.19 10.67
-1 -7 -3 2.28 10.09
7 -1 3 11.46 7.65
1 -7 -3 14.16 11.13
7 -1 -3 11.7 8.38
-1 -7 3 3.48 11.29
1 -7 3 4.77 12.18
7 -1 4 370.02 20.04
1 -7 4 391.93 25.98
7 -1 -4 380.19 20.48
7 1 -4 356.25 16.75
-1 -7 -4 357.99 23.31
1 -7 -4 343.39 23.66
-1 -7 4 399.07 25.07
7 1 -5 111.73 12.1
7 -1 -5 107.94 13.9
-1 -7 5 114.82 16.77
1 -7 5 96.18 17.37
1 -7 -5 107.32 17.62
-1 -7 -5 106.52 17.6
1 -7 -6 7.13 14.15
-1 -7 -6 29.78 15.74
1 -7 6 18.83 12.69
7 -1 -6 6.88 10.16
-1 -7 6 2.28 11.63
1 -7 7 15.58 11.9
1 -7 -7 20.11 16.66
-1 -7 7 17.28 11.21
-1 -7 -7 30.89 17.48
7 -1 -7 5.13 12.53
1 -7 -8 37.31 19.22
1 7 -8 34.69 7.63
1 -7 8 12.48 12.23
-1 7 -8 36.92 8.31
-1 -7 -8 31.3 20.69
-1 -7 8 25.6 12.79
1 -7 -9 11.15 21.03
1 7 -9 -2.07 7.3
-1 -7 9 -7.89 13.66
1 -7 9 -3.01 14.3
-1 7 -9 7 8
-1 -7 -9 4.69 21.44
-7 -1 -9 -13.31 19.89
7 1 9 16.5 10.48
-7 -1 -10 0.85 22.09
1 -7 -10 32.04 24.64
-1 7 -10 23.62 8.55
-1 -7 -10 32.78 24.26
1 7 -10 21.45 8.43
7 1 10 32.46 11.94
-7 1 -10 -4.73 20.91
-1 7 -11 4.31 7.82
1 7 -11 11.42 8.41
7 1 11 -8.76 9.72
1 7 -12 -3.59 7.45
-1 7 -12 -2.39 7.35
7 1 12 6.86 9.32
1 7 -13 11.31 7.82
1 7 13 23.81 10.67
7 1 13 18.22 8.78
7 1 -13 7.26 5.83
-1 7 -13 9.24 6.37
-1 7 14 8.62 8.61
7 1 -14 -1.29 5.44
1 7 -14 -1.56 5.65
7 -1 -14 -0.33 5.69
1 7 14 -1.86 8.18
7 1 14 0.28 6.89
-1 7 -14 -0.97 5.9
7 1 -15 -0.11 4.57
-1 7 -15 4.29 4.53
7 -1 -15 -1.78 4.71
1 7 15 2.58 6.59
-1 7 15 5.87 6.84
1 7 -15 -0.62 5.02
1 7 -16 1.57 3.43
7 1 -16 -6.68 3.72
1 7 16 -2.52 4.81
-1 7 16 -5.08 4.68
7 -1 -16 -6.41 3.78
2 -7 0 2.21 7.77
7 -2 0 -2.96 6.7
-2 -7 0 -4.67 11.53
-2 -7 0 2.54 7.21
2 -7 0 1.61 10.88
-2 -7 -1 78.81 11.15
2 -7 1 74.7 14.33
2 -7 -1 64.37 14.22
2 -7 -1 81.75 12.57
2 -7 1 69.26 9.8
-2 -7 1 72.45 14.52
7 -2 -1 72.61 7.45
7 -2 1 77.62 9.41
-2 -7 1 81.21 7.55
7 -2 2 882.87 27
-2 -7 -2 865.02 28.84
7 -2 -2 780.65 15.06
2 -7 -2 854.75 29.97
2 -7 2 829.48 33.03
-2 -7 2 874.92 32.03
7 -2 -2 879.19 28.64
7 -2 3 831.65 28.03
2 -7 -3 797.24 31.19
-2 -7 3 875.28 33.01
2 -7 3 815.33 34.08
7 -2 -3 874.23 29.51
-2 -7 -3 882.87 31.5
-2 -7 4 703.34 31.49
2 -7 4 668.53 32.97
7 -2 4 679.22 27.56
-2 -7 -4 662.08 31.04
2 -7 -4 663.58 30.78
7 -2 -4 720.08 29.13
-2 -7 -5 949.57 39.2
-2 -7 5 904.68 36.46
2 -7 -5 926.96 39.21
7 -2 5 959.33 35.05
7 -2 -5 943.81 34.32
2 -7 5 939.25 40.43
2 -7 6 294.45 25.31
-2 -7 -6 299.9 26.65
7 -2 -6 315.52 23.33
7 -2 6 327.22 22.82
2 -7 -6 316.61 26.85
-2 -7 6 316.64 23.27
2 -7 7 51.27 15.56
-2 -7 7 68.79 14.12
-2 -7 -7 53.46 19.3
2 -7 -7 43 17.2
7 -2 -7 43.95 14.41
-2 7 -8 136.1 10.9
2 7 -8 157.34 12
-2 -7 8 130.42 17.71
2 -7 -8 130.02 24.6
-7 -2 -8 134.47 24.76
2 -7 8 121.78 20.24
7 -2 -8 156.7 23.66
-2 -7 -8 136.99 26.03
2 7 -9 97.53 10.38
7 2 9 112.76 13.78
-2 -7 -9 93.9 27.15
-7 -2 -9 106.88 25.38
2 -7 9 140.85 21.36
2 -7 -9 118.1 25.43
-2 7 -9 103.07 10.95
2 -7 -10 211 32.13
-7 2 -10 119.19 26.61
-7 -2 -10 147.81 31.11
7 2 10 141.62 15.16
-2 -7 -10 145.57 30.11
-2 7 -10 151.74 12.96
2 7 -10 163.38 13.06
2 -7 10 130.22 20.92
7 2 11 214.95 16.16
-2 7 -11 223.75 14.72
7 2 12 36.9 9.82
2 7 12 54.92 12.42
2 7 -12 52.06 9.13
7 2 -12 38.39 8.62
-2 7 -12 34.32 7.95
-2 7 -13 10.34 6.88
2 7 -13 16.27 7.87
2 7 13 16.56 10.06
7 2 13 21.85 8.89
7 2 -13 7.34 6.25
7 2 -14 -0.61 5.72
7 2 14 2.49 7.09
-2 7 -14 0.76 5.32
-2 7 14 1.24 8.58
2 7 -14 -2.05 5.93
2 7 14 1.68 7.95
7 -2 -14 -0.15 5.6
2 7 15 -1.9 6.58
7 2 15 -7.84 5.16
7 2 -15 -4.41 4.87
7 -2 -15 -4.06 5.01
2 7 -15 -1.68 4.68
7 2 15 11.87 5.92
-2 7 -15 1.56 4.39
-2 7 15 -0.58 6.5
7 -2 -16 8.34 3.76
2 7 -16 9.97 3.77
7 2 -16 -2.43 3.5
2 7 16 0.64 4.61
-2 7 16 1.54 4.4
7 -3 0 12.85 7.63
-3 -7 0 13.97 11.64
3 -7 0 9.89 11.58
-3 -7 0 25.63 7.57
3 -7 0 15.69 9.5
3 -7 -1 61.88 11.43
3 -7 -1 69.03 13.82
-7 -3 1 62.46 5.73
3 -7 1 77.68 14.31
3 -7 1 69.05 10.8
7 -3 -1 77.13 11.83
-3 -7 -1 73.75 10.75
-3 -7 1 84.02 14.03
7 -3 1 69.12 10.23
-3 -7 1 59.19 5.48
7 -3 -1 75.35 9.61
3 -7 -2 279.93 20.65
3 -7 -2 315.28 20.02
-3 -7 2 295.94 20.2
7 -3 -2 321.4 13.71
7 -3 2 300.54 17.81
-3 -7 -2 322.56 18.68
3 -7 2 324.17 22.34
7 -3 -2 344.45 20.32
7 -3 3 675.48 26.84
3 -7 -3 667.93 29.11
3 -7 3 603.23 31.04
-3 -7 3 653.85 28.5
-3 -7 -3 687.44 27.92
7 -3 -3 686.43 28.71
3 -7 -4 30.44 12.71
-3 -7 -4 22.11 12.86
3 -7 4 50.27 15.02
7 -3 -4 42.63 11.76
-3 -7 4 48.92 12.75
7 -3 4 30 10.09
3 -7 -5 20.39 13.94
7 -3 5 21.04 10.38
-3 -7 -5 31.22 14.6
-3 -7 5 17.45 11.78
3 -7 5 17.72 12.87
7 -3 -5 14.22 11.23
3 -7 6 83.52 17.22
-3 -7 6 99 15.06
-3 -7 -6 104.84 20.77
3 -7 -6 109.09 19.31
7 -3 -6 63.69 15.38
7 -3 6 83.47 14.66
-3 -7 7 163.95 17.5
7 -3 7 172.58 20.1
7 -3 -7 140.73 19.96
-3 -7 -7 151.45 24
3 -7 -7 186.1 24.75
3 -7 7 166.64 21.81
-7 -3 -7 137.79 23.62
3 -7 -8 155.41 25.36
7 -3 -8 156.05 23.86
-7 -3 -8 117.29 24.47
3 -7 8 170.84 22.26
7 3 8 155.73 14.19
-3 7 -8 163.5 12.6
3 7 -8 174.53 12.52
-3 -7 -8 163.65 27.54
3 -7 -9 163.43 28.44
-7 -3 -9 155.1 29.2
-3 7 -9 180.3 13
3 7 -9 182.84 13.5
3 -7 9 213.76 25.52
-3 -7 -9 168.96 29.95
7 3 9 196.03 15.91
-3 -7 -10 10.22 23.94
-7 -3 -10 0.11 20.51
3 -7 -10 -17.47 22.25
3 7 -10 24.19 9.51
-3 7 -10 6.75 8.4
7 3 10 25.14 11.7
-7 3 -10 -3.58 20.76
3 -7 10 -12.78 16.35
3 7 -11 4.72 6.78
-3 7 -11 -8.14 7.86
7 3 11 1.56 9.41
3 7 11 14.62 11.54
3 7 -12 28.46 8.78
7 3 12 23.14 9.38
7 3 -12 19.53 7.24
-3 7 -12 15.35 7.45
3 7 12 26.37 11.2
3 7 -13 32.59 8.14
7 3 -13 34.31 7.72
3 7 13 26.7 9.93
7 3 13 17.1 8.7
-3 7 -13 32.04 7.13
3 7 -14 8.46 5.98
7 3 14 11.84 7.14
3 7 14 20.56 8.24
-3 7 -14 7.76 5.89
7 -3 -14 1.66 5.86
7 3 -14 16.38 6.38
7 3 15 -1.82 5.11
-3 7 -15 4.1 4.28
3 7 -15 4.25 5
-3 7 15 10.9 6.61
7 -3 -15 3.55 4.86
3 7 15 -0.37 6.2
7 3 -15 4.76 4.58
7 3 -16 -1.91 3.19
3 7 16 -2.62 4.57
3 7 -16 2.44 3.37
7 -4 0 6.59 8.32
-4 -7 0 -0.92 6.42
4 -7 0 4.41 12.1
4 -7 0 -3.8 9.15
4 -7 -1 99.25 14.85
4 -7 -1 111.2 14.27
-4 -7 1 108.05 14.56
7 -4 -1 101.06 13.74
-7 -4 1 86.56 8.38
7 -4 1 101.44 12.82
7 -4 -1 103.56 11.23
4 -7 1 103.66 15.52
4 -7 1 110.3 12.78
-4 -7 -1 115.07 11.65
7 -4 -2 278.08 19.99
4 -7 2 262.75 21.85
-4 -7 -2 275.43 17.89
7 -4 2 275.75 19.02
4 -7 -2 263.88 20.07
-4 -7 2 290.88 20.31
7 -4 -2 300.25 15.79
4 -7 -2 255.15 19.09
-4 -7 3 438.81 23.41
-4 -7 -3 436.86 23.98
7 -4 3 430.75 24.44
4 -7 -3 437.45 25.68
7 -4 -3 451.88 18.64
4 -7 -3 409.93 24.76
7 -4 -3 462.69 25.63
4 -7 3 455.45 27.99
7 -4 4 710.92 31.01
-4 -7 4 663.7 28.5
7 -4 -4 685.35 32.35
4 -7 4 641.52 34.59
-4 -7 -4 670.99 32.35
4 -7 -4 641.7 32.02
-4 -7 -5 182.62 21.91
7 -4 -5 194.46 19.71
7 -4 5 182.45 18.37
4 -7 -5 178.35 20.94
4 -7 5 156.48 20.48
-4 -7 5 163.5 17.01
-4 -7 6 227.55 18.88
7 -4 6 226.49 21.07
-7 -4 -6 224.18 25.84
4 -7 -6 207.58 22.94
-4 -7 -6 220.87 26.26
7 -4 -6 222.16 22.35
4 -7 6 194.48 22.93
4 -7 7 20.67 14.63
7 -4 -7 13.42 16.11
4 -7 -7 18.52 17.95
7 -4 7 7.57 11.88
-4 -7 -7 25.15 18.94
-7 -4 -7 13.01 18.44
-4 7 -8 -4.77 7.9
-4 -7 -8 -3.99 21.26
-7 -4 -8 8.06 20.32
4 7 -8 4.11 6.48
7 4 8 -0.83 10.52
7 -4 8 -2.66 13.31
7 -4 -8 -22.02 19.69
4 7 8 -2.29 11.64
4 -7 -8 4.39 16.97
4 -7 8 8.16 13.98
-4 -7 -9 160.71 31.09
4 -7 9 199.59 25.2
-7 4 -9 153.14 13.34
-4 7 -9 162.36 12.78
7 4 9 152.4 15.27
4 7 9 164.46 16.69
7 -4 -9 169.72 27.05
4 -7 -9 144.62 26.63
4 7 -9 156.31 12.79
-7 -4 -9 128.89 28.41
-7 -4 -10 197.25 32.83
-4 -7 -10 156.86 30.89
4 -7 -10 139.34 27.78
4 -7 10 159.86 23.36
-4 7 -10 168.98 12.9
4 7 10 163.59 17.2
7 4 10 139.39 14.92
4 7 -10 157.44 12.86
4 7 -11 13.42 7.35
7 4 11 29.16 10.37
-4 7 -11 14.72 6.8
4 7 11 28.87 11.25
7 4 -11 21.33 7.48
-4 7 -12 15.33 7.26
4 7 -12 20.36 7.84
4 7 12 28.4 10.95
7 4 -12 13.63 7.46
7 4 12 17.77 9.42
4 7 13 2.69 8.51
4 7 -13 0.29 6.37
-4 7 -13 -0.56 6.15
7 4 -13 2.94 6.01
7 4 13 1.95 8.35
-4 7 -14 6.89 5.31
4 7 -14 -0.89 5.42
4 -7 -14 -3.87 5.23
4 7 14 3.75 7.45
7 4 14 -6.03 7.12
7 4 -14 3.37 5.67
7 -4 -14 1 5.82
-4 7 15 2.29 6
7 4 15 -3.12 5.22
4 7 -15 -0.47 4.4
7 -4 -15 7.33 4.7
4 7 15 6.05 6.17
7 4 -15 3.94 4.18
-4 7 -15 7 3.94
7 -5 0 65.79 12.07
5 -7 0 79.13 12.44
5 -7 0 100.12 15.63
-5 -7 0 87.82 9.36
-7 -5 1 146.38 11.93
-5 -7 1 145.11 15.94
5 -7 1 151.35 18.04
7 -5 -1 142.59 14.51
7 -5 1 140.18 15.8
-5 -7 -1 154.95 13.04
5 -7 -1 133.36 16.32
5 -7 -1 150.51 15.68
7 -5 -1 143.92 15.5
-5 -7 -2 286.24 17.94
5 -7 -2 274.45 21.78
-5 -7 2 267.27 18.79
5 -7 -2 296.41 21.3
7 -5 -2 303.44 18.44
5 -7 2 259.04 22.1
7 -5 -2 297.66 21.54
7 -5 2 284.89 20.54
-5 -7 -3 14.44 10.83
5 -7 3 24.68 13.25
7 -5 -3 22.28 9.95
7 -5 -3 44.43 13.24
-5 -7 3 23.03 10.24
7 -5 3 3.74 10.67
5 -7 -3 22.32 13.25
5 -7 -3 6.73 11.4
-7 -5 -4 11.83 13.3
7 -5 4 1.81 11.09
-5 -7 4 10.23 10.17
7 -5 -4 16.26 12.25
5 -7 4 25.52 14.26
5 -7 -4 21.52 12.48
5 -7 -4 4.75 11.85
-5 -7 -4 -0.61 12.77
-5 -7 -5 142.34 20.52
7 -5 -5 117.22 17.83
-7 -5 -5 159.07 22.98
5 -7 -5 144.88 19.54
5 -7 5 129.32 19.64
7 -5 5 145.9 18.43
7 -5 6 497.79 31.27
7 -5 -6 485.55 32.01
-7 -5 -6 502.81 36.34
5 -7 -6 536.26 34.24
-5 -7 -6 493.41 34.96
5 -7 6 508.34 34.02
5 -7 -7 585.24 38.32
7 -5 7 644.28 36.45
-5 -7 -7 594.03 41.96
5 7 7 570.93 21.97
5 -7 7 618.36 38.03
-7 -5 -7 604.15 42.34
7 -5 -7 606.16 36.96
5 -7 -8 437.64 37.28
5 -7 8 485.51 35.01
7 -5 8 492.27 34.04
5 7 8 506.32 22.96
7 5 8 442.71 21.05
5 7 -8 454.15 17.96
-7 5 -8 434.19 18.52
-7 -5 -8 435.73 41.26
-5 -7 -8 471.26 42.36
7 -5 -8 489.05 36.39
-5 7 -8 523.56 19.63
5 -7 9 116.11 20.95
7 5 -9 115.11 11.32
5 7 -9 115.88 11.71
7 5 9 113.5 14.42
7 -5 -9 106.56 25.41
5 7 9 110.73 14.94
-7 5 -9 142.77 13.02
-7 -5 -9 119.46 30.26
-5 7 -9 105.99 11.25
-5 -7 -9 92.29 28.06
5 -7 -9 145.4 26.04
7 5 -10 153.31 12.92
5 7 10 175.95 16.93
7 5 10 161.13 15.4
5 7 -10 177.04 13.42
-5 7 -10 158.28 12.49
-7 5 -10 192.11 14.25
5 -7 -10 180.16 28.9
5 7 -11 1.01 6.59
-5 7 -11 7.86 6.96
7 5 11 -0.08 9.79
5 7 11 0.38 10.68
7 5 -11 -8.13 7.09
-7 5 -11 17.09 7.9
-7 5 -12 22.46 7.93
5 7 -12 17.78 8.13
7 5 -12 24.83 7.33
-5 7 -12 26.66 7.73
5 7 12 23.81 10.18
7 5 12 27.88 9.9
5 7 -13 33.68 8.17
7 5 -13 40.54 8.14
-5 7 -13 17.6 6.65
5 7 13 24.2 9.05
7 5 13 18.37 8.68
7 5 14 3.02 6.81
7 5 -14 18.2 5.56
5 7 -14 23.75 6.48
5 -7 -14 5.46 5.26
-5 7 -14 18.81 5.56
5 7 14 6.93 7.18
5 7 -15 -1.81 4.38
-5 7 15 8.61 6.22
5 7 15 -1.42 5.63
7 5 15 0.3 5.38
7 -5 -15 2.27 4.36
7 5 -15 1.94 4.22
7 -6 0 0.35 12.55
6 -7 0 2.8 12.3
6 -7 0 -16.55 10.9
-7 -6 1 48.05 10.42
-6 -7 -1 48.27 9.51
6 -7 -1 52.45 12.36
6 -7 1 21.77 12.89
7 -6 1 60.13 14.31
7 -6 -1 43.67 12.14
-6 -7 1 45.09 12.04
6 -7 -1 72.97 15.2
7 -6 -1 59.53 12.89
-7 -6 -1 35.69 9.03
7 -6 -2 121.63 16.41
7 -6 2 102.51 16
7 -6 -2 98.05 14.25
-6 -7 -2 91.63 12.96
6 -7 -2 111.56 15.93
6 -7 -2 90.14 15.18
-7 -6 -2 111.42 13.58
6 -7 2 120.79 17.83
-6 -7 2 118.34 13.81
7 -6 -3 94.88 14.35
-7 -6 -3 80.12 14.73
6 -7 -3 111.81 16.84
-6 -7 -3 84.17 14.47
-6 -7 3 85.32 12.53
6 -7 -3 84.5 15.44
7 -6 3 84.34 15.69
7 -6 -3 119.88 17.54
6 -7 3 114.58 17.96
7 -6 4 65.26 14.78
-6 -7 -4 59.25 15.54
6 -7 -4 74.64 15.1
-7 -6 -4 71.64 16.58
7 -6 -4 68.85 15.23
6 -7 4 78.76 16.61
7 -6 -4 70.94 14.05
6 -7 -4 83.09 15.9
6 -7 5 112.06 18.94
6 -7 -5 96.44 18.11
-6 -7 -5 123.39 20.85
7 -6 5 119.34 17.78
7 -6 -5 103.75 17.74
6 -7 -5 99.06 16.62
-7 -6 -5 96.07 20.72
6 -7 -6 22.74 14.78
7 -6 -6 8.41 14.79
-7 -6 -6 2.52 17.35
7 -6 6 42.05 15.67
6 -7 6 40.95 16.12
-6 -7 -6 21.72 17.25
-6 -7 -7 -2.65 19.58
7 -6 -7 5.91 16.22
6 7 7 3.51 10.29
6 -7 7 11.22 15.06
-6 7 -7 -2.75 7.45
-7 -6 -7 10.24 21.74
7 -6 7 -4.34 13.43
6 -7 -7 -1.73 17.63
7 6 7 10.85 9.9
-7 6 -8 17.48 8.73
-6 -7 -8 69.04 27.96
7 6 8 25.49 11.54
-6 7 -8 10.08 8.12
6 7 8 23.83 12.21
-7 -6 -8 17.96 21.56
6 -7 8 12.21 14.12
6 -7 -8 34.16 20.03
7 6 -8 7.24 7.39
6 7 -8 15.41 7.34
7 -6 8 3.35 14.11
7 -6 -8 9.69 17.64
-6 -7 -9 13.66 26.65
-6 7 -9 19.84 8.58
7 6 -9 30.4 8.66
-7 6 -9 19.57 9.36
7 -6 9 14.29 15.37
6 -7 -9 17.61 20.16
6 7 -9 18.18 7.58
7 6 9 23.7 12.24
6 7 9 29.01 12.58
6 -7 9 30.33 16.19
-7 -6 -9 38.76 25.99
7 -6 -9 -5.4 19.32
-7 6 -10 13.81 8.29
-6 7 -10 15.43 8.09
6 7 10 23.4 12.18
6 7 -10 14.52 8.02
7 6 10 13.52 10.62
7 6 -10 19.01 8.23
6 7 -11 11.27 7.5
7 6 11 16.05 10.38
-7 6 -11 14.39 7.62
7 6 -11 10.45 6.36
6 7 11 12.96 10.4
-6 7 -11 14.58 7.1
-6 7 -12 10.83 6.85
-7 6 -12 12.39 7.23
6 7 -12 -2.52 6.37
7 6 12 4.88 8.78
7 6 -12 5.09 6.75
6 7 12 10.08 9.9
-6 7 -13 4.4 5.7
6 7 -13 5.94 6.15
7 6 13 2.69 8.12
6 7 13 -5.15 8.56
7 6 -13 2.98 5.68
-6 7 -14 -3.38 4.49
6 7 -14 -4.57 5.15
7 6 14 -0.37 6.75
6 7 14 -3.41 7.03
7 6 -14 -0.49 5.16
6 7 15 -5.32 5.53
7 6 15 0.74 5.26
7 -6 -15 5.39 4.13
6 7 -15 -0.22 4.03
-6 7 15 8.62 5.69
-7 6 15 -1.01 5.54
7 6 -15 0.35 3.83
7 -7 0 250.95 21.94
7 -7 -1 265.86 21.32
-7 -7 -1 217.13 14.55
7 -7 -1 251.19 20.93
-7 -7 1 248.5 18.49
7 -7 1 262.89 22.12
-7 -7 -2 56.5 11.88
7 -7 2 58.48 15.6
7 -7 -2 60.44 15.1
7 -7 -2 65.57 14.5
-7 -7 -3 149.42 16.94
7 -7 3 170.55 21.18
7 -7 -3 171.46 18.92
7 -7 -3 178.65 20.4
-7 -7 -4 27.58 14.59
7 -7 4 25.5 13.64
7 -7 -4 33.15 14.27
7 -7 -4 42.36 13.29
7 -7 5 123.82 21.03
7 -7 -5 144.94 21.72
-7 -7 -5 98.34 21.11
7 -7 6 460.67 32.72
-7 -7 -6 429.95 36.36
7 -7 -6 435.61 33.29
7 -7 7 937.27 46.9
-7 -7 -7 834.2 52.67
-7 7 -7 952.92 25.39
7 -7 -7 914.14 48.47
7 7 -7 897.23 23.46
7 7 7 952.23 28.05
7 -7 8 902.37 47.08
-7 -7 -8 888.06 57.58
7 7 8 869.38 28.55
7 7 -8 938.64 25.24
7 -7 -8 869.38 49.18
-7 7 -8 904.37 26.13
7 7 9 616.78 25.66
7 7 -9 653.31 22.27
-7 7 -9 584.83 21.8
-7 -7 -9 603.09 52.17
7 -7 -9 631.06 44.6
7 -7 9 667.52 42.48
7 7 10 4.75 10.92
-7 7 -10 3.66 7.34
7 7 -10 3.85 6.55
7 7 -11 6.3 6.35
-7 7 -11 12.25 7.31
7 7 11 -4.08 9.65
7 7 12 12.66 8.84
-7 7 -12 11.67 6.85
7 7 -12 21.59 7.19
7 7 13 16.25 7.93
-7 7 -13 22.33 6.56
7 7 -13 34.16 7.2
7 7 14 22.64 7.25
7 7 -14 21.42 5.92
7 7 -15 25.01 4.53
7 7 15 14.8 5.27
0 -8 0 376.03 18.68
0 -8 0 378.16 24.65
0 -8 -1 9.93 12.25
0 -8 -1 7.98 8.55
0 -8 1 4.7 11.44
0 -8 1 16.38 7.03
0 -8 -2 421.93 22.3
0 -8 2 411.56 25.96
0 -8 3 363.43 26.05
0 -8 -3 375.32 22.84
0 -8 -4 704.19 32.98
0 -8 4 697.62 34.56
8 0 -4 699.62 25.78
0 -8 -5 106.99 17.92
0 -8 5 99.28 17.09
8 0 -5 132.42 13.93
0 -8 -6 34.1 16.4
0 -8 6 15.66 12.97
0 -8 -7 12.11 17.72
0 -8 7 15.27 14.51
0 -8 8 21.54 14.83
0 -8 -8 8.28 19.33
0 8 -8 2.64 6.17
0 -8 -9 22.19 23.04
0 8 -9 41.87 9.2
0 -8 9 33.14 14.56
0 8 -10 -5.92 8.56
0 -8 10 16.42 14.62
-8 0 -10 -33.3 24
0 -8 -10 9.26 22.11
0 8 -11 66.68 10.45
0 8 -12 83.8 10.73
0 8 13 92.86 12.22
8 0 -13 87.25 9.51
0 8 -13 93.57 10.07
0 8 -14 7.61 6.06
0 8 14 4.11 7.57
8 0 -14 11.71 5.58
0 8 15 -3.41 6.32
0 8 -15 4.71 4.68
8 0 -15 9.35 4.43
1 -8 0 -5.91 11.91
-1 -8 0 -6.16 8
8 -1 0 0.31 4.48
1 -8 0 -3.2 7.86
-1 -8 0 12.88 12.82
-1 -8 1 8.32 6.65
1 -8 -1 3.51 11.78
-1 -8 1 2.22 12.64
-1 -8 -1 12.94 8.4
8 -1 1 3.2 5.48
1 -8 1 -1.26 12.47
1 -8 1 6.6 7.57
1 -8 -1 0.51 9.62
8 -1 2 165.26 12.89
-1 -8 2 163.82 18.75
1 -8 2 129.18 17.16
-1 -8 -2 160.16 15.8
1 -8 -2 143.79 15.68
1 -8 3 -1.47 13.41
1 -8 -3 10.48 10.79
8 -1 -3 -7.33 8.77
-1 -8 -3 5.78 11.28
8 -1 3 -1.7 7.33
-1 -8 3 5.56 12.06
8 -1 -4 14.46 9.8
1 -8 -4 8.95 12.04
-1 -8 4 -9.17 13.35
-1 -8 -4 -0.65 12.4
1 -8 4 15.61 13.96
-1 -8 5 -1.62 12.22
-1 -8 -5 5.04 12.69
1 -8 5 12.4 14.19
8 -1 -5 2.18 8.8
1 -8 -5 -11.61 13.83
-1 -8 -6 13.22 15.58
8 -1 -6 11.1 11.8
-1 -8 6 -1.83 13.15
1 -8 6 5.44 13.18
1 -8 -6 -10.69 14.64
-1 -8 7 18.65 12.65
-1 -8 -7 17.32 17.09
1 -8 7 12.53 13.03
1 -8 -7 6.49 16.92
-1 -8 8 36.83 14.2
-1 8 -8 25.04 7.86
1 -8 -8 33.1 20.62
1 8 -8 46.36 9.06
1 -8 8 36.12 15.27
-1 -8 -8 45.86 21.94
1 -8 9 3.15 14.31
-8 -1 -9 12.34 19.59
1 -8 -9 -7.01 20.52
8 1 9 2.72 9.93
-1 8 -9 -7.39 8.35
1 8 -9 -2.04 7.8
-1 -8 9 12.77 13.78
-1 -8 -9 14.29 22.23
1 -8 -10 -1.96 20.87
1 8 -10 10.47 7.62
-8 1 -10 24.13 22.22
-1 -8 -10 -2.82 21.89
8 1 10 -1.46 9.66
-1 8 -10 -5.3 7.54
1 -8 10 0.59 15.65
-8 -1 -10 2.77 21.92
-1 8 -11 4.23 6.86
1 8 -11 6.41 8.14
8 1 11 12.13 8.74
-1 8 -12 7.63 7.78
1 8 -12 -0.15 7.57
8 1 12 3.24 7.99
1 8 12 23.35 10.79
1 8 -13 -0.03 6.48
8 1 -13 -1.05 5.83
1 8 13 3.62 8.77
8 1 13 -8.99 7.41
-1 8 13 5.79 9.11
-1 8 -13 -2.25 6.33
-1 8 -14 0.81 5.87
1 8 -14 -3.31 6.12
1 8 14 1.42 7.33
-1 8 14 -1.58 7.63
8 -1 -14 -4.77 5.48
8 1 -14 -2.29 4.88
1 8 15 -6.09 6.25
8 1 15 12.3 5.79
1 8 -15 -1.9 4.45
-1 8 15 -0.63 5.9
8 -1 -15 -2.62 4.35
-1 8 -15 1.1 4.48
8 1 -15 -0.84 4.35
2 -8 0 134.97 17.22
-2 -8 0 144.35 11.86
8 -2 0 143.22 10.37
2 -8 0 129.99 13.04
-2 -8 0 141.57 18.35
-2 -8 -1 22.8 8.9
-2 -8 1 18.59 6.08
2 -8 1 24.39 13.01
8 -2 1 23.71 7.23
2 -8 -1 23.38 10.24
2 -8 1 19.91 7.84
2 -8 -1 33.64 13.28
8 -2 -1 19.99 4.67
-2 -8 1 28.43 14.18
8 -2 2 145.63 12.89
8 -2 -2 143.38 14.63
-2 -8 -2 119.76 14.2
2 -8 -2 125.44 17.27
-2 -8 2 152.83 18.62
2 -8 2 132.61 17.69
2 -8 -2 145.77 15.83
2 -8 -3 521.7 27.03
-2 -8 -3 507.89 25.93
-2 -8 3 498.65 28.07
8 -2 3 528.91 23.81
2 -8 3 483.68 29.41
8 -2 -3 492.36 24.24
-2 -8 4 96.36 16.14
2 -8 -4 112.13 16.88
8 -2 -4 86.68 13.91
8 -2 4 108.35 13.5
2 -8 4 134.46 19.81
-2 -8 -4 108.54 16.84
8 -2 5 33.71 10.6
2 -8 5 41.51 14.53
2 -8 -5 43.37 14.86
8 -2 -5 32.43 11.87
-2 -8 5 45.21 13.98
-2 -8 -5 34.33 14.63
8 -2 -6 29.51 13.19
2 -8 -6 29.96 15.48
-2 -8 -6 13.31 14.86
-2 -8 6 -1.39 13.46
2 -8 6 -6.87 14.52
-2 -8 -7 7.17 18.28
-2 -8 7 2.78 13.59
8 -2 -7 25.83 14.73
2 -8 -7 -4.09 16.79
2 -8 7 -8.73 13.51
-8 -2 -8 7.8 19.4
-2 -8 8 16.55 11.85
8 2 8 9.65 10.41
2 -8 -8 8.97 18.66
2 -8 8 -2.88 13.87
-2 8 -8 5.98 7.09
2 8 -8 4.52 7.39
-2 -8 -8 11.43 20.92
2 -8 -9 19.75 20.93
-2 8 -9 18.52 8.21
8 2 9 14.43 10.33
2 8 -9 24.03 8.81
-2 -8 -9 11.78 22.3
2 -8 9 28.49 16.19
-8 -2 -9 8.38 20.49
-8 -2 -10 25.28 20.75
2 -8 -10 36 21.27
-2 8 -10 34.22 9.4
-2 -8 -10 53.78 25.71
2 8 10 83.61 15.11
8 2 10 34.96 11.1
2 -8 10 34.28 15.02
2 8 -10 41.35 9.57
-8 2 -10 12.6 19.4
8 2 11 41.27 10.26
2 8 11 59.61 12.96
-2 8 -11 37.9 8.91
2 8 -11 43.61 9.68
8 2 -12 47.4 8.58
2 8 12 38.27 11.05
2 8 -12 47.01 9.59
8 2 12 39.77 9.71
-2 8 -12 41.2 8.67
2 8 -13 8.57 6.95
8 2 -13 7.9 5.84
-2 8 -13 16.52 7.14
2 8 13 7.64 8.92
8 2 13 4.75 7.61
-2 8 -14 3.63 5.49
8 2 -14 6.67 5.47
8 -2 -14 7.55 5.52
8 2 14 12.59 6.62
2 8 -14 8.39 5.99
-2 8 14 6.07 7.84
2 8 14 1.88 7.53
8 2 15 -8.15 5.09
2 8 -15 4.54 4.93
8 -2 -15 -2.55 4.28
2 8 15 7.55 5.97
-2 8 -15 5.42 4.42
-2 8 15 0.84 5.87
8 2 -15 0.71 4.27
-3 -8 0 3.19 12.33
-3 -8 0 -0.36 6.74
3 -8 0 1.18 8.21
3 -8 0 -6.31 12.12
8 -3 0 -1.64 8.03
8 -3 1 87.61 11.71
-3 -8 -1 89.43 11.68
3 -8 1 86.52 15.51
-3 -8 1 84.18 15.2
3 -8 1 83.39 11.96
3 -8 -1 99.35 13.43
3 -8 -1 62.01 14.92
8 -3 -1 98.03 9.89
3 -8 -2 11.82 12.67
8 -3 2 18.62 8.75
3 -8 2 17.84 13.06
-3 -8 2 24.71 13.83
-3 -8 -2 18.34 9.73
3 -8 -2 23.61 11.21
8 -3 -2 14.65 10.27
3 -8 -3 5.01 11.15
-3 -8 -3 -0.99 11.08
3 -8 3 -9.54 13.98
8 -3 -3 6.55 10.45
-3 -8 3 9.72 11.39
3 -8 -3 9.19 11.85
8 -3 3 11.92 9.36
8 -3 4 3.34 9.15
3 -8 4 3.32 13.13
8 -3 -4 6.38 10.13
-3 -8 4 -15.64 12.42
3 -8 -4 6.04 11.34
-3 -8 -4 -3.17 11.59
8 -3 5 57.65 12.68
-3 -8 -5 73.53 17.28
8 -3 -5 76.61 14.51
3 -8 -5 68.39 16.94
3 -8 5 54.57 16.26
-3 -8 5 40.65 13.07
8 -3 6 3.44 10.23
-3 -8 -6 4.15 16.27
8 -3 -6 10.26 13.09
3 -8 -6 3.59 14.27
-3 -8 6 3.24 11.35
3 -8 6 -15.36 15.04
3 -8 -7 1.76 17.07
-3 -8 7 21.51 12.65
3 -8 7 -5.07 13.27
8 -3 -7 12.81 15.44
-3 -8 -7 -2.29 19.32
8 -3 -8 34.84 17.16
-8 -3 -8 40.43 21.61
3 8 -8 30.58 8.94
-3 8 -8 31.77 8.09
3 -8 -8 49.23 21.44
8 3 8 40.07 11.19
3 8 8 16.32 11.77
-3 -8 -8 44.9 22.16
3 -8 8 21.23 14.56
8 3 9 8.44 10.97
-3 8 -9 2.74 8.28
3 8 9 5.84 12.07
3 -8 9 19.14 18.2
-3 -8 -9 -13.01 22.71
3 -8 -9 15.94 19.38
3 8 -9 7.51 7.68
-8 -3 -9 -5.95 22.88
-3 -8 -10 -8.3 22.38
3 -8 10 -12.17 14.21
3 8 10 17.54 12.87
-8 -3 -10 -1.51 20.97
3 8 -10 -2.45 8.23
-3 8 -10 -7.46 7.81
8 3 10 15.28 10.47
-3 8 -11 22.43 8.38
3 8 11 29.76 11.47
8 3 11 21.32 9.56
3 8 -11 27.29 8
3 8 12 15.62 9.9
3 8 -12 -7.43 7.49
8 3 12 -1.42 8.3
-3 8 -12 2.59 6.78
8 3 -12 -4.65 6.68
3 8 -13 -2.22 6.58
-3 8 -13 3.04 5.91
8 3 13 -0.63 7.83
3 8 13 5.62 8.73
8 3 -13 1.84 5.61
8 3 14 21.77 7.2
-3 8 14 15.24 8.23
3 8 -14 11.76 6.43
-3 8 -14 18.24 6.15
8 3 -14 27.21 6.38
3 8 14 -0.48 7.14
8 -3 -14 5.82 5.67
8 3 14 12.08 7
3 8 15 -8.04 6.09
-3 8 -15 -1.42 3.96
8 -3 -15 -0.97 4.38
8 3 -15 12.37 4.69
-3 8 15 4.06 5.67
3 8 -15 2.08 4.59
4 -8 0 49.54 14.53
8 -4 0 28.32 9.58
4 -8 0 29.05 10.64
-4 -8 0 30.33 7.95
-4 -8 0 29.87 14.17
4 -8 -1 20.84 12.76
-4 -8 -1 14.47 8.89
8 -4 -1 24.97 9.21
4 -8 -1 18.84 10.51
4 -8 1 28.93 10.13
8 -4 1 15.37 9.05
4 -8 1 21.96 13.04
-4 -8 1 23.41 14
8 -4 -2 25.25 8.46
8 -4 -2 20 10.79
4 -8 -2 16.16 13.34
8 -4 2 8.89 8.92
-4 -8 2 15.94 12.11
-4 -8 -2 26.45 11.37
4 -8 -2 15.51 10.71
4 -8 2 8.2 13.01
-4 -8 3 -4.57 11.52
4 -8 -3 -10.64 13
8 -4 -3 -7.18 11.35
-4 -8 -3 10.35 11.02
4 -8 -3 11.81 11.83
8 -4 3 13.46 9.24
4 -8 3 20.9 13.65
4 -8 4 52.47 16.57
-4 -8 4 29.33 12.56
8 -4 -4 33.67 12.83
-4 -8 -4 44.82 14.3
4 -8 -4 21.8 13.67
4 -8 -4 30.92 13.54
8 -4 4 32.97 10.96
8 -4 5 5.02 9.53
-4 -8 -5 5.97 13.49
4 -8 5 0.19 13.64
-4 -8 5 5.63 11.33
8 -4 -5 4.5 13.19
4 -8 -5 4.52 13.4
-4 -8 6 10.64 10.93
-4 -8 -6 2.68 16.21
8 -4 -6 15.81 13.72
4 -8 6 -8.3 16.33
8 -4 6 -1.79 11.38
4 -8 -6 0.3 14.99
4 8 7 12.95 10.65
-4 -8 -7 24.67 20.39
8 -4 -7 18.61 15.76
4 -8 7 16.06 14.35
-4 8 -7 21.79 7.17
4 -8 -7 2.31 16.82
-8 -4 -7 12.78 21.53
8 -4 7 8.99 11.73
4 -8 8 5.35 15.62
8 -4 -8 26.3 18.57
-4 8 -8 6.2 7.79
4 8 -8 4.13 6.6
-4 -8 -8 5.15 21.29
4 -8 -8 3.64 18.76
8 4 8 21.51 10.9
4 8 8 -5.6 11.68
-8 -4 -8 12.59 21.71
-8 -4 -9 9.17 23.05
4 -8 -9 -13.92 20.95
-4 8 -9 7.79 7.5
4 -8 9 -6.78 15.23
4 8 9 12.13 12.86
-4 -8 -9 -4.4 23.44
4 8 -9 15.28 8.81
8 4 9 6.22 10.67
8 4 10 -4.15 10.12
4 8 10 6.59 11.97
-4 8 -10 7.68 7.62
4 8 -10 7.62 8.52
4 8 -11 13.02 7.45
-4 8 -11 12.65 7.16
8 4 11 26.53 9.82
4 8 11 10.91 10.15
8 4 -11 9.88 6.5
-4 8 -12 5.29 6.92
8 4 12 6.42 8.76
4 8 -12 16.59 7.51
8 4 -12 5.5 6.81
4 8 12 9.53 9.74
4 8 13 0.9 8.55
4 8 -13 -0.72 6.19
8 4 13 3.24 7.82
-4 8 -13 5.6 5.89
8 4 13 2.43 7.03
8 4 -13 2.17 5.59
-4 8 -14 -1.94 4.78
4 8 -14 -5.69 5.9
8 4 -14 -2.96 5.01
8 -4 -14 -13.97 6.06
8 4 14 -0.05 6.71
-4 8 14 6.08 7.63
4 8 14 1.67 6.84
8 4 15 -9.45 4.82
8 4 -15 1.29 3.96
8 -4 -15 -0.55 4.3
4 8 -15 1.45 4.1
4 8 15 -1.27 5.55
-4 8 -15 4.81 3.83
-4 8 15 1.24 5.45
-5 -8 0 12.82 13.06
8 -5 0 16.99 10.84
5 -8 0 -9.2 13.38
5 -8 0 -9.14 10.05
-5 -8 1 56.11 14.18
5 -8 -1 68.42 16.2
8 -5 1 66.59 13.42
-5 -8 -1 68.01 10.81
5 -8 -1 61.93 13.37
8 -5 -1 78.32 13.77
5 -8 1 63.71 15.43
8 -5 -1 58.22 11.51
5 -8 2 62.27 15.78
5 -8 -2 76.98 14.5
-5 -8 2 79.18 15.16
8 -5 -2 87.08 15.29
5 -8 -2 77.38 15.85
-5 -8 -2 83.56 12.97
8 -5 2 73.21 13.33
8 -5 -2 63.6 10.44
8 -5 -3 -3.07 11.78
-5 -8 -3 1.31 11.01
8 -5 3 0.48 11
5 -8 -3 3.4 11.94
5 -8 -3 3.8 11.56
-5 -8 3 6.12 11.04
5 -8 3 11.51 13.93
-5 -8 -4 17.03 13.66
-5 -8 4 25.84 11.63
5 -8 4 23.79 14.04
5 -8 -4 9.52 12.51
8 -5 -4 25.07 12.75
8 -5 4 23.8 12.9
5 -8 -4 10.85 13.07
-5 -8 -5 7.29 16.21
5 -8 -5 3.28 13.43
5 -8 5 -8.72 14.89
8 -5 -5 4.15 12.47
-8 -5 -5 4.61 16.46
5 -8 -5 8.41 13.64
8 -5 5 -6.41 10.69
5 -8 6 6.44 16.65
-5 -8 -6 17.01 18.08
5 -8 -6 13.55 15.87
8 -5 6 13.5 11.66
8 -5 -6 10.29 14.25
-8 -5 -6 4.99 19.84
5 -8 7 -2.03 13.89
5 -8 -7 -6.2 17.54
-5 -8 -7 3.51 20.08
8 -5 -7 20.19 16.32
-5 8 -7 -5.37 7.2
8 -5 7 15.56 13.78
8 5 7 9.21 10.64
5 8 7 0.36 10.76
5 8 -7 -2.48 6.67
-8 -5 -7 11.53 21.63
8 -5 8 6.88 13.27
5 -8 -8 -0.8 19.33
-8 5 -8 14 8.71
-5 8 -8 4.78 8.32
-5 -8 -8 -6.6 22.66
8 -5 -8 24.93 18.67
5 8 -8 2.32 7.63
5 8 8 -3.43 11.13
5 -8 8 -7.38 15.8
8 5 8 -3 11.62
-8 -5 -8 20.7 23.61
-8 -5 -9 23.51 27.59
5 -8 9 67.02 20.15
8 -5 -9 41.93 22.68
5 8 -9 42.92 9.87
-5 8 -9 38.81 8.71
8 5 9 14.95 11.81
5 -8 -9 25.97 20.6
-8 5 -9 41.18 10.3
5 8 9 29.82 13.16
-5 -8 -9 19.38 24.89
8 5 10 40.41 11.59
-5 8 -10 40.58 8.64
5 8 -10 40.98 9.26
8 5 -10 30.2 8.34
5 8 10 43.23 12.53
5 8 -11 3.19 6.5
-5 8 -11 10.55 7.29
5 8 11 12.23 10.72
8 5 -11 -0.43 6.42
8 5 11 8.55 9.68
-5 8 -12 0.55 6.4
8 5 12 8.67 7.9
5 8 -12 1.37 7.07
5 8 12 9.22 9.41
8 5 12 -12.19 9.26
8 5 -12 4.07 6.3
5 8 -13 2.65 6.61
-5 8 -13 6.14 5.78
8 5 -13 8.66 6.14
5 8 13 6.98 8.17
8 5 13 8.23 7.89
8 5 14 -2.95 6.67
-5 8 -14 6.01 4.85
8 5 -14 4.98 4.95
5 8 -14 2.86 4.93
5 8 14 -0.44 6.77
5 -8 -14 -1.33 4.54
-5 8 14 11.52 7.24
5 8 -15 -4.59 4.17
5 8 15 5.38 5.33
8 5 -15 5.27 3.85
8 5 15 -0.56 4.59
8 -5 -15 0.91 3.99
-5 8 15 3.2 4.91
-6 -8 0 89.95 16.22
6 -8 0 65.2 13.49
6 -8 0 84.81 16.94
8 -6 0 68.23 14.1
8 -6 -1 29.03 11.76
8 -6 1 52.33 13.12
6 -8 -1 43.55 13.64
-6 -8 1 59.37 13.81
6 -8 -1 44.89 15.22
8 -6 -1 55.52 13.03
-8 -6 -1 42.81 9.53
6 -8 1 34.59 14.49
6 -8 -2 0.25 11.11
-6 -8 -2 0.71 9.7
6 -8 2 11.71 13.59
8 -6 2 1.6 10.84
-6 -8 2 14.33 12.21
6 -8 -2 0.14 12.45
8 -6 -2 -5.04 11.44
8 -6 -2 2.86 9.94
-8 -6 -2 0.84 9.53
-6 -8 3 80.56 14.06
-6 -8 -3 71.92 14.57
6 -8 3 100.69 19.05
6 -8 -3 71.62 16.56
8 -6 -3 106.78 17.58
6 -8 -3 88.7 16.88
8 -6 3 80.81 14.95
-8 -6 -3 66.1 14.55
-6 -8 -4 19.75 13.88
6 -8 -4 -1.73 12.35
8 -6 -4 13.53 13.24
6 -8 4 -8.18 13.73
8 -6 4 0.73 11.49
6 -8 -4 -0.46 13.25
-8 -6 -4 3.47 12.96
-6 -8 -5 -5.35 16.43
6 -8 -5 -5.77 14.75
8 -6 5 -5.5 11.61
6 -8 -5 -1.27 13.86
8 -6 -5 -5 13.61
6 -8 5 -5.96 15.96
-8 -6 -5 -8.48 16.49
-6 -8 -6 3.33 17.59
8 -6 6 11.33 12.54
6 -8 6 14.28 14.99
-8 -6 -6 -8.9 20.18
8 -6 -6 12.12 15.78
6 8 6 6.35 9.59
6 -8 -6 4.19 15.81
-8 -6 -7 -30.98 25.81
-6 -8 -7 8.31 20.92
-8 6 -7 0.26 7.9
6 -8 -7 9.42 17.12
8 6 7 -6.67 10.9
-6 8 -7 8.93 7.98
8 6 -7 -15.46 7.49
8 -6 -7 6 17.27
6 8 -7 -4.42 7.18
6 -8 7 18.02 15.98
8 -6 7 -1.86 14.01
6 8 7 3.4 10.19
6 8 8 -7.76 12.12
-8 -6 -8 47.01 29.36
-6 -8 -8 -6.86 24.18
-8 6 -8 6.31 8.54
6 -8 -8 16.94 18.73
8 -6 -8 3.68 20.17
6 -8 8 14.87 15.88
6 8 -8 0.36 7.59
8 6 8 -18.45 12.38
-6 8 -8 12.4 8.24
8 6 -8 -8.55 8.39
8 -6 8 2.27 15
6 8 -9 20.82 8.13
-8 -6 -9 -5.21 24.66
-6 8 -9 25.81 8.64
-8 6 -9 30.49 9.62
6 -8 9 38.58 17.18
8 -6 -9 24.04 18.34
-6 -8 -9 -13.57 25.96
8 6 9 16.98 11.76
6 8 9 4.93 12.34
6 -8 -9 17.31 20.55
8 6 -9 18.63 7.93
-8 6 -10 98.79 11.48
6 8 -10 87.59 10.54
-6 8 -10 86.82 10.38
6 8 10 93.61 14.36
8 6 -10 88.76 10.63
8 6 10 76.23 13.17
-8 6 -11 24.06 8.46
6 8 -11 12.93 7.5
8 6 11 14.63 9.21
-6 8 -11 13.33 7.5
6 8 11 9.67 9.71
8 6 11 5.17 9.49
8 6 -11 8.67 6.58
8 6 -12 3.94 6.07
6 8 -12 3.31 6.59
8 6 12 -0.26 8.56
6 8 12 1.87 8.84
-6 8 -12 5.81 6.53
8 6 -13 -1.05 5.78
6 8 -13 -7.61 5.97
6 8 13 -3.9 7.61
8 6 13 -4.27 7.66
-6 8 -13 -4.17 5.3
6 8 14 -3.79 6.68
6 -8 -14 0.48 4.64
6 8 -14 -3.62 4.79
8 6 -14 -1.09 4.67
8 6 14 4.2 6.35
-6 8 14 9.55 6.72
8 6 15 9.37 4.81
8 6 -15 0.1 3.51
8 -6 -15 6.91 3.8
6 8 -15 -3.61 3.76
6 8 15 4.92 5.07
-8 -7 0 0.72 11.2
8 -7 0 -6.01 12.01
-7 -8 0 1.92 13.46
7 -8 0 -1.05 13.92
7 -8 -1 -2.99 13.18
8 -7 1 8.89 13.26
-7 -8 1 3.56 11.2
7 -8 1 -9.44 15.63
7 -8 -1 -1.32 11.07
8 -7 -1 -5.38 11.92
8 -7 -1 -7.32 12.23
7 -8 2 6.61 14.68
-8 -7 -2 -5.99 9.4
8 -7 -2 -9.58 13.07
8 -7 2 -13.13 13.52
7 -8 -2 1.22 11.37
7 -8 -2 -12.44 12.87
-7 -8 -2 5.52 9.75
8 -7 -2 -4.12 11.77
-8 -7 -3 -1.25 11.5
-7 -8 -3 -1.13 11.18
8 -7 -3 1.25 11.65
8 -7 -3 -5.39 12.51
7 -8 -3 4.91 13.5
8 -7 3 0.97 12.57
7 -8 3 0.79 13.51
7 -8 -3 6.76 11.88
-8 -7 -4 -0.26 13.58
8 -7 4 -13.75 14.92
8 -7 -4 -8.69 13.1
7 -8 -4 -2.47 13.48
7 -8 -4 16.35 15.11
-7 -8 -4 -10.93 13.55
7 -8 4 4.53 14.82
-8 -7 -5 9.82 15.93
-7 -8 -5 7.57 16.76
7 -8 5 7.56 15.73
7 -8 -5 28.18 15.52
8 -7 5 14.09 14.01
8 -7 -5 18.92 16.07
-8 -7 -6 24.65 20.86
-8 7 -6 22.43 7.31
-7 -8 -6 27.91 20.69
-7 8 -6 23.14 7.92
7 -8 6 34.38 16.46
8 -7 -6 39.81 19.1
8 7 6 16.72 10.39
7 8 6 21.84 10.39
7 -8 -6 20.62 17.33
8 -7 6 35.73 16.54
7 -8 -7 -59.75 20.48
-8 -7 -7 -10.22 24.52
-7 -8 -7 25.8 24.99
-8 7 -7 -4.52 8.44
8 -7 -7 -1.06 18.76
8 -7 7 -7.5 13.94
8 7 7 6.44 11.14
7 8 -7 7.24 7
-7 8 -7 -0.13 7.45
7 8 7 1.84 10.02
8 7 -7 4.55 6.64
7 -8 7 5.76 14.56
-8 -7 -8 15.66 26.4
-7 -8 -8 56.87 28.25
-8 7 -8 32.22 9.68
-7 8 -8 30.81 9.18
7 8 -8 35.42 8.11
7 -8 8 35.69 16.81
8 -7 8 26.73 16.26
7 -8 -8 4.51 18.72
8 -7 -8 71.73 24.6
7 8 8 37.09 12.84
8 7 8 19.26 11.35
8 7 -8 24.22 8.27
-8 7 -9 58.46 10.49
8 7 -9 43.65 8.67
7 8 -9 49.41 9.42
7 8 9 50.62 13.29
-7 8 -9 56.21 10.48
7 -8 -9 46.31 21.28
8 -7 -9 51.44 21.4
8 7 9 39.34 12.54
7 8 -10 21.95 7.54
-7 8 -10 27.59 8.34
-8 7 -10 34.83 8.78
8 7 10 16.44 10.76
8 7 -10 26.33 7.68
7 8 10 4.17 10.17
-7 8 -11 8.51 6.79
7 8 -11 0.47 6.77
8 7 -11 6.6 7.04
7 8 11 6.78 10.31
8 7 11 1.35 9.34
-8 7 -11 1.69 6.78
8 7 12 -9.69 9.14
-7 8 -12 -0.86 5.96
7 8 -12 5.59 6.21
7 8 12 1.77 8.98
8 7 -12 1.43 5.9
-8 7 -12 4.1 6.46
-7 8 -13 6.69 5.42
7 8 -13 -1.77 5.69
7 8 13 -11.92 7.67
8 7 13 1.26 7.58
8 7 -13 6.97 5.84
7 8 -14 2.59 4.59
7 8 14 2.06 5.99
8 7 -14 -1.6 4.51
8 7 14 -4.95 6.34
-7 8 14 9.12 5.98
7 -8 -14 -4.37 4.5
7 8 -15 5.48 3.23
7 8 15 3.52 4.64
8 7 -15 2.07 3.23
-8 -8 0 722.18 33.84
8 -8 0 689.62 35.54
8 -8 -1 366.99 27
8 -8 -1 425.77 28.95
8 -8 1 419.76 30.61
8 -8 2 122.94 19.9
8 -8 -2 106.7 17.88
8 -8 -2 120.71 18.51
-8 -8 -3 26.47 11.95
8 -8 3 28.19 15.15
8 -8 -3 24.97 14.25
8 -8 -3 23.5 13.62
-8 -8 -4 -15.94 14.89
8 -8 -4 7.11 14.53
8 -8 4 -4.92 16.01
-8 -8 -5 11.32 16.65
8 -8 -5 20.81 17.22
-8 8 -5 12.38 7.64
8 8 5 -1.46 10.31
8 -8 5 -10.2 16.34
-8 8 -6 7.13 7.19
-8 -8 -6 2.51 20.92
8 -8 6 24.69 15.46
8 -8 -6 33.82 17.41
8 8 6 1.41 10.22
-8 8 -7 -3.59 8.98
-8 -8 -7 -30.03 26.86
8 -8 7 1.06 14.2
8 8 -7 -9.37 7.41
8 -8 -7 15.04 19.63
8 8 7 -0.67 10.6
8 -8 8 31.36 17.45
8 8 8 3.99 11.39
-8 -8 -8 26.03 26.63
-8 8 -8 29.04 8.98
8 8 -8 16.33 7.44
8 -8 -8 61.17 23.13
8 8 9 172.79 16.17
-8 8 -9 157.81 13.13
8 8 -9 170.54 12.34
8 8 -10 2.7 6.32
8 8 10 -5.29 10.26
-8 8 -10 -1.86 7.16
-8 8 -11 2.41 6.34
8 8 11 -1.73 9.66
8 8 -11 5.06 6.33
8 8 12 -2.89 8.71
8 8 -12 6.02 6.09
8 8 -13 1.94 5.2
8 8 13 -6.13 7.4
8 8 14 -3.4 5.68
8 8 -14 4.54 4.34
0 -9 0 11.7 8.56
0 -9 0 -3.55 13.43
0 -9 -1 173.26 20.73
0 -9 1 179.18 20.54
0 -9 -1 206.44 16.92
0 -9 1 190.33 14.06
0 -9 2 1967.63 54.86
0 -9 -2 2061.81 49.18
0 -9 -3 1288.27 41.12
0 -9 3 1331.67 47.36
0 -9 -4 608 32.65
0 -9 4 647.09 35.49
0 -9 -5 66.39 16.58
0 -9 5 82.78 19.52
0 -9 -6 13.7 16.54
0 -9 6 10.05 14.86
0 -9 -7 -7.53 17.83
0 9 -7 1.45 7.26
0 -9 8 55.58 17.71
0 9 -8 81.01 10.29
0 -9 -8 88.34 25.12
0 -9 -9 -0.45 23.05
0 9 -9 22.25 8.18
0 -9 9 41.27 16.42
0 9 -10 40.46 9.19
0 9 -11 121.46 12.06
0 9 11 130.38 13.9
0 9 -12 52.5 8.8
0 9 12 43.7 10.72
0 9 -13 43.27 8.64
0 9 13 45.67 10.01
9 0 -13 30.53 6.89
9 0 -14 22.42 5.92
0 9 -14 25.36 6.41
0 9 14 16.99 7.49
9 0 15 6.31 5.43
0 9 -15 1.07 4.1
9 0 -15 2.76 3.92
0 9 15 -2.61 5.66
1 -9 0 16.77 9.58
-1 -9 0 1.82 14.13
1 -9 0 19.13 13.4
-1 -9 0 10.14 8.02
1 -9 1 55.44 15.37
-1 -9 -1 58.7 11.55
-1 -9 1 37.61 8.34
1 -9 -1 52.22 11.85
-1 -9 1 48.74 15.03
1 -9 1 41.39 10.25
1 -9 -1 61.71 15.87
-1 -9 -1 43.51 16.35
1 -9 -2 -1.25 10.99
1 -9 -2 9.38 15.01
-1 -9 2 18.59 15.15
1 -9 2 19.53 15.2
-1 -9 -2 11.77 10.38
-1 -9 -3 72.1 14.23
1 -9 -3 54.79 14.08
-1 -9 3 62.69 16.57
1 -9 3 52.6 16.26
1 -9 -4 17.19 13.55
-1 -9 4 11.23 13.83
-1 -9 -4 30.74 13.84
9 -1 -4 20.28 10.2
1 -9 4 28.99 15.01
-1 -9 -5 61.13 17.25
-1 -9 5 94.26 19.5
1 -9 -5 68.37 16.51
9 -1 -5 54.4 12.37
1 -9 5 58.67 17.57
-1 -9 6 51.44 16.5
-1 -9 -6 45.12 18.15
1 -9 -6 61.29 18.06
1 -9 6 28.48 17.03
1 -9 7 -8.8 16.82
1 -9 -7 19.43 17.97
-1 9 -7 5.95 6.14
1 9 -7 13.29 6.47
-1 -9 -7 8.11 17.96
-1 -9 7 -14.46 15.76
1 -9 -8 7.89 19.51
-1 -9 -8 34.61 21.2
1 9 -8 24.4 7.66
1 -9 8 30.47 18.08
-1 9 -8 21.57 8.09
-1 -9 8 16.4 14.06
1 -9 -9 33.44 21.38
-1 -9 -9 33.45 25.08
1 -9 9 17.92 17.38
9 1 9 32.66 10.63
-1 9 -9 19.63 8.85
1 9 -9 25.48 8.63
-1 -9 9 14.26 15.5
1 9 9 59.27 14.13
-9 -1 -9 34.96 23.07
1 9 -10 21.46 8.41
9 1 10 15.44 9.08
1 9 10 36.37 12.69
-1 9 -10 19.97 8.74
9 1 11 2.31 8.29
-1 9 -11 0.66 7.59
1 9 11 14.76 10.49
1 9 -11 6 7.7
1 9 -12 1.53 6.62
-1 9 12 1.86 9.41
-1 9 -12 -3.55 6.88
1 9 12 8.05 9.29
1 9 13 11.86 8.79
-1 9 13 -0.57 7.92
1 9 -13 3.26 7.14
-1 9 -13 7.15 7.03
9 1 -13 -1.03 6
-1 9 -14 8.8 5.63
1 9 -14 3.93 5.52
1 9 14 6.04 6.98
-1 9 14 -12.22 7.36
9 -1 -14 7.98 5.25
9 1 -14 -0.2 5
1 9 -15 0.94 4.01
9 -1 15 13.21 5.87
9 1 15 6.57 5.1
9 1 -15 2.67 3.83
9 -1 -15 6.03 4.01
-1 9 -15 1.58 4.15
1 9 15 -0.39 5.56
-1 9 15 -1.43 5.42
-2 -9 0 3.59 8.13
2 -9 0 -10.89 13.52
2 -9 0 2.17 9.15
9 -2 0 6.08 5.39
-2 -9 0 1.69 14.27
9 -2 1 535.91 21.02
2 -9 -1 446.16 28.62
2 -9 1 491.2 23.18
-2 -9 -1 497.69 31.19
-2 -9 1 491.56 30.09
2 -9 1 456.1 28.43
-2 -9 -1 495.04 22.82
2 -9 -1 474.22 24.67
9 -2 2 403.66 20.38
2 -9 -2 344.3 22.46
-2 -9 2 370.75 26.27
2 -9 -2 354.82 26.3
-2 -9 -2 344.52 21.37
2 -9 2 333.98 25.78
9 -2 3 524.77 24.32
9 -2 -3 509.59 25.34
-2 -9 3 511.69 30.31
-2 -9 -3 504.91 27.53
2 -9 -3 485.34 27.79
2 -9 3 499.5 31.08
9 -2 4 327.51 21.48
-2 -9 -4 309.52 25.12
2 -9 -4 331.81 25.14
2 -9 4 330.82 27.55
-2 -9 4 278.68 24.15
9 -2 -4 314.4 21.71
-2 -9 5 134.26 20.79
2 -9 -5 138.33 20.37
-2 -9 -5 136.36 20.47
2 -9 5 127.07 21.18
9 -2 -5 140.12 17.52
9 -2 -6 63.58 14.59
-2 -9 -6 50.66 18.29
-2 -9 6 64.95 16.84
2 -9 6 53.59 16.68
2 -9 -6 70.62 19.17
-2 9 -7 -6.29 6.54
-2 -9 7 4.24 13.95
2 9 -7 2.07 6.43
2 9 7 -17.12 11.39
2 -9 7 2.33 15.67
-2 -9 -7 -7.11 19.9
2 -9 -7 0.46 18.02
2 -9 8 0.88 15.3
9 2 8 -9.86 10.39
2 -9 -8 6.31 19.32
2 9 -8 6.06 6.99
2 9 8 -1.51 11.83
-2 9 -8 -10.14 8.38
-2 -9 8 4.4 12.37
-2 -9 -8 -39.18 22.78
-2 -9 -9 112.53 29.8
2 -9 9 58.01 18.97
2 -9 -9 55.11 23.35
2 9 -9 65.65 9.88
-2 9 -9 77.2 10.23
9 2 9 73.05 12.33
2 9 9 88.65 14.73
-9 -2 -9 70.06 26.69
-2 9 -10 72.55 10.64
2 9 -10 68.99 10.74
2 9 10 90.17 14.11
9 2 10 55.21 11.27
-2 9 -11 12.96 6.97
2 9 11 20.55 10.33
9 2 11 10.42 8.58
2 9 -11 8.59 7.91
2 9 -12 61.1 10.05
-2 9 -12 53.14 9.29
9 2 -12 41.02 7.91
2 9 12 59.94 11.24
9 2 12 51.79 9.73
-2 9 12 65.2 11.7
-2 9 -13 34.14 7.43
2 9 -13 38.09 7.86
9 2 13 30.54 8.03
2 9 13 28.12 9.16
9 2 -13 32.14 7.23
-2 9 13 28.23 9.06
9 2 14 15.91 6.92
2 9 -14 13.93 6.32
9 2 -14 16.64 5.75
-2 9 -14 22.47 6.1
-2 9 14 19.48 7.46
2 9 14 4.08 6.84
9 -2 -14 9.62 5.42
2 9 -15 5.04 4.54
9 -2 -15 -7.1 4.52
9 2 15 1.98 4.41
-2 9 15 -3.04 5.26
9 2 -15 -3.34 3.81
2 9 15 -3.22 5.47
-2 9 -15 2.13 3.85
9 -3 0 642.07 22.83
-3 -9 0 593.77 21.32
3 -9 0 522.46 30.12
-3 -9 0 553.03 31.36
3 -9 0 572.01 26.62
9 -3 1 429.19 21.08
3 -9 -1 356.25 26.5
3 -9 -1 394.88 23.6
3 -9 1 364.05 26.17
-3 -9 1 379.43 26.96
-3 -9 -1 410.43 20.89
3 -9 1 391.04 22.25
9 -3 2 174.72 15.64
3 -9 2 158.53 20.15
3 -9 -2 153.37 19.89
-3 -9 -2 166.31 16.49
-3 -9 2 179.06 21
3 -9 -2 133.74 17.15
3 -9 -3 22.05 14.81
3 -9 3 -2.4 14.94
3 -9 -3 8.17 11.74
-3 -9 -3 17.44 11.23
9 -3 -3 2.91 10.76
-3 -9 3 -1.43 12.85
9 -3 3 -1.43 8.89
-3 -9 -4 6.18 11.68
-3 -9 4 -5.02 13.49
3 -9 -4 14.88 12.73
3 -9 4 18.1 14.82
9 -3 -4 0.01 10.03
9 -3 4 12.87 9.34
9 -3 -5 -3.28 11.58
9 -3 5 3.19 9.25
-3 -9 -5 0.81 14.57
3 -9 5 -18.19 15.02
3 -9 -5 4.11 13.58
-3 -9 5 6.58 13.52
3 -9 -6 14.45 16.37
9 -3 -6 7.25 12.72
9 -3 6 13.29 11.41
-3 -9 6 1.88 12.97
3 -9 6 15.34 16.69
-3 -9 -6 30.71 19.47
3 -9 7 24.41 16.08
-3 -9 -7 22.1 20.26
3 -9 -7 20.19 19.78
-3 9 -7 32.43 7.94
-3 -9 7 38.51 15.14
9 3 7 32.1 10.58
9 -3 -7 46.07 15.84
3 9 7 32.37 10.99
3 9 -7 45.38 8.5
3 -9 -8 32.65 19.85
3 9 -8 28.32 8.72
-3 9 -8 42.06 8.82
9 3 8 19.39 10.91
3 9 8 7.3 11.73
3 -9 8 34.78 16.37
-3 -9 -8 11.44 22.32
-9 -3 -8 7.73 21.27
-3 -9 -9 -1.15 24.12
3 -9 -9 -23.83 22.37
3 -9 9 0.27 14.84
9 3 9 -15.78 11.22
3 9 9 10.58 11.82
3 9 -9 8.58 8.32
-3 9 -9 9.22 7.69
-9 -3 -9 0.9 22.91
-3 9 -10 -0.57 7.26
3 9 -10 12.62 7.6
9 3 10 8.56 9.61
3 9 10 31.8 11.86
-3 9 -11 -0.35 6.44
9 3 11 5.33 8.76
3 9 -11 -0.22 7.49
3 9 11 10.48 10.58
-3 9 -12 0.4 6.89
9 3 -12 -2.26 6.4
3 9 -12 0.28 6.67
9 3 12 3.41 8.04
3 9 12 3.18 8.81
3 9 -13 -4.32 6.43
-3 9 -13 6.83 5.75
3 9 13 -0.1 7.97
9 3 13 -11.8 7.6
-3 9 13 3.39 8.24
9 3 -13 8.3 6.34
-3 9 -14 15.95 5.71
9 3 14 1.3 5.91
3 9 -14 8.23 5.84
3 9 14 5.46 6.5
9 3 -14 12.69 5.42
-3 9 14 9.39 6.95
9 -3 -14 0.94 4.72
9 3 14 9.98 6.22
3 9 15 2.2 5.31
-3 9 -15 14.96 4.26
9 3 -15 7.31 3.98
9 -3 -15 14.86 4.55
-3 9 15 1.79 5.05
3 9 -15 17.1 4.69
4 -9 0 2.16 13.39
4 -9 0 -2.08 9.56
-4 -9 0 8.89 14.14
9 -4 0 -3.95 8.7
-4 -9 -1 46.92 10.5
-4 -9 1 41.58 15.22
4 -9 -1 34.67 14.44
4 -9 -1 20.27 10.98
4 -9 1 54.1 15.5
9 -4 1 35.04 10.49
9 -4 2 185.17 16.92
-4 -9 -2 183.64 17.28
4 -9 -2 172.67 20.78
-4 -9 2 203.32 21.2
4 -9 -2 195.84 19.14
4 -9 2 165.85 20.79
9 -4 -2 202.59 18.93
9 -4 3 179.25 17.58
4 -9 -3 175.49 21.55
4 -9 3 155.45 20.88
9 -4 -3 182.49 18.69
-4 -9 3 166.88 19.2
-4 -9 -3 175.35 18.97
4 -9 -3 178.8 19.83
9 -4 4 120.07 15.77
-4 -9 4 116.79 17.46
4 -9 4 106.3 20.1
-4 -9 -4 111.73 17.41
4 -9 -4 89.88 16.73
9 -4 -4 128.05 17.93
4 -9 -4 124.04 19.57
9 -4 5 153.22 18.43
4 -9 -5 142.99 21.33
4 -9 5 151.87 22.76
4 -9 -5 151.19 21.58
-4 -9 -5 162.19 22.52
9 -4 -5 149.17 19.82
-4 -9 5 157.6 19.72
9 -4 -6 8.22 14.24
4 -9 -6 32.54 17.18
9 -4 6 20.07 12.1
-4 -9 -6 15.77 17.37
4 -9 6 14.32 15.91
4 9 7 6.61 10.81
9 4 7 4.73 10.2
-4 9 -7 6.71 7.73
-4 -9 -7 -6.25 21.13
4 -9 7 16.26 15.93
9 -4 -7 5.53 14.91
4 9 -7 5.17 6.82
9 -4 7 -3.28 11.88
4 -9 -7 -3.92 17.44
-9 -4 -7 -2.01 20.82
4 -9 -8 -11.71 19.29
-4 9 -8 13.25 7.97
4 9 -8 12.34 7.24
9 4 8 31.41 11.9
4 9 8 4.31 10.99
9 -4 -8 -5.88 16.99
4 -9 8 10.21 15.39
-4 -9 -8 16.66 23.19
-9 -4 -8 25.77 23.23
-9 -4 -9 -9.51 24.03
-4 -9 -9 28.68 25.03
4 -9 -9 15.65 21.17
-4 9 -9 -3.16 8.51
4 9 -9 1.77 7.46
9 4 9 2.02 10.55
4 -9 9 19.87 15.93
4 9 9 9.47 11.79
-4 9 -10 4.62 7.92
9 4 10 9.88 9.9
4 9 10 6.06 11.01
4 9 -10 10.28 7.23
-4 9 -11 53.31 9.16
4 9 -11 49.27 9.51
9 4 11 37.99 9.84
4 9 11 40.83 11.53
9 4 -11 52.05 9.01
4 9 -12 26.85 7.97
-4 9 -12 27.93 7.83
9 4 12 35.14 9.37
4 9 12 32.98 10.11
9 4 -12 24.34 7.31
9 4 -13 13.24 6.34
-4 9 -13 17.8 6.34
9 4 13 13 7.43
4 9 -13 6.16 5.73
4 9 13 4.96 7.89
9 4 13 11.84 7.3
-4 9 13 15.52 8.61
-4 9 -14 -0.74 4.55
4 9 -14 -5.06 5.2
9 4 14 4.05 5.84
9 4 -14 3.01 4.87
4 9 14 0.74 6.36
-4 9 14 5.8 6.73
9 -4 -14 -0.97 4.96
9 4 14 5.67 5.47
4 9 -15 1.04 3.69
4 9 15 -3.81 5.3
9 -4 -15 -0.69 3.77
-4 9 15 1.57 4.27
9 4 -15 -5.55 4
-5 -9 0 505.9 30.1
5 -9 0 555.76 28.02
5 -9 0 548.38 31.93
9 -5 0 517.41 25.57
5 -9 1 291.49 25.44
5 -9 -1 299.63 25.41
-5 -9 1 289.64 24.4
5 -9 -1 325.41 22.97
9 -5 -1 329.59 20.1
9 -5 1 286.49 20.44
5 -9 2 106.58 19.28
9 -5 2 106.41 15.21
9 -5 -2 133.49 17.65
-5 -9 -2 126.14 15.5
5 -9 -2 112.35 19.36
-5 -9 2 142.27 18.53
5 -9 -2 152.77 18.07
5 -9 3 81.97 17.99
9 -5 3 79.51 14.07
5 -9 -3 69.98 17.33
5 -9 -3 59.59 14.78
9 -5 -3 69 14.68
-5 -9 3 41.36 13.53
-5 -9 -3 71.35 13.87
5 -9 4 34.91 16.66
9 -5 4 35.85 13.45
5 -9 -4 28.71 13.88
9 -5 -4 34.29 14.11
-5 -9 4 42.98 12.76
-5 -9 -4 50.42 15.29
5 -9 -4 42.02 15.27
5 -9 -5 90.37 19.15
-5 -9 -5 99.73 20.27
-9 -5 -5 101.39 23.07
9 -5 5 97.27 16.2
5 -9 -5 114.49 20.08
5 -9 5 101.04 20.04
9 -5 -5 106.85 18.11
5 -9 6 148.28 22.9
9 -5 6 172.76 20.73
-5 -9 -6 159.5 26.33
5 9 6 186.68 14.64
5 -9 -6 151.06 23.34
9 5 6 190.06 14.73
5 -9 -6 153.28 24.28
9 -5 -6 196.96 23.57
-5 9 -6 179.46 12.66
-9 -5 -6 141.37 26.59
-5 9 -7 161.08 12.94
5 -9 7 169 24.96
9 -5 7 138.59 20.27
5 -9 -7 129.58 24.35
-9 -5 -7 157.19 28.99
5 9 -7 143.53 11.43
9 -5 -7 168.07 25.19
5 9 7 173.15 14.9
9 5 7 167.14 15.04
5 -9 -7 170.48 25.57
-5 -9 -7 163.97 31.65
-9 -5 -8 129.78 32.17
5 -9 8 109.06 23.21
-5 9 -8 131.93 12.62
5 9 -8 129.39 11.7
5 9 8 125.05 14.86
9 5 8 125.43 15.02
-5 -9 -8 88.09 28.14
9 -5 -8 184.63 26.6
5 -9 -8 131.73 25.4
-9 -5 -9 196 33.44
5 9 -9 144.17 12.54
-5 -9 -9 168.09 34.83
9 5 -9 131.32 11.97
5 -9 -9 125.69 27
5 9 9 148.53 15.95
9 5 9 127.6 14.34
5 -9 9 126.49 23.95
-5 9 -9 141.94 12.58
9 5 10 -4.05 10.19
-5 9 -10 7.88 7.16
5 9 10 2.79 10.6
9 5 -10 0.67 7.22
5 9 -10 3.64 6.87
9 5 11 12.27 8.99
-5 9 -11 -1.41 6.82
5 9 -11 4.96 7.14
9 5 -11 -0.06 6.75
9 5 11 1.76 8.86
5 9 11 11 10.52
-5 9 -12 2.04 6.16
9 5 12 2.65 7.63
9 5 -12 2.49 6.66
5 9 -12 0.99 6.82
9 5 12 2.33 8.26
5 9 12 -3.37 9.05
5 9 -13 11.5 6.59
5 9 13 12.45 8.02
-5 9 -13 5.23 5.45
-5 9 13 28.05 8.35
9 5 -13 12.37 6.19
9 5 13 4.47 7.25
9 5 13 13.86 6.52
5 9 -14 17.21 5.54
-5 9 -14 19.82 5.27
9 5 -14 10.93 4.79
9 5 14 9.29 5.96
5 9 14 7.42 6.42
-5 9 14 21.92 6.8
5 9 15 11.08 5.09
5 9 -15 18.37 4.09
9 -5 -15 7.59 3.9
9 5 -15 15.03 3.92
9 -6 0 -2.35 10.08
6 -9 0 -12.35 11.81
6 -9 0 9.82 14.36
-6 -9 0 0.81 13.54
-6 -9 1 8.9 13.78
9 -6 1 6.25 10.95
6 -9 -1 26.39 15.06
9 -6 -1 10.43 10.11
6 -9 -1 9.33 10.62
6 -9 1 1.12 13.82
-6 -9 -2 -2.95 9.98
6 -9 2 1.65 14.76
6 -9 -2 0.31 13.21
6 -9 -2 -4.77 12
-6 -9 2 2.02 11.68
9 -6 -2 -8.09 12.55
9 -6 2 -7.15 13.37
-9 -6 -2 -0.52 9.62
-6 -9 -3 30.62 11.55
6 -9 -3 49.89 15.57
9 -6 -3 27.51 13.59
6 -9 -3 42.07 16
9 -6 3 4.69 12.08
6 -9 3 48.82 17.38
-6 -9 3 37.02 13.35
-9 -6 -3 32.29 13.34
-6 -9 -4 66.64 15.66
6 -9 -4 79.28 17.31
6 -9 -4 59.74 17.41
9 -6 4 84.83 16.46
9 -6 -4 67.33 16.17
6 -9 4 94.67 19.89
-9 -6 -4 76.51 17.87
9 -6 -5 26.03 14.63
-6 -9 -5 18.17 16.88
6 -9 -5 30.61 17.86
6 -9 -5 -2.43 16.66
6 -9 5 6.26 16.29
9 -6 5 16.15 14.11
-9 -6 -5 25.95 18.64
-9 -6 -6 6.13 19.97
-6 -9 -6 -5.92 20.64
-6 9 -6 4.54 7.79
6 -9 -6 -13.34 18.04
9 -6 -6 -0.3 14.63
9 -6 6 -2.66 13.08
9 6 6 10.74 10.96
6 9 6 -4.09 9.4
9 6 6 -5.47 10.11
6 -9 6 -31.56 18.34
9 -6 7 -9.7 14.2
-6 -9 -7 -6.12 23.68
9 6 7 -13.37 11.96
9 -6 -7 -0.91 16.55
-6 9 -7 0.86 7.84
6 -9 -7 5.55 17.95
-9 -6 -7 -15.94 24.18
-9 6 -7 -3.8 8.92
6 -9 7 5.7 15.78
9 6 7 0.46 10.78
6 9 7 2.68 10.9
9 6 -7 -8.48 6.97
6 9 -7 -4.63 7.26
-9 -6 -8 55.34 28.18
9 6 8 -0.72 11.76
9 -6 -8 49.48 21.55
-9 6 -8 9.84 9.22
-6 -9 -8 -6.65 27.03
-6 9 -8 6.13 8.31
6 9 -8 5.67 7.94
6 -9 -8 6.18 19.1
9 6 8 -1.54 11.42
6 9 8 1.66 11.95
9 6 -8 -1.77 7.99
6 -9 8 0.76 15.58
9 -6 8 5.17 14.59
9 6 9 0.5 10.87
-6 9 -9 2.38 7.58
-9 6 -9 -2.15 9.03
6 9 -9 0.93 6.78
6 9 9 -3.81 12.02
9 6 -9 -0.34 6.75
9 6 9 -7.04 11.07
6 9 -10 2.63 6.74
-6 9 -10 8.48 7.34
9 6 10 15.19 10.5
6 9 10 -8.38 11.16
9 6 -10 5.51 6.49
9 6 10 3.07 9.19
6 9 -11 10.84 7.05
9 6 11 9.36 8.9
6 9 11 5.74 9.7
-6 9 -11 33.48 8.41
9 6 -11 19.29 7.5
9 6 11 18.35 8.99
-6 9 -12 8.99 6.09
9 6 -12 16.77 6.97
6 9 -12 1.91 6.54
9 6 12 12.79 8.75
6 9 12 0.73 8.77
-6 9 13 -0.11 7.28
9 6 -13 1.91 5.62
6 9 -13 -3.8 6.04
6 9 13 2.53 7.53
-6 9 -13 1.16 5.01
9 6 13 -6.39 7.6
9 6 14 1.55 5.82
6 9 -14 -2.17 4.46
6 9 14 -5.85 6.27
9 6 -14 -6.07 4.62
6 -9 -14 3.75 3.9
-6 9 14 5.87 5.76
6 9 -15 1.83 3.14
6 9 15 4.49 4.65
-7 -9 0 713.09 36.1
7 -9 0 726.52 38.5
9 -7 0 750.13 34.75
-7 -9 1 540.77 30.72
7 -9 -1 537.16 33.71
7 -9 1 518.19 34.2
9 -7 -1 557.38 29.31
7 -9 -1 510.53 30.61
9 -7 1 542.41 31.14
7 -9 -2 191.21 22.15
7 -9 2 154.44 22.82
7 -9 -2 192.15 21.42
9 -7 -2 211.13 22.49
9 -7 2 187.71 21.72
9 -7 3 -13.13 15.55
7 -9 3 10.38 16.26
-9 -7 -3 13.56 12.85
-7 -9 -3 0.76 11.16
7 -9 -3 30.79 16.17
7 -9 -3 7.35 12.99
9 -7 -3 2.32 13.09
-7 -9 -4 -12.35 13.29
-9 -7 -4 -3.71 14.39
9 -7 -4 -5.45 14.93
7 -9 -4 11.73 15.54
7 -9 -4 14.7 15.16
7 -9 4 -6.9 15.98
9 -7 4 3.47 12.11
9 7 5 104.45 12.41
-9 -7 -5 126.11 23.23
7 -9 5 101.48 21.28
-7 -9 -5 98.08 22.2
9 -7 -5 129.7 22.19
7 9 5 134.27 13.11
7 -9 -5 152.24 24.11
9 -7 5 144.16 20.66
-7 9 -5 127.33 10.82
9 7 -5 147.69 13.92
-9 7 -6 309.88 16.27
7 -9 6 333.96 32.47
9 -7 6 340.84 29.3
9 7 6 305.47 17.6
7 9 6 365.5 18.93
-7 -9 -6 274.5 31.57
-7 9 -6 320.52 16
9 7 6 362.69 19.3
-9 -7 -6 326.16 35.49
7 -9 -6 296.01 31.29
9 -7 -6 331.7 31.51
-7 9 -7 357.18 17.56
7 -9 7 295.84 29.98
9 -7 7 359.43 31.64
-9 7 -7 343.88 17.86
-7 -9 -7 310.46 38.35
7 9 -7 314.55 15.45
9 7 7 321.36 19.39
7 9 7 328.88 19.78
9 7 7 325.89 18.95
7 -9 -7 331.8 33.57
-9 -7 -7 353.52 42.32
9 -7 -7 335.48 33.68
-9 7 -8 167.7 13.87
-9 -7 -8 142.28 34.02
7 9 -8 204.57 13.57
9 7 -8 175.61 12.71
-7 -9 -8 183.46 33.56
-7 9 -8 166.72 13.48
7 -9 8 169.63 24.16
9 7 8 173.75 16.69
7 9 8 189.49 16.86
7 -9 -8 221.15 31.89
9 -7 -8 182.99 27.08
9 7 8 170.27 15.65
9 -7 8 193.77 25.33
7 9 -9 6.42 6.6
9 7 -9 3.02 6.67
-9 7 -9 13.03 8.84
-7 9 -9 11.15 7.31
9 7 9 10.12 10.18
9 7 9 18.18 10.73
7 9 9 -12.43 11.84
9 7 -10 94.66 10.16
9 7 10 84.18 12.99
-7 9 -10 73.89 10.05
7 9 -10 92.66 10.36
7 9 10 92.23 13.88
-9 7 -10 89.66 10.98
9 7 -11 3.01 6.23
7 9 -11 0.34 6.47
7 9 11 -14.48 10.3
9 7 11 -8.23 9.4
-7 9 -11 -2.95 6.45
7 9 -12 9.55 6.3
9 7 12 14.42 8.59
7 9 12 6.95 8.92
-7 9 -12 17.81 6.57
9 7 -12 9.61 6.26
9 7 13 9.63 7.18
7 9 -13 24.44 6.05
-7 9 13 24.61 7
9 7 -13 21.45 5.97
7 9 13 16.68 7.76
9 7 -14 22.69 5.03
7 9 -14 19.65 4.86
9 7 14 20.07 6.08
7 9 14 19.78 6.25
7 -9 -14 11.58 4.02
8 -9 0 -16 17.44
-8 -9 0 0.78 15.81
9 -8 0 1.87 13.81
9 -8 1 13.17 13.78
9 -8 -1 6.26 13.16
8 -9 1 7.44 15.59
8 -9 -1 -6.59 13.54
8 -9 -1 -9.2 15.15
8 -9 2 36.93 16.71
9 -8 2 24.45 15.57
9 -8 -2 18.03 13.79
8 -9 -2 15.94 15.57
8 -9 -2 3.97 12.71
8 -9 -3 27.2 15.43
9 -8 -3 11.22 14.61
8 -9 -3 23.74 16.13
8 -9 3 26.34 16.86
9 -8 3 -4.54 14.94
9 -8 4 -44.61 17.74
-9 -8 -4 -0.51 13.7
9 8 4 -5.14 11.21
-8 -9 -4 -8.62 14.7
9 -8 -4 -13.96 15.69
8 -9 -4 -1.5 16.7
8 9 -4 21.67 10.87
9 8 -4 1.49 8.76
8 -9 4 -9.46 19.48
8 9 4 -12.71 10.62
8 9 -4 -9.32 8.93
8 -9 5 -37.02 19.78
-9 -8 -5 1.13 17
8 9 5 -9.42 11.24
-8 -9 -5 8.3 17.06
8 -9 -5 13.85 16.09
9 -8 5 15.24 15.21
9 8 -5 11.41 11.18
9 -8 -5 2.45 16.25
9 8 5 -3.83 11.11
9 8 -5 12.72 11.31
-8 9 -6 31.32 8.88
8 9 6 3.27 11.43
-9 -8 -6 4.92 21.97
-8 -9 -6 33.33 19.71
9 8 6 9.41 11.03
8 -9 -6 59.38 21.43
8 -9 6 25.32 17.17
9 -8 -6 24.3 18.1
9 -8 6 25.55 15.11
-9 8 -7 9.89 9.09
8 -9 7 10.55 16.3
-9 -8 -7 12.84 27.11
-8 -9 -7 -32.42 27.06
-8 9 -7 9.63 8.55
8 -9 -7 8.89 19.28
9 8 7 -7.49 12.21
9 -8 7 -11.46 16.07
8 9 7 13.01 11.28
9 -8 -7 5.93 18.7
-9 -8 -8 -20.18 23.75
-8 -9 -8 -5.73 25.24
-8 9 -8 7.91 7.33
9 -8 -8 -11.02 19.44
8 9 -8 2.05 6.76
8 -9 -8 10.29 16.99
9 8 -8 8.57 6.85
9 8 8 -10.08 12.43
8 9 8 -4.67 11.25
-9 8 -8 -3.99 8.54
-8 9 -9 20.95 8.35
-9 8 -9 32.95 8.48
8 9 9 15.34 10.71
9 8 -9 36.57 8.16
8 9 -9 27.22 7.64
9 8 9 23.05 11.06
-8 9 -10 23.81 8.05
9 8 -10 17.84 7.15
8 9 -10 18.96 7.01
9 8 10 20.91 10.51
8 9 10 12.27 10.93
8 9 11 7.06 9.22
-8 9 -11 10.27 6.72
9 8 -11 5.47 5.86
8 9 -11 -6.55 6.33
9 8 11 4.75 9.38
9 8 12 -9.73 8.3
8 9 -12 -4.04 5.92
9 8 -12 0.97 5.5
8 9 12 -8.52 8.25
9 8 -13 -4.12 5.01
8 9 13 -1.04 6.82
9 8 13 -1.69 6.62
8 9 -13 3.5 4.95
9 8 -14 0.52 3.96
9 -8 -14 -5.87 4.1
8 9 -14 -2.88 3.8
8 9 14 -1.07 5.18
8 -9 -14 -4.59 3.46
9 8 14 -2.25 5.18
9 -9 0 496.61 33.56
9 -9 1 400.74 32.05
9 -9 -1 400.42 30.3
9 9 2 327.79 18.38
9 9 -2 330.86 17.5
9 -9 -2 285.03 26.84
9 -9 2 291.59 29.81
9 9 3 171.09 15.18
9 -9 -3 151.14 22.89
9 9 -3 189.34 15.24
9 9 -3 169.21 13.75
9 9 -4 57.44 11.37
9 -9 4 26.58 18.14
9 9 4 56.68 12.43
9 9 -4 78.63 13.21
9 -9 -4 32.72 16.87
-9 -9 -5 104.45 21.59
9 -9 5 127.04 23.47
9 -9 -5 126.84 23.71
9 9 5 111.63 14.13
-9 -9 -6 24.27 22.86
9 -9 6 61.31 19.74
9 -9 -6 60.62 20.23
9 9 6 36.34 11.56
-9 -9 -7 1.8 23.31
9 -9 7 8.32 16.47
9 -9 -7 -34.03 18.86
9 9 7 -12.08 12.73
9 9 8 16.36 11.56
9 9 -9 82.09 9.65
9 9 9 57.76 12.71
9 9 10 -12.77 10.99
9 9 -10 2.09 6.24
9 9 -11 -4.99 6.25
9 9 11 1.9 8.95
9 9 -12 -6.84 5.51
9 9 12 -0.25 7.64
9 9 -13 9.11 4.76
9 9 13 4.57 6.35
9 9 14 16.2 5.2
0 -10 0 241.68 24.95
0 -10 0 261.66 18.38
0 -10 -1 43.96 11.51
0 -10 1 35.47 9.31
0 -10 1 44.68 16.49
0 -10 -1 35.97 17.04
0 -10 -2 18.4 10.97
0 -10 2 17.45 15.22
0 -10 -2 20.29 16.03
0 -10 -3 17.43 13
0 -10 3 16.81 14.79
0 -10 4 121.77 20.75
0 -10 -4 128.37 18.4
0 -10 5 263.44 27.44
0 -10 -5 209.7 23.7
0 -10 -6 173.19 24.73
0 -10 6 185.23 24.43
0 -10 -7 9.5 19.1
0 -10 7 2.79 16.71
0 10 -7 -3.02 7.34
0 10 7 0.41 10.1
0 -10 8 8.57 17.12
0 -10 -8 9.45 22.86
0 10 8 11.16 11.59
0 10 -8 5.05 8.42
0 -10 9 -26.64 15.58
0 -10 -9 11.76 20.63
0 10 -9 6.08 6.92
0 10 9 24.85 11.67
0 10 10 72.11 12.25
0 10 -10 67.61 10.56
0 10 -11 39.23 8.5
0 10 11 35.14 10.3
0 10 -12 -1.07 7.2
0 10 12 6.83 8.74
10 0 -13 -8.54 6.23
0 10 -13 -5.01 6.09
0 10 13 -4.34 7.52
10 0 14 -3.16 6.28
10 0 -14 -0.38 4.42
0 10 -14 -3.8 5.47
0 10 14 -3.61 6.3
10 0 -15 2.39 3.66
10 0 15 -6.3 4.53
0 10 15 -0.27 4.96
0 10 -15 -2.35 3.79
-1 -10 0 -2.76 14.22
1 -10 0 -0.92 14.07
-1 -10 0 3.47 8.67
1 -10 0 1.38 10.09
1 -10 -1 84.77 18.97
-1 -10 1 59.69 16.38
1 -10 -1 71.73 12.83
1 -10 1 97.68 19.55
-1 -10 1 73.76 10.15
1 -10 1 66.31 11.47
-1 -10 -1 72.53 12.56
-1 -10 -1 80.54 18.53
-1 -10 -2 29.51 16.37
-1 -10 -2 24.32 12.33
1 -10 -2 28.29 15.89
1 -10 -2 19.77 11.41
-1 -10 2 42.46 17.32
1 -10 2 31.32 15.74
1 -10 -3 -1.99 11.73
-1 -10 -3 5.46 10.66
1 -10 -3 8.24 14.91
-1 -10 3 -9.22 14.53
1 -10 3 4.45 14.42
-1 -10 4 -38.53 17.93
-1 -10 -4 7.21 13.3
1 -10 4 -5.95 15.34
1 -10 -4 0.78 12.5
1 -10 5 54.93 19.16
-1 -10 5 58.3 18.61
-1 -10 -5 45.15 16.14
10 -1 -5 48.79 12.97
1 -10 -5 47.98 16.73
-1 10 -6 5.23 7.43
-1 -10 -6 31.49 18.23
1 -10 -6 11.77 16.16
-1 -10 6 8.7 14.68
1 -10 6 30 18.14
1 -10 7 -11.29 17.75
-1 -10 -7 6.12 18.26
-1 10 -7 -1.06 7.5
1 10 -7 -1.11 7.68
1 10 7 -10.68 10.54
-1 -10 7 10 15.25
1 -10 -7 1.83 17.56
1 -10 -8 5.26 21.19
-1 -10 -8 -7.15 21.68
-1 10 -8 -0.98 7.33
1 -10 8 16.43 17.71
-1 -10 8 -10.67 15.24
1 10 8 2.9 11.17
1 10 -8 -4.32 8.34
-1 -10 -9 14.96 20.63
1 -10 9 25.05 16.2
1 -10 -9 48.63 23.22
-1 10 -9 16.53 9.37
1 10 -9 9.97 7.58
1 10 9 23.98 12.1
-1 10 9 27.35 11.91
-10 -1 -9 12.78 22.1
1 10 -10 6.44 8.12
1 10 10 29.31 10.51
-1 10 10 24.39 10.67
-1 10 -10 18.23 8.54
1 10 -11 -3.11 7.48
-1 10 -11 9.95 7.65
1 10 11 14.61 9.72
-1 10 11 5.28 8.91
-1 10 -12 1.63 6.73
1 10 -12 0.61 6.28
1 10 12 4.54 8.69
-1 10 12 -3.4 8.47
-1 10 -13 3.29 5.83
1 10 -13 -3.32 6.37
-1 10 13 3.48 7.64
1 10 13 -16.41 8.2
10 1 -13 -6.05 5.94
10 1 14 -0.98 6.2
1 10 14 -0.26 6.23
-1 10 -14 -1.83 5.19
1 10 -14 2.61 4.87
10 1 -14 4.78 4.82
-1 10 14 1.74 6.15
10 -1 -14 -1.42 4.39
1 10 -15 -1.47 3.57
10 -1 15 1.55 4.76
10 -1 -15 -0.12 3.6
10 1 -15 4.26 3.67
1 10 15 -3.77 5.09
-1 10 15 3.64 4.68
-1 10 -15 -1.65 3.56
2 -10 0 63.26 12.18
-2 -10 0 90.87 11.69
2 -10 0 80.06 17.05
-2 -10 0 82.63 19.45
-2 -10 -1 95.88 13.52
10 -2 1 106.43 10.61
-2 -10 1 97.86 19.03
2 -10 1 119.38 19.84
2 -10 1 81.66 12.68
2 -10 -1 95.16 14.85
2 -10 -1 75.95 17.42
-2 -10 -1 116.96 20.03
2 -10 -2 14.44 15.19
-2 -10 -2 26.38 11.87
2 -10 -2 22.76 11.5
-2 -10 2 36.67 17.41
10 -2 2 20.42 8.49
2 -10 2 27.36 15.59
2 -10 3 4.55 14.26
10 -2 3 -10.04 8.94
-2 -10 -3 20.67 13.41
2 -10 -3 -1.02 12.68
-2 -10 3 -0.68 14.78
2 -10 -3 -0.92 14.23
-2 -10 4 19.13 15.29
10 -2 -4 18.32 10.3
-2 -10 -4 25.29 13.19
2 -10 -4 27.02 14.81
2 -10 4 28.98 17.36
2 -10 -5 54.6 17.14
-2 -10 5 56.6 17.53
10 -2 -5 57.02 14.74
-2 -10 -5 58.09 17.5
2 -10 5 58.21 19.87
2 -10 -6 53.15 19.91
-2 -10 6 41.24 17.35
-2 10 -6 46.1 8.73
2 -10 6 9.01 16.82
-2 -10 -6 48.61 18.98
2 -10 -7 74.63 21.75
2 10 -7 95.01 10.55
-2 -10 7 49.31 15.86
10 2 7 106.37 12.7
2 10 7 102.14 13.39
-2 -10 -7 79.54 23.56
-2 10 -7 77.97 9.68
2 -10 7 43.11 19.47
-2 -10 -8 51.79 24.35
2 -10 -8 64.82 22.42
10 2 8 66.11 11.74
2 10 -8 36.9 9.23
2 10 8 56.72 12.69
-2 10 -8 43.56 9.46
2 -10 8 50.91 19.57
2 -10 -9 7.25 20.02
10 2 9 18.06 10.03
2 10 -9 25.32 8.89
2 -10 9 24.56 14.7
-2 -10 -9 27.02 22.98
-2 10 -9 24.42 8.44
2 10 9 32.58 11.95
-10 -2 -9 31.69 20.74
-2 10 -10 -2.02 6.86
10 2 10 -1.2 8.47
2 10 10 7.99 10.27
2 10 -10 -0.45 7.42
2 10 11 5.97 9.18
2 10 -11 2.79 7.25
-2 10 -11 9.05 7.63
10 2 11 -4.69 8.17
-2 10 11 14.36 9.5
2 10 -12 0.04 7.17
2 10 12 6.09 8.25
-2 10 12 5.27 8.47
10 2 -12 -4.6 6.58
-2 10 -12 8.34 6.97
-2 10 -13 0.76 6.15
10 2 13 2.08 7.54
2 10 -13 0.69 5.67
2 10 13 0.26 7.51
10 2 -13 -3.29 5.09
-2 10 13 4.68 7.68
2 10 -14 0.74 5.28
10 2 14 3.37 5.96
-2 10 -14 0.4 4.66
-2 10 14 -4.04 6.19
10 2 -14 2.06 4.67
2 10 14 8.04 6.52
10 -2 -14 -1.53 4.82
2 10 15 -8.14 5.3
2 10 -15 5.18 3.92
10 -2 15 0.21 4.66
10 -2 -15 4.56 3.69
-2 10 -15 11.57 4.12
10 2 -15 5.31 3.82
-3 -10 0 8.09 16.06
3 -10 0 7.61 9.51
3 -10 0 4.54 13.51
10 -3 1 21.48 8.31
3 -10 -1 16.84 14.59
-3 -10 -1 9 14.28
-3 -10 1 9.96 14.6
3 -10 1 30.31 15.46
3 -10 -1 22.91 11.7
-3 -10 -1 14.11 10.46
3 -10 -2 24.63 12.3
3 -10 -2 15.9 14.73
-3 -10 2 7.18 13.85
10 -3 2 4.09 7.97
3 -10 2 12.52 14.99
-3 -10 -2 15.5 11.24
3 -10 3 11.47 14.77
10 -3 3 19.26 9.7
3 -10 -3 22.15 13.38
3 -10 -3 17.79 15.52
-3 -10 3 -6.95 14.06
-3 -10 -3 18.46 11.13
-3 -10 4 38.02 14.77
3 -10 -4 42.7 14.8
-3 -10 -4 51.73 16.52
3 -10 -4 36.74 16.39
10 -3 -4 48.72 13.28
10 -3 4 50.48 12.18
3 -10 4 40.24 16.57
-3 -10 -5 50.09 17.96
3 -10 -5 26.52 15.68
3 -10 5 46.68 19.27
10 -3 -5 43.77 13.62
10 -3 5 34.43 12.24
-3 -10 5 32.96 16.73
-3 10 -6 12.37 7.95
-3 -10 -6 9.11 17.68
3 -10 -6 6.77 15.87
10 -3 -6 9.46 13.4
3 10 6 2.91 9.24
-3 -10 6 5.55 15.2
3 -10 6 8.45 17.23
10 3 -6 0.07 10.58
-3 10 -7 4.21 6.59
10 3 7 -0.07 10.12
3 -10 7 -14.21 19.03
3 10 -7 -1.39 7.84
3 10 7 9.66 11.09
-3 -10 -7 -8.79 21.59
3 -10 -7 -16.92 19.94
-3 10 -8 1.77 8.21
10 3 8 7.08 11.22
-3 -10 -8 13.62 24.52
3 -10 -8 -40.46 22.76
3 -10 8 15.09 17.14
3 10 8 -5.7 11.28
3 10 -8 1.52 7.99
-10 -3 -8 22.77 23.11
-3 10 -9 -1.22 7.89
-3 -10 -9 -3.82 21.72
3 -10 9 -12.19 15.48
3 -10 -9 -3.54 20.5
3 10 -9 8.25 7.72
10 3 9 0.67 10.39
3 10 9 -2.58 10.81
-10 -3 -9 -3.85 22.61
-3 10 -10 2.36 7.45
3 10 -10 -2.33 7.73
10 3 10 -2.93 9.05
3 10 10 2.1 10.51
-3 10 -11 17.19 8.08
3 10 -11 21.18 8.42
3 10 11 22.11 10.03
10 3 11 17.45 8.55
-3 10 11 31.01 10.38
10 3 -11 20.02 7.55
-3 10 -12 2.67 6.02
3 10 -12 7.35 7.12
10 3 12 7.05 7.79
3 10 12 -5.87 8.78
10 3 -12 7.19 5.95
-3 10 12 6.67 8.56
10 3 13 1.32 6.3
-3 10 -13 6.15 5.81
10 3 13 3.07 6.94
3 10 -13 4.01 5.57
10 3 -13 3.82 5.6
3 10 13 -3.07 7.24
-3 10 13 6.36 7.62
-3 10 14 2.3 5.67
-3 10 -14 3.82 4.58
3 10 -14 7.9 5.3
3 10 14 -10.58 6.5
10 -3 -14 -1.95 4.79
10 3 14 15.77 6.07
10 3 -14 -2.82 4.64
10 3 -15 -1.13 3.44
3 10 15 -0.12 4.83
10 -3 15 -0.1 4.68
3 10 -15 2.55 3.41
10 -3 -15 1.88 3.33
-4 -10 0 57.08 17.25
4 -10 0 62.06 17.55
4 -10 0 48.03 12.12
4 -10 -1 94.62 18.63
10 -4 1 125.86 14.06
-4 -10 -1 96.06 18.97
-4 -10 1 109.86 19.54
4 -10 -1 103.83 16.18
4 -10 1 101.23 19.48
10 -4 2 26.72 10.74
-4 -10 -2 14.1 11.65
4 -10 -2 22.26 15.15
4 -10 -2 28.31 12.62
-4 -10 2 34.18 16.75
4 -10 2 8.58 14.52
4 -10 -3 3.84 14.27
4 -10 3 -24.94 17.68
-4 -10 -3 10.56 11.67
4 -10 -3 -2.66 11.98
10 -4 -3 -5.31 13.08
-4 -10 3 -0.34 14.07
10 -4 3 -9.98 10.84
-4 -10 -4 -2.83 12.51
4 -10 -4 8.26 15.36
-4 -10 4 -22.22 16.22
4 -10 4 9.44 15.11
4 -10 -4 -2.08 13.89
10 -4 -4 -2.67 12.8
10 -4 4 -2.46 10.06
-4 -10 -5 -0.78 15.88
-4 -10 5 17.87 15.49
4 -10 5 0.13 16.15
4 -10 -5 -0.12 14.71
10 -4 5 -3.65 10.11
10 -4 -5 -6.18 14.59
4 -10 -5 3.79 16.63
4 -10 -6 13.06 17.49
10 4 -6 21.41 12.37
10 -4 6 -1 12.74
-4 10 -6 16.35 8.27
-4 -10 -6 -12.84 17.7
4 10 6 16.97 9.9
4 -10 -6 -0.91 17.1
10 -4 -6 15.98 16.58
10 4 6 -24.25 11.34
4 10 -6 7.08 6.48
4 -10 6 -4.13 17.68
-10 -4 -7 14.78 22.6
4 10 -7 14.99 7.59
-4 -10 -7 8.39 21.27
-4 10 -7 17.52 8.23
4 -10 -7 23.94 19.49
10 -4 -7 6.65 16.09
10 4 7 21.73 11.48
4 10 7 7.74 10.58
4 -10 -7 18.54 20.67
4 -10 7 37.2 19.18
4 10 8 7.02 11.67
10 4 8 17.47 11.63
4 -10 8 10.86 16.75
4 10 -8 9.6 7.76
4 -10 -8 18.51 22.32
-4 -10 -8 -11.09 26.1
-4 10 -8 21.52 8.85
-10 -4 -8 21.67 25.4
10 4 9 7.06 10.27
4 10 9 -4.26 11.33
4 10 -9 8.72 7.15
-4 10 -9 13.07 8.18
4 10 -10 -3.91 7.61
-4 10 -10 6.62 7.42
10 4 10 7.86 9.38
4 10 10 -2.86 10.75
4 10 -11 -5.4 7.37
10 4 11 7.08 9.74
-4 10 -11 7.23 7.46
10 4 11 -8.22 8.93
4 10 11 0.48 9.15
10 4 -11 0.05 6.29
4 10 -12 -7.8 7.22
-4 10 -12 3.13 6.08
4 10 12 -1.63 8.31
10 4 -12 0.14 6.3
10 4 12 8.86 8.13
-4 10 12 3.24 7.97
10 4 12 6.46 8.24
10 4 -13 -1.66 5.36
-4 10 -13 2.52 5.6
10 4 13 6.12 6.56
4 10 -13 2.08 5.61
10 4 13 -2.64 7.02
4 10 13 -8.3 8.12
-4 10 13 4.36 7.17
10 4 14 5.15 4.98
4 10 -14 2.82 4.67
4 10 14 -1.69 6.09
10 4 -14 1.03 4.29
-4 10 -14 5.74 4.54
-4 10 14 -1.68 5.58
10 -4 -14 -2.66 4.71
10 -4 15 3.33 4.36
4 10 -15 5.07 3.25
4 10 15 5.66 4.65
10 -4 -15 2.27 3.26
-5 -10 0 -5.92 14.96
5 -10 0 16.2 15.08
5 -10 0 -1.14 11.28
-5 -10 -1 -4.96 14.26
10 -5 1 0.39 8.97
5 -10 -1 12.25 14.73
-5 -10 1 10.44 14.83
5 -10 -1 3.99 10.68
5 -10 1 -8.89 15.14
5 -10 2 4.52 15.26
5 -10 -2 -1.42 15.22
-5 -10 2 18.77 15.49
10 -5 2 11.41 10.04
5 -10 -2 17.44 12.56
-5 -10 -3 78.02 16.08
5 -10 -3 70.83 17.69
5 -10 -3 88.97 17.5
10 -5 -3 68.5 15.74
10 -5 3 84.2 14.36
-5 -10 3 73.64 15.78
5 -10 3 98.52 20.89
-5 -10 -4 90.67 18.31
5 -10 -4 69.23 18.61
10 -5 -4 85.63 17.19
5 -10 4 92.1 20.05
5 -10 -4 102.38 19.44
10 -5 4 87.64 15.27
-5 -10 4 91.32 17.45
5 -10 -5 66.23 20.37
-5 10 -5 54.41 9.05
-10 -5 -5 63.52 20.59
5 -10 -5 30.17 16.17
5 10 5 42.24 10.97
10 -5 -5 32.53 15.27
5 -10 5 43.7 17.78
10 -5 5 29.01 12.77
-5 -10 -5 46.87 17.99
10 5 -5 68.67 12.07
5 -10 6 -8.38 16.72
10 5 6 1.02 11.01
5 -10 -6 12.82 19.06
5 -10 -6 7.34 16.87
10 5 6 -8.2 11.44
10 -5 6 -0.41 13.97
-5 10 -6 22.35 7.49
10 -5 -6 9.67 15.15
5 10 -6 9.86 7.3
5 10 6 13.76 10.31
-5 -10 -6 15.41 19.92
-10 -5 -6 36.82 22.45
10 -5 7 -18.27 15.61
-5 10 -7 9.62 8.49
5 -10 7 26 18.64
10 5 7 -5.39 11.68
5 -10 -7 -11.67 20.43
5 10 -7 2.38 7.57
10 5 7 -2.06 11.58
5 10 7 -3.32 11.2
-5 -10 -7 6.32 23.55
10 -5 -7 -13.32 17.86
-10 -5 -7 -12.41 24.37
-10 -5 -8 24.1 26.53
-5 10 -8 3.24 7.32
5 -10 -8 -2.26 19.81
-5 -10 -8 -4.69 24.96
10 5 8 -3.08 12.14
10 5 8 -4.17 11.09
5 10 8 -9.22 12.4
5 10 -8 -0.26 8.04
5 -10 8 2.29 16.19
10 5 9 -3.25 11.32
10 5 9 -5.37 10.15
5 10 9 -14.36 12.09
10 5 -9 -6.8 7.24
5 10 -9 -6.05 7.65
-5 10 -9 2.44 7.24
-5 10 -10 7.73 7.26
10 5 10 11.84 10.42
5 10 -10 6.44 6.47
10 5 10 3.21 9.44
5 10 10 0.94 10.65
10 5 -10 2.26 6.78
-5 10 -11 14.84 7.35
5 10 -11 11.31 6.86
10 5 11 12.38 8.99
5 10 11 3.89 9.36
10 5 -11 7.71 6.16
10 5 11 34.63 10.22
5 10 -12 6.32 6.36
-5 10 -12 10.74 6.39
10 5 12 0.15 7.33
10 5 -12 6.31 6.32
10 5 12 -6 8.67
5 10 12 -2.25 8.36
-5 10 12 10.28 7.91
10 5 13 -3.53 6.82
-5 10 -13 7.2 5.52
10 5 13 -6.25 6.04
5 10 -13 5.07 5.25
10 5 -13 2.1 5.21
5 10 13 -4.49 7.37
-5 10 13 2.52 6.96
10 5 14 -6.61 5.22
-5 10 14 -1.29 4.98
5 10 -14 0.28 4.17
5 10 14 -3.08 5.97
10 -5 -14 -2.93 4.33
10 5 -14 2.48 4.2
-6 -10 0 7.82 15.04
6 -10 0 3.92 11.49
6 -10 0 -9.4 15.51
10 -6 1 -6.25 11.98
-6 -10 -1 -0.67 14.2
-6 -10 1 -18.84 15.65
6 -10 -1 -8.39 12.03
6 -10 -1 -3.69 14.67
6 -10 1 2.77 14.97
6 -10 2 -1.45 16.1
10 -6 2 -2 11.04
-6 -10 2 2.08 13.63
6 -10 -2 5.17 16.55
6 -10 -2 -3.8 12.95
-6 -10 -3 10.36 12.46
6 -10 3 1.75 14.59
10 -6 3 27.47 11.51
6 -10 -3 2.74 15.37
6 -10 -3 14.28 14.67
10 -6 -3 11 13.95
-10 -6 -3 20.85 13.39
6 -10 4 4.94 16.56
6 -10 -4 -9.47 16.84
6 -10 -4 36.58 16.17
10 -6 -4 7.91 13.57
10 -6 4 8.62 12.23
-10 -6 -4 -0.92 15.09
-6 -10 -4 14.32 15.44
-6 -10 -5 1.35 16.14
10 6 5 3.72 9.8
-6 10 -5 12.67 6.85
10 -6 5 -14.5 14.13
6 -10 -5 1.65 14.57
10 6 5 -8.57 10.78
6 10 5 2.17 9.36
10 -6 -5 5.69 15.54
6 -10 -5 29.72 19.08
6 -10 5 1.62 16.37
10 6 -5 10 11.25
-10 -6 -5 -3.87 17.25
10 -6 6 -9.21 15.2
-6 -10 -6 39.53 20.67
6 -10 -6 -3.25 18.14
-6 10 -6 -2.62 7.83
10 6 6 -7.92 12.31
10 6 6 -2.47 11.1
10 -6 -6 12.57 17.12
6 10 6 15.5 10.95
6 -10 6 -18.48 18.96
-10 -6 -6 10.11 21.6
-10 -6 -7 20.15 24.82
-6 10 -7 -0.38 7.88
10 -6 7 14.67 14.73
10 6 7 3.66 11.61
6 -10 -7 -17.96 20.55
10 -6 -7 18.84 18.81
10 6 7 -26.4 13.09
6 10 7 7.06 11.35
6 -10 7 18.34 17.49
-6 -10 -7 -12.7 23.87
6 10 -7 -0.05 7.22
10 6 8 5.39 11.5
-6 -10 -8 -18.6 24.84
-10 -6 -8 44.88 27
6 -10 8 -2.87 15.03
-6 10 -8 10.2 8.62
6 10 -8 -2.13 7.46
10 -6 -8 9.19 18.92
10 6 8 -10.08 12.22
10 6 -8 -7.98 7.7
6 10 8 -11.64 11.98
6 -10 -8 11.18 20.3
6 10 -9 15.59 7.47
10 6 9 6.66 10.66
-6 10 -9 23.79 8.39
6 10 9 19.77 10.84
10 6 9 17.37 11
10 6 -9 26.64 7.79
-6 10 -10 2.49 7.43
6 10 -10 -1.79 7
10 6 10 -1.49 9.18
10 6 10 -6.79 10.09
6 10 10 5.71 11.03
10 6 -10 4.82 6.32
10 6 11 -3.76 7.95
10 6 11 -5.75 9.11
6 10 -11 -1.35 6.29
-6 10 -11 4.17 6.66
10 6 -11 -2.61 6.37
6 10 11 -10 9.9
-6 10 -12 3.7 5.93
10 6 -12 -7.35 5.79
10 6 12 -8.62 8.19
6 10 12 -9.64 8.65
-6 10 12 -6.61 7.6
10 6 12 -8.05 6.74
6 10 -12 1.36 5.72
6 10 13 -9.62 7.44
10 6 13 -0.79 6.78
6 10 -13 1.62 4.87
-6 10 13 2.41 5.93
10 6 -13 3.16 4.82
10 6 -14 -4.42 4.16
6 10 -14 0.88 3.97
10 6 14 4.92 4.94
6 10 14 1.99 5.51
10 -6 -14 6.71 4.44
10 -7 0 -3.98 11.7
-7 -10 0 8.59 16.43
7 -10 0 -0.08 15.38
7 -10 1 1.13 17.39
-7 -10 -1 0.6 16.35
-7 -10 1 1.95 14.97
7 -10 -1 4.42 12.68
7 -10 -1 5.75 15.6
10 -7 1 7.6 12.7
10 -7 2 9.83 13.06
7 -10 -2 12.45 13.17
7 -10 -2 35.07 17.42
7 -10 2 37.39 18.52
10 -7 3 32.38 14.09
7 -10 -3 17.76 18
7 -10 3 14.65 18.13
7 -10 -3 37.04 18.41
10 -7 -3 12.14 15.32
-10 -7 -4 22.15 16
10 7 -4 37.51 10.05
-7 -10 -4 14.2 14.06
10 7 4 26.23 10.08
7 -10 -4 19.82 16.29
7 -10 -4 35.58 18.62
10 7 4 26.25 11.44
7 10 4 10.42 10.77
10 -7 4 49.64 16.12
7 -10 4 13.25 16.77
10 -7 -4 11.26 14.6
10 7 -4 29.8 9.98
-10 -7 -5 -1.16 17.23
10 -7 5 11.45 14.11
10 7 -5 39.57 12.3
-7 10 -5 18.42 8.23
10 7 5 14 10.13
10 7 5 9.38 11.41
7 10 5 8.85 10.15
10 -7 -5 15.98 16.51
7 -10 -5 27.49 18.64
10 7 -5 51.93 11.55
-7 -10 -5 25.01 17.26
7 -10 5 15.82 16.38
-10 -7 -6 69.75 24.94
10 7 6 80.37 12.55
-7 10 -6 83.36 10.74
7 -10 6 85.88 22.12
10 7 6 73.14 13
7 -10 -6 89.79 21.66
10 7 -6 98.85 12.63
10 -7 6 89.49 19.5
7 10 6 58.96 12.52
10 -7 -6 83.75 20.48
-7 -10 -6 46.61 20.92
-7 -10 -7 21.37 23.68
-7 10 -7 38.81 9.34
-10 -7 -7 73.42 29.47
10 -7 7 56.61 17.26
7 -10 -7 53.96 22.42
10 7 7 35.07 12.65
10 -7 -7 26.34 18.13
10 7 7 11.62 11.85
7 10 7 53.21 12.89
7 -10 7 59.16 20.19
10 7 8 -11.05 11.11
7 10 -8 4.21 6.82
10 7 8 -6.11 12.24
7 10 8 -3.08 11.47
10 7 -8 6.59 6.96
-7 10 -8 -2.73 7.93
10 7 -9 15.47 7.18
7 10 -9 11.02 6.49
10 7 9 -4.23 11.14
7 10 9 15.68 11.14
10 7 9 28.51 10.1
-7 10 -9 18.5 8.4
10 7 10 15.18 8.91
-7 10 -10 17.35 7.88
10 7 10 1.64 10.18
10 7 -10 15.65 7.21
7 10 10 12.67 10.54
7 10 -10 15.8 7.16
7 10 -11 -2.1 6.15
7 10 11 -5.35 9.41
10 7 11 -15.36 9.65
10 7 -11 -2.45 5.97
-7 10 -11 17.79 7.37
10 7 -12 5.99 5.77
10 7 12 -1.48 7.68
7 10 -12 6.54 5.77
7 10 12 6.76 8.34
10 7 13 4.93 6.52
10 7 -13 -2.03 4.92
7 10 13 -0.41 6.58
7 10 -13 3.07 4.62
10 7 -14 4.35 3.68
7 10 -14 8.92 4.13
10 7 14 9.21 4.96
7 10 14 1.7 5.09
10 -7 -14 1.92 3.88
8 -10 0 68.65 19.36
10 -8 0 104.04 19.03
8 -10 1 66.01 19.91
10 -8 1 36.99 15.38
8 -10 -1 38.1 17.72
-8 -10 -1 40.46 18.46
10 8 -2 71.93 12.47
8 10 2 61.27 12.38
8 -10 2 43.52 18.78
10 8 2 53.08 11.8
8 -10 -2 41.13 15.53
8 10 -2 79.1 12.53
8 -10 -2 55.09 19.21
10 8 -2 42.93 10.74
10 -8 2 31.37 15.57
8 10 -3 40.02 11.02
10 8 3 45.14 12.2
8 -10 3 44.17 19.91
8 -10 -3 23.7 16
8 10 3 37 11.76
8 -10 -3 37.88 17.69
10 -8 -3 19.53 15.02
10 8 -3 64.2 12.27
10 8 -3 55.84 11.78
10 8 3 41.12 11.1
10 -8 3 10.94 15.89
10 8 4 31.91 10.06
8 10 4 30.91 11.31
10 -8 4 38.03 16.48
8 -10 -4 24.38 15.89
10 8 4 34.17 11.84
10 -8 -4 29.96 17.74
10 8 -4 51.58 11.74
8 -10 4 9.78 18.11
10 8 4 26.08 10.65
10 8 -4 25.87 11.68
-10 -8 -5 15.88 17
8 10 5 23.39 11.55
8 -10 -5 40.39 17.86
10 8 5 38.01 10.93
10 -8 -5 30.65 17.28
10 8 -5 42.84 11.94
8 -10 5 5 16.68
10 -8 5 17.98 16.16
10 8 5 20.34 11
10 8 -5 39.18 12.32
-10 -8 -6 -27.26 23.94
10 -8 -6 -13.03 19.11
10 8 6 12.52 10.37
8 10 6 -20.61 12.5
8 -10 -6 -19.48 18.64
10 8 6 -9.05 11.43
-8 -10 -6 -13.26 20.93
8 -10 6 17.18 17.93
10 -8 6 -3.96 15.66
10 -8 7 4.36 14.49
-10 -8 -7 10.34 24.58
10 8 7 28.01 11.05
-8 -10 -7 22.08 23.66
10 -8 -7 33.27 17.35
8 -10 -7 3.05 16.88
8 10 7 -12.26 12.92
8 -10 7 25.39 16.83
10 8 7 -7.41 12.63
-8 10 -7 18.13 9.03
10 8 8 16.98 9.91
-8 10 -8 27.19 8.77
8 10 -8 12.86 6.79
10 8 8 -8.44 11.8
8 10 8 3.89 11.86
8 10 -9 -0.96 6.45
10 8 -9 4.38 6.19
10 8 9 -13.53 11.54
8 10 9 -10.29 12.1
-8 10 -9 8.59 7.02
10 8 10 4.16 10.23
8 10 -10 19.26 6.93
10 8 -10 10.63 6.63
8 10 10 1.8 10.7
8 10 -11 -2.34 6.04
10 8 -11 0.27 5.49
10 8 11 -4.27 9.21
8 10 11 12.26 9.27
8 10 -12 -1.66 5.15
10 8 12 -1.47 7.42
10 8 -12 -5.85 5.33
8 10 12 1.83 7.77
8 10 13 7.75 6.54
10 8 13 1.24 6.03
8 10 -13 -4.63 4.62
10 8 -13 -2.61 4.43
10 -8 14 7.77 4.53
8 10 14 5.92 4.91
10 -8 -14 -3.82 3.59
10 9 0 4.53 9.54
9 -10 0 17.32 19.39
10 9 0 -19.9 11.44
10 -9 0 -5.96 14.62
9 10 0 -19.09 11.98
9 10 0 21.56 11.12
10 9 0 -2.47 10
10 9 -1 28.04 11.38
10 9 -1 39.18 9.93
9 -10 -1 13.99 18.65
9 -10 1 45.69 18.82
10 9 1 -2.04 13.14
10 -9 1 43.4 17.82
10 9 1 37.31 10.36
9 10 -1 48.71 12.11
9 10 1 0.36 12.55
9 10 -1 63.71 12.4
9 10 1 66.06 11.85
10 9 -1 46.96 11.85
10 9 1 32.88 10.39
9 10 -1 43.9 10.99
9 10 -2 102.38 12.51
9 10 2 119.04 14.58
10 9 -2 90.89 12.27
9 -10 2 83.34 22.35
9 10 -2 107.5 13.41
10 9 -2 125.58 14.67
10 9 -2 120.42 14.09
10 9 2 74.87 10.88
10 9 2 124.64 14.99
10 9 2 92.95 12.4
9 -10 -2 83.9 19.02
9 10 -2 109.9 13.57
9 10 2 116.17 13.31
10 -9 2 102.35 21.01
10 -9 3 25.82 16
9 10 -3 131.64 14.78
10 9 -3 90.77 13.29
10 9 3 91.42 13.44
9 10 3 95.71 13.5
9 -10 -3 87.68 20.55
10 -9 -3 42.12 16.53
9 10 3 102.41 13.05
10 9 -3 103.94 13.36
10 9 3 90.99 12.41
9 10 -3 88.31 13.02
10 9 3 67.45 11.2
9 -10 3 51.96 21.22
9 -10 4 0.15 18.8
10 -9 4 31.22 18.09
10 9 4 29.5 9.82
10 9 4 43.74 12.31
9 10 4 42.2 11.86
9 -10 -4 32.21 18.3
10 -9 -4 42.05 17.23
9 10 4 56.46 12.06
10 9 -4 75.54 13.52
10 9 -4 45.61 11.39
10 9 4 69.48 12.41
9 10 -4 49.35 11.27
10 9 5 39.21 10.35
9 -10 5 28.51 18
9 -10 -5 24.53 18.89
10 9 5 20.22 11.88
9 10 5 34.48 11.68
10 -9 -5 20.8 17.94
10 -9 5 42.38 18.26
10 9 6 -17.55 12.16
10 -9 6 -10.24 15.45
9 10 6 -6.28 11.95
9 -10 -6 -1.21 18.32
10 -9 -6 13.23 18.91
9 -10 6 25.4 16.98
9 10 7 -14.03 12.21
10 9 7 -21.19 12.38
9 10 8 -6.63 11.7
10 9 8 -3.46 11.02
9 10 -9 1.68 6.32
10 9 9 -13.31 11.36
9 10 9 -2.58 11.56
9 10 -10 -3.37 6
10 9 -10 0.68 6.13
10 9 10 -4.08 10.37
9 10 10 -3.85 10.28
9 10 -11 -3.27 5.52
10 9 -11 1.17 5.75
9 10 11 14.17 9.53
10 9 11 7.19 8.79
10 9 12 1.39 7.12
9 10 -12 6.42 4.86
10 9 -12 -1.73 4.81
9 10 12 -0.2 7.33
10 9 -13 5.32 4.08
9 10 -13 -1.23 3.97
10 9 13 6.15 5.84
9 10 13 0.39 5.73
10 10 0 63.04 11.47
10 -10 0 65.24 20.78
10 10 0 34.26 12.48
10 10 0 86.47 13.4
10 10 -1 65.83 11.53
10 10 1 97.07 13.48
10 -10 1 72.93 21.73
10 10 1 74.74 11.78
10 10 -1 69.62 13.54
10 10 1 49.25 12.89
10 10 -1 99.6 13.84
10 10 -2 8.67 10.52
10 10 -2 44.66 13.07
10 10 2 11.24 9.48
10 10 2 33.62 12.82
10 -10 2 14.18 18.74
10 10 -2 36.8 11.77
10 10 2 46.65 12.38
10 -10 3 -24.57 21.21
10 10 -3 6.08 10.95
10 10 3 14.17 11.34
10 -10 -3 -10.46 17.02
10 10 -3 27.57 12.59
10 10 3 22.23 11.42
10 10 4 2.97 11.75
10 -10 4 -0.84 18.21
10 -10 -4 0.1 16.83
10 10 4 15.25 11.25
10 10 -4 4.34 10.08
10 10 5 14.76 12.1
10 -10 5 6.2 16.61
10 -10 -5 14.18 19.6
10 -10 6 -6.86 15.77
10 10 6 -2.61 11.7
10 10 7 -7.45 11.06
10 10 8 -3.88 11.15
10 10 9 -2.85 10.74
10 10 10 0.13 9.54
10 10 11 3.95 8.42
10 10 12 -3.99 6.89
10 10 13 3.72 5.28
0 -11 0 1.83 9.73
0 -11 0 -20.24 16.79
0 -11 -1 486.07 34.73
0 -11 1 528 34.94
0 -11 -1 502.75 26.46
0 -11 -2 398.95 26.63
0 -11 -2 383.39 31.95
0 -11 2 380.38 31.82
0 -11 -3 568.49 37.55
0 -11 -3 587.94 32.09
0 -11 3 612.85 38.63
0 -11 -4 264.91 25.64
0 -11 4 265.59 28.79
0 -11 -5 202.14 23.9
0 -11 5 209.95 27.61
0 -11 -6 10.43 17.18
0 11 -6 2.47 7.52
0 -11 6 -2.97 17.97
11 0 -6 0.33 9.65
0 -11 7 -6.63 17.66
0 -11 -7 29.13 20.18
0 11 -7 15.07 8.42
0 11 7 17.39 9.81
0 11 -8 30.16 8.12
0 -11 8 22.24 18.57
0 11 8 26.78 11.31
0 -11 -8 4.28 20.99
0 11 -9 50.44 9.62
0 11 9 32.16 10.55
0 11 -10 58.67 9.94
0 11 10 45.13 10.18
0 11 -11 42.32 8.8
0 11 11 38.52 9.68
0 11 -12 53.35 9.03
0 11 12 51.79 9.35
0 11 -13 22.76 6.3
11 0 13 33.39 8.82
0 11 13 9.91 6.95
11 0 -13 18.29 5.7
0 11 -14 2.85 4.75
11 0 14 -3.12 5.93
0 11 14 0.52 5.64
11 0 -14 -0.58 4.14
0 11 -15 7.73 3.5
11 0 -15 -1.42 2.96
1 -11 0 30.54 16.62
1 -11 0 50.47 12.17
-1 -11 0 37.45 17.68
-1 -11 0 31.66 10.3
-1 -11 1 -4.14 15.51
-1 -11 -1 -3.66 17.26
1 -11 1 28.44 16.77
-1 -11 -1 10.57 10.84
1 -11 -1 7.05 10.61
1 -11 1 7.08 9.11
1 -11 -1 2.15 15.89
1 -11 -2 6.24 16.65
-1 -11 -2 17.77 12.73
1 -11 -2 12.84 11.45
1 -11 2 8.32 16.17
-1 -11 2 16.79 16.84
-1 -11 -2 23.29 18.03
-1 -11 -3 40.31 13.8
1 -11 -3 37.88 18.85
1 -11 -3 24.13 13.55
-1 -11 3 25.24 16.7
1 -11 3 33.38 17.21
1 -11 -4 19.78 18.23
-1 -11 4 16.5 16.18
-1 -11 -4 12.78 14.17
1 -11 -4 18.87 14.98
1 -11 4 17.56 16.34
-1 -11 -5 -10.86 16.17
-1 -11 5 3.41 17.08
1 -11 -5 5.49 14.92
1 -11 5 21.35 19.34
11 1 -6 -1.18 10.1
-1 11 -6 4.58 6.66
1 -11 -6 -6.07 16.51
-1 -11 -6 -4.32 16.62
1 11 -6 -5.87 7.7
-1 -11 6 3.19 17.36
1 -11 6 -17.26 17.79
1 11 6 -6.81 9.12
1 -11 7 -22.09 20.79
-1 -11 7 -17.45 20.96
-1 -11 -7 -13.52 19.62
1 11 -7 19.15 8.95
-1 11 -7 10.37 8.46
1 11 7 3.25 9.89
-1 11 7 8.53 9.37
1 -11 -7 22.32 19.5
1 11 -8 0.62 7.15
-1 11 -8 6.78 7.29
1 -11 8 6.08 17.42
-1 -11 8 -0.15 18.03
1 11 8 9.91 11.08
-1 11 8 -0.15 10.1
1 -11 -8 -0.65 20.15
-1 -11 -8 13.2 21.02
-1 11 -9 -2.55 8.44
1 11 -9 -2.06 7.95
1 11 9 9.98 10.03
-1 11 9 15.11 9.8
-1 11 -10 -2.24 7.43
1 11 -10 2.2 7.46
1 11 10 -6.28 9.03
-1 11 10 -1.17 8.41
-1 11 -11 0.32 6.58
1 11 -11 4.33 7.55
1 11 11 -0.81 8.37
-1 11 11 -1.72 8.13
1 11 -12 6.74 6.7
-1 11 -12 4.58 6.96
1 11 12 -6.2 7.98
-1 11 12 7.04 7.82
1 11 -13 6.39 6.17
11 1 13 8.24 7.68
-1 11 -13 3.6 5.51
1 11 13 -0.95 6.83
-1 11 13 -0.64 6.69
11 1 -13 4.21 5.54
11 -1 -13 -0.51 5.35
1 11 -14 -4.57 4.56
1 11 14 2.8 5.68
-1 11 -14 3.13 4.78
11 1 14 -5.69 5.71
11 -1 14 0.76 5.92
11 1 -14 2.3 4.2
-1 11 14 -4.06 5.72
11 -1 -14 -13.13 4.83
1 11 -15 1.99 3.1
11 -1 -15 0.7 2.85
2 -11 0 -13.49 16.01
-2 -11 0 -3.1 17.35
2 -11 0 -4.51 9.87
-2 -11 -1 26.3 16.99
2 -11 -1 12.95 15.63
-2 -11 -1 11.64 10.93
-2 -11 1 -2.61 16.06
2 -11 -1 15.94 11.65
2 -11 1 12.82 15.67
-2 -11 -2 305.82 23.21
2 -11 2 295.3 28.25
2 -11 -2 311.09 24.64
-2 -11 -2 296.57 29.28
2 -11 -2 308.47 29.46
-2 -11 2 337.12 29.53
2 -11 3 238.82 28.27
2 -11 -3 260.62 27.52
-2 -11 -3 260.02 22.58
2 -11 -3 258.75 23.78
-2 -11 3 277.55 28.26
-2 -11 4 210.06 25.05
2 -11 -4 242.13 27.57
-2 -11 -4 237.21 23.74
2 -11 -4 242 25.22
2 -11 4 223.16 28.93
-2 11 -5 44.24 9.02
-2 -11 -5 48.63 17.33
-2 -11 5 31.99 18.19
2 -11 5 54.62 20.9
2 -11 -5 28.82 20.24
2 -11 -5 10.99 15.27
-2 11 -6 35.3 9.32
-2 -11 -6 31.76 20.57
2 11 -6 15.24 6.9
-2 -11 6 6.51 16.6
2 11 6 22.17 9.8
2 -11 6 26.87 18.76
11 2 -6 23.94 11.97
2 -11 -6 -14.55 17.32
2 -11 -7 6.35 19.14
2 -11 7 -6.49 19.19
-2 11 -7 1.86 6.74
-2 -11 -7 -4.67 21.23
2 11 -7 -10.55 7.99
2 11 7 3.81 10.59
-2 -11 7 -34.52 17.25
-2 -11 -8 4.05 20.93
2 -11 -8 0.41 20.5
-2 11 -8 4.08 8.45
2 11 -8 8.82 8.42
2 -11 8 -0.32 17.97
11 2 8 -9.8 10.67
2 11 8 24.62 11.71
-2 11 8 11.54 10.18
2 11 -9 13.2 7.44
-2 11 -9 8.61 7.46
11 2 9 -9.75 9.58
2 11 9 7.97 10.26
-2 11 9 14.31 10.33
-2 11 -10 24.1 8.9
2 11 -10 29.63 8.41
2 11 10 16.65 9.63
-2 11 10 33.4 9.59
2 11 -11 49.78 8.79
-2 11 -11 48.79 9.35
2 11 11 30.38 9.65
-2 11 11 30.5 8.88
-2 11 -12 18.67 7.05
11 2 12 42.38 10.04
2 11 -12 22.31 7.44
2 11 12 19.6 8.25
-2 11 12 16.41 8.13
11 2 -12 17.87 6.31
-2 11 -13 11.23 6.29
11 2 13 7.2 7.03
2 11 -13 14.42 6.3
2 11 13 4.52 6.72
11 2 -13 10.05 5.72
-2 11 13 7.37 6.8
2 11 -14 12.4 4.99
11 2 -14 9.55 4.44
-2 11 -14 9.56 4.77
11 -2 14 12.01 6.5
2 11 14 -0.49 5.75
-2 11 14 -0.82 5.52
11 -2 -14 5.92 4.26
11 2 14 2.91 5.31
-3 -11 0 190.97 25.89
3 -11 0 216.58 24.81
3 -11 0 192.2 19.71
-3 -11 -1 137.76 22.45
3 -11 -1 161.45 23
-3 -11 1 148.79 22.18
3 -11 1 145.79 22.29
3 -11 -1 154.87 18.78
11 -3 2 137.55 14.96
3 -11 -2 105.08 20.57
3 -11 -2 107.8 17.82
-3 -11 2 144.25 22.86
-3 -11 -2 132.3 22.66
-3 -11 -2 126.94 16.76
3 -11 2 95.79 20.15
3 -11 3 12.37 17.77
3 -11 -3 26.22 18.24
-3 -11 -3 42.75 14.62
3 -11 -3 28.49 14.55
-3 -11 3 21.31 15.57
11 -3 3 41.75 11.65
-3 -11 -4 -10.91 14.77
-3 -11 4 -20.35 16.42
3 -11 -4 11.84 18.08
3 -11 -4 -2.36 14.54
3 -11 4 13.07 17.28
3 -11 -5 -0.66 18.28
-3 11 -5 3.73 7.59
-3 -11 5 11.94 15.16
-3 -11 -5 9.93 16.59
11 3 5 4.15 10.39
3 -11 -5 4.83 15.53
3 -11 5 22.08 19.17
11 3 -5 8.17 10.53
11 3 6 -12.12 11.17
3 -11 -6 37.18 21.97
-3 11 -6 20.18 7.89
3 -11 -6 -6.03 17.86
-3 -11 -6 15.56 18.46
11 -3 6 4.9 9.22
11 3 6 4.29 11.6
3 11 -6 11.33 7.51
3 11 6 13.28 10.23
-3 -11 6 -9.86 17.01
3 -11 6 -12.74 19.78
11 3 -6 29.67 12.79
3 -11 7 -3.82 20.29
-3 -11 -7 5.97 21.11
3 -11 -7 -4.73 18.78
3 11 -7 9.01 8.26
-3 11 -7 20.77 8.5
11 3 7 0.66 12.04
3 11 7 12.45 10.92
3 -11 -7 11.78 23.09
-3 11 -8 5.2 7.85
3 -11 -8 -28.81 20.84
3 -11 8 21.3 18.45
11 3 8 -14.15 11.96
3 -11 -8 -3.15 21.76
3 11 8 -3.67 11.07
-11 -3 -8 11.55 22.44
3 11 -8 1.12 7.85
-3 -11 -8 3.6 21.41
-3 11 -9 -6.19 7.82
3 11 -9 -5.57 7.46
11 3 9 -11.73 10.21
3 11 9 0.3 10.19
-3 11 9 2.98 9.44
11 3 10 -14.39 9.27
3 11 10 -0.77 9.93
-3 11 10 2.39 8.72
-3 11 -10 0.2 7.35
3 11 -10 3.81 6.49
3 11 -11 2.65 6.46
11 3 11 23.86 10.43
-3 11 -11 4.6 6.7
11 3 11 -6.98 8.26
3 11 11 -3.65 8.98
-3 11 11 -2.33 7.8
11 3 -11 1.54 6.65
3 11 -12 -3.12 6.43
-3 11 -12 10.35 7.14
11 3 12 -4.27 7.21
3 11 12 -8.32 8.41
11 3 -12 7.64 6.11
-3 11 12 3.43 7.18
11 3 12 8.47 7.97
11 3 13 3.04 6.38
3 11 -13 2.92 5.65
3 11 13 13.84 7.2
11 3 -13 8.81 5.22
-3 11 13 11.27 6.72
-3 11 -13 9.23 5.56
11 -3 14 5.9 5.94
-3 11 -14 5.96 4.28
11 3 -14 3.53 4.27
3 11 -14 1.33 4.42
11 3 14 4.49 5.03
3 11 14 -12.39 6.14
-3 11 14 4.58 5.15
11 -3 -14 0.58 3.99
-4 -11 0 3.23 15.74
4 -11 0 5.81 15.13
4 -11 0 -16.9 11.35
-4 -11 1 50.98 17.78
-4 -11 -1 36.66 17.6
4 -11 -1 22.39 16.49
4 -11 -1 39.65 13
4 -11 1 31.75 17.43
4 -11 -2 68.03 16.21
4 -11 -2 62.78 18.89
-4 -11 2 85.23 19.7
11 -4 2 85.53 13.36
-4 -11 -2 68.13 18.81
4 -11 2 65.61 19.56
11 -4 3 145.81 17.15
4 -11 3 79.69 20.57
-4 -11 -3 100.59 17.62
4 -11 -3 115.56 18.71
4 -11 -3 108 21.63
-4 -11 3 113.74 19.57
4 -11 -4 81.55 21.54
-4 -11 4 69.21 17.97
-4 -11 -4 94.22 17.84
4 -11 4 53.87 19.72
4 -11 -4 64.04 17.32
11 -4 4 87.16 15.01
-4 11 -5 44.32 9.37
11 -4 5 40.94 13.58
-4 -11 5 31.97 16.72
4 -11 -5 40.29 21.22
11 -4 5 54.07 10.97
11 4 5 42.82 11.58
4 -11 -5 53.58 18.91
4 -11 5 51.88 19.98
4 11 5 44.55 10.67
11 4 5 37.39 10.96
11 -4 -5 57.1 17.24
-4 -11 -5 41.55 18.35
11 4 -5 48.11 11.72
-4 -11 -6 18.16 19.34
4 -11 -6 5.83 21.87
11 4 -6 20.46 11.55
-4 11 -6 18.12 7.91
11 -4 6 14.87 9.69
11 4 6 10.64 11.31
4 11 6 10.06 10.34
4 -11 -6 -4.72 18.12
4 11 -6 12.42 7.48
11 4 6 -1.62 11.75
11 -4 -6 11.95 15.88
4 -11 6 -30.75 22.63
4 -11 7 -23.57 19.81
-4 11 -7 4.05 8.08
11 4 7 -5.88 10.97
4 11 -7 -15.14 8.56
11 4 7 -28.81 12.86
4 11 7 8.63 11.3
-4 -11 -7 2.22 21.15
4 -11 -7 1.57 19.94
4 -11 -7 -12.81 22.49
-11 -4 -7 -0.35 26.13
-4 11 -8 -1.39 7.6
4 -11 -8 19.7 20.66
-4 -11 -8 9.65 21.88
4 11 -8 0.3 7.65
11 4 8 -12.8 12.99
11 4 8 -19.71 12.15
4 11 8 -4.3 11.68
4 -11 8 -9.87 15.62
-11 -4 -8 -15.98 24.84
-4 11 -9 11.81 8.25
11 4 9 16.92 11.95
4 11 -9 5.77 6.82
11 4 9 0.3 10.32
4 11 9 7.61 10.63
11 4 10 26.14 11.5
4 11 -10 11.41 7.38
11 4 10 15.09 9.48
4 11 10 12.19 9.62
11 4 -10 10.85 6.88
-4 11 10 21.58 8.88
-4 11 -10 21.12 8.17
-4 11 -11 10.49 6.89
11 4 11 24.8 9.97
4 11 -11 12.33 7
11 4 11 0.73 8.4
4 11 11 1.14 8.94
11 4 -11 9.06 6.79
-4 11 11 13.08 8.46
-4 11 -12 5.83 6.6
11 4 12 7.48 7.7
4 11 -12 12.63 6.37
11 4 12 5.98 7.57
4 11 12 -2.91 7.84
11 4 -12 9.08 5.98
-4 11 12 9.71 7.46
-4 11 -13 7.35 5.44
11 4 -13 1.18 5
11 4 13 1.57 6.05
4 11 -13 1.74 4.97
4 11 13 -3.07 6.67
-4 11 13 4.28 6.26
4 11 -14 7.09 4.38
4 11 14 -1.32 5.44
11 -4 14 6.05 5.92
11 -4 -14 2.51 3.98
11 4 -14 7.23 4.26
-5 -11 0 193.31 24.93
5 -11 0 197.84 25.21
5 -11 0 207.46 21.51
-5 -11 -1 251.07 26.93
-5 -11 1 283.14 27.56
5 -11 -1 269.73 29.03
5 -11 1 272.38 28.19
5 -11 -1 272.78 23.82
5 -11 2 91.6 21.24
11 -5 2 105.08 15.05
5 -11 -2 91.57 20.65
5 -11 -2 99.07 18.46
-5 -11 2 113.93 21.26
-5 -11 -2 82.1 19.86
11 -5 3 1.7 9.92
5 -11 -3 -1.17 18.13
5 -11 -3 8.65 13.2
-5 -11 3 12.39 16.47
5 -11 3 19.66 17.63
11 5 -4 27.5 10.39
11 5 4 21.25 9.91
-5 -11 -4 27.56 15.02
-5 11 -4 26.61 8.59
5 -11 -4 40.29 19.57
5 -11 -4 32.17 16.09
11 5 4 21.21 10.97
5 11 4 11.59 10.11
11 -5 -4 2.45 13.34
11 -5 4 19.29 12.37
5 -11 4 45.29 19.82
-5 -11 -5 51.02 18.03
-5 11 -5 86.5 10.88
5 -11 -5 58.67 21.45
11 5 5 83.57 12.47
5 -11 -5 104.92 22.33
11 -5 5 93.33 17.43
11 5 5 79.69 13.15
5 11 5 68.63 12.02
5 -11 5 37.62 18.83
11 -5 -5 74.54 18.95
-11 -5 -5 52.89 21.61
11 5 -5 51.57 10.36
11 5 -5 83.93 12.53
11 -5 6 71.52 11.48
5 -11 -6 42.84 18.3
11 5 6 72.22 12.34
5 -11 -6 48.82 21.02
-5 11 -6 77.96 10.85
11 -5 6 84.36 16.86
-5 -11 -6 56.86 21.9
11 5 6 70.21 13
5 11 6 96.74 13.07
11 -5 -6 65.68 19.65
11 5 -6 91.95 14.33
-11 -5 -6 69.49 24.15
5 11 -6 77.74 10.05
5 -11 6 44.58 19.15
11 5 7 59.83 13.58
-5 -11 -7 67.09 25.9
-5 11 -7 82.45 10.57
5 -11 -7 49.9 22.56
5 11 -7 73.94 9.76
11 5 7 55.23 12.79
5 11 7 64.69 12.97
11 -5 -7 59.41 19.13
5 -11 7 72.09 22.12
-11 -5 -7 84.46 28.68
11 5 8 45.38 12.42
11 5 8 27.83 11.4
5 11 -8 39.33 8.5
-5 11 -8 55.82 10.36
5 11 8 48.73 13.12
-5 11 -9 19.61 8.47
5 11 -9 16.12 7.59
11 5 9 18.83 10.8
11 5 9 -3.24 10.13
5 11 9 11.51 11.15
11 5 -9 8.07 6.66
-5 11 -10 17.54 8.26
11 5 10 12.3 9.81
5 11 -10 13 6.93
11 5 10 4.5 9.49
5 11 10 11.96 10.08
11 5 -10 3.8 6.36
11 5 11 2.68 8.55
-5 11 -11 -2.33 6.4
5 11 -11 -0.04 6.13
11 5 11 0.33 8.3
5 11 11 -8.56 9.93
11 5 -11 -3.98 6.4
-5 11 -12 4.68 6.01
11 5 -12 5.39 5.84
11 5 12 0.06 6.95
5 11 -12 7.73 5.73
11 5 12 -5.08 7.22
5 11 12 2.96 7.95
-5 11 12 8.48 6.67
11 5 -13 -1.17 4.82
5 11 13 -2.44 6.46
11 5 13 8.61 6.22
5 11 -13 3.43 4.99
11 5 13 7.25 5.46
-5 11 -13 5.28 5.09
5 11 -14 8.21 4.1
11 -5 14 5.72 5.48
11 5 -14 -0.18 3.96
5 11 14 11.97 5.46
11 -5 -14 1.11 3.88
-6 -11 0 -9.89 17.27
6 -11 0 -5.8 16.66
-6 -11 1 16.14 17.55
6 -11 -1 -10.23 13.55
6 -11 -1 -7.83 16.04
-6 -11 -1 13.67 16.53
6 -11 1 2.15 18.54
6 -11 2 -25.56 19.41
6 -11 -2 18.84 19.32
6 -11 -2 18.22 14.08
11 -6 2 24.22 11.73
-6 -11 2 13.24 16.03
-6 -11 -2 -16.58 16.39
11 -6 3 19.5 11.66
11 6 3 15.62 10.43
11 6 -3 10.63 10.21
6 -11 -3 4.39 17.51
11 6 3 16.27 10.33
6 -11 -3 27.46 15.17
6 11 3 3.04 10.08
11 6 -3 8.74 9.64
6 -11 3 8.16 17.49
11 6 4 21.88 10.32
11 6 -4 23.6 10.17
11 -6 4 9.29 12.71
6 -11 4 15.23 17.66
6 -11 -4 13.96 18.62
6 -11 -4 15.52 16.14
11 6 4 20.13 11.4
6 11 4 11.18 10.29
11 -6 -4 13.83 14.73
11 6 -4 16.74 9.75
11 6 4 5.16 9.49
-11 -6 -4 5.39 14.96
11 6 -5 13.42 11.73
-6 11 -5 13.8 7.58
-6 -11 -5 -17.66 18.48
6 11 5 -19.97 11.96
11 6 5 7.91 11.67
6 -11 -5 -7.49 19.8
11 6 5 -1.58 9.77
11 -6 -5 -1.27 15.86
6 -11 5 8.02 18
6 -11 -5 26.05 18.16
11 6 -5 8.44 9.59
11 -6 5 14.66 13.87
-11 -6 -5 23.23 17.48
11 6 6 8.96 11.39
6 -11 6 -10.84 20.44
6 -11 -6 6.31 17.39
-6 11 -6 18.33 8.41
11 6 6 4.37 11.81
6 11 6 0.84 10.64
11 -6 -6 -9.54 17.44
-6 -11 -6 17.61 20.67
11 -6 6 1.44 15.13
-11 -6 -6 -3.24 21.96
-11 -6 -7 29.79 26.99
11 -6 7 28.69 10.89
-6 -11 -7 12.84 21.65
11 6 7 -10.87 11.61
6 -11 7 -9.33 16.9
6 -11 -7 3.53 17.93
11 6 7 -21.25 12.59
-6 11 -7 9.02 8.45
6 11 7 -3.17 11.43
11 -6 -7 -15.34 17.94
6 11 -7 -1.24 7.54
-6 11 -8 4.85 7.47
6 11 8 -5.24 11.8
11 6 8 -10.18 11.32
6 11 -8 -1.4 6.96
11 6 8 -18.05 12.27
11 6 9 1.36 9.74
6 11 -9 4.67 6.75
11 6 9 6.5 10.02
6 11 9 -7.76 11.41
11 6 -9 4.27 6.37
-6 11 -9 12.56 7.15
-6 11 -10 12.79 7.46
6 11 -10 -2.98 6.53
11 6 10 2.09 8.7
11 6 10 -1.8 9.69
6 11 10 8.71 10.11
11 6 -10 4.2 6.18
-6 11 -11 3.73 6.78
6 11 -11 0.98 5.86
11 6 11 3.08 8.51
6 11 11 -1.61 9.33
11 6 -11 1.4 6.13
11 6 11 -0.39 7.44
-6 11 -12 12.19 5.88
11 6 12 -4.91 6.13
11 6 -12 -2.21 5.46
6 11 -12 2.17 5.33
11 6 12 -2.38 7.18
6 11 12 3.78 7.55
11 6 -13 4.67 4.61
6 11 -13 3.43 4.9
11 6 13 -1.2 6.09
6 11 13 1.67 6.28
11 -6 14 10.94 5.19
6 11 -14 -2.71 3.39
6 11 14 0.1 5.02
11 -6 -14 -2.33 3.69
11 7 0 419.67 18.71
11 7 0 440.42 19.49
-7 -11 0 381.04 33.48
7 -11 0 370.6 34.19
7 -11 1 218.26 27.95
11 7 -1 273.02 16.76
11 7 1 266.35 16.79
11 7 -1 252.52 15.1
11 7 1 251.84 15.09
-7 -11 -1 237.48 28.23
-7 -11 1 225.36 26.79
7 -11 -1 225.45 28.89
7 -11 -1 254.05 25.7
11 7 -1 307.51 16.7
11 7 2 87.97 12.07
7 -11 2 110.5 23.12
11 -7 2 117.38 18.08
11 7 2 114.2 14.01
7 11 2 121.57 13.49
7 11 -2 113.8 13.04
7 -11 -2 84.96 19.09
7 -11 -2 79.58 22.14
-7 -11 -2 71.93 20.5
11 7 -2 97.18 12.67
11 7 2 86.6 11.08
11 7 -2 127.27 14.6
11 7 -2 117.85 13.17
11 -7 -3 51.37 10.83
11 7 3 36.22 11.17
7 -11 3 31.78 20.22
7 11 3 31.75 11.86
7 -11 -3 30.83 20.74
7 -11 -3 19.57 15.77
11 -7 3 7.15 13.21
11 7 -3 20.25 10.71
11 7 3 45.53 12.26
11 7 3 4.74 9.81
11 7 -3 19.32 10.69
11 -7 4 32.8 14.26
7 -11 -4 43.15 21.12
11 7 4 38.58 10.67
11 7 4 41.21 11.96
7 -11 -4 52.56 18.13
7 -11 4 65.36 20.88
11 -7 -4 32.92 17.01
11 7 -4 35.51 11.1
11 7 4 20.57 9.86
7 11 4 35.7 11.76
11 7 -4 42.99 10.45
-11 -7 -5 80.47 20.72
11 -7 5 80.44 17.7
7 -11 -5 87.35 22.03
11 7 5 90 14.56
7 11 5 86.35 13.5
11 -7 -5 93.73 21.13
11 7 -5 130.9 14.39
11 7 5 108.9 13.47
7 -11 5 57.59 21.41
11 7 -5 119.87 13.53
-7 11 -6 142.85 12.77
-11 -7 -6 103.54 25.43
7 -11 6 123.8 23.92
11 7 6 141.76 15.93
7 11 6 118.66 14.03
11 -7 -6 138.73 25.41
11 7 -6 187.79 14.41
7 -11 -6 165.54 27.19
11 7 6 134.68 14.7
-7 -11 -6 126.44 26.95
11 -7 6 168.93 22.97
-7 -11 -7 55.96 23.03
-11 -7 -7 133.81 29.09
11 7 7 142.01 15.37
-7 11 -7 130.43 11.91
7 -11 -7 154.31 26.83
11 -7 7 117.16 20.83
11 7 7 109.6 14.67
7 11 7 94.94 14.61
7 -11 7 123.41 24.84
11 -7 -7 113.49 23.96
11 -7 7 116.18 12.64
-7 11 -8 98.53 11.62
7 11 -8 110.77 10.42
11 7 8 99.95 13.41
11 7 8 79.48 13.08
7 11 8 66.94 13.46
11 7 9 66.08 11.67
-7 11 -9 75.34 10.32
11 7 -9 74.76 9.25
7 11 -9 68.78 8.99
11 7 9 52.05 11.84
7 11 9 50.15 12.73
7 11 -10 -7.37 6.4
-7 11 -10 10.24 7.49
7 11 10 12.25 10.43
11 7 10 -6.34 8.28
11 7 10 -8.13 9.89
11 7 -10 -3.08 6.22
11 7 11 4.28 6.6
7 11 -11 4.86 5.87
11 7 11 5.98 8.56
7 11 11 5.98 9.1
11 7 -11 5.61 5.78
11 7 12 -3.29 7.3
7 11 -12 5.09 5.2
7 11 12 5.65 7.34
11 7 -12 4.33 4.97
7 11 -13 15.57 5
11 7 13 9.05 5.85
11 7 -13 12 4.8
7 11 13 1.16 6.14
7 11 14 12.75 4.99
11 -7 -14 4.71 3.45
8 -11 0 -21.23 22.38
11 8 0 4.06 10.1
11 8 0 -17.9 12.25
8 11 0 -14.53 11.1
8 11 0 34.21 11.67
11 8 0 -3.88 9.7
-8 -11 -1 0.27 18.58
11 8 -1 9.09 9.99
8 -11 1 33.37 19.82
11 8 1 -8.5 10.17
11 8 -1 1.52 11.2
8 11 -1 -8.64 10.7
11 8 1 -13.18 13.19
8 11 1 38.02 11.82
11 8 -1 16.79 9.84
11 8 1 -0.07 9.66
8 -11 -1 -19.08 20.09
-8 -11 -2 11.07 16.78
11 8 2 -9.68 9.98
11 8 2 24.05 12.39
11 8 -2 16.67 11.58
8 11 -2 21.2 11.27
8 11 2 24.76 11.54
8 -11 -2 -28.58 16.09
8 11 -2 8.5 9.43
8 -11 -2 -16.87 18.07
11 8 -2 -1.39 10.04
8 -11 2 20.95 18.71
11 -8 2 20.82 14.37
11 8 2 -6.09 10.62
11 8 -2 -9.56 10.78
11 8 -3 0.55 10.71
8 -11 3 17.12 19.63
11 8 3 12.53 11.26
11 -8 3 -15.01 13.45
8 11 3 -2.12 11.25
8 -11 -3 -16.07 14.55
8 -11 -3 13.58 18.16
11 8 -3 0.68 10.73
8 11 -3 3.68 10.43
11 8 3 -1.75 10.24
11 8 3 -15.19 10.62
11 8 4 0.2 9.75
8 -11 -4 -4.52 16.23
11 8 4 12.3 11.93
8 11 4 -14.17 11.71
11 -8 -4 -9.19 18.08
8 -11 4 1.16 18.55
11 8 -4 33.35 12.16
11 -8 4 16.72 17.22
11 8 4 -7.79 10.06
11 8 -4 1.78 10.16
8 -11 5 21.82 18.53
11 8 5 35.71 11.25
11 8 -5 30.52 11.67
11 -8 5 46.54 16.58
8 11 5 14.38 11.53
8 -11 -5 37.79 18.71
11 -8 -5 29.82 19.39
11 8 -5 42.16 12.8
11 8 5 29.33 12.5
11 8 6 13.1 10.79
8 -11 6 27.63 17.11
11 8 6 -4.8 11.92
8 -11 -6 5.87 16.86
8 11 6 -9.74 12.11
11 -8 -6 2.71 18.41
11 -8 6 10.49 13.5
8 11 7 -4.82 11.68
11 8 7 -3.67 9.76
11 8 7 -8.49 12.08
11 8 8 26.26 11.04
11 8 8 30.77 10.11
8 11 8 14.77 11.07
8 11 -9 1.36 6.08
11 8 9 7.38 8.31
11 8 9 -3.58 10.27
8 11 9 -7.79 10.81
11 8 -10 5.29 6.02
8 11 -10 -1.11 5.84
11 8 10 -8.45 9.87
8 11 10 0.17 10.31
8 11 -11 3.24 5.2
11 8 11 7.93 8.12
8 11 11 4.1 8.75
11 8 -11 2.07 5.22
11 8 -12 -3.9 4.72
8 11 -12 4.66 4.88
11 8 12 2.66 6.92
8 11 12 2.75 7.56
11 8 -13 -3.81 3.87
8 11 -13 3.38 4.05
8 11 13 -7.52 5.94
11 -8 13 -4.14 5.28
11 8 13 6.57 5.39
9 11 0 329.34 18.42
11 9 0 338.37 19.51
9 11 0 386.3 19.52
11 9 0 336.92 18.39
11 9 0 345.68 18.3
9 -11 0 408.81 35.92
11 9 -1 348.28 18.8
11 9 -1 373.66 19.96
9 11 -1 314.99 17.09
9 11 -1 326.84 18.4
11 9 1 344.27 19.84
9 11 1 314.52 19.17
9 11 -1 341.77 19.21
9 11 1 368.41 19.62
11 9 -1 327.9 18.2
11 9 1 346.59 18.4
9 -11 -1 322.86 33.07
11 9 1 343.74 18.28
9 -11 1 338.7 33.38
9 11 -2 130.04 13.35
11 -9 2 78.51 18.72
11 9 -2 210.89 17.06
11 9 2 105.46 14.93
9 11 2 170.99 16.15
9 11 -2 170.33 15.64
9 -11 2 109.16 26.74
9 11 2 165.04 15.58
11 9 -2 142.62 14.46
11 9 2 159.56 14.7
11 9 2 127.3 13.26
11 9 -2 139.04 14.53
11 9 -3 14.23 11.06
11 9 3 21.03 12.61
11 -9 3 19.27 16.87
11 9 3 -11.22 9.85
9 11 3 6.59 11.87
9 -11 -3 8.09 16.41
9 -11 3 2.83 18.12
11 9 -3 25.76 12.22
11 9 3 5.23 10.59
9 11 -3 -3.73 9.96
9 -11 4 -18.05 21.64
11 9 4 -2.82 10.07
11 9 4 5.98 10.98
9 11 4 -8.29 11.41
11 -9 4 8.44 15.99
9 -11 -4 -34.22 18.36
11 -9 -4 -54.8 19.86
11 9 -4 13.84 11.98
11 9 4 4.84 11.13
11 9 -4 2.49 10.07
11 -9 5 -11.86 14.65
11 9 5 -14.21 11.05
9 -11 5 11.04 17.26
11 9 5 6.12 11.41
9 11 5 -3.46 10.93
9 -11 -5 16.8 17.14
11 -9 -5 -21.48 19.69
11 9 6 19.6 11.38
9 11 6 7.25 11.43
11 9 6 32.09 10.15
9 11 7 19.5 11.04
11 9 7 22.83 11.77
11 9 7 21.49 9.11
11 -9 8 16.06 8.82
9 11 8 1.01 11.46
11 9 8 14.74 10.85
11 9 9 -8.46 10.61
9 11 9 -4 10.97
9 11 10 5.23 9.83
11 9 10 13.04 9.56
9 11 -11 -1.55 4.95
11 9 11 10.46 8.31
9 11 11 -7.41 8.46
9 11 -12 10.58 4.7
11 9 12 1.68 6.36
9 11 12 0.59 6.7
11 -9 13 6.51 4.43
11 9 13 5.84 5.31
9 11 13 8.79 5.33
11 10 0 -1.87 10.84
10 11 0 -13.8 10.86
10 11 0 -12.91 12.56
10 11 0 22.54 11.91
11 10 0 35.78 12.45
11 10 0 -7.07 11.7
10 11 -1 9.28 10.65
11 10 1 -5.71 13.2
10 11 1 23.62 10.76
11 10 1 11.85 10.45
10 11 -1 9.01 11.71
10 11 1 -15.74 13.64
11 10 -1 15.98 12.69
10 -11 1 27.84 19.75
10 11 -1 28.35 12.27
10 11 1 47.29 12.61
11 10 -1 51.98 13.15
11 10 1 33.28 12.14
11 10 -1 12.81 10.03
11 -10 2 16.58 17.4
11 10 -2 26.04 11.03
10 11 -2 71.7 14.04
11 10 -2 96.06 15.05
10 11 2 -22.39 14.55
11 10 2 -9.73 14.27
10 -11 2 20.42 18.98
10 11 -2 43.89 13.3
10 11 2 65.8 13.26
11 10 -2 47.55 12.8
11 10 2 74.35 12.98
10 11 -2 44.57 12.05
11 10 2 53.91 11.71
10 11 -3 42.29 12.31
10 11 3 49.01 13.44
11 10 3 18.03 10.05
11 -10 3 21.11 17.87
11 10 3 64.61 14.49
10 11 3 42.75 13.22
11 10 -3 41.55 12.66
11 10 3 28.84 12.06
11 10 -3 14.32 11.34
10 -11 4 8.14 19.02
11 10 4 3.31 9.8
11 -10 4 20 18.68
11 10 4 8.15 11.63
10 -11 -4 15.53 17.53
11 10 4 42.82 12.21
10 11 4 24.24 12.07
11 10 -4 7.85 10.89
10 -11 5 -0.74 14.51
11 10 5 16.51 11.82
10 11 5 2.91 10.62
11 -10 5 24.26 16.49
11 10 6 0.29 10.44
10 11 6 -9.95 11.05
11 10 7 -3.66 10.3
10 11 7 -3.26 10.82
10 11 8 -3.36 10.59
11 10 8 6.4 10.17
11 -10 8 18.2 8.83
11 10 9 -2.62 10.31
10 11 9 -2.95 10.68
11 10 10 -0.66 9
10 11 10 -8.79 9.39
10 11 11 -4.04 7.73
11 10 11 -4.34 7.48
11 -10 12 4.33 4.93
11 10 12 3.45 5.99
10 11 12 6.2 6.37
11 10 13 11.85 4.75
10 11 13 7.95 4.79
11 11 0 247.1 17.1
11 11 0 295.54 18.73
11 11 0 240.48 18.7
11 11 1 161.64 14.85
11 11 1 123.13 15.62
11 11 -1 164.91 16.7
11 11 -1 186.32 16.74
11 11 1 146.26 15.67
11 11 -1 147.38 15.11
11 11 2 79.3 12.12
11 11 -2 128.97 15.76
11 11 -2 86.46 14.13
11 11 2 87.92 13.92
11 11 -2 72.53 12.63
11 -11 3 21.28 18.19
11 11 3 20.6 13.35
11 11 3 56.11 13.15
11 11 -3 45.06 11.6
11 11 4 22.59 12.02
11 11 5 7.86 10.95
11 11 6 13.64 10.6
11 11 7 23.3 11.74
11 -11 8 27.38 8.84
11 11 8 2.01 10.22
11 11 9 -2.83 9.63
11 11 10 3.06 8.34
11 11 11 -2.34 6.88
11 11 12 1.61 5.47
0 -12 0 293.08 31.16
0 -12 -1 585.89 40.18
0 -12 1 570.41 39.23
0 -12 -1 632.05 31.92
0 -12 -2 282.1 31.94
0 -12 2 283.24 30.08
0 -12 -2 308.73 24.74
0 -12 -3 36.97 21.07
0 -12 -3 13.15 13.16
0 -12 3 12.66 17.55
0 -12 -4 17.79 19.68
0 -12 4 -1.19 19.42
0 -12 -4 26.76 14.26
12 0 4 32.37 10.72
12 0 5 74.6 10.84
0 12 -5 124.54 11.82
0 -12 5 59.81 21
12 0 -5 126.13 13.44
0 -12 -5 104.03 22.15
0 12 -6 50 10.22
0 -12 6 18 20.15
0 -12 -6 40.59 19.48
0 -12 7 56.26 21.15
0 -12 -7 80.35 24.22
0 12 -7 71.78 10.13
0 12 7 62.23 11.54
0 12 -8 28.2 9.13
0 12 8 27.49 10.02
0 12 -9 24.11 8.71
0 12 9 25.01 9.38
0 12 -10 15.55 7.98
0 12 10 20.58 8.77
0 12 11 0.53 7.93
0 12 -11 1.52 7
12 0 12 12.72 9.1
0 12 12 -0.65 6.82
0 12 -12 2.16 5.65
0 12 -13 10.15 5.77
12 0 13 6.99 6.86
0 12 13 -0.92 5.91
12 0 -13 2.92 4.96
12 0 14 5.24 5.53
0 12 -14 12.21 4.76
0 12 14 1.05 4.94
12 0 -14 10.84 4.24
1 -12 0 -13.62 18.27
1 -12 0 -0.84 11.39
-1 -12 0 11.84 18.71
-1 -12 -1 24.49 19.55
1 -12 -1 22.88 19.47
-1 -12 -1 33 12.45
-1 -12 1 26 19.89
1 -12 -1 6.67 11.84
1 -12 1 19 18.05
1 -12 -2 15.66 18.9
-1 -12 -2 0.6 13.33
1 -12 -2 1.09 12.69
-1 -12 2 -5.22 17.76
1 -12 2 3.8 17.9
-1 -12 -2 11.93 19.04
-1 -12 -3 -28.21 15.18
-1 -12 -3 11.24 19.42
1 -12 -3 1.09 19.17
1 -12 -3 4.24 14.96
-1 -12 3 -6.9 18.45
1 -12 3 -2.79 20.17
-1 -12 4 -5.15 21.08
-1 12 -4 4.88 7.05
-1 -12 -4 27.81 15.59
12 1 4 1.27 9.31
12 -1 4 13.31 10.83
1 -12 -4 3.81 13.95
1 -12 4 18.7 19.65
1 -12 -4 22.78 20.3
-1 -12 5 32.35 21.76
12 1 5 0.16 8.69
-1 -12 -5 15.92 17.05
12 -1 5 -10.13 9.98
1 -12 -5 -3.59 19.76
12 1 5 -5.35 9.95
1 -12 -5 12.4 18.07
1 12 -5 9.55 7.32
1 -12 5 33.87 20.66
-1 12 -5 -0.92 7.81
12 1 -5 -3.23 10.22
12 -1 6 19.67 9.31
-1 12 -6 29.15 9.16
-1 -12 -6 31.04 18.93
1 12 -6 21.91 8.74
-1 -12 6 25.4 20.01
1 12 6 22.64 9.73
1 -12 6 20.09 18.72
12 1 -6 52.68 12.17
1 -12 -6 32.21 18.54
1 -12 7 -9.04 19.64
-1 -12 7 -20.04 20.65
-1 12 -7 18.21 8.03
1 -12 -7 0.46 19.16
1 12 -7 9.78 8.22
-1 -12 -7 5.76 20.63
1 12 7 10.68 10.33
-1 12 -8 2.27 8.05
1 12 -8 -0.09 7.7
1 -12 8 -18.92 15.02
1 12 8 -6.24 10.07
-1 12 8 2.85 9.07
1 12 -9 6.21 6.86
-1 12 -9 23.85 8.76
1 12 9 12.01 9.02
-1 12 9 15.6 9.53
-1 12 -10 11.98 8.04
1 12 -10 15 7.21
1 12 10 2.91 8.36
-1 12 10 12.7 8.18
-1 12 -11 10.97 7.02
1 12 -11 5.27 6.76
12 1 11 12.26 10.14
1 12 11 -3.42 8.14
-1 12 11 7.13 7.74
-1 12 -12 2.29 6.44
1 12 -12 -3 6.52
12 1 12 -0.18 7.84
1 12 12 -0.67 7.15
-1 12 12 -1.02 6.8
12 1 -12 3.14 5.88
1 12 -13 3.3 5.3
-1 12 -13 -0.06 5.26
12 1 13 2.14 6.59
12 -1 13 -5.34 7.41
1 12 13 -14.37 6.79
-1 12 13 3.27 5.9
12 1 -13 -4.37 4.97
12 -1 -13 1.77 4.55
1 12 -14 4.03 4.14
12 -1 14 -0.55 5.34
12 1 14 3.27 5.11
1 12 14 -5.07 5.15
12 1 -14 3.77 3.91
-1 12 14 -14.08 5.07
12 -1 -14 3.6 3.84
-1 12 -14 7.39 4.26
-2 -12 0 661.39 43.03
2 -12 0 687.96 41.78
2 -12 0 706.66 33.48
-2 -12 -1 299 31.99
2 -12 -1 343.18 32.81
-2 -12 1 328.89 32.19
2 -12 1 340.58 31.45
2 -12 -1 364.39 26.57
2 -12 -2 147.87 25.04
-2 -12 -2 136.49 24.9
-2 -12 2 136.14 23.79
2 -12 2 122.27 23.73
-2 -12 -2 144.49 19.01
2 -12 -2 156.36 20.29
2 -12 3 34.29 18.8
-2 -12 -3 59.67 21.26
2 -12 -3 48.3 19.45
-2 -12 -3 40.23 16.16
2 -12 -3 51.68 15.97
-2 -12 3 47.08 20.26
-2 -12 4 -31.48 22.32
12 -2 4 -11.53 10.09
2 -12 4 14.88 18.3
2 -12 -4 -19.67 19.78
12 -2 4 -7.25 11.38
2 -12 -4 16.96 15.01
-2 -12 -4 -7.33 14.95
12 2 4 -11.57 9.78
-2 12 -4 -3.89 6.58
12 2 -4 10.6 11.23
12 2 5 1.7 8.47
-2 -12 -5 8.23 15.77
-2 12 -5 9.55 7.85
12 2 5 7.05 9.92
2 12 -5 19.05 8.15
2 -12 -5 -6.54 16.73
-2 -12 5 10.42 18.25
2 -12 5 -8.92 18.57
2 12 5 5.69 9.18
12 -2 5 -0.1 9.5
12 2 -5 17.64 11.14
2 -12 -5 19.48 20.99
12 -2 6 32.97 9.75
12 2 -6 95.68 14.8
-2 12 -6 71.29 11.01
-2 -12 -6 70.74 23.81
12 2 6 71.3 12.81
2 -12 -6 36.21 19.63
2 12 -6 72.19 10.09
2 12 6 48.36 10.86
-2 -12 6 53.83 21
2 -12 6 55.73 22.65
2 -12 -6 71.2 24.81
2 -12 7 41.91 24.13
-2 -12 7 46.91 19.89
2 -12 -7 32.13 22.87
-2 12 -7 48.93 10
12 2 7 37.57 13.72
2 12 -7 43.31 9.26
2 -12 -7 19.98 18.69
2 12 7 32.2 11.35
-2 -12 -7 61.22 22.5
-2 12 -8 61.07 10.55
2 12 8 38.11 11.09
2 12 -8 40.94 9.17
-2 12 -9 16.14 7.93
12 2 9 31.9 11.41
2 12 -9 34.23 8.74
2 12 9 24.03 9.64
-2 12 9 38.27 9.9
-2 12 -10 0.48 7.11
2 12 -10 0.37 7.09
12 2 10 8.94 9.92
2 12 10 -13.67 8.97
-2 12 10 1.28 8.02
-2 12 -11 13.51 7.58
12 2 11 13.87 9.66
2 12 -11 -1.13 6.97
2 12 11 2.77 8.2
-2 12 11 0.31 7.49
-2 12 -12 11.64 6.3
12 2 12 5.35 8.2
2 12 12 -7.47 7.49
-2 12 12 -1.66 6.83
12 2 -12 4.24 5.89
2 12 -12 0.09 5.97
12 -2 13 6.77 7.5
-2 12 -13 11.01 5.91
2 12 -13 13.21 5.3
12 2 13 14.63 6.89
2 12 13 -2.04 6.23
-2 12 13 5.3 6.24
12 2 -13 9.51 5.36
12 2 -14 7.53 3.99
-2 12 -14 16.37 4.61
2 12 -14 8.75 4.19
12 2 14 11.49 4.94
12 -2 14 11.46 5.56
2 12 14 12.38 5.43
12 -2 -14 3.06 3.7
-3 -12 0 -5.34 18.17
3 -12 0 8.37 17.23
3 -12 0 -15.1 12.75
-3 -12 -1 -1.86 19.23
3 -12 -1 3.71 18.12
-3 -12 1 11.38 18.87
3 -12 -1 -5.51 12.47
3 -12 1 1.11 17.22
3 -12 -2 -9.7 18.53
3 -12 -2 6.59 13.39
-3 -12 2 16.08 19.32
3 -12 2 -16.52 18.51
-3 -12 -2 10.53 18.31
3 -12 3 12.64 18.41
3 -12 -3 25.91 20
-3 -12 -3 36.21 14.87
12 3 3 42 11.47
3 -12 -3 60.72 16.96
-3 -12 -3 21.33 18.95
-3 -12 3 32.61 19.33
12 3 4 55.97 9.99
-3 -12 4 55.13 20.71
-3 -12 -4 46.28 17.78
12 -3 4 54.24 11.79
3 -12 4 62.44 21.69
3 -12 -4 58.78 21.78
12 3 -4 92.96 12.92
-3 12 -4 61.25 9.93
3 -12 -4 59.62 18.48
12 3 4 69.69 12.79
12 3 -4 76.34 11.05
12 3 5 59.47 10.55
12 3 5 56.79 12.85
3 -12 -5 40.08 22.64
3 12 -5 72.5 9.84
3 -12 -5 85.8 20.39
3 -12 5 71.68 22.19
12 3 5 49.07 11.27
-3 -12 5 97.41 22.12
3 12 5 67.03 11.48
12 3 -5 90.65 13.96
12 3 -5 62.96 10.64
-3 -12 -5 53.87 18.33
-3 12 -5 68.79 10.11
12 -3 5 68.86 11.8
-3 -12 -6 34.23 21.39
-3 12 -6 29.38 8.34
3 12 -6 25.77 7.92
3 -12 -6 33.5 18.43
12 3 6 20.45 10.94
3 12 6 20.62 10.88
-3 -12 6 36.97 19.37
3 -12 6 17.68 18.91
12 -3 6 8.2 9.4
12 3 -6 52.5 13.83
12 3 6 23.95 12.3
3 -12 -6 23.27 22.26
3 -12 -7 12.62 22.62
3 12 -7 1.47 7.77
3 -12 7 4.57 19.54
12 3 7 0.84 11.21
3 -12 -7 10.23 19.43
-3 12 -7 19.43 9.17
3 12 7 1.06 10.52
-3 -12 -7 -5.31 20.05
12 3 7 -11.22 11
3 12 -8 0.53 7.49
12 3 8 -0.87 12.08
-3 12 -8 -0.78 6.92
12 3 8 -14.87 10.23
3 12 8 -19.03 11.09
12 3 9 2.52 11.29
3 12 -9 9.02 7.25
12 3 9 5.17 8.89
3 12 9 17.88 9.65
-3 12 -9 12.48 7.89
-3 12 -10 20.74 7.71
12 3 10 33.59 11.74
3 12 -10 30.31 8.12
12 3 10 12.48 8.28
3 12 10 14.34 9.51
-3 12 10 22.91 8.38
3 12 -11 19.91 7.21
-3 12 -11 30.39 8.05
12 3 11 15.3 9.88
3 12 11 2.01 8.46
-3 12 11 22.72 8.26
12 3 -11 10.11 6.37
3 12 -12 19.08 7.04
12 3 12 9.35 7.65
3 12 12 5.14 7.31
-3 12 12 15.89 6.74
12 3 -12 12.88 5.97
-3 12 -12 5.74 6.09
12 3 13 -0.83 6.04
-3 12 -13 6.4 5.14
3 12 -13 9.42 5.02
12 -3 13 20.75 7.34
3 12 13 -7.7 6.51
12 3 -13 0.28 4.89
-3 12 13 8.73 5.64
3 12 -14 1.15 3.8
12 3 -14 2.18 3.63
12 -3 14 3.73 5.14
3 12 14 0.09 5.07
12 -3 -14 -1.34 3.73
-4 -12 0 245.4 29
4 -12 0 237.23 28.76
4 -12 0 262.45 24.33
-4 -12 -1 167.3 26.21
4 -12 1 152.37 25.24
-4 -12 1 192.51 27.63
4 -12 -1 184.54 25.78
4 -12 -1 162.04 20.71
4 -12 -2 107.98 22.51
4 -12 -2 98.84 18.49
-4 -12 2 117.09 22.75
-4 -12 -2 70.94 23.03
4 -12 2 93.93 23.14
12 4 3 48.06 10.3
12 4 -3 40.58 11.23
4 -12 3 42.54 20.91
12 -4 3 60.19 12.01
4 -12 -3 26.28 19.48
12 4 3 42.13 10.5
4 -12 -3 58.73 17.61
-4 -12 -3 39.23 19.83
-4 -12 3 29.15 18.8
12 4 -3 50.4 10.72
12 4 -4 30.08 11.56
4 -12 4 43.92 21.32
-4 -12 4 -4.86 18.11
-4 12 -4 23.1 7.78
-4 -12 -4 8.68 13.29
4 -12 -4 22.84 19.94
4 -12 -4 35.99 16.62
12 4 4 42.42 11.44
4 12 4 9.04 10.16
12 4 4 34.3 11.2
12 4 -4 19.48 9.94
12 -4 4 51.07 11.64
12 4 4 15.6 8.99
-4 -12 -5 -4.21 16.48
4 -12 -5 -12.6 21.25
-4 12 -5 0.97 6.58
12 4 5 12.73 11.12
4 -12 -5 -4.18 17.22
12 4 5 -6.99 10.76
4 -12 5 1.97 18.04
4 12 5 -20.65 11.46
12 -4 5 6.89 10.65
12 4 -5 -5.5 9.25
12 4 -5 -1.35 10.03
12 4 5 0.92 8.68
12 4 -6 1.77 10.84
4 -12 -6 9.58 18.66
4 -12 -6 12.88 22.15
-4 12 -6 5.9 7.8
4 12 -6 13.45 7.9
12 4 6 22.57 12.11
4 12 6 13.51 10.73
-4 -12 -6 31.61 19.23
4 -12 6 -12.5 20.26
12 -4 6 16.68 10.52
12 4 6 22.28 11.6
-4 -12 -7 36.76 21.44
4 -12 7 36.05 20.2
-4 12 -7 41.33 9.95
4 -12 -7 72.95 27.25
12 4 7 31.4 12.13
4 12 -7 33.05 8.68
4 -12 -7 47.73 21.71
12 4 7 30.4 11.9
4 12 7 37.04 11.95
-12 -4 -7 28.53 23.25
4 12 -8 14.97 7.61
12 4 8 15.26 11.55
-4 12 -8 30.77 8.66
12 4 8 12.58 10.84
4 12 8 22.28 11.2
-4 12 -9 10.67 7.16
12 4 9 7.71 11.18
12 4 9 -11.01 10.2
4 12 9 -7.68 10.23
4 12 -9 10.74 7.04
-4 12 -10 4 6.57
12 4 10 5.82 10.15
4 12 -10 2.97 6.31
12 4 10 5.6 8.71
4 12 10 -10.36 9.97
12 4 -10 4.14 6.24
-4 12 -11 4.41 6.94
12 4 11 4.64 8.98
4 12 -11 4.37 6.47
12 4 11 6.77 7.91
4 12 11 -9.22 9.03
12 4 -11 -1.2 6.12
12 4 12 21.98 7.7
-4 12 -12 6.71 5.7
4 12 12 -1.43 7.05
12 4 -12 13.7 5.89
4 12 -12 9.45 5.88
4 12 -13 8.99 4.97
12 4 13 10.93 5.79
12 -4 13 21.13 7.69
12 4 -13 10.51 4.77
4 12 13 8.82 6.36
12 -4 14 6.42 4.92
4 12 14 4.12 4.85
12 -4 -14 3.6 3.65
4 12 -14 6.71 3.65
5 -12 0 14.68 18.9
12 5 0 3.51 9.8
-5 -12 0 -11.25 18.44
12 5 0 1.1 8.32
-5 -12 -1 25.4 19.65
12 5 -1 25.05 10.22
-5 -12 1 -4.43 18.03
5 -12 -1 18.02 20.69
5 -12 -1 15.33 13.81
12 -5 1 40.58 10.95
5 -12 1 -10.79 18.23
12 5 1 4.67 8.76
12 5 -1 26.76 9.97
12 5 1 29.99 10.06
5 -12 2 12.93 20.68
5 -12 -2 72.06 21.16
12 5 2 53.61 11.31
5 -12 -2 33.4 14.52
-5 -12 2 36.39 18.78
12 -5 2 73.42 12.63
12 5 -2 25.43 9.73
12 5 -2 40.06 11.26
-5 -12 -2 14.78 17.15
12 5 2 49.78 10.26
12 5 -3 121.49 12.46
5 -12 3 97.81 23.96
12 5 3 148.79 14.01
5 12 3 108.33 12.82
5 -12 -3 99.98 23.52
5 -12 -3 113.06 20.37
12 5 -3 121.01 12.91
12 5 3 121.08 12.21
12 -5 -3 120.68 12.74
12 -5 3 155.11 14.88
-5 -12 3 97.95 22.27
12 5 3 123.11 13.35
12 -5 4 195.37 20.82
12 5 -4 191.72 15.7
12 5 4 180.19 15.62
5 -12 4 164.99 27.44
5 -12 -4 170.18 27.22
12 5 4 209.63 16.12
5 12 4 167.5 14.83
5 -12 -4 160.6 24.6
12 5 -4 153.02 13.61
12 5 4 177.99 13.92
12 -5 4 169.56 14.64
12 5 -5 116.66 14.16
-12 -5 -5 64.96 20.08
-5 12 -5 93.98 11
-5 -12 -5 76.32 18.29
12 5 5 103.55 14.13
5 -12 -5 99.32 26.39
5 -12 -5 89.71 21.88
12 5 5 102.5 14.32
5 12 5 73.49 12.79
5 -12 5 85.7 23.12
12 -5 5 105.86 13.41
12 5 -5 101.12 12.3
12 -5 5 125.08 19.16
12 5 5 57.18 10.78
-5 -12 -6 41.92 23.05
5 -12 -6 52.7 22.84
-5 12 -6 57.9 10.35
12 5 6 44.85 12.83
5 -12 -6 49.87 20.62
12 5 6 44.52 13.16
5 12 6 31.59 11.41
12 5 -6 66.51 13.66
12 -5 6 49.67 11.79
-12 -5 -6 15.28 20.69
5 -12 6 7.6 19.09
5 -12 7 15.46 16.91
-5 -12 -7 -12.16 21.93
-5 12 -7 14.73 9.19
12 5 7 2.09 11.33
12 5 7 -6.7 10.86
5 12 -7 5.84 7.24
5 -12 -7 19.15 17.27
5 12 7 -6.2 11.55
-12 -5 -7 -20.98 22.69
12 -5 7 7.36 10.08
-5 12 -8 4.19 7.39
12 5 8 -2.96 11.4
5 12 -8 -1.38 7.01
12 5 8 -10.7 10.53
5 12 8 -5.68 10.94
-5 12 -9 15.31 7.34
12 5 9 25.97 11.09
5 12 -9 17.57 7.04
12 5 9 14.35 9.67
5 12 9 1.15 10.08
12 5 -9 10.89 6.58
-5 12 -10 29.32 7.95
12 5 10 41.85 10.71
5 12 -10 32.76 7.37
12 5 10 32.52 9.67
5 12 10 32.71 10.85
12 5 -10 22.27 7.12
12 5 11 19.09 8.37
-5 12 -11 31.45 7.87
5 12 -11 19.44 6.82
12 5 11 16.67 8.13
5 12 11 26.89 9.54
12 5 -11 19.56 6.6
-5 12 -12 30.39 6.59
12 5 12 21.32 6.85
5 12 -12 28.6 6.46
12 5 12 19.06 6.97
12 5 -12 25.94 6.1
5 12 12 20.59 7.69
12 5 13 6.42 4.79
5 12 -13 3.88 4.45
12 -5 13 2.73 6.33
12 5 -13 6.51 4.52
5 12 13 0.31 5.94
12 -5 14 2.76 4.66
5 12 14 9.47 4.8
12 -5 -14 6.65 3.58
12 6 0 49.78 11.94
12 6 0 48.95 11.08
-6 -12 0 46.51 20.16
6 -12 0 36.23 20.42
12 6 0 24.22 9.31
6 -12 1 50 20.96
-6 -12 1 68.42 23.61
12 6 -1 63.13 10.88
-6 -12 -1 71 21.24
12 6 1 71.39 11.4
12 6 -1 80.7 12.81
12 6 1 45.39 11.92
6 12 1 68.97 10.71
6 -12 -1 59.42 16.48
6 -12 -1 44.32 20.62
12 -6 -1 78.38 12.13
12 6 -1 41.2 10.99
12 6 1 44.75 9.94
12 6 -2 64.07 11.67
6 -12 2 21.68 18.25
12 6 2 62.33 12.07
12 6 -2 106.05 14.16
6 12 -2 62.2 11.95
12 6 2 43.1 12.39
6 12 2 77.18 12.22
6 -12 -2 64.92 21.73
6 -12 -2 52.18 15.81
-6 -12 2 45.22 18.97
-6 -12 -2 23.31 17.81
12 6 -2 45.7 10.66
12 6 2 47.06 10.37
12 -6 -2 63.56 11.47
12 6 3 9.29 10.03
12 -6 -3 13.3 9.95
12 6 3 36.48 12.17
6 -12 -3 42.79 23.23
6 12 3 8.71 10.88
6 -12 -3 4.23 14.74
12 6 -3 7.25 10.11
12 6 3 -2.92 10
6 -12 3 37.54 20.99
12 6 -3 7.7 9.24
12 6 -4 7.77 10.14
12 6 4 12.68 10.64
6 -12 -4 -1.77 22.2
12 -6 4 1.62 9.61
12 6 4 12.8 11.72
6 -12 -4 7.64 15.6
6 12 4 -5.39 11.12
6 -12 4 -2.71 17.48
12 6 -4 -1.79 10.25
12 -6 4 -1.79 14.26
12 6 4 -10.45 10.7
12 -6 5 7.79 13.59
12 6 -5 8.91 11.9
12 -6 5 25.9 11.56
12 6 5 2.22 9.72
6 -12 -5 30.85 22.18
6 -12 -5 -2.2 17.13
12 6 5 -0.18 11.48
6 12 5 -20.99 11.93
6 -12 5 -20.07 20.11
12 6 -5 6.28 9.77
-12 -6 -5 -0.36 18.1
-12 -6 -6 32.05 20.77
6 -12 6 -25.36 20.63
12 -6 6 13.85 11.06
6 -12 -6 6.51 17.9
12 6 6 4.77 11.02
-6 12 -6 6.55 7.6
12 6 6 -0.44 11.42
6 12 6 -31.95 13.07
12 6 -6 17.79 9.97
12 -6 7 1.65 9.62
-6 12 -7 17.65 8.85
12 6 7 -0.38 11.22
6 12 7 -14.35 12.02
12 6 7 0.76 10.94
-6 12 -8 -6.05 6.69
12 6 8 -10.52 10.67
6 12 -8 -5.64 6.97
12 6 8 -9.41 10.8
6 12 8 -13.09 11.42
12 6 9 9.41 10.18
-6 12 -9 2.75 6.82
6 12 -9 -7.61 6.7
12 6 9 2.41 9.94
6 12 9 -10.51 11.13
-6 12 -10 8.36 6.62
6 12 -10 -1.59 5.8
12 6 10 -0.52 8.64
6 12 10 -1.16 9.77
12 6 -10 3.61 5.92
12 6 10 -2.06 8.35
12 6 11 -2.2 7.2
6 12 -11 8.63 6.18
12 6 11 -2.18 7.8
12 6 -11 -0.85 5.48
6 12 11 6.81 8.36
12 6 12 5.08 5.71
6 12 -12 13.44 5.4
12 6 12 7.39 6.66
12 6 -12 15.02 5.38
6 12 12 3.12 7.16
6 12 -13 8.92 4.44
12 -6 13 10.84 5.93
12 6 -13 1.33 3.96
12 6 13 17.82 5.35
6 12 13 6.03 5.83
12 7 0 -2.79 10.26
-7 -12 0 8.66 18.47
12 7 0 -14.98 12.41
7 12 0 -7.54 10.91
12 7 0 -15.46 10.49
7 -12 0 -21.19 20.44
-7 -12 -1 8.67 17.74
7 -12 1 -4.93 20.5
12 7 1 22.18 10.94
12 7 -1 37.56 11.41
12 7 -1 34.95 12.57
7 12 -1 21.62 10.4
7 12 1 -9.89 12.09
12 7 1 11.13 11.62
7 -12 -1 48.4 21.19
12 7 -1 5.18 10.22
12 7 1 13.31 9.79
7 -12 2 88.48 23.51
12 7 -2 65.03 12.32
12 -7 -2 74.04 12.16
12 7 2 66.55 12.03
12 7 -2 97.42 14.17
7 12 -2 83.42 12.29
12 7 2 41 11.69
7 12 2 90.23 13.56
7 -12 -2 56.94 17.47
7 -12 -2 39.56 19.2
-7 -12 -2 36.37 17.56
12 7 -2 71.32 12.31
12 7 2 41.26 11.1
12 7 3 46.84 11.17
12 7 3 68.8 13.52
12 -7 -3 55.34 12.05
12 7 -3 52.45 11.58
7 -12 3 65.91 22.68
7 12 3 76.55 13.55
7 -12 -3 50.83 17.51
-7 -12 -3 29.6 18
7 -12 -3 26.12 20.48
12 7 -3 44.92 11.98
12 7 3 36.51 10.71
12 7 4 77.55 13.3
12 7 4 77.3 14.01
7 12 4 79.38 13.69
7 -12 -4 60.19 24.03
7 -12 -4 60.42 20.52
7 -12 4 56.5 21.3
12 -7 4 46.56 16.28
12 7 -4 72.24 12.95
12 7 4 46.37 10.81
12 7 -4 71.73 12.64
12 -7 5 191.21 24.56
12 7 5 211.41 17.35
7 12 5 194.96 16.14
12 7 -5 261.88 16.81
7 -12 -5 222.55 29.14
7 -12 5 160.66 27.08
12 7 5 237.58 17.31
12 7 -5 202.75 16.68
7 -12 6 97.27 23.17
7 -12 -6 97.88 23.82
12 -7 6 104.45 19.29
12 7 6 97.37 14.27
7 12 6 87.16 14.3
12 7 -6 130.7 13.4
12 -7 6 121.78 13.48
12 7 6 136.14 14.52
12 7 7 32.78 11.41
12 7 7 6.57 11.1
7 12 7 12.07 10.99
12 7 8 17.32 10.03
12 7 8 16.24 10.62
7 12 8 10.9 10.67
7 12 -9 17.6 6.81
12 7 9 -3.17 8.82
12 7 9 3.86 9.81
7 12 9 16.01 10.75
7 12 10 20.45 10.06
7 12 -10 23.15 6.69
12 7 10 20.39 8.34
12 7 10 23.95 9.43
12 7 11 47.15 7.83
7 12 -11 50.2 7.02
12 7 11 39.96 8.75
7 12 11 60.53 10.61
12 7 -11 58.48 7.46
12 7 -12 11.16 4.65
7 12 -12 25.39 5.56
12 7 12 17.09 6.79
7 12 12 14.32 7.26
7 12 -13 11.3 3.88
12 -7 13 2.81 5.29
12 7 13 17.68 5.29
7 12 13 5.34 5.55
8 -12 0 4.41 19.39
12 8 0 25.71 12.07
8 12 0 15.17 11.67
12 8 0 15.47 10.33
12 8 0 33.52 12.01
12 8 1 -5.37 13.05
8 -12 1 45.02 24.06
12 8 1 21.22 10.9
12 8 -1 42 13.27
-8 -12 -1 7.16 20.23
8 12 -1 19.42 10.85
8 12 1 -16.06 12.95
12 8 -1 43.66 12.15
12 8 -1 3.95 10
12 8 1 6.73 10.07
8 -12 -1 3.11 19.81
-8 -12 -2 -20.45 19.81
12 8 -2 6.93 9.74
12 8 2 0.13 10.95
8 -12 2 -1.99 18.09
12 8 -2 36.74 13.07
8 12 -2 50.54 12.33
12 8 2 -23.3 13.29
8 12 2 12.08 11.77
8 -12 -2 -6.02 16.07
12 8 -2 -1.91 10.08
12 8 2 -4.19 10.62
8 -12 -2 -0.21 19.82
-8 -12 -3 9.42 16.89
12 8 3 8.18 10.82
12 8 3 30.22 12.4
8 12 3 42.96 13.14
8 -12 3 25.37 19.89
8 -12 -3 4.66 15.92
12 8 -3 20.35 11.29
12 8 -3 30.52 11.49
12 -8 -3 31.09 11.43
12 8 3 16.77 10.88
12 8 4 8.55 11.13
12 8 4 27.61 13.08
8 12 4 19.1 11.82
8 -12 -4 20.07 16.38
8 -12 4 2.76 18.96
12 8 -4 37.69 12.4
12 8 4 18.9 10.83
12 8 -4 33.26 12.52
8 -12 5 33.56 18.87
12 8 -5 47.07 12.09
12 8 5 32.12 10.87
12 8 5 40.04 13.18
8 12 5 22.81 11.96
8 -12 -5 -4.84 16.65
12 8 -5 52.56 12.33
12 -8 5 26.74 15.47
12 8 6 11.63 9.93
12 8 6 -3.32 11.36
8 12 6 -14.65 11.74
12 -8 7 22.45 9.61
12 8 7 -4.65 9
12 8 7 3.31 10.43
8 12 7 -8.8 11.02
12 8 8 6.58 8.75
8 12 8 -15.91 11.78
12 8 8 1.71 10.42
12 8 9 2.12 7.86
12 8 9 9.03 10.18
8 12 9 0.4 10.41
8 12 -10 9.09 5.66
12 8 10 15.13 9.22
8 12 10 14.73 9.72
12 8 11 6.44 7.57
8 12 -11 0.32 4.8
8 12 11 11.3 8.64
12 8 12 2.2 5.96
8 12 -12 1.86 4.27
12 -8 12 0.59 5.83
8 12 12 -1.18 6.41
12 -8 13 -3.79 4.4
8 12 13 6.87 5.1
9 -12 0 34.71 21.37
12 9 0 -0.07 12.59
9 12 0 -18.54 12.87
12 9 0 4.14 10.77
12 9 0 0.92 10.74
9 12 1 -13.08 13.18
9 -12 -1 25.08 20.62
12 9 1 49.03 12.59
12 9 -1 34.29 13.22
9 12 -1 37.73 12.32
9 -12 1 72.71 22.88
12 9 1 12.53 12.82
12 9 -1 19.26 10.77
12 9 1 36.51 11.54
12 9 -1 29.88 11.02
12 9 2 98.07 13.73
9 12 -2 105.82 13.68
12 9 -2 165.95 17.15
9 12 -2 128.54 14.85
12 9 2 60.76 13.3
9 12 2 37.19 12.79
9 -12 2 118.1 27.55
12 9 -2 88.13 13.65
12 9 2 97.89 13.56
12 9 -2 89.98 13.29
9 12 3 223.29 17.84
12 9 3 215 17.74
9 -12 -3 203.27 26.68
9 -12 3 177.66 29.16
12 9 -3 233.56 17.42
12 9 3 242.87 16.5
12 -9 -3 200.43 15.4
12 9 3 193.93 15.5
12 9 -3 225.6 17.2
9 -12 4 167.37 27.78
12 9 -4 205.07 15.82
12 9 4 197.28 17.39
9 12 4 213.83 17.67
9 -12 -4 167.72 25.83
12 9 -4 206.14 16.4
12 9 4 188.55 15.67
12 9 4 184.31 14.93
12 9 5 48.56 12.83
9 12 5 39.16 12.17
12 9 5 25.39 10.62
12 9 6 12.13 10.78
12 9 6 -4.89 9.94
9 12 6 2.02 10.58
12 -9 7 19.82 9.12
12 9 7 3.68 10.2
9 12 7 -1.61 10.85
12 9 7 -7.73 9.64
12 9 8 -8.24 8.95
12 -9 8 2.45 7.6
12 9 8 -3.93 10.32
9 12 8 -5 11.16
12 9 9 9.19 9.97
9 12 9 2.67 10.56
12 9 10 23.82 9.44
9 12 10 37.96 10.62
12 -9 11 21.51 6.95
12 9 11 12.03 7.57
9 12 11 6.19 7.52
12 9 12 18.83 6.37
9 12 12 25.07 6.92
12 -9 12 10.78 5.3
9 12 13 11.18 4.84
12 10 0 29.38 11.3
12 10 0 54.23 14.17
10 12 0 41.37 13.7
12 10 0 75.87 13.43
10 12 -1 12.56 10.9
12 10 -1 22.32 11.91
10 12 -1 21.52 12.58
12 10 1 9.21 12.41
10 12 1 -17.37 14.01
10 -12 1 14.06 21.02
12 10 -1 46.62 13.02
12 10 1 34.56 12.42
12 10 -1 48.14 13.96
12 10 1 26.96 11
12 10 -2 -5.25 11.46
10 12 -2 17.37 11.45
12 10 2 9.03 10.74
10 12 -2 46.91 13.14
10 12 2 -24.5 14.23
12 10 2 -25.05 14.31
10 -12 2 -44.78 22.59
12 10 -2 23.79 12.1
12 10 2 37.45 12.01
12 -10 -3 39.47 10.95
12 10 3 18 10.87
12 10 3 -26.63 14.39
10 12 3 19.2 11.82
12 10 -3 42.06 12.52
12 10 3 31.6 12.01
10 -12 3 -54.44 23.8
12 10 -3 5.45 11.05
12 10 4 27.98 12.45
12 10 4 -3.63 9.75
10 12 4 22.11 11.69
12 10 4 16.4 10.98
12 10 -4 15.85 10.06
12 10 5 -8.24 9.33
12 10 5 12.92 10.67
10 12 5 5.33 10.48
12 10 6 -0.61 8.08
12 10 6 13.62 10.74
10 12 6 11.41 10.49
12 10 7 37.4 11.81
10 12 7 10.64 10.66
12 -10 7 37.1 9.91
12 -10 8 13.04 8.02
12 10 8 13.47 10.93
10 12 8 9.5 10.17
12 10 9 27.59 10.66
10 12 9 15.25 10.39
12 -10 10 1.15 6.14
12 10 10 9.28 8.41
10 12 10 -0.1 8.42
12 -10 11 -4.54 5.09
12 10 11 3.19 6.79
10 12 11 -2.5 6.92
12 10 12 8.96 5.51
10 12 12 -0.71 5.47
12 11 0 -5.27 11.25
11 12 0 -6.84 10.45
12 11 0 11.61 13.29
11 12 0 4.18 12.41
12 11 0 20.18 11.45
12 11 1 -5.62 11
11 12 -1 42.31 13.4
12 11 -1 54.22 14.32
12 11 1 12.86 12.54
11 12 1 2.33 12.84
12 11 -1 46.8 12.76
12 11 1 26.5 11.6
12 11 -1 11.64 10.94
11 12 -1 21.95 10.51
11 12 1 18.36 10.22
11 12 -2 49.25 11.67
12 11 2 67.67 11.96
11 12 2 37.21 12.23
12 11 2 18.86 12.65
12 11 -2 89.01 13.98
12 11 2 84.06 13.28
12 11 -2 67.48 12.56
12 -11 -3 71.22 11.91
12 11 3 43.07 10.48
12 11 3 36.68 11.86
11 12 3 20.43 11.62
12 11 3 50.01 12.23
12 11 -3 64.89 11.81
12 11 4 55.55 10.37
11 12 4 57.2 12.64
12 11 5 40.64 12.6
11 12 5 44.84 12.35
12 11 6 28.04 11.79
11 12 6 24.32 11.33
12 -11 7 24.1 9.11
12 11 7 4.69 10.52
11 12 7 5.77 10.83
12 -11 8 12.15 8.09
11 -12 8 11.55 7.97
12 11 8 11.1 10.46
11 12 8 3.47 10.07
12 11 9 17.67 9.56
11 12 9 -1.5 9.02
12 11 10 9.09 8.07
11 12 10 3.83 7.93
12 11 11 19.14 6.55
11 12 11 9.62 6.73
12 11 12 0.01 4.98
11 12 12 -1.5 5
12 12 0 48.17 11.22
12 12 0 60.57 13.67
12 12 1 31.97 10.68
12 12 -1 35.38 10.9
12 12 -1 49.95 13.36
12 12 1 38.79 13.09
12 12 2 20.24 9.55
12 12 2 2.5 11.61
12 12 -2 27.86 10.4
12 -12 -3 10.3 9.69
12 12 3 -18.92 12.15
12 12 4 -10.88 11.73
12 12 5 -10.91 10.78
12 12 6 44.27 11.79
12 -12 7 45.93 9.23
12 12 7 29.5 10.92
12 -12 8 33.85 8.36
12 12 8 31.33 10.88
12 12 9 13.21 8.7
12 12 10 7.16 7.46
12 12 11 -1.89 5.62
13 0 0 -1.69 9.38
0 -13 0 2.8 19.81
13 0 -1 32.29 10.32
13 0 1 17.86 10.42
0 -13 -1 51.04 22.37
0 -13 1 45.19 21.92
0 -13 -2 159.93 28.45
13 0 2 196.12 15.7
13 0 -2 194.76 14.61
13 0 2 212.07 16.09
0 -13 2 228.83 30.51
0 -13 -2 199.08 22.12
0 13 -3 184.34 12.83
13 0 -3 194.56 14.41
13 0 3 199.34 15.16
13 0 -3 203.14 14.78
0 -13 -3 186.69 24.36
0 -13 -3 148.3 28.2
13 0 3 198.93 15.61
0 -13 3 164.13 27.64
0 -13 -4 112.33 26.13
13 0 4 96.61 12.24
13 0 -4 106.22 12.37
13 0 4 137.75 15.4
0 -13 4 125.02 25.44
0 13 -4 128.17 11.85
0 -13 -4 113.81 21.08
13 0 -4 138.91 14.17
0 -13 5 37.46 20.5
13 0 5 24.83 9.73
0 -13 -5 24.68 23.18
13 0 -5 15.68 10.77
13 0 5 -5.22 12.45
0 -13 -5 -17.81 19.75
0 13 -5 18.11 8.78
13 0 6 -1.09 8.73
0 -13 -6 40.29 25.1
13 0 6 6.21 12.15
0 -13 -6 -8.17 19.3
0 -13 6 -33.27 21.56
0 13 -6 8.88 7.85
0 -13 -7 16.42 18.38
0 -13 7 7.58 17.32
0 13 -7 5.77 8.42
13 0 7 -7.86 11.15
0 -13 -7 -14.97 22.82
0 13 -8 21.89 7.94
13 0 8 19.16 12.19
0 13 8 13.58 9.08
0 13 -9 39.48 8.31
0 13 9 22.56 8.83
13 0 10 47.55 12.11
0 13 10 36.23 8.83
0 13 -10 40.61 8.28
13 0 11 30.35 9.83
0 13 -11 19.72 7.4
0 13 11 13.01 7.28
0 13 -12 7.68 6.13
13 0 12 12.62 7.63
0 13 12 1.84 6.33
13 0 -12 7.42 5.79
13 0 13 6.66 6.18
0 13 -13 8.24 4.91
0 13 13 -10.6 5.9
13 0 -13 -1.84 4.38
13 0 14 3.81 4.23
13 1 0 65.04 11.25
13 -1 0 47.68 11.13
-1 -13 0 51.87 21.05
1 -13 0 94.6 24.27
13 1 -1 10.57 9.24
13 1 1 13.52 9.51
13 -1 -1 11.12 9.28
13 -1 1 10.93 10.51
13 1 1 35.09 11.01
-1 -13 -1 15.15 21.39
1 -13 -1 14.4 20.44
1 -13 -1 20.25 14.29
-1 -13 1 47.32 22.26
1 -13 1 4.5 19.58
13 1 -2 30.91 10.1
13 1 2 29.87 10.11
13 -1 -2 33.12 10.55
13 -1 2 33.93 10.85
13 -1 2 26.76 10.13
13 1 -2 29.61 10.42
-1 -13 -2 42.61 22.77
1 -13 -2 28.5 21.72
13 1 2 36.05 10.65
1 -13 -2 57.37 17.94
-1 -13 2 50.57 23.75
1 -13 2 26.44 20.27
1 -13 3 16.15 19.88
13 1 -3 14.61 9.57
-1 13 -3 26.32 9.07
13 -1 -3 2.26 9.59
13 1 3 4.34 9.95
13 -1 3 3.54 11.1
-1 -13 -3 25.84 21.11
1 -13 -3 23.48 21.48
13 1 3 19.14 11.97
13 -1 3 15.12 10.69
-1 -13 -3 13.17 14.91
1 -13 -3 9.25 14.14
13 1 -3 19.65 10.51
-1 -13 3 -0.5 20.85
1 13 -4 0.16 7.5
13 -1 -4 18.84 10.06
-1 13 -4 1.27 7.24
13 1 4 -14.46 10.03
13 -1 4 -9.79 10.73
1 -13 -4 21.75 21.94
13 1 -4 10.37 11.14
1 -13 4 33.06 22.92
13 1 4 -2.25 9.76
13 -1 4 -1.05 10.45
-1 -13 -4 -7.05 16.86
1 -13 -4 -5.63 16.28
-1 -13 4 -11.24 19.25
13 -1 -4 0.13 10.28
13 1 -4 -4.26 9.27
-1 -13 -4 18.19 21.09
13 -1 -5 -4.91 9.83
13 1 5 1.81 9.14
13 -1 5 -4.81 10.25
-1 -13 -5 -7.01 22.89
1 -13 -5 -10.48 22.18
13 1 -5 13.6 11.14
-1 13 -5 7.73 7.37
-1 -13 -5 -15.42 20.14
-1 -13 5 -24.64 21.26
13 1 5 -3.69 10.58
13 -1 5 0.04 10.73
1 -13 5 -13.56 19.25
1 -13 -5 -13.7 19.08
1 13 -5 3.58 7.38
1 -13 -6 27.65 24.47
13 -1 6 5.27 9.72
1 13 -6 6.35 8.25
13 -1 6 8.41 11.11
1 -13 -6 27.66 19.03
1 13 6 18.04 9.65
-1 -13 6 -6.13 21.96
1 -13 6 -8.29 23
-1 13 -6 13.5 8.85
-1 -13 -6 17.28 19.26
13 1 -6 33.71 12.84
13 1 6 0.98 11.13
1 -13 7 -10.76 19.55
-1 -13 7 7.15 19.12
-1 13 -7 2.38 7.83
1 -13 -7 15.1 22.74
-1 -13 -7 -22.17 18.6
1 13 -7 3.74 7.36
1 -13 -7 -48.89 21.2
13 1 7 -12.54 12.68
1 13 7 1.76 9.47
13 1 8 10.28 10.57
1 13 8 10.8 8.9
-1 13 -8 10.53 8.1
1 13 -8 7.41 7.95
1 13 9 0.87 8.25
1 13 -9 0.55 7.21
13 1 9 0.6 10.64
-1 13 9 -0.57 7.83
-1 13 -9 -0.63 6.79
-1 13 -10 12.42 7.72
1 13 -10 7.53 7.63
13 1 10 2.28 9.42
13 -1 10 1.35 9.04
1 13 10 -7.44 8.33
-1 13 10 2.96 7.42
13 1 11 -3.07 8.31
13 -1 11 9.57 9
-1 13 -11 -0.39 6.74
1 13 -11 0.52 6.62
1 13 11 -5.32 7.3
-1 13 11 5.03 6.8
1 13 -12 6.1 5.49
-1 13 -12 7.86 5.91
13 1 12 -3.48 7.49
13 -1 12 12.24 8.3
1 13 12 0.68 6.28
-1 13 12 5.66 6.17
13 1 -12 1.72 5.38
13 -1 13 -0.15 6.36
-1 13 -13 2.66 4.57
1 13 -13 -0.9 4.36
13 1 13 -2.63 5.73
1 13 13 -7.49 6
-1 13 13 -12.56 5.73
13 1 -13 3.27 4.48
13 -1 -13 -0.88 4.42
13 -1 14 2.75 4.39
13 -1 -14 2.19 3.12
1 13 -14 1.51 3.31
13 2 0 -2.88 9.53
13 -2 0 -2.65 9.66
13 2 0 -10.33 10.45
-2 -13 0 9.24 20.68
2 -13 0 22.01 22.07
2 -13 0 -21.05 13.8
13 2 -1 19.98 10.04
13 2 1 8.87 9.91
13 -2 -1 2.13 9.6
13 -2 1 15.45 10.91
13 2 -1 8.58 8.91
-2 -13 -1 14.98 20.38
13 2 1 14.4 9.61
2 -13 -1 28.64 22.28
-2 -13 1 10.23 19.76
2 -13 -1 22.91 13.14
2 -13 1 10.67 19.23
13 2 -2 24.27 10.14
13 2 2 27.42 10.24
13 -2 -2 25.9 9.62
13 -2 2 34.51 10.31
13 2 -2 52.45 11.58
-2 -13 -2 57.93 23.38
13 2 2 39.7 11.26
13 -2 2 38.74 10.48
2 -13 -2 57.44 22.41
2 -13 -2 32.9 16.08
-2 -13 2 43.92 22.93
2 -13 2 23.34 20.33
13 2 3 94.83 11.71
2 -13 3 69.56 22.84
13 2 -3 101.15 13.61
13 -2 -3 69.5 11.32
13 -2 3 76.94 13.05
-2 -13 -3 64.49 23.56
2 -13 -3 75.89 23.62
13 2 3 86.3 13.75
13 -2 3 90.3 12.69
2 -13 -3 52.65 16.09
-2 -13 3 74.94 22.73
13 2 -3 84.69 11.9
13 2 4 72.62 11.37
13 -2 -4 71.65 11.3
13 -2 4 65.84 12.07
-2 -13 4 56.35 22.49
2 -13 -4 86.98 25.12
2 13 -4 84.61 10.33
13 -2 4 80.46 13.45
2 -13 4 77.92 23.81
13 2 4 78.43 12.58
2 -13 -4 50.25 18.01
13 2 -4 83.13 13.38
-2 -13 -4 63.21 24.69
-2 13 -4 85.19 10.73
13 2 -4 78 11.54
-2 -13 -4 60.97 18.22
13 2 5 19.44 9.58
13 -2 5 8.9 10.7
2 -13 -5 21.14 22.27
13 2 -5 30.19 12.59
-2 13 -5 21.37 8.42
13 2 5 31.55 10.93
-2 -13 -5 28.98 16.66
-2 -13 5 38.68 20.55
13 -2 5 33.24 12.55
2 -13 -5 11.59 17.83
2 -13 5 65.46 25.08
2 13 -5 35.01 9
2 13 5 17.47 9.65
-2 -13 -5 43.05 22.42
13 2 -5 17.18 9.82
-2 13 -6 -1.78 8.11
13 -2 6 -6.73 10.9
2 -13 -6 26.86 25.51
-2 -13 -6 17.51 20.31
2 13 -6 -1.58 8.1
13 2 6 6.48 10.5
2 -13 -6 -5.81 20.06
2 13 6 -1.83 10.1
-2 -13 6 -16.3 21.39
2 -13 6 -17.08 21.15
13 2 -6 4.33 11.28
2 -13 7 20.8 18.46
2 -13 -7 33.27 23.92
-2 13 -7 7.52 8.31
13 2 7 3.79 12.48
-2 -13 -7 -6.83 18.17
2 13 -7 4.14 7.45
2 -13 -7 7 17.76
2 13 7 -0.36 10.2
-2 13 -8 8.84 7.91
2 13 -8 -4.65 7.14
13 2 8 5.6 10.21
2 13 8 2.1 9.05
-2 13 -9 1.69 6.44
2 13 -9 8.33 7.52
13 2 9 11.13 11.12
2 13 9 1.36 8.63
2 13 -10 13.93 7.47
-2 13 -10 17.82 7.66
13 2 10 14.97 10.52
2 13 10 -1.54 8.37
-2 13 10 6.38 7.54
2 13 -11 13.32 6.91
13 2 11 20.8 8.95
13 -2 11 26.89 9.41
2 13 11 0.13 7.55
-2 13 11 13.92 7.54
13 2 -11 15.08 6.53
-2 13 -11 7.22 7.07
-2 13 -12 14.09 5.89
2 13 -12 16 6.01
13 2 12 12.55 7.46
13 -2 12 27.19 8.87
2 13 12 9.41 6.78
-2 13 12 7.05 6.22
13 2 -12 8.58 5.19
-2 13 -13 7.86 4.82
13 -2 13 1.73 6.35
13 2 13 2.06 5.45
2 13 13 7.44 5.74
13 2 -13 -1.7 4.29
13 -2 -13 1.93 4.32
2 13 -13 -1.98 4.55
2 13 -14 6.16 3.43
13 -2 14 2.31 4.57
13 -2 -14 0.99 2.99
-3 -13 0 143.82 27.11
3 -13 0 131.23 25.47
3 -13 0 138.57 20.46
13 3 0 141.85 13.61
13 -3 0 145.12 14.16
13 3 0 120.18 13.17
13 3 -1 30.67 10.54
13 3 1 26.57 10.65
13 -3 -1 25.63 10.67
13 -3 1 42.11 11.76
13 3 -1 31.27 10.67
13 3 1 27.19 10.55
-3 -13 -1 43.59 21.47
3 -13 -1 50.29 21.59
-3 -13 1 84.53 24.42
3 -13 -1 40.11 16.79
3 -13 1 48.12 21.19
13 3 2 27.79 9.9
13 -3 -2 22.46 10.25
13 3 -2 45.78 11.94
13 -3 2 28.42 11.85
13 3 2 28.19 10.56
13 -3 2 29.78 10.03
3 -13 -2 15.72 20.76
3 -13 -2 34.32 17.55
-3 -13 2 34.93 20.55
3 -13 2 10.79 18.65
-3 -13 -2 11.58 19.82
13 3 -2 14.85 9.76
13 3 3 -2.38 9.06
13 3 -3 -2.67 10.82
3 -13 3 -32.58 23.34
13 -3 3 -2.27 10.15
13 -3 -3 -5.28 10.19
13 -3 3 14.25 11.09
13 3 3 2.32 10.8
3 -13 -3 6.79 19.87
13 3 3 -31.25 11.43
3 -13 -3 7.66 16.22
-3 -13 3 24.08 19.39
13 3 -3 15.86 10.28
-3 -13 -3 -8.79 19.32
13 3 4 -1.87 9.24
3 -13 4 8.95 20.68
13 -3 -4 -5.42 10.02
-3 -13 -4 6.9 20.03
13 -3 4 -4.36 10.8
-3 -13 4 -8.17 18.99
13 3 -4 14.47 10.76
-3 13 -4 8.42 7.91
3 -13 -4 -1.14 21.27
13 3 4 -3.54 9.71
13 -3 4 12.41 11.3
3 -13 -4 1.9 14.72
13 3 4 25.59 11.08
3 13 4 0.66 9.34
13 3 -4 -20.36 10.71
3 13 -5 10.42 7.64
13 3 -5 15.14 11.13
3 -13 -5 1.99 21.1
-3 -13 -5 19.35 17.92
13 3 5 2.86 11.38
-3 -13 5 13.19 17.48
13 -3 5 -7.81 12.22
3 -13 -5 -25.17 20.49
3 -13 5 2.79 20.3
13 3 5 19.17 11.15
3 13 5 -9.67 10.73
13 -3 5 3.85 10.39
-3 13 -5 10.54 8.05
13 3 -5 -19.8 11.17
13 3 5 10.71 9.14
13 -3 6 -0.45 10.52
3 -13 -6 -11.73 23.64
3 13 -6 8.47 8.19
-3 -13 -6 8.23 19.11
13 3 6 3.81 11.97
3 -13 -6 7.16 18.75
13 3 6 17.67 10.55
3 13 6 -10.79 11.24
3 -13 6 -27.22 21.74
13 3 -6 7.13 11.29
-3 13 -6 6.88 7.43
-3 13 -7 5.69 8.41
13 3 7 3.67 10.88
3 13 -7 -0.27 7.21
13 3 7 4.91 9.61
3 13 7 1.44 10.17
3 13 -8 -0.17 7.15
-3 13 -8 7.01 7.02
13 3 8 -7.04 11.81
3 13 8 -3.39 9.55
-3 13 -9 -0.7 6.88
13 3 9 2.21 10.67
3 13 -9 -1.82 6.57
3 13 9 -8.24 9.36
-3 13 -10 7.42 6.84
13 3 10 -0.87 9.66
3 13 -10 2.35 6.35
3 13 10 -14.21 8.91
13 3 -10 -5.26 6.01
3 13 -11 -1.56 5.96
13 3 11 17.75 9.19
13 -3 11 8.54 9.1
3 13 11 -4.58 7.85
13 3 -11 1.68 5.6
-3 13 -11 2.59 6.42
-3 13 -12 -0.08 5.57
13 3 12 -6.24 7.21
13 -3 12 8.21 7.7
3 13 12 -0.44 6.5
13 3 -12 -3.15 4.88
3 13 -12 0.35 5.35
3 13 -13 3.4 4.46
13 3 13 6.69 5.36
13 -3 13 4.4 5.97
3 13 13 -4.07 5.66
13 3 -13 -0.9 4.27
13 -3 -13 1.06 4.16
13 4 0 7.36 10.53
-4 -13 0 -2.16 20.28
13 4 0 2.61 10.44
4 -13 0 8.59 18.42
13 -4 0 2.99 10.08
13 4 0 -2.94 9.04
13 -4 1 35.71 11.42
-4 -13 -1 6.59 20.54
13 4 -1 23.7 9.56
13 -4 -1 39.26 11.14
13 4 1 22.71 9.47
13 4 -1 54.5 12.45
13 4 1 19.24 10.27
-4 -13 1 63.86 23.71
4 -13 -1 33.6 21.49
4 -13 -1 23.06 14.78
4 -13 1 33.76 19.11
13 4 -1 31.19 10.57
13 4 1 41.61 10.53
4 -13 2 2.23 21.34
13 -4 2 43.52 12.53
13 4 2 29.82 11.29
13 4 2 -3.99 11.34
4 -13 -2 19.14 19.62
4 -13 -2 9.47 14.04
-4 -13 2 23.35 21.45
-4 -13 -2 31.17 22
13 4 -2 18.67 9.73
13 4 -2 23.84 10.56
13 -4 -2 18.66 10.44
13 4 2 26.39 10.27
13 -4 -3 31.02 10.73
4 -13 3 35.43 20.53
-4 -13 -3 13.41 19.11
13 4 3 44.27 10.8
4 -13 -3 17.5 20.2
13 4 3 -9.4 11.79
4 13 3 29.49 10.27
4 -13 -3 46.51 17.22
13 -4 3 40.39 12.53
13 4 -3 28.02 11.11
13 -4 3 40.38 10.68
-4 -13 3 23.45 20.03
13 4 -3 42.22 12.24
13 4 3 30.09 10.19
13 -4 -4 7.03 10.6
4 -13 4 23.24 22.01
13 4 -4 24.16 10.61
13 -4 4 35.7 12.16
13 -4 4 11.3 11.12
13 4 4 30.78 11.91
4 -13 -4 9.18 19.72
13 4 4 40.07 11.73
4 -13 -4 30.38 17.57
4 13 4 17.11 10.64
-4 -13 -4 24.23 20.05
-4 -13 4 34.25 21.42
13 4 -4 -1.86 11.03
13 4 4 20.85 9.9
13 4 5 21.53 10.59
-4 13 -5 21.05 9.42
4 -13 -5 16.9 23.18
13 -4 5 7.18 11.92
4 -13 -5 22.7 19.13
13 4 5 31.21 11.89
4 -13 5 40.4 22.91
4 13 5 1.47 10.89
13 -4 5 20.84 11.08
13 4 -5 20.99 12.48
13 4 -5 14.75 10.25
13 4 5 11.87 9.85
4 -13 -6 -16.22 21.03
-4 13 -6 15.33 8.98
-4 -13 -6 -11.45 19.49
13 4 6 -1.87 10.52
4 13 -6 16 8.13
4 -13 -6 -6.27 17.57
13 4 6 2.94 12.06
4 13 6 -9.81 11.41
-13 -4 -6 -40.11 20.09
13 4 -6 9.66 11.81
13 -4 6 -8.83 10.61
4 -13 6 -8.49 19.61
-4 13 -7 6.51 7.6
13 -4 7 -10.29 9.66
13 4 7 -11.51 12
4 13 -7 -4.81 7.1
13 4 7 -0.28 10.12
4 13 7 -29.96 12.15
13 4 8 6.21 10.25
4 13 -8 -3.47 6.6
13 4 8 8.32 9.57
4 13 8 -5.27 10.32
-4 13 -8 -4.54 7.62
-4 13 -9 12.59 7.62
13 4 9 -3.29 10.82
4 13 -9 0.35 6.59
13 4 9 0.98 8.63
4 13 9 6.69 9.32
13 4 -9 6.96 6.37
13 4 10 -2.74 9.63
4 13 -10 12.39 6.76
13 4 10 -5.84 8.14
4 13 10 2.43 8.37
13 4 -10 0.44 6.02
-4 13 -10 4.34 7.2
-4 13 -11 5.3 6.53
13 4 11 -4.41 8.19
4 13 -11 1.08 5.67
4 13 11 3.5 7.84
13 4 -11 3.33 5.52
13 4 12 -0.7 6.11
4 13 -12 6.26 5.29
13 -4 12 7.55 7.29
4 13 12 1.77 6.47
13 4 -12 8.52 4.98
13 4 13 -0.08 4.7
4 13 -13 6.56 4.21
13 -4 13 2.11 5.85
13 4 -13 4.43 4.11
4 13 13 -0.71 5.39
13 -5 0 52.06 11.57
13 5 0 55.04 12.29
-5 -13 0 41.48 21.84
13 5 0 71.11 13.27
5 -13 0 49.62 22.64
13 5 0 68.2 11.55
13 -5 -1 35.73 11.19
13 -5 1 50.5 11.77
13 5 -1 47.94 10.76
13 5 1 38.61 12.03
-5 -13 -1 32.36 19.95
13 5 -1 81.11 13.4
13 5 1 27.29 11.61
5 13 1 13.98 9.95
-5 -13 1 49.82 23.12
5 -13 -1 58.97 23.37
5 -13 -1 46.56 16.44
5 -13 1 42.97 21.1
13 5 -1 56.47 11.62
13 5 1 57.89 11.2
5 -13 2 -16.21 22.64
13 5 -2 8.48 9.46
-5 -13 -2 20.43 20.59
13 5 2 -4.29 10.34
13 5 2 -28.22 12.68
5 13 2 28.07 10.54
5 -13 -2 25.65 21.35
5 -13 -2 -22.17 16.2
-5 -13 2 22.73 19.35
13 -5 -2 -0.88 9.97
13 -5 2 26.79 12.35
13 5 -2 -5.42 10.87
13 5 2 4.23 9.53
13 5 -3 -3.57 9.51
13 -5 -3 0.56 10.41
13 5 3 2.99 9.44
13 -5 3 18.95 11.22
13 -5 3 -5.29 9.88
13 5 3 -21.6 12.72
5 -13 -3 15.42 20.15
5 13 3 4.9 10.23
5 -13 -3 12.93 16.18
-5 -13 -3 -27.76 19.1
5 -13 3 15.85 19.25
13 5 -3 -4.58 10.86
13 5 3 12.04 9.99
-5 -13 3 -8.53 21.47
13 -5 -4 14.79 10.35
13 5 -4 28.65 12.2
13 5 4 26.67 11.76
13 -5 4 14.21 10.83
5 -13 4 3.5 19.28
5 -13 -4 21.3 20.11
13 5 4 56.6 12.98
5 -13 -4 1.27 17.08
5 13 4 17.13 11.13
-5 -13 -4 31.26 20.43
13 5 -4 14.07 10.86
13 -5 4 26.48 11.76
13 5 4 38.18 10.92
13 -5 5 17.17 11.33
13 5 5 43.48 11.49
13 -5 5 34.26 12.16
5 -13 -5 37.93 26.21
13 5 5 53.76 13.33
5 -13 -5 51.99 20.5
5 13 5 39.4 12.28
5 -13 5 25.64 20.81
13 5 -5 51.07 12.93
13 5 -5 24.46 10.46
13 5 5 7.18 10.3
-13 -5 -5 54.25 19.91
5 -13 6 29.67 17.96
-5 13 -6 47.25 9.58
13 5 6 46.69 11.66
5 -13 -6 7.38 22.41
5 -13 -6 61.26 19.35
13 5 6 50.81 12.72
5 13 6 53.93 12.17
13 5 -6 49.89 11.11
13 -5 6 41.51 11.57
-13 -5 -6 21.35 18.17
-5 13 -7 57.88 9.55
5 13 -7 54.59 9.09
13 5 7 48.63 12.28
13 5 7 50.73 11.73
5 13 7 33.43 11.25
13 -5 7 36.65 10.09
-5 13 -8 35.57 9.11
13 5 8 14.75 10.76
5 13 -8 24.85 7.49
13 5 8 15.64 10.61
5 13 8 -1.12 10.26
-5 13 -9 13.04 7.64
13 5 9 7.4 10.2
5 13 -9 9.12 6.38
13 5 9 6.3 9.45
5 13 9 0.78 9.83
-5 13 -10 3.91 7.15
13 5 10 2.92 8.57
5 13 -10 9.28 6.37
13 5 10 6.57 8.66
5 13 10 2.06 8.7
13 5 -10 6.15 5.81
13 5 11 -1.38 7.17
5 13 -11 10.01 5.87
13 -5 11 5.47 8.4
13 5 11 2.05 6.73
5 13 11 2.21 7.52
13 5 -11 0.79 5.08
13 5 12 2.59 5.57
5 13 -12 3.63 4.69
13 -5 12 10.86 6.98
13 5 -12 -3.68 4.49
5 13 12 1.13 6.44
5 13 -13 -0.6 3.89
13 -5 13 1.29 5.61
5 13 13 0.46 5.23
13 -6 0 23.12 11.41
13 6 0 -3.09 9.53
13 6 0 5.2 12.2
6 -13 0 -6.36 19.22
13 6 0 -2.9 10.88
6 13 0 -18.75 10.81
6 -13 1 3.41 20.83
13 -6 -1 34.9 11.6
13 -6 1 60.84 13
-6 -13 -1 6.25 18.92
13 6 -1 7.71 10.88
13 6 1 -4.93 10.32
13 6 -1 21.18 12.16
6 13 -1 8.9 10
13 6 1 -19.81 12.43
6 13 1 -24.84 11.77
-6 -13 1 17.36 21.97
6 -13 -1 -14.42 16.42
6 -13 -1 -12.57 20.54
13 6 -1 -16.12 10.91
13 6 1 -12.7 11.06
6 -13 2 37.8 21.47
13 -6 2 52.63 12.98
-6 -13 -2 22.73 20.5
13 6 2 12.95 10.5
6 13 -2 55.54 11.55
13 6 2 -8.7 13.07
6 13 2 33.87 11.55
6 -13 -2 13.61 21.2
6 -13 -2 3.41 14.89
13 6 -2 33.56 10.72
13 6 -2 8.17 10.71
13 6 2 20.6 9.87
13 -6 -2 16.83 10.96
13 -6 3 47.3 12.97
13 6 -3 -4.86 9.91
13 -6 -3 -5.26 10.62
6 -13 3 -18.81 19.44
13 6 3 -44.5 14.85
6 13 3 14.71 11.06
6 -13 -3 19.26 20.01
6 -13 -3 -2.59 15.83
-6 -13 -3 -8 17.57
13 6 -3 -11.58 11.33
13 6 3 -18.67 11.04
13 6 3 -11.51 10.28
13 6 -4 -2.74 9.85
13 -6 4 39.14 12.17
13 6 4 12.59 11.59
13 -6 4 -6.36 10.71
13 6 4 7.42 12.12
6 -13 4 13.05 21.09
6 -13 -4 18.28 21.83
6 13 4 1.08 10.81
6 -13 -4 17.68 18.09
-6 -13 -4 -26.13 19.13
13 6 -4 -5.52 10.6
13 6 4 -23.62 11.28
13 6 5 15.58 10.86
13 -6 5 32.38 11.59
13 -6 5 8.73 10.74
6 -13 -5 39.45 23.94
13 6 5 15.08 12.5
6 13 5 0.51 11.03
6 -13 -5 20.79 19.11
6 -13 5 10.88 18.95
13 6 -5 15.93 11.1
13 6 -5 5.3 9.99
13 6 5 -5.73 10.09
13 -6 6 15.2 10.36
13 6 6 21.27 11.4
13 6 6 20.82 11.48
6 13 6 -15.34 11.71
13 6 -6 27.09 9.83
13 6 7 14.51 10.37
6 13 7 -7.3 10.96
13 6 7 10.91 9.79
13 -6 7 -0.54 8.94
13 6 8 7.41 9.72
6 13 -8 0.47 6.04
13 6 8 0.71 9.6
6 13 8 -4.82 10.56
13 6 9 -4.47 9.22
6 13 -9 4.84 5.99
13 6 9 -2.22 9
6 13 9 -4.99 10.21
13 6 10 -10.45 8.5
6 13 -10 -7.81 5.48
6 13 10 8.7 9.11
13 6 10 -0.2 8.18
13 6 11 5.98 6.75
13 -6 11 5.11 7.63
6 13 -11 7.72 5.37
13 6 11 5.06 7.26
6 13 11 1.54 7.88
13 6 12 1.97 7.69
13 -6 12 1.59 6.25
6 13 -12 1.81 4.34
13 6 12 -4.17 5.44
6 13 12 2.06 6.09
13 -6 13 0.6 4.86
6 13 13 -0.59 4.94
7 -13 0 108.85 25.97
13 7 0 165.65 16.37
7 13 0 113.96 13.49
-7 -13 0 155.2 29.73
13 -7 0 163.13 15.41
13 7 0 155.99 14.84
13 7 0 105.37 13.75
7 13 -1 91.71 12.9
7 -13 1 30.31 20.3
13 7 1 63.46 12.77
13 7 -1 72.33 12.3
13 7 1 54.05 14.19
-7 -13 -1 78.77 24.22
13 7 -1 86.26 14.19
7 13 1 35.17 11.47
13 -7 1 92.8 14.36
13 7 -1 46.38 11.56
7 -13 -1 62.27 24.87
13 7 1 41.48 10.88
13 -7 -1 87.07 13.36
13 -7 -2 26.02 11.67
7 -13 2 31.06 20.99
13 7 -2 17.75 11.74
-7 -13 -2 38.6 21.09
13 7 2 22.45 10.36
7 13 -2 42.57 12.28
13 7 2 5.11 12.91
7 13 2 33.84 12.17
7 -13 -2 -1.23 15.82
7 -13 -2 3.98 19.48
13 7 -2 10.86 10.37
13 7 2 -3.06 10.73
13 -7 -3 12.04 10.91
13 7 -3 8.97 10.08
13 -7 3 67.14 13.41
7 -13 3 19.99 20.26
13 7 3 -20.68 14.48
7 13 3 37.41 12.64
7 -13 -3 2.34 16.39
7 -13 -3 24.69 21.84
13 7 -3 12.22 10.93
-7 -13 -3 -26.61 18.81
13 7 3 8.03 10.21
13 7 3 -6.52 11.56
-7 -13 -4 -14.35 16.82
13 7 -4 46.57 12.26
13 7 4 34.57 11.67
13 7 4 57.2 13.93
7 13 4 44.58 12.74
7 -13 4 17.5 18.71
7 -13 -4 5.94 16.34
13 -7 4 94.27 13.89
13 7 -4 54.81 12.42
13 7 4 28.72 10.8
13 7 5 121.09 14.02
13 7 5 109.38 15.15
7 13 5 115.57 14.65
7 -13 -5 104.06 21.71
13 7 -5 135.92 14.43
13 7 5 127.41 13.4
13 -7 5 97.82 13.06
7 -13 5 100.23 23.33
13 7 -5 111.38 14.03
13 7 6 129.49 14.2
13 7 6 152.46 15.69
7 13 6 117.84 14.04
13 7 -6 155.88 13.38
13 -7 6 107.35 12.87
13 -7 6 126.88 13.09
13 7 7 59.26 11.38
13 7 7 55.48 12.2
7 13 7 52.04 12.09
13 -7 7 40.22 10.39
13 7 8 24.11 10.18
13 7 8 19.13 10.35
7 13 8 24.54 10.99
13 7 9 0.15 8.39
13 7 9 -6.57 9.22
7 13 9 2.68 9.67
13 7 10 3.5 7.36
7 13 -10 16.54 6.26
13 7 10 11.83 8.57
7 13 10 6.75 9.27
13 7 11 4.36 5.74
7 13 -11 2.4 4.68
13 -7 11 -0.28 6.79
13 7 11 7.87 7.06
7 13 11 2.61 7.62
13 -7 12 0.63 5.62
13 7 12 8.56 5.69
7 13 12 5.41 6.02
7 13 -12 6.99 4.14
7 13 13 6.11 4.79
13 8 0 6.26 10.71
13 8 0 6.43 12.19
8 13 0 -17.14 11.78
13 8 0 -3.52 10.53
8 -13 -1 10.06 21.34
13 8 -1 11.58 10.53
13 -8 -1 28.55 12.17
8 -13 1 27.01 21.54
13 8 1 0.17 11.44
13 8 -1 21.52 13.24
8 13 -1 10.51 11.17
13 8 1 -20.51 13.41
8 13 1 -20.99 12.89
13 8 -1 -0.6 11.21
13 8 1 -2.89 10.78
8 13 2 -35.58 14.65
13 -8 -2 21.92 11.53
13 8 2 -3.28 11.31
-8 -13 -2 28.55 21.81
8 -13 2 -7.72 21.81
8 13 -2 43.39 12.43
13 8 2 -24.22 13.87
13 8 -2 -4.7 11.26
13 8 2 -0.82 10.41
13 8 -2 -6.82 10.25
8 -13 -2 -18.55 22.91
-8 -13 -3 10.51 16.78
13 -8 -3 18.78 10.95
13 8 -3 31.57 12.36
13 8 3 9.27 10.18
13 8 3 -11.12 13.33
8 13 3 42.82 12.85
8 -13 3 -3.64 20.34
8 -13 -3 16.93 16.57
13 8 -3 36.85 12.12
13 8 3 9.99 10.44
13 8 4 12.32 9.89
-8 -13 -4 -8.55 13.87
13 8 4 54.74 13.99
8 13 4 41.7 12.49
8 -13 -4 6 15.57
13 8 -4 46.87 12.25
8 -13 4 13.45 18.95
13 8 4 37.94 11.18
13 8 -4 37.61 11.16
13 8 -5 13.84 10.96
13 8 5 -20.08 10.86
13 8 5 -2.33 10.91
8 13 5 -5.41 10.14
13 8 -5 14.38 11.3
13 8 5 -7.56 9.94
13 -8 6 29.04 10.17
13 8 6 -7.54 9.54
13 8 6 8.03 11.07
8 13 6 2.26 10.54
13 8 7 -2.81 9.35
13 -8 7 9.13 8.93
13 -8 7 5.45 8.67
13 8 7 5.75 10.74
8 13 7 16.14 11.01
13 8 8 8.47 8.69
13 -8 8 0.72 8.16
13 8 8 13.87 10.72
8 13 8 8.14 10
13 -8 8 4.62 7.71
13 8 9 9.41 7.65
13 -8 9 9.74 8.19
13 8 9 -3.92 9.04
8 13 9 5.74 9.76
13 8 10 3.84 6.39
13 -8 10 12.81 7.54
13 8 10 10.24 8.14
8 13 10 5.62 8.8
13 -8 11 6.73 6.31
13 8 11 7.29 6.81
8 13 11 5.61 7.51
13 -8 12 -0.94 5.03
13 8 12 -8.53 5.77
8 13 12 -4.55 5.85
13 9 0 67.26 13.77
9 -13 0 68.67 26.93
13 9 0 73.23 15.17
9 13 0 63.13 13.38
13 9 0 77.22 12.7
13 9 1 65.89 13.4
9 -13 1 55.53 25.13
13 9 -1 106.29 15.87
9 13 -1 76.3 13.75
13 9 1 43.16 13.69
9 13 1 35.33 12.6
13 -9 -1 98.2 13.99
13 9 -1 60.83 12.4
13 9 1 70.4 13.16
13 9 -1 43 12.06
13 9 -2 14.54 10.74
13 9 2 4.25 10.83
13 9 2 -18.44 13.52
9 -13 2 11.69 21.7
13 -9 -2 24.26 11.37
13 9 -2 22.8 11.43
13 9 2 7.24 10.48
13 9 3 19.05 10.46
13 9 3 -22.59 13.55
9 13 3 6.3 11.91
9 -13 3 6.48 17.76
13 9 -3 18.84 11.42
13 -9 -3 -1.95 10.41
13 9 3 10.77 10.85
13 9 -3 -5.45 10.32
13 9 -4 20.75 11.46
13 9 4 -2.96 9.84
13 9 4 -16.3 12.29
9 13 4 4.08 10.73
13 9 -4 16.78 11.1
13 9 4 14.04 10.45
13 -9 5 35.8 10.77
13 9 5 -6.79 9.71
13 9 5 26.81 12.13
9 13 5 14.38 10.91
13 9 5 10.36 9.08
13 -9 6 24.84 10.26
13 9 6 2.43 8.88
13 9 6 20.15 11.1
9 13 6 8.64 10.59
13 9 7 10.18 8.42
13 9 7 42.65 12.16
9 13 7 17.15 11.13
13 -9 7 37.07 9.82
13 -9 8 13.23 8.64
13 9 8 5.03 7.94
13 9 8 27.23 10.45
9 13 8 13.33 9.95
13 -9 9 15.01 8.01
13 9 9 19.53 9.51
9 13 9 8.52 9.75
13 -9 10 10.94 6.63
13 9 10 2.32 7.56
9 13 10 8.82 8.49
13 -9 11 -4.42 5.43
13 9 11 3.98 6.33
9 13 11 8.29 7.02
13 9 12 -16.93 5.74
9 13 12 0.59 5.19
13 10 0 21.19 13.22
10 13 0 4.21 11.57
13 10 0 -7.57 11.19
13 10 -1 -0.85 10.98
10 13 1 -6.82 12.82
13 10 -1 34.3 13.54
10 13 -1 37.83 12.79
13 10 1 -12.14 13.17
13 10 -1 27.9 11.73
13 10 1 40.38 12.22
13 10 1 12.29 10.66
13 10 -2 3.01 10.61
13 -10 -2 20.61 10.64
13 10 2 4.38 10.43
13 10 2 -11.58 12.03
10 13 2 -27.91 13.56
13 10 -2 17.29 11.58
13 10 2 14.53 10.56
13 10 3 17.38 10.36
13 10 -3 9.66 10.41
13 10 3 -26.03 13.34
10 13 3 -22.81 13.14
13 10 -3 29.07 11.34
13 10 3 21.75 10.73
13 -10 -3 22.93 10.54
10 13 4 43.13 12.27
13 10 4 -1.07 8.85
13 10 4 -21.1 13.16
13 10 4 20.92 10.16
13 10 -4 20.49 10.91
13 10 5 -3.86 8.57
13 10 5 15.4 10.51
10 13 5 6.24 10.35
13 -10 6 19.33 9.94
13 10 6 -13.4 9.12
13 10 6 8.27 10.87
10 13 6 3.59 10.17
13 10 7 -3.1 7.78
13 10 7 2.27 10.4
10 13 7 0.91 10.4
13 -10 7 22.56 9.08
13 10 8 4.16 9.39
10 13 8 -0.17 10.29
13 -10 8 -1.81 7.81
13 10 9 6.08 8.63
10 13 9 -8.76 9.6
13 10 10 6.4 7.49
10 13 10 -6.63 7.86
13 10 11 -13.02 6.61
10 13 11 -5.2 6.24
10 13 12 -2.01 4.74
13 11 0 34.92 11.24
13 11 0 56.61 13.69
11 13 0 38.16 12.55
13 11 0 55.33 12.37
13 11 1 15.36 10.45
13 11 -1 55.99 13.92
11 13 -1 56.41 13.18
13 11 1 23.55 12.16
11 13 1 13.7 12.21
11 13 -1 24.32 9.73
13 11 -1 47.06 12.09
13 11 1 39.28 11.65
13 11 -1 24.67 11.26
13 11 -2 29.39 10.31
13 11 2 31.02 10.58
13 -11 -2 52.4 11.34
13 11 2 13.95 11.17
13 11 -2 46.28 11.71
13 11 2 48.76 11.5
11 13 2 2.31 11.52
13 11 -3 15.1 10.75
13 11 3 11.66 9.54
13 -11 -3 6.18 9.32
13 11 3 -17.07 12.67
11 13 3 -17.8 12.28
13 11 3 18.03 10.31
13 11 4 1.19 8.59
11 13 4 -30.8 12.72
13 11 4 -29.95 12.58
13 11 5 4.7 7.99
13 11 5 -14.69 11.88
11 13 5 9.9 10.14
13 11 6 7.1 10.52
13 -11 6 28.81 9.78
11 13 6 18.97 11.12
13 -11 7 16.2 8.45
13 11 7 7.62 10.43
11 13 7 21.23 10.86
11 -13 8 16.97 7.13
13 11 8 10.87 9.71
11 13 8 8.25 9.28
13 -11 8 -1.73 6.88
13 11 9 3.11 8.5
11 13 9 -9.42 9.02
13 11 10 -7.25 7.37
11 13 10 3.31 6.97
13 11 11 -6.64 5.79
11 13 11 5.6 5.78
12 13 0 3.4 8.66
13 12 0 3.11 9.05
13 12 0 21.28 12.37
12 13 0 26.24 12.51
12 13 -1 0.41 9.09
13 12 1 2.68 9.04
13 12 1 19.85 12.22
12 13 1 8.93 11.41
13 12 -1 5.48 9.22
13 12 -2 22.92 9.52
13 -12 -2 50.24 10.58
13 12 2 15.32 11.27
12 13 2 21.75 11.23
13 12 2 8.57 8.81
13 12 3 0.59 8.7
12 -13 -3 31.07 9.6
13 -12 -3 20.02 9.42
13 12 3 3.23 11.28
12 13 3 3.72 10.83
12 13 4 8.12 10.71
13 12 4 -6.74 11.34
13 12 5 -21.97 11.88
12 13 5 -32.81 12.39
13 12 6 -17.83 11.69
12 13 6 -27.66 12.47
13 -12 7 7.26 7.88
13 12 7 -17.55 11.16
12 13 7 -35.19 11.6
12 -13 7 22.97 8.67
13 -12 8 0.54 6.57
13 12 8 -13.35 10.32
12 13 8 -24.1 10.41
12 -13 8 12.14 6.84
13 12 9 -21.12 8.86
12 13 9 -18.65 9.07
13 12 10 0.76 6.52
12 13 10 -1.23 6.62
12 13 11 -6.39 5.08
13 12 11 6.23 4.79
13 13 0 6.64 8.94
13 13 0 28.54 12.61
13 13 -1 8.88 8.96
13 13 1 11.34 8.45
13 13 1 18.38 11.69
13 -13 -2 29.74 9.77
13 13 2 10.18 10.91
13 -13 -3 3.81 8.4
13 13 3 -0.22 10.46
13 13 4 -16.49 11.31
13 13 5 -2.75 10.65
13 -13 6 21.08 8.61
13 13 6 -15.39 10.77
13 13 7 -16.41 10.33
13 -13 7 24.31 8.03
13 -13 8 1.96 5.67
13 13 8 -16.32 9.34
13 13 9 -8.21 7.5
13 13 10 4.31 5.63
14 0 0 1467.64 32.54
14 0 0 1482.39 34.72
0 -14 0 1471.27 66.81
14 0 -1 330.27 17.87
14 0 1 370.61 19.16
14 0 -1 363.11 19.07
14 0 1 357.79 19.82
0 -14 -1 394.04 39.02
0 -14 1 340.61 37.25
14 0 -2 107.32 13.55
14 0 2 83.05 12.99
14 0 -2 113.26 13.5
0 -14 -2 107.12 28.36
14 0 2 125.28 14.6
0 -14 2 74.87 24.83
0 -14 3 -12.24 21.71
14 0 -3 7.06 10.49
14 0 3 -19.7 11.68
14 0 -3 -1.46 10.55
14 0 3 -3.9 10.37
0 -14 -3 6.7 22.1
0 -14 -3 -1.46 15.27
14 0 -4 4.16 9.99
14 0 4 5.34 10.65
14 0 -4 -2.51 10.93
0 -14 -4 -5.14 21.02
14 0 4 4 12.32
0 -14 -4 -7.56 18.01
0 -14 4 36.25 24.66
0 14 -4 17.42 9
14 0 5 46.08 11.35
0 -14 -5 86.37 27.05
14 0 -5 57.74 12.43
0 14 -5 51.36 9.83
14 0 5 37.53 13.22
0 -14 5 61.09 26.84
0 -14 -5 37.45 20.15
14 0 -5 37.77 10.36
14 0 6 187.4 17.82
0 -14 -6 192.04 31.95
0 -14 -6 158.92 26.46
0 -14 6 202.82 30.56
14 0 6 153.53 13.21
0 14 -6 185.55 14.17
0 14 -7 84.19 10.81
14 0 7 95.65 15.28
0 14 -8 88.34 10.79
14 0 8 73.91 13.2
0 14 -9 28.94 8.28
14 0 9 23.2 10.18
0 14 9 9.74 7.78
0 14 -10 5.14 6.78
14 0 10 -1.62 8.87
0 14 10 -11.51 7.6
0 14 -11 10.34 6.62
14 0 11 -3.66 8.02
0 14 -12 4.8 5.2
14 0 12 -5.65 7
0 14 12 11.61 6.16
14 0 -12 -4.21 4.97
14 0 13 21.46 5.95
14 0 -13 20.34 4.76
14 1 0 4.21 10.44
14 -1 0 -4.88 10.55
14 -1 0 5.65 9.8
14 1 0 16.43 10.43
1 -14 0 -10.35 20.54
14 1 -1 -5.29 10.49
14 1 1 -11.15 11.18
14 -1 -1 -1.73 10.15
14 -1 1 -19.66 11.97
14 1 -1 2.84 10.2
14 -1 -1 1.95 9.73
14 1 1 -13.71 11.73
-1 -14 -1 4.1 22.04
1 -14 -1 27.3 22.5
-1 -14 1 11.2 24.41
1 -14 1 -5.43 22.01
14 -1 1 15.52 9.96
14 1 -2 -10.67 10.38
14 1 2 -11.85 11.25
14 -1 -2 -7.85 10.74
14 -1 2 -17.7 12.76
14 1 2 5.92 11.5
14 -1 2 7.89 11.22
14 1 -2 -3.58 10.29
14 -1 -2 3.11 10.09
-1 -14 -2 6.54 21.28
1 -14 -2 -8.71 23.38
1 -14 -2 -6.11 15.18
-1 -14 2 -8.34 22.34
1 -14 2 -4.83 21.44
14 1 -3 2.77 10.07
-1 -14 3 -35.47 24.26
1 -14 3 -0.06 21.56
14 -1 -3 -7.76 10.2
14 1 3 -5.21 10.42
14 -1 3 -18.68 12.19
14 1 -3 -8.37 11.36
14 -1 -3 -10.95 10.7
-1 -14 -3 -23.77 22.94
14 -1 3 5.48 10.42
14 1 3 -4 11.43
1 -14 -3 -6.92 21.96
1 -14 -3 14.8 16.6
14 -1 -4 10.94 10.56
14 1 4 7.1 10
-1 -14 -4 3.99 22.67
14 -1 4 -1.29 11.62
-1 -14 -4 9.62 17.03
-1 -14 4 38.15 22.43
14 1 -4 5.75 11.25
-1 14 -4 15.81 8.91
1 14 -4 8.66 8.47
1 -14 -4 22.14 22.6
14 1 4 2.77 10.09
14 -1 4 7.41 12.16
1 -14 -4 13.29 16.92
1 -14 4 -1.25 23.55
14 1 -4 2.73 9.94
14 -1 -4 7.28 10.21
14 1 5 13.69 10
14 -1 5 8.74 10.32
14 -1 -5 8.87 10.33
-1 -14 -5 19.89 22.52
1 -14 -5 14.5 23.1
-1 14 -5 22.42 9.51
1 14 -5 15.82 8.52
14 1 5 21.84 12.3
14 -1 5 17.88 13.06
-1 -14 5 -2.57 20.35
-1 -14 -5 32.26 19.8
1 -14 -5 -13.91 17.86
1 -14 5 31.91 23.39
14 1 -5 21.08 10.12
14 1 -5 14.33 11.37
14 1 6 8.89 9.33
14 -1 6 4.48 9.34
1 -14 -6 5.28 22.07
-1 14 -6 10.65 8.26
1 14 -6 12.88 8.42
14 1 6 15.4 12.5
14 -1 6 15.19 12.97
-1 -14 -6 30.46 18.97
1 -14 -6 2.91 15.43
-1 -14 6 6.32 19.28
1 -14 6 27.34 18.8
-1 -14 -6 28.7 22.93
-1 14 -7 2.95 7.42
1 14 -7 7.41 7.43
14 1 7 10.1 10.72
14 -1 7 5.66 11.04
1 14 7 -4.14 9.49
1 14 -8 6.49 7.32
-1 14 -8 5.59 7.29
14 1 8 -15.18 11.78
14 -1 8 3.65 11.22
1 14 8 -5.23 8.46
-1 14 -9 7.4 7.41
1 14 -9 11.38 7.39
14 1 9 14.33 11.04
14 -1 9 6.88 10.4
1 14 9 -6.66 8
-1 14 -10 0.26 6.42
1 14 -10 12.67 7.07
14 1 10 15.62 10.37
14 -1 10 8.03 9.65
1 14 10 -0.56 7.15
-1 14 -11 7.17 6.09
1 14 -11 0.05 5.71
14 1 11 2.64 8.25
14 -1 11 8.3 8.62
1 14 11 -2.4 6.41
14 1 -11 4.79 5.45
1 14 -12 -1.39 4.71
-1 14 -12 6.63 5.39
14 1 12 -1.81 6.68
14 -1 12 1.49 7.08
1 14 12 -4.73 5.79
14 1 -12 -0.81 4.62
14 -1 -12 -2.28 4.89
1 14 -13 3.85 4.33
14 -1 13 2.87 5.31
14 1 13 -0.61 5.12
14 1 -13 0.15 3.74
14 -1 -13 -2.84 3.91
14 2 0 162.58 15.01
14 -2 0 132.98 12.74
-2 -14 0 194.62 30.82
2 -14 0 141.87 28.28
14 2 0 159.21 14.73
14 -2 0 155.38 14.89
14 -2 -1 412.02 18.25
14 -2 1 437.48 19.15
14 2 -1 425.98 20.19
14 2 1 453.1 21.13
14 -2 -1 435.53 20.43
14 -2 1 417.76 21.19
14 2 -1 447.84 19.99
-2 -14 -1 393.97 40.11
2 -14 -1 449.32 40.72
-2 -14 1 433.87 40.97
2 -14 1 453.41 41.2
2 -14 -1 417.86 30.1
14 2 1 438.73 20.26
-2 -14 -2 150.69 29.24
14 -2 -2 186.46 14.46
14 2 -2 206.57 16.26
14 2 2 187.7 15.85
14 -2 2 173.13 14.54
2 -14 -2 169.06 29.98
14 2 -2 201.59 15.88
14 2 2 207.42 16.19
14 -2 -2 164.16 14.98
14 -2 2 170.49 15.8
-2 -14 2 156.83 29.43
2 -14 -2 195.07 23.9
2 -14 2 181.16 28.95
-2 -14 3 13.73 21.16
14 2 3 27.57 10.89
14 -2 -3 17.95 10.54
2 -14 3 36.8 21.77
14 -2 3 18.63 11.38
14 2 -3 30.39 11.05
14 -2 3 37.57 12.51
-2 -14 -3 14.13 22.52
14 2 3 42.25 11.53
2 -14 -3 26.92 23.14
2 -14 -3 21.16 16.27
14 2 -3 37.39 11.64
14 2 4 17.3 10.41
14 -2 -4 8.79 10.27
14 -2 4 -14.56 11.6
-2 -14 4 26.68 21.19
2 -14 4 -17.06 20.66
-2 -14 -4 35.3 23.11
14 2 4 -0.8 11.77
2 -14 -4 11.22 22.5
14 -2 4 -1.26 11.47
2 -14 -4 5.65 16.76
14 2 -4 3.98 10.79
14 2 -4 22.53 11.24
14 2 5 26.44 10.47
14 2 5 43.96 12.02
14 -2 5 31.18 11
-2 14 -5 56.76 10.38
-2 -14 -5 30.23 25.02
2 -14 -5 26.64 23.97
14 -2 5 45.17 12.91
-2 -14 5 25.47 23.81
2 -14 -5 41.99 20.08
2 -14 5 84.39 26.18
2 14 -5 37.8 9.5
14 2 -5 39.12 10.78
14 2 -5 41.37 12.38
14 -2 6 47.2 10.89
2 14 -6 66.16 10.37
-2 14 -6 65.53 10.45
14 2 6 55.75 12.45
14 -2 6 62.78 14.23
2 14 6 47.1 11.09
2 -14 -6 36.15 24.41
14 2 6 50.26 10.15
14 2 7 169.47 16.76
14 -2 7 177.19 17.2
-2 14 -7 179.2 14.05
2 14 -7 153.64 12.44
2 14 7 159.04 13.2
-2 14 -8 88.24 10.54
2 14 -8 74.21 10.13
14 2 8 115.53 14.84
14 -2 8 83.16 13.88
2 14 8 76.9 10.68
-2 14 -9 41.64 8.68
2 14 -9 29.63 7.91
14 2 9 37.05 11.95
14 -2 9 40.54 10.98
2 14 9 22.95 8.91
-2 14 -10 9.73 6.64
2 14 -10 12.45 6.9
14 2 10 20.51 10.32
14 -2 10 14.93 9.36
2 14 10 -6.13 8.39
-2 14 -11 -1.45 5.68
2 14 -11 2.82 5.81
14 2 11 6.59 8.32
14 -2 11 -3.98 8.23
2 14 11 -10.2 6.84
14 2 -11 -5.33 5.38
-2 14 -12 21.03 5.96
2 14 -12 17.96 5.57
14 2 12 17.25 6.94
14 -2 12 22.22 7.84
2 14 12 5.18 5.87
14 2 -12 16.79 5.09
2 14 -13 8 4.18
14 2 13 3.51 4.97
14 -2 13 5.71 5.2
2 14 13 5.1 4.5
14 2 -13 1.48 3.31
14 -2 -13 6.69 4.08
14 3 0 10.97 11.02
14 -3 0 -3.97 10.96
14 3 0 -8.74 10.91
14 -3 0 -1.09 9.21
14 3 0 30.03 11.45
-3 -14 0 16.69 21.17
3 -14 0 9.62 21.97
14 3 1 29.84 11.17
14 -3 -1 30.55 11.07
14 -3 1 19.52 11.44
14 3 -1 45.83 12.54
14 3 1 37.82 12.28
14 -3 1 43.99 10.56
-3 -14 -1 33.35 24.05
14 3 1 40.15 11.61
3 -14 -1 64.97 23.46
-3 -14 1 37.86 23.55
3 -14 -1 2.76 13.32
3 -14 1 -8.29 22.22
14 3 -1 37.39 11.26
3 -14 2 6.18 21.63
14 3 2 22.85 10.68
14 -3 -2 11.51 10.49
14 -3 2 21.42 11.98
14 3 -2 19.07 11.52
14 3 2 29.06 10.37
-3 -14 -2 37.11 22.58
14 -3 2 25.62 10.24
14 3 2 -1.06 11.03
3 -14 -2 21.28 23.27
3 -14 -2 28.48 17.34
-3 -14 2 30.63 22.4
14 3 -2 32.72 11.86
14 3 3 31.78 10.93
14 -3 -3 31 11.22
14 3 3 45.09 11.34
3 -14 3 12.32 22.46
14 3 -3 28.75 11.37
14 -3 3 29.51 12.37
-3 -14 -3 37.5 22.91
14 -3 3 31.2 11.9
3 -14 -3 25.61 22.39
14 3 3 -2.15 10.88
3 -14 -3 40.58 20.29
14 3 -3 33.85 11.29
-3 -14 3 1.92 21.69
14 3 4 21.87 10.29
14 3 -4 9.49 11.85
14 -3 -4 15.25 10.23
14 -3 4 18.12 11.03
-3 -14 4 80.36 26.97
3 -14 4 10.8 21.43
14 3 4 29.49 11.81
14 -3 4 36.86 12.81
3 -14 -4 -0.35 21.32
3 -14 -4 65.17 21.25
-3 -14 -4 51.47 23.58
14 3 -4 18.98 10.95
14 -3 5 62.79 12.11
-3 -14 -5 33.74 22.61
14 3 -5 73.6 12.81
3 -14 -5 71.22 25.62
14 -3 5 70.57 13.79
-3 -14 5 69.46 23.08
14 3 5 70.55 13.12
3 -14 -5 72.79 19.97
3 -14 5 84.95 28.66
3 14 5 74.35 11.95
14 3 -5 63.13 11.96
14 3 5 65.07 11.31
14 -3 6 20.14 9.97
3 14 -6 37 8.98
14 3 -6 38.59 11.72
-3 14 -6 32.88 9.01
14 3 6 33.11 11.9
14 -3 6 33.84 12.02
3 14 6 17.51 10.39
14 -3 7 -1.73 8.83
3 14 -7 4.51 7.03
-3 14 -7 -1.76 7.39
14 3 7 2.53 9.79
14 -3 7 12.49 11.12
3 14 7 1.12 9.55
-3 14 -8 9.69 7.19
3 14 -8 0.56 6.34
14 3 8 27.66 12.29
14 -3 8 10.41 10.65
3 14 8 6.09 9.09
-3 14 -9 16.76 7.66
3 14 -9 21.89 7.32
14 3 9 19.7 10.55
14 -3 9 31.77 11.49
3 14 9 9.83 8.48
-3 14 -10 20.7 7.36
3 14 -10 24.64 6.79
14 3 10 23.12 9.36
14 -3 10 25.73 10.27
3 14 10 11.78 7.95
14 3 -10 17.06 6.26
3 14 -11 17.18 6
-3 14 -11 14.63 6.28
14 3 11 24.54 8.39
14 -3 11 12.17 8.19
3 14 11 5.42 6.63
14 3 -11 1.04 4.95
14 3 12 15.75 6.28
3 14 -12 10.73 4.85
14 -3 12 6.89 6.63
3 14 12 9.28 5.99
14 3 -12 8.07 4.44
3 14 -13 8.44 3.94
14 3 13 2.78 4.24
14 -3 13 13.71 5.46
3 14 13 4.4 4.53
14 -3 -13 4.44 3.72
14 4 0 259.25 18.02
14 4 0 331.57 18.11
14 4 0 267.08 17.74
14 -4 0 240.83 16.95
-4 -14 0 244.5 33.03
4 -14 0 232.6 32.03
14 4 -1 107.55 12.97
14 -4 1 107.53 14.57
14 4 1 111.15 14.59
-4 -14 -1 102.86 26.99
14 4 1 113.89 13.93
-4 -14 1 125.91 28.66
4 -14 -1 113.23 28.04
4 -14 -1 131.61 20.85
14 4 -1 120.58 14.03
14 4 1 116.58 13.49
4 -14 1 112.96 26.66
14 -4 -1 77.7 12.65
4 -14 2 76.57 23.6
14 -4 -2 83.37 12.72
14 4 2 111.57 14.04
-4 -14 -2 84 26.07
14 -4 2 98.14 12.44
14 4 2 99.94 13.22
4 -14 -2 111.95 27.19
4 -14 -2 80.69 19.52
14 4 -2 120.73 13.94
14 4 2 119.69 13.6
14 -4 2 122.85 15.67
-4 -14 2 105.53 27.89
14 4 -2 103.99 13.53
-4 -14 3 19.12 23.91
14 -4 -3 17.89 10.93
14 -4 3 33.1 13.18
14 4 3 40.59 12.53
4 -14 3 45.33 23.87
14 4 -3 23.68 10.46
-4 -14 -3 39.07 23.57
14 -4 3 34.97 11.37
14 4 3 -3.87 12.02
4 -14 -3 -1.43 21.18
4 14 3 38.76 11.2
4 -14 -3 26.92 17.01
14 4 -3 20.94 11.03
14 4 3 45.92 11.47
14 -4 -4 0.84 10.14
14 -4 4 -3.06 10.87
-4 -14 -4 -19.47 20.9
14 4 -4 3.29 10.86
14 4 4 4.37 10.19
14 -4 4 5.19 11.34
4 -14 4 20.45 22.78
4 -14 -4 11.65 24.11
14 4 4 -39.28 13.56
4 14 4 -5.93 10.67
4 -14 -4 -15.05 17.11
14 4 -4 -9.38 11.36
14 4 4 1.38 10.12
-4 -14 -5 13.56 18.19
14 4 5 34.17 12.4
14 -4 5 21.07 12.22
4 -14 -5 28.77 21.69
14 4 5 60.06 12.57
4 -14 -5 35.47 18.76
4 14 5 30.01 11.23
4 -14 5 33.64 22.36
14 -4 5 18.54 10.81
14 4 -5 20.72 10.77
14 4 5 25.81 9.9
14 4 -5 42.42 12.99
14 -4 6 56.05 10.71
14 4 6 64.48 12.88
14 -4 6 59.4 12.57
14 4 6 74.77 12.25
4 14 6 44.3 10.95
14 -4 7 23.72 8.98
14 4 7 19.93 11.5
14 -4 7 45.72 12.07
14 4 7 37.85 10.79
4 14 7 15.92 9.63
4 14 -7 27.94 7.79
-4 14 -7 35.91 8.27
4 14 -8 34.44 7.85
-4 14 -8 52.41 9.61
14 4 8 35.68 11.28
14 -4 8 36.89 11.02
14 4 8 37.45 9.75
4 14 8 24.58 9.81
-4 14 -9 15.99 7.79
4 14 -9 12.39 6.39
14 4 9 26.81 11.2
14 -4 9 9.97 9.86
4 14 9 -1.04 8.66
-4 14 -10 12.77 7.27
4 14 -10 3.63 5.77
14 4 10 2.96 8.56
14 -4 10 4.34 8.7
4 14 10 -1.97 7.69
14 4 -10 11.23 5.54
4 14 -11 -2.7 5
14 4 11 -0.05 6.88
14 -4 11 1.09 7.39
4 14 11 2.15 6.84
14 4 -11 1.1 4.86
14 4 12 -1.32 5.38
14 -4 12 8.42 6.53
4 14 12 1.1 5.54
14 4 -12 -3.42 4.23
4 14 -12 5.54 4.51
14 -4 13 3.12 4.85
14 -4 -13 11.51 3.9
14 -5 0 9.33 11.3
14 5 0 12.45 11.16
14 5 0 20.6 12.37
-5 -14 0 26.52 21.23
5 -14 0 -7.51 20.83
14 5 0 15.95 11.64
5 -14 1 -36.04 23.28
14 -5 1 18.05 11.4
14 5 -1 10.54 10.09
14 5 1 -3.17 10.21
-5 -14 -1 0.84 22.34
14 5 1 10.71 11.82
-5 -14 1 22.23 23.81
5 -14 -1 24.44 21.21
14 5 -1 -5.59 10.3
14 5 1 30.83 11.74
14 -5 -1 7.37 10.75
5 -14 2 113.79 26.23
14 -5 -2 115.6 13.94
14 5 -2 147.59 15.96
14 5 2 117.89 14.38
-5 -14 -2 69.47 25.83
5 14 2 122.77 13.43
14 5 2 125.38 14.89
5 -14 -2 103.83 25.82
5 -14 -2 128.49 24.39
14 5 2 151.08 14.75
14 -5 2 143.2 16.45
-5 -14 2 82.72 25.83
14 5 -2 99.28 13.54
14 -5 -3 120.75 14.09
14 5 3 102.5 13.45
14 5 -3 123.92 15.09
-5 -14 -3 79.31 22.77
5 -14 3 136.13 28.14
5 14 3 144.8 14.27
14 5 3 96.72 14.14
5 -14 -3 104.08 27.02
5 -14 -3 114.3 21.96
14 5 3 137.46 13.95
14 -5 3 120.62 15.23
14 5 -3 121.31 14.12
14 -5 3 105.28 13.01
14 -5 -4 135.15 13.51
14 5 -4 165.04 16.27
14 5 4 144.37 15.22
14 -5 4 150.95 14.62
-5 -14 -4 92.31 22.46
5 14 4 168.85 15.13
5 -14 4 155.38 28.9
14 5 4 149.9 15.44
5 -14 -4 204.62 31.21
5 -14 -4 158.54 25.22
14 5 -4 156.85 15.2
14 5 4 129.72 13.69
14 -5 4 138.34 15.15
14 -5 5 68.78 12.7
14 5 -5 102.53 14.07
14 5 5 93.8 13.8
14 -5 5 77.81 13.1
14 5 5 127.21 14.59
5 -14 -5 29.76 20.53
5 14 5 83.32 13.06
14 5 -5 80.97 12.1
14 5 5 60.1 11.03
14 -5 6 51.49 10.89
14 5 6 82.22 13.43
14 -5 6 63.83 12.59
14 5 6 75.29 12.64
5 14 6 66.39 12.27
14 5 -6 85.21 11.27
14 -5 7 -2.33 8.71
14 5 7 27.37 11.3
14 -5 7 12.14 10.05
14 5 7 29.33 10.97
5 14 7 -3.04 9.86
14 5 8 7.53 9.76
5 14 -8 4.25 5.97
14 -5 8 12.86 10.23
14 5 8 32.84 10.08
5 14 8 1.84 10
14 5 9 27.38 10.61
5 14 -9 36.09 7.04
14 -5 9 19.97 10.09
14 5 9 22.91 9.21
5 14 9 23.86 9.76
14 5 10 29.43 8.74
5 14 -10 27.27 6.48
14 -5 10 46.96 9.93
14 5 10 45.77 8.44
5 14 10 31.26 9.1
14 5 11 31.54 7.53
5 14 -11 35.8 6.09
14 -5 11 36.75 8.52
5 14 11 32.44 7.75
14 5 12 22.16 5.64
5 14 -12 13.73 4.54
14 -5 12 13.59 6.57
5 14 12 5.65 5.67
14 -5 13 -2.9 4.56
14 -5 -13 4.91 3.4
14 -6 0 20.67 11.63
14 6 0 3.64 10.9
14 6 0 26.82 12.91
6 14 0 8.89 10.53
-6 -14 0 -8.18 22.01
14 6 0 5.22 10.95
6 -14 0 -14.88 24.05
6 -14 1 -16.85 21.73
14 -6 1 77.25 14.33
14 -6 -1 61.61 12.67
14 6 -1 76.34 14.01
14 6 1 45.17 13.19
6 14 1 31.96 11.12
14 6 -1 110.08 15.52
-6 -14 -1 71.24 23.78
6 14 -1 83.3 12.52
14 6 1 76.31 13.83
-6 -14 1 54.5 26.45
6 -14 -1 68.28 24.29
14 6 -1 41.98 11.62
14 6 1 53.49 11.44
14 6 -2 18.93 12.48
14 -6 2 59.14 13.89
14 6 2 27.65 12.34
6 -14 2 37.24 22.89
-6 -14 -2 15.47 20.99
14 6 2 4.11 12.37
6 14 2 15.85 12.04
6 -14 -2 25.82 16.32
6 -14 -2 46.06 22.45
14 -6 -2 45.26 12.08
14 6 -2 16.18 11.64
14 6 2 16.2 10.35
14 6 3 9.77 10.77
14 -6 -3 6.68 10.77
14 -6 3 57.96 13.36
-6 -14 -3 -11.29 18.38
14 6 -3 27.05 11.21
6 -14 3 38.45 22.24
14 6 3 3.16 13.18
6 14 3 38.58 12.27
6 -14 -3 47.02 25.26
6 -14 -3 -3.85 17.07
14 6 -3 27.35 11.95
14 6 3 5.83 10.67
14 -6 -4 -24.59 11.02
14 -6 4 6.91 11.2
14 6 4 -4.22 10.43
14 -6 4 7.42 9.53
14 6 4 -47.64 13.94
6 14 4 15.76 10.98
6 -14 4 10.45 18.5
6 -14 -4 12.45 21.04
6 -14 -4 -32.3 18.02
14 6 -4 -3.03 10.8
-6 -14 -4 -15.19 17.22
14 6 4 -9.98 10.25
14 6 -4 -3.47 9.93
14 6 -5 17.92 10.18
14 -6 5 34.07 11.27
14 6 5 12.56 10.79
14 -6 5 15.77 9.71
14 6 5 25.6 11.92
6 14 5 -6.67 10.4
14 6 -5 18.94 10.07
14 6 5 4.26 8.96
14 6 6 10.3 10.22
14 -6 6 11.73 9.27
14 6 6 31.44 11.58
6 14 6 11.1 10.08
14 6 -6 26.24 9.29
14 -6 6 8.23 9.12
14 -6 7 -0.19 8.55
14 6 7 31.69 11.1
14 -6 7 19.23 9.72
14 6 7 22.01 10.48
6 14 7 3.25 9.73
14 -6 8 6.81 9.09
14 6 8 -3.59 9.96
14 6 8 12.08 9.82
6 14 8 4.49 9.92
14 6 9 10.34 8.94
6 14 -9 5.7 5.72
14 -6 9 5.26 8.69
14 6 9 27.54 9.17
6 14 9 1 9.19
14 6 10 -2.1 7.54
6 14 -10 5.82 4.81
14 -6 10 2.95 7.75
14 6 10 8.48 7.89
6 14 10 8.18 7.94
14 6 11 7.35 5.87
6 14 -11 4.87 4.58
14 -6 11 -4.46 6.78
14 6 11 -7.5 6.71
6 14 11 1.74 6.71
6 14 -12 7.7 3.74
14 -6 12 5.55 5.78
6 14 12 8.97 5.58
14 -7 0 29.21 12.49
7 -14 0 -13.56 23.82
14 7 0 -0.63 11.32
14 7 0 14.2 12.44
14 7 0 -25.99 12.1
7 14 0 6.35 11.32
14 -7 -1 47.79 12.81
14 7 -1 49.7 13.82
14 7 1 22.32 12.3
14 -7 1 50.58 13.22
14 7 -1 58.1 14.54
-7 -14 -1 31.77 22.4
7 14 -1 58.7 12.51
14 7 1 26.81 13.19
7 14 1 2.19 11.99
14 7 -1 25.42 11.69
14 7 1 2.2 10.77
7 -14 1 11.17 21.25
7 -14 -1 8.41 22.96
14 -7 -2 30.05 12.06
14 7 -2 34.16 12.41
14 -7 2 57.66 13.71
7 -14 2 32.44 21.84
14 7 2 7.74 11.53
-7 -14 -2 -15.04 20.07
14 7 2 4.61 12.47
7 14 2 -16.35 12.88
7 -14 -2 40.85 22.7
14 7 -2 12.31 10.73
14 7 2 16.96 10.58
14 7 -3 173.55 15.97
14 7 3 163.69 14.85
14 7 3 156.33 15.72
-7 -14 -3 88.65 22.11
7 14 3 191.82 16.77
7 -14 3 156.74 27.92
7 -14 -3 133.06 22.82
7 -14 -3 171.83 29.06
14 7 -3 177.37 15.95
14 7 3 138.06 13.88
14 -7 -3 162.32 14.99
14 -7 3 201.2 16.82
14 7 -4 264.8 17.85
14 7 4 225.15 16.33
14 7 4 221.53 17.47
7 14 4 247.56 17.39
14 7 -4 254.28 17.09
14 7 4 224.71 15.55
14 -7 -4 236.32 15.56
14 -7 4 221.74 16.82
14 7 5 150.86 14.44
14 7 5 164.76 15.96
7 14 5 176.69 15.68
14 7 -5 181.07 14.57
14 7 5 147.41 13.06
14 -7 5 144.71 14.24
14 7 -5 199.29 15.9
14 -7 6 51.14 10.84
14 7 6 52.16 10.62
14 -7 6 42.27 10.11
14 7 6 63.04 12.85
7 14 6 66.84 12.07
14 7 -6 62.82 11.2
14 -7 7 -9.67 8.67
14 7 7 -2.51 9.51
14 -7 7 1.79 8.52
14 7 7 2.8 9.78
7 14 7 -3.3 9.91
14 7 8 -13.56 9.72
14 -7 8 -5.85 8.5
14 7 8 4.28 9.23
7 14 8 -2.32 9.64
14 7 9 35.2 9.06
14 -7 9 34.24 9.24
14 7 9 31.54 9.2
7 14 9 29.89 10.09
14 7 10 49.98 8.24
14 -7 10 54.82 8.89
14 7 10 64.96 9.27
7 14 10 64.55 10.25
14 7 11 19.15 5.62
14 -7 11 28.47 6.86
14 7 11 6.26 6.33
7 14 11 26.63 7.28
14 -7 12 18.32 5.21
7 14 12 46.56 6.52
8 -14 0 4.09 19.74
14 -8 0 24.21 12.16
8 14 0 -1.45 11.12
14 8 0 9.33 13.09
14 8 0 8.02 11.64
14 8 0 -3.95 10.56
8 -14 -1 -47.49 24.98
14 8 -1 -3.28 12.98
8 -14 1 28.65 23.02
14 -8 -1 24.29 11.87
14 -8 1 35.73 12.95
14 8 1 5.65 11.7
14 8 -1 41.86 13.79
8 14 -1 28.66 11.98
14 8 1 -3.79 12.46
8 14 1 -6.67 12.15
14 8 -1 1.29 10.38
14 8 1 -9.42 11.29
14 -8 2 40.22 13.07
14 -8 -2 11.47 10.83
14 8 -2 -16.71 12.22
14 8 2 4.06 10.46
8 -14 2 6.25 19.37
14 8 2 -26.45 13.73
8 14 2 -24 12.86
14 8 -2 1.41 10.31
14 8 2 -8.55 10.45
14 8 -3 -13.29 11.84
14 -8 -3 2.03 10.34
14 -8 3 30.15 11.56
14 8 3 -12.05 13.21
8 14 3 -21.9 12.71
14 8 3 -18.04 11.44
14 8 -3 15.05 10.66
14 8 3 3.92 9.43
14 8 -4 24.27 10.24
14 8 4 11.71 9.72
14 8 4 12.29 11.56
8 14 4 45.98 11.77
14 8 -4 27.71 10.9
14 8 4 21.81 9.81
14 -8 4 39.15 11.37
14 -8 5 3.91 9.53
14 8 5 -9.5 10.08
14 8 5 -12.44 12.51
8 14 5 13.32 10.54
14 8 -5 20.63 10.32
14 8 5 5.82 9.25
14 8 -5 6.03 10.46
14 -8 6 6.85 9.03
14 8 6 -2.37 9.06
14 8 6 25.97 11.58
8 14 6 14.97 10.33
14 -8 7 -7.43 8.47
14 8 7 -8.96 9.53
14 -8 7 -4.21 8.11
14 8 7 17.8 11.04
8 14 7 12.65 10.73
14 -8 8 -2.08 8.07
14 8 8 -8.71 8.37
14 -8 8 -1.85 7.53
14 8 8 15.57 9.87
8 14 8 -3.12 9.8
14 8 9 18.95 7.76
14 -8 9 3.47 7.07
14 8 9 4.6 8.29
8 14 9 -2.4 8.93
14 -8 10 -1.77 6.47
14 8 10 -0.25 7.31
8 14 10 -3.59 7.52
14 8 10 2.75 5.56
14 -8 11 -4.15 5.19
14 8 11 -7.89 6.45
8 14 11 0.15 6.15
8 14 12 3.88 5.04
14 -9 0 18.63 11.83
14 9 0 5.49 10.17
14 9 0 14.9 12.39
9 14 0 2.42 10.92
14 9 0 15.69 10.92
14 -9 1 41.37 12.63
14 -9 -1 15.9 11.08
14 9 -1 6.76 11.68
14 9 1 15.44 10.27
14 9 -1 51.32 13.86
9 14 -1 54.1 12.12
14 9 1 21.66 13.01
9 14 1 18.01 11.44
14 9 -1 7.66 10.7
14 9 1 16.02 10.35
14 9 -2 187.42 16.46
14 9 2 216.13 16.88
14 9 2 175.89 17.07
9 14 2 165.82 16.09
14 9 -2 209.13 16.48
14 9 2 183.57 15.2
14 -9 -2 159 15.08
14 -9 2 200.83 16.71
14 9 -3 185.59 15.8
14 9 3 165.67 15.32
14 9 3 156.99 15.76
9 14 3 151.77 15.4
14 9 -3 183.32 15.64
14 9 3 164.46 14.24
14 -9 -3 158.13 14.47
14 -9 3 174.28 15.75
14 9 -4 180.17 15.55
14 9 4 139.72 13.65
9 14 4 149.58 14.48
14 9 4 102.21 14.35
14 9 -4 171.29 15.4
14 9 4 138.53 13.34
14 -9 4 126.55 13.8
14 -9 5 49.33 10.87
14 9 5 47.03 10.53
14 9 5 28.57 11.69
9 14 5 71.71 12.7
14 9 5 59.9 10.86
14 9 6 8.49 8.7
14 9 6 -4.38 11.44
9 14 6 34.28 11.56
14 -9 6 23.08 9.37
14 -9 7 1.93 7.98
14 9 7 -2.21 8.13
14 9 7 -2.43 10.06
9 14 7 4.85 9.97
14 -9 8 8.65 7.21
14 9 8 26.27 10.13
9 14 8 11.97 10.11
14 9 8 6.94 7.47
14 9 9 16.44 6.68
14 9 9 1.27 8.32
9 14 9 17.61 9.07
14 9 10 6.57 7.03
9 14 10 18.82 7.73
14 9 11 26.6 6.29
9 14 11 35.56 6.88
14 10 0 23 11.14
14 -10 0 38.42 11.75
14 10 0 37.68 12.83
10 14 0 42.06 12.4
14 10 0 40.2 11.29
14 10 -1 -0.89 9.7
14 -10 1 22.7 11.41
14 -10 -1 23.33 11.18
14 10 1 12.55 10.18
10 14 -1 34.58 11.84
14 10 1 12.12 12.1
10 14 1 2.65 11.05
14 10 -1 28.41 10.67
14 10 1 21.62 10.65
14 -10 -2 12.03 10.33
14 10 2 21.1 10.53
14 -10 2 55.22 12.28
14 10 2 4.81 11.46
10 14 2 -5.6 11.45
14 10 -2 34.91 11.67
14 10 2 34.84 10.91
14 10 -2 7.34 10.9
14 10 3 15.66 9.78
14 -10 -3 12.41 9.97
14 -10 3 27.55 10.81
14 10 3 -13.04 12.13
10 14 3 -16.75 12.1
14 10 -3 24.11 11.17
14 10 3 8.84 9.1
14 10 -3 8.17 9.26
14 -10 4 18.16 10.73
14 10 4 8.63 9.44
14 10 4 -21.73 12.53
10 14 4 -25.14 12.25
14 10 4 6.77 9.58
14 10 -4 15.78 9.3
14 -10 5 24.99 9.98
14 10 5 9.46 8.88
14 10 5 -12.07 12.11
10 14 5 4.95 10.64
14 -10 6 13.73 9.35
14 10 6 14.61 8.5
10 14 6 28.4 10.88
14 -10 7 -5.34 7.85
14 10 7 -12.1 7.75
14 10 7 -21.21 11.58
10 14 7 12.78 10.45
14 -10 8 6.44 7.17
10 14 8 4.5 9.22
14 10 9 -15.97 8.92
10 14 9 -11.43 8.81
14 10 10 -3.19 6.76
10 14 10 10.77 7.06
14 10 11 -6.03 5.36
10 14 11 3.17 5.25
14 11 0 -7.2 9.98
14 -11 0 34.19 11.41
14 11 0 23.31 12.45
11 14 0 11.65 11.32
14 11 0 22.26 10.23
14 11 -1 47.73 11.52
14 11 1 37.04 10.23
14 -11 -1 41.94 11.25
14 -11 1 76.95 12.82
14 11 1 47.17 12.95
11 14 1 49.79 12.35
14 11 -1 70.47 12.39
14 11 1 59.13 11.72
14 11 -2 49.16 11.06
14 -11 -2 33.15 10.56
14 11 2 33.47 10.57
14 11 2 35.92 12.34
11 14 2 38.41 12.2
14 11 -2 56.79 12.27
14 11 2 57.55 11.78
14 11 -3 94.95 12.69
14 -11 -3 80.32 11.17
14 11 3 93.64 12.25
14 -11 3 92.06 12.62
14 11 3 66.28 12.87
11 14 3 55.52 12.02
14 11 3 92.5 12.36
14 -11 4 70 11.65
14 11 4 68.67 10.91
14 11 4 22.78 11.58
11 14 4 34.84 10.78
14 11 5 45.78 10.02
14 11 5 37.46 11.17
14 11 6 -13.59 10.91
11 14 6 -23.16 11.81
14 11 7 -20.72 11.08
11 14 7 -22.93 10.52
14 -11 7 2.13 7.74
14 -11 8 0.64 6.41
14 11 8 -19.07 9.65
11 14 8 -17.55 10
14 11 9 0.99 7.62
11 14 9 4.25 7.73
14 11 10 5.74 6.17
11 14 10 22.36 6.91
11 14 11 11.24 4.95
14 12 0 15.27 9.34
14 -12 0 34.05 10.99
14 12 0 40.13 12.78
12 14 0 23.13 12.04
14 -12 1 79.14 12.52
14 12 -1 41.33 10.37
14 -12 -1 46.87 10.89
14 12 1 43.94 10.01
14 12 1 77.04 13.57
12 14 1 68.96 13.21
14 12 -2 40.77 10.61
14 -12 -2 39.84 10.14
14 12 2 31.51 9.76
14 12 2 29.16 11.58
12 14 2 29.42 11.43
14 -12 -3 10.71 8.93
12 -14 -3 23.37 8.91
14 12 3 -4.33 8.77
14 12 3 11.21 10.68
12 14 3 -2.61 10.72
14 12 4 -14.25 9.02
14 12 4 -16.84 11.18
12 14 4 -18.32 11.53
14 -12 5 21.02 9.37
14 12 5 1.77 10.36
12 14 5 -7.95 10.79
14 12 6 -5.97 10.48
12 14 6 -12.6 10.69
14 -12 7 27.58 7.56
12 -14 7 37.47 8.24
14 12 7 8.21 9.38
12 14 7 2.59 9.68
14 -12 8 6.94 5.93
12 -14 8 13.4 5.86
14 12 8 17.87 8.73
12 14 8 13.85 8.68
14 12 9 6.76 7.01
12 14 9 15.76 7.56
14 12 10 4.49 5.55
12 14 10 15.51 6.02
14 -13 0 35.57 10.81
14 13 0 5.37 8.59
14 -13 -1 18.1 9.73
14 -13 1 25.12 9.91
14 13 1 30.21 12.19
13 14 1 38.32 12.01
14 13 1 5.16 8.07
14 13 -1 20.6 9.08
14 -13 -2 32.59 9.8
13 -14 -2 32.4 9.53
14 13 2 35.52 9.03
14 -13 2 54.07 11.13
14 13 2 34.77 11.9
13 14 2 38.43 11.67
13 -14 -3 27.18 8.53
14 -13 -3 31.5 8.6
14 -13 3 60.36 11.09
14 13 3 26.6 11.3
13 14 3 22.24 10.37
14 -13 4 29.27 9.11
14 13 4 11.84 9.77
13 14 4 16.49 10.23
14 -13 5 9.76 8.11
14 13 5 7.07 9.19
13 14 5 -1.75 9.69
14 -13 6 9.65 7.65
13 -14 6 14.93 7.55
14 13 6 -1.48 9.45
13 14 6 -16.42 10.31
14 -13 7 -4.59 6.5
13 -14 7 8.64 6.68
14 13 7 -18.4 9.5
13 14 7 -16.12 9.26
14 -13 8 4.74 5.19
14 13 8 -4.8 7.6
13 14 8 -0.98 7.54
13 -14 8 -0.04 5.15
14 13 9 -11.12 6.39
13 14 9 4.96 6.18
14 -14 0 112.67 12.15
14 -14 -1 37.63 9.83
14 -14 1 42.39 10.3
14 -14 -2 24.08 8.66
14 -14 2 30.28 9.88
14 14 2 40.85 10.97
14 -14 3 25.88 9.37
14 14 3 34.33 10.59
14 -14 -3 6.96 7.4
14 -14 4 17.92 8.66
14 14 4 1.44 8.78
14 -14 5 11.57 7.82
14 14 5 4.37 8.95
14 -14 6 35.36 7.8
14 14 6 26.16 8.99
14 -14 7 11.3 6.02
14 14 7 14.46 7.87
14 14 8 14.87 7.05
14 14 9 5.74 5.37
15 0 0 -18.68 12.05
15 0 0 -7.42 10.95
0 -15 0 4.9 22.22
15 0 -1 58.81 12.84
15 0 1 45.64 12.83
15 0 -1 52.99 12.67
0 -15 -1 39.03 25.98
0 -15 1 60.73 27.48
15 0 1 61.18 11.77
15 0 -2 94.69 13.15
15 0 2 92.83 13.89
15 0 -2 105.28 13.34
15 0 2 88.65 13.52
0 -15 -2 78.5 27.89
0 -15 2 117.53 28.97
15 0 -3 50.17 12.35
15 0 3 26.78 11.83
0 -15 3 4.17 24.38
15 0 -3 35.15 12.03
15 0 3 46.69 11.72
0 -15 -3 20.4 23.98
15 0 4 18.89 10.78
15 0 -4 14.68 10.84
0 -15 4 40.77 24.72
0 -15 -4 18.67 22.4
15 0 4 9.86 11.73
15 0 -4 13.77 10.36
15 0 5 10.44 9.71
15 0 -5 20.57 10.44
0 15 -5 16.38 8.03
15 0 5 3.93 10.4
15 0 -5 16.39 9.54
15 0 6 15.48 8.82
0 15 -6 7.24 8.05
15 0 6 -0.98 10.05
0 15 -7 7.55 6.93
15 0 7 2.78 10.28
0 15 -8 18.88 7.84
15 0 8 32.45 11.93
0 15 -9 37.38 8.1
15 0 9 36.98 11.42
0 15 -10 16.47 7.03
15 0 10 10 9.18
0 15 -11 0.3 5.43
15 0 11 3.86 7.33
15 0 -11 -1.04 4.77
15 0 12 -1.73 5.78
15 0 -12 3.88 4.21
15 0 13 -3.8 4.15
15 -1 0 120.05 14.13
15 1 0 135.38 13.85
15 -1 0 116.31 13
-1 -15 0 163.62 31.62
1 -15 0 141.78 31.83
15 1 0 139.83 15.49
15 1 -1 -6.69 10.27
15 1 1 -8.98 11.92
15 -1 -1 -5.65 10.76
15 -1 1 -19.72 12.25
15 1 -1 -4.01 9.97
15 -1 -1 -1.83 10.65
15 1 1 -1.67 10.03
15 -1 1 -3.83 10.99
-1 -15 -1 -18.99 23.98
1 -15 -1 32.77 24.71
-1 -15 1 15.3 23.81
1 -15 1 8.67 23.1
15 1 -2 9.17 10.98
15 1 2 -7.42 11.1
15 -1 -2 -6.83 11.12
15 -1 -2 6.96 10.06
15 -1 2 -37.01 13.87
15 1 -2 6.17 10.85
15 1 2 0.13 11.3
15 -1 2 6.98 11.1
-1 -15 -2 -2.96 23.9
1 -15 -2 -22.75 22.75
-1 -15 2 -23.4 25.09
1 -15 2 18.18 22.93
15 -1 -3 -7.41 11.05
15 1 3 6.95 11.02
-1 -15 3 -25.18 23.71
15 -1 3 -7.67 12.24
1 -15 3 -17 24.13
15 -1 -3 -2.08 10.86
15 1 -3 -12.61 11.78
15 1 3 0.12 11.14
15 -1 3 6.88 11.34
-1 -15 -3 -6.51 22.72
1 -15 -3 -2.29 24.95
15 1 -3 -4.43 10.66
15 -1 -4 -0.34 10.17
15 1 4 -5.88 10.57
15 -1 4 9.4 10.97
15 -1 -4 2.95 9.87
15 1 -4 7.51 11.48
-1 -15 4 -0.57 20.85
-1 -15 -4 -4.51 22.05
15 1 4 -7.06 10.41
15 -1 4 -0.32 11.23
1 -15 -4 5.91 22.18
1 -15 -4 -2.82 18.32
1 -15 4 26.89 21.29
15 1 -4 3.64 10.38
15 1 -5 12.61 10.75
15 1 5 4.57 9.22
15 -1 5 -0.82 9.41
1 15 -5 7.61 7.97
15 1 5 1.82 11.41
15 -1 5 5.46 10.54
15 1 -5 -17.37 10.46
15 1 6 2.46 8.11
15 -1 6 -2.95 8.23
-1 15 -6 6.82 7.25
1 15 -6 4.99 7.52
15 1 6 9.86 11.57
15 -1 6 2.76 10.52
-1 15 -7 25.01 8.68
1 15 -7 16.83 7.6
15 1 7 11.91 11.16
15 -1 7 20.29 10.94
1 15 -8 18.22 7.6
-1 15 -8 4.86 7.16
15 1 8 -1.12 10.13
15 -1 8 3.65 10.52
-1 15 -9 11.24 6.77
1 15 -9 7.21 6.94
15 1 9 -3.22 9.17
15 -1 9 -0.96 10.03
1 15 9 -0.15 7.72
1 15 -10 2.15 5.87
-1 15 -10 7.28 6.18
15 1 10 -5.16 8
15 -1 10 -5.41 9.08
1 15 10 0.21 6.84
1 15 -11 6.63 5.45
15 1 11 -1.62 6.99
15 -1 11 -0.77 7.63
1 15 11 3.45 5.67
15 1 -11 -1.41 4.69
15 1 12 -11.79 6.26
15 -1 12 -1.87 5.97
15 1 -12 8.47 4.52
15 -1 -12 -7.19 4.63
15 -1 13 3.46 4.4
15 2 0 -3.89 10.92
15 2 0 -15.36 11.37
15 -2 0 -25.39 12.92
15 -2 0 2.43 9.95
-2 -15 0 1.44 22.78
2 -15 0 -6.11 23.21
15 2 -1 22.81 10.99
15 2 1 20.61 11.77
15 -2 -1 18.89 11.34
15 -2 1 -9.29 13
15 2 -1 27.31 11.99
15 -2 -1 23.03 10.58
15 2 1 17.57 10.59
15 -2 1 29.06 11.14
-2 -15 -1 12.14 22.6
2 -15 -1 42.19 24.92
-2 -15 1 51.28 26.98
2 -15 1 30.27 24.09
2 -15 2 14.48 23.16
15 2 2 37.75 11.69
15 -2 -2 22.11 10.89
15 -2 2 20.53 11.81
15 -2 -2 45.45 11.29
15 2 -2 32.89 12.38
15 2 2 28.84 12.46
15 -2 2 42.14 11.89
-2 -15 -2 48.49 24.48
2 -15 -2 47.04 24.9
-2 -15 2 36.81 25.14
15 2 -2 38.66 12.06
15 2 3 41.91 11.89
-2 -15 3 31.97 24.03
15 -2 -3 28.37 11.36
15 -2 3 11.47 12.36
2 -15 3 46.7 24.62
15 2 -3 37.66 11.81
15 2 3 44.2 12.65
15 -2 3 28.14 11.57
-2 -15 -3 71.16 26.6
2 -15 -3 46.82 25.21
2 -15 -3 55.27 21.92
15 2 -3 35.43 11.73
15 2 4 3.83 9.81
15 -2 -4 -2.93 9.86
15 -2 4 -13.76 11.78
15 2 -4 12.4 11.92
-2 -15 4 7.22 20.37
-2 -15 -4 -11.33 20.91
2 -15 4 28.31 21.72
15 2 4 9.74 11.54
15 -2 4 9.92 10.78
2 -15 -4 3.53 21.16
2 -15 -4 -10.47 17.67
15 2 -4 20.01 10.78
15 2 5 -7.36 8.81
15 -2 5 5.95 9.63
15 2 -5 4.68 10.12
2 15 -5 12.16 7.91
15 2 5 10.43 10.44
15 -2 5 9.32 11.61
15 2 -5 -15.72 10.59
15 -2 6 8.08 9.08
2 15 -6 5.78 7.07
15 2 6 2.75 10.35
15 -2 6 8.58 11.5
15 2 6 0.6 8.38
15 -2 7 6.9 8.01
-2 15 -7 5.6 7.04
2 15 -7 11.59 7.14
15 2 7 -1.19 9.86
15 -2 7 5.9 10.65
2 15 7 -0.33 8.49
-2 15 -8 17.35 7.94
2 15 -8 9.74 6.89
15 2 8 11.11 10.99
15 -2 8 13.06 11.02
2 15 8 0.19 8.41
-2 15 -9 10.31 7.44
2 15 -9 7.54 6.2
15 2 9 -1.04 8.93
15 -2 9 1.89 9.54
2 15 9 -11.54 8.18
-2 15 -10 6.63 6.57
2 15 -10 0.39 5.39
15 2 10 6.39 8.01
15 -2 10 9 8.52
2 15 10 5.54 7.02
15 2 -10 -5.2 5.33
2 15 -11 2.98 4.77
15 2 11 -4.24 6.71
15 -2 11 -12.46 7.6
2 15 11 4.58 5.87
15 2 -11 2.26 4.25
15 2 12 -3.12 5.3
15 -2 12 7.88 6
2 15 12 -3.64 4.92
15 2 -12 1.37 3.64
15 -2 -12 3.81 4.17
15 -3 0 -29.68 12.99
15 3 0 -3.6 11.88
15 -3 0 1.56 10.21
-3 -15 0 35.25 26.53
3 -15 0 29.86 23.71
15 3 0 17.18 11.96
15 3 1 50.15 12.74
15 -3 -1 17.18 11.32
15 -3 1 35.06 12.74
15 3 -1 60.86 12.69
15 3 1 48.6 13.2
15 -3 1 45.41 10.65
15 3 1 91.98 12.88
-3 -15 -1 34.54 24.83
3 -15 -1 54.96 26.82
-3 -15 1 41.5 24.48
3 -15 1 48.98 24.69
15 3 -1 59.53 12.89
15 3 2 -5.84 10.94
3 -15 2 -33.88 26.52
15 -3 -2 -8.2 10.74
15 -3 2 -17.27 12.72
15 3 -2 15.44 12.2
15 3 2 -3.08 12.06
15 -3 2 -1.94 10.25
-3 -15 -2 -5.75 22.3
3 -15 -2 36.71 26.46
3 -15 -2 -2.83 18.29
-3 -15 2 -36.08 25.81
15 3 -2 -1.01 11.03
-3 -15 3 -8.22 21.83
15 -3 -3 5.77 10.64
15 -3 3 -37.57 13.94
3 -15 3 51.32 25.03
15 3 3 28.88 12.35
-3 -15 -3 20.81 21.55
15 -3 3 15.89 10.94
3 -15 -3 16.08 23.23
3 -15 -3 -2.75 17.41
15 3 -3 3.7 11.49
15 3 -3 23 11.37
15 3 3 -4.8 10.38
-3 -15 4 -3.91 21.72
15 -3 -4 4.15 9.6
15 -3 4 -10.36 12.03
15 3 -4 8.47 10.69
-3 -15 -4 32.81 21.32
15 3 4 7.31 11.46
15 -3 4 10.77 10.79
3 -15 4 -1.15 18.31
3 -15 -4 -22.71 23.88
3 -15 -4 34.92 16.61
15 3 -4 2.52 10.64
15 3 4 6.52 9.73
15 3 -5 -3.96 10.8
15 -3 5 -27.52 11.06
15 3 5 -0.6 9.47
15 -3 5 -6.14 10.33
15 3 -5 -9.43 10.14
15 3 5 -4.96 9.07
15 -3 6 -2.97 8.48
3 15 -6 7.41 6.74
15 3 6 -7.93 10.53
15 -3 6 0.77 9.91
3 15 6 -3.98 8.77
15 3 6 17.21 8.44
15 -3 7 9.48 7.82
3 15 -7 6.12 6.91
15 3 7 -3.31 9.46
15 -3 7 0.29 10.57
3 15 7 4.8 8.16
3 15 -8 3.35 6.36
15 3 8 6.67 10.33
15 -3 8 -6.51 10.07
3 15 8 -6.69 8.23
3 15 -9 6.21 5.93
15 3 9 -1.01 8.62
15 -3 9 -6.03 9.95
3 15 9 -0.99 7.33
3 15 -10 9.09 5.59
15 3 10 11.62 8.63
15 -3 10 12.38 8.74
3 15 10 8.56 6.79
3 15 -11 8.86 4.97
15 3 11 -4.52 6.72
15 -3 11 0.08 7.16
3 15 11 1.75 5.6
15 3 12 3.46 5.21
15 -3 12 1.34 5.64
3 15 12 8.21 4.92
15 -4 0 -21.46 12.27
15 4 0 -5.61 11.47
-4 -15 0 28.88 24.54
4 -15 0 0.4 24.13
15 4 0 4.57 11.53
15 -4 -1 -14.34 11.49
15 -4 1 -23.04 12.93
15 4 -1 16.14 12.33
15 4 1 -3.4 12.34
15 4 1 10.11 12.11
-4 -15 -1 8.32 20.93
-4 -15 1 -15.96 22.47
4 -15 -1 -20.53 21.88
15 4 -1 4.89 10.66
15 4 1 5.76 10.59
4 -15 1 -12.98 24.03
4 -15 2 34.08 22.4
15 -4 -2 4.79 11.1
15 -4 2 22.44 12.43
15 4 2 34.1 12.36
15 -4 2 22.38 9.71
-4 -15 -2 30.7 24.17
15 4 2 39.69 12.15
4 -15 -2 25.63 23.45
4 -15 -2 47.08 18.54
15 4 -2 50.16 12.74
-4 -15 2 33.73 24.59
15 4 -2 20.13 11.55
15 4 2 44.32 11.78
-4 -15 3 7.94 25.45
15 -4 -3 32.68 11.16
15 -4 3 23.39 12.71
4 -15 3 67.37 24.3
15 4 3 14.14 11.43
-4 -15 -3 0.45 20.39
15 -4 3 36.7 10.78
15 4 3 26.91 10.93
4 -15 -3 39.28 24.85
4 -15 -3 32.39 16.76
15 4 -3 18.03 12.05
15 4 -3 0.45 11.35
15 4 3 43.1 11.51
15 -4 -4 21.86 10.33
15 -4 4 23.43 11.49
15 4 -4 39.78 12.03
15 4 4 15.56 11.01
15 -4 4 31.04 11.27
15 4 4 1.77 11.01
4 15 4 45.36 10.93
15 4 -4 18.32 10.66
15 4 4 30.17 10.33
15 -4 5 -14.54 10.32
15 4 -5 -5.47 9.92
15 4 5 2.4 9.98
15 -4 5 -10.55 10.06
15 4 5 -24.75 11.02
4 15 5 -0.64 9.09
15 4 -5 3.71 9.29
15 4 5 -6.84 9.14
15 -4 6 -3.8 8.92
15 4 6 6.89 10.41
15 -4 6 -0.08 9.6
15 4 6 -22.83 10.44
4 15 6 3.29 8.6
15 4 6 -13.56 9.1
15 -4 7 3.64 7.75
4 15 -7 8 6.45
15 4 7 -6.07 10.99
15 -4 7 -2.68 9.83
4 15 7 5.47 8.66
4 15 -8 3.98 6.16
15 4 8 -4.2 9.37
15 -4 8 -9.98 9.41
4 15 8 2.37 8.48
15 4 9 -7.1 9.44
15 -4 9 2.78 9.08
4 15 9 -2.6 7.96
4 15 -9 -1.55 5.42
4 15 -10 2.3 4.97
15 4 10 -9.5 7.89
15 -4 10 -2.38 8
4 15 10 3.23 6.9
4 15 -11 10.37 4.67
15 4 11 -10.71 6.6
15 -4 11 2.5 6.96
4 15 11 5.84 6.1
15 4 12 2.43 4.88
15 -4 12 -6.4 5.5
4 15 12 2.85 4.79
15 -5 0 69.44 13.6
15 5 0 82.86 13.98
15 5 0 137.44 15.63
-5 -15 0 56.87 26.38
5 -15 0 77.27 25.97
15 5 0 71.9 13.36
5 -15 1 -25.81 23.61
15 -5 -1 -10.4 11.11
15 -5 1 0.22 11.8
15 5 -1 3.11 10.71
15 5 1 -7.69 12.44
15 5 1 22.62 12.19
-5 -15 -1 7.87 20.31
-5 -15 1 -8.9 22.5
5 -15 -1 20.35 23.36
15 5 -1 -22.85 12.77
15 5 1 15.04 10.48
15 -5 -2 -9.66 11.2
15 -5 2 -3.29 11.88
15 5 -2 -9.76 12.8
15 5 2 -10.35 11.91
-5 -15 -2 -4.15 20.44
15 5 2 -7.55 11.8
5 15 2 -23.21 12.57
5 -15 -2 -9.11 20.96
5 -15 -2 -13.1 19.81
15 5 -2 -16.21 12.01
5 -15 2 13 21.89
15 5 2 19.04 10.63
15 -5 -3 19.11 10.19
15 -5 3 19.88 11.71
15 5 -3 38.94 11.29
15 5 3 22.73 10.34
-5 -15 -3 8.67 18.01
5 -15 3 24.45 21.28
15 -5 3 21.49 9.76
15 5 3 21.51 11
5 15 3 47.36 11.15
5 -15 -3 50.73 22.89
5 -15 -3 31.32 16.93
15 5 -3 12.93 11.13
15 5 3 0.16 10.51
15 -5 -4 34.76 10.38
15 -5 4 23.37 11.14
15 5 4 24.36 10.24
15 -5 4 27.01 10.12
15 5 4 12.71 11.01
5 15 4 36.73 11.07
15 5 -4 10.13 9.93
15 5 -4 33.09 11.34
15 5 4 12.29 9.39
15 -5 5 18.02 9.96
15 5 -5 36.77 10.51
15 5 5 22.78 10.03
15 -5 5 15.88 9.63
15 5 5 5.86 11.62
5 15 5 27.72 10.6
15 5 -5 32.18 10.74
15 5 5 16.52 8.82
15 -5 6 25.37 9.5
15 5 6 28.4 10.7
15 -5 6 39.7 10.9
15 5 6 26.08 10.47
5 15 6 24.74 9.62
15 5 -6 46.54 10.32
15 -5 7 3.76 8.48
15 5 7 12.35 9.97
15 -5 7 1.7 9.07
15 5 7 -13.35 10.8
5 15 7 6.27 8.68
15 5 8 -5.28 9.23
15 -5 8 -18.84 9.83
15 5 8 -29.42 10.4
5 15 8 -0.04 8.76
5 15 -9 3.89 5.24
15 5 9 -0.49 8.85
15 -5 9 5.11 8.07
5 15 9 8.92 7.97
5 15 -10 1.19 4.7
15 5 10 -6.34 7.24
15 -5 10 4.45 7.39
5 15 10 -3.5 7.09
5 15 -11 3.32 7.15
15 5 11 13.02 5.91
15 -5 11 0.31 6.08
5 15 11 1.57 5.67
15 -5 12 0.64 4.87
5 15 12 4.46 4.56
6 -15 0 -15.96 24.54
15 6 0 0.62 12.01
15 6 0 26.25 12.28
6 15 0 4.25 10.9
-6 -15 0 -10.76 23.23
15 6 0 -7.93 11.54
15 -6 0 -7.29 11.47
6 -15 1 -16.74 23.12
15 -6 -1 10.75 11.08
15 -6 1 36.92 12.61
15 6 -1 23.12 12.73
15 6 1 11.05 10.39
15 6 1 20.86 12.62
6 15 1 4.22 10.35
-6 -15 -1 0.03 21.5
6 -15 -1 66.85 24.37
15 6 -1 9.98 11.24
15 6 1 -18.16 12.12
15 -6 -2 -4.79 10.7
15 -6 2 13.55 12.25
15 6 2 -6.64 11.17
-6 -15 -2 -20.17 17.18
15 6 2 10.05 11.38
6 15 2 -31.85 12.42
6 -15 -2 -25.45 21.2
15 6 -2 -9.56 12.59
15 6 -2 -16.86 11.31
15 6 2 -9.63 11.47
15 -6 -3 -1.08 10.34
15 -6 3 14.41 11.16
15 6 3 -0.24 9.89
15 6 3 -19.31 12.57
6 15 3 -37.36 12.28
15 6 -3 9.65 11.19
15 6 -3 -4.26 10.67
15 6 3 -8.71 10.46
15 -6 -4 18.66 9.46
15 -6 4 6.23 10.74
15 6 -4 6.49 10.94
15 6 4 5.6 9.22
15 6 4 -14.42 11.75
6 15 4 15.37 9.94
15 6 -4 0.51 9.59
15 6 4 -6.73 9.46
15 -6 5 7.82 9.62
15 6 -5 11.23 9.86
15 6 5 -6.1 10
15 -6 5 19.43 8.8
15 6 5 -6.79 11.53
6 15 5 7.23 9.77
15 6 -5 11.71 9.57
15 6 5 2.76 8.73
15 -6 6 -15.86 9.38
15 6 6 2.93 9.57
15 -6 6 -9.53 8.74
15 6 6 -13.38 11.65
6 15 6 -1.87 9.02
15 6 -6 0.59 8.1
15 -6 7 -0.13 7.94
15 6 7 -9.4 10.13
15 -6 7 4.53 8.61
15 6 7 -23.44 11.88
6 15 7 -7.03 9.2
15 6 8 -11.55 9.51
15 -6 8 6.29 8.74
6 15 8 6.76 9.14
15 6 9 -8.87 8.17
15 -6 9 9.24 8.28
6 15 9 8.47 7.81
15 6 10 9.68 6.92
15 -6 10 0.08 6.79
6 15 10 6.01 6.92
15 6 11 -2.01 4.97
15 -6 11 6.74 5.86
6 15 11 1.77 5.54
15 -6 12 4.47 4.36
6 15 12 9.4 4.43
15 -7 0 16.75 11.49
15 7 0 3.23 10.18
15 7 0 28.23 12.88
7 15 0 14.95 11.15
15 7 0 -13.72 11.72
15 7 -1 38.57 13.25
15 -7 1 29.31 12.26
15 7 1 32.72 11.8
7 15 -1 49.64 11.44
15 7 1 34.99 12.97
7 15 1 22.16 10.75
15 -7 -1 24.01 11.09
15 7 -1 23.26 10.9
15 7 1 9.72 10.43
15 -7 -2 -6.67 10.6
15 -7 2 5.33 11.4
15 7 -2 3.34 11.87
15 7 2 6.93 10.1
15 7 2 -7.93 11.66
7 15 2 -18.6 11.54
15 7 -2 10.3 10.5
15 7 2 -14.34 10.81
15 -7 -3 -8.02 10.25
15 -7 3 27.91 11.66
15 7 -3 -1.05 10.86
15 7 3 2.17 9.74
15 7 3 -10.79 11.82
7 15 3 -29.28 12.37
15 7 -3 -2.88 10.39
15 7 3 -8.08 9.75
15 7 -4 147.47 14.36
15 7 4 114.61 12.86
7 15 4 146.61 14.34
15 7 4 93.66 13.82
15 7 -4 129.07 13.86
15 7 4 117.22 12.69
15 -7 -4 110.28 12.4
15 -7 4 108.05 13.56
15 7 5 139.48 13.75
7 15 5 143.67 14.53
15 7 5 122.41 14.49
15 7 -5 145.78 13.59
15 7 5 128.39 12.72
15 -7 5 118.64 13.36
15 7 -5 163.89 14.83
15 -7 6 40.9 10.24
15 7 6 32.26 10.46
15 -7 6 32.57 9.1
15 7 6 7.18 10.71
7 15 6 38.45 10.87
15 7 -6 34.34 10.19
15 -7 7 0.27 8.01
15 7 7 6.67 8.72
15 -7 7 2.57 8.02
7 15 7 11.48 9.54
15 7 8 -5.44 8.54
15 -7 8 10.42 8.31
7 15 8 -5.14 9.01
15 7 9 9.23 7.63
15 -7 9 11.99 7.23
15 7 9 -15.22 8.68
7 15 9 -4.24 7.91
15 7 10 6.48 5.92
15 -7 10 -1.18 6.05
15 7 10 -8.94 6.62
7 15 10 5.35 6.7
15 -7 11 1.08 4.94
7 15 11 5.05 5.57
15 8 0 11.26 11.08
15 8 0 27.74 12.3
8 15 0 9.23 10.22
15 -8 0 9.15 11.23
15 8 0 -2.5 10.07
15 8 1 7.17 10.54
15 -8 -1 17.55 11.25
15 -8 1 21.18 11.9
15 8 -1 -6.01 11.58
8 15 -1 42.69 10.82
15 8 1 1.1 11.65
8 15 1 9.16 10.35
15 8 -1 0.55 10.27
15 8 1 0.27 10.07
15 -8 -2 24.36 10.99
15 -8 2 41.56 12.2
15 8 -2 30.09 11.32
15 8 2 31.29 11.4
15 8 2 53.43 12.93
8 15 2 26.27 11.3
15 8 -2 32.02 10.85
15 8 2 37.09 10.83
15 -8 -3 19.1 9.72
15 8 -3 25.37 10.39
15 -8 3 29.84 11.54
15 8 3 24.92 10.46
15 8 3 20.11 11.51
8 15 3 -5.16 11.7
15 8 -3 33.69 10.99
15 8 3 22.08 9.45
15 -8 -4 15.22 8.78
15 8 -4 18.45 10.41
15 -8 4 32.19 11.06
15 8 4 8.88 9.63
15 8 4 2.17 11.02
8 15 4 -25.94 12.03
15 8 -4 57.74 11.47
15 8 4 11.79 9.1
15 -8 5 0.48 9.31
15 8 5 -0.51 9.17
15 8 5 -9.18 11.68
8 15 5 15.32 10.39
15 8 -5 17.79 9.71
15 8 5 0.04 8.43
15 -8 6 5.83 8.73
15 8 6 -13.85 9.82
15 8 6 -28.05 12.12
8 15 6 9.26 9.97
15 -8 7 2.46 7.84
15 8 7 2.62 8.73
15 8 7 -19.65 11.08
8 15 7 10.11 9.62
15 -8 8 12.05 6.99
15 8 8 -16.05 9.62
8 15 8 8.43 8.98
15 8 8 1.59 7.44
15 8 9 -0.23 6.62
15 -8 9 3.06 6.26
15 8 9 -11.94 7.81
8 15 9 -6.56 8.04
15 8 10 3.3 5.13
15 -8 10 -8.02 5.33
15 8 10 -5.58 6.33
8 15 10 0.02 6.57
8 15 11 11.47 5.42
15 -9 0 28.3 11.88
15 9 0 32.58 11.29
15 9 0 52.6 13.72
9 15 0 35.25 11.31
15 9 0 21.99 10.98
15 -9 1 17.49 11.43
15 9 -1 2.75 10.52
15 9 1 -5.03 9.73
15 -9 -1 -5.39 10.17
15 9 1 -3.3 11.09
9 15 1 -1.61 10.16
15 9 -1 8.4 10.28
15 9 1 -1.74 9.72
15 -9 -2 2.29 9.68
15 9 -2 -6.09 10.52
15 -9 2 9 10.69
15 9 2 3.97 9.73
15 9 2 6.53 11.57
9 15 2 -13.26 11.06
15 9 -2 12.97 10.64
15 9 2 -6.63 9.41
15 -9 -3 -4.06 9.15
15 9 -3 11.53 11.21
15 -9 3 25.55 11.21
15 9 3 6.34 9.18
15 9 3 -4.1 11.4
9 15 3 -0.55 11.34
15 9 -3 20.62 10.79
15 9 3 5.91 8.95
15 9 -4 16.14 10.82
15 -9 4 5.45 10.03
15 9 4 8.08 9.39
15 9 4 -21.44 12.2
9 15 4 -26.29 12.03
15 9 -4 21.33 10.54
15 9 4 15.33 9.55
15 9 5 -3.91 8.79
15 9 5 -13.39 11.26
15 9 5 9.27 8.07
15 -9 5 12.99 9.64
15 -9 6 13.46 9.03
15 9 6 18.75 8.94
15 9 6 11.12 10.42
9 15 6 25.43 10.34
15 -9 7 -1.02 7.86
15 9 7 9.26 8.18
9 15 7 -1.03 9.25
15 -9 8 -16.04 7.31
15 9 8 4.54 6.77
15 9 8 -6.63 9.32
9 15 8 -8.99 8.95
15 9 9 -5.27 5.27
15 9 9 -13.42 8.18
9 15 9 2.54 7.49
15 9 10 -9.44 6.44
9 15 10 5.09 6.36
9 15 11 1.09 4.71
15 -10 0 -3.52 9.95
15 10 0 30.97 12.71
10 15 0 27.21 11.31
15 10 0 14.05 10.11
15 10 0 -16.96 11.32
15 10 -1 17.44 11.28
15 -10 1 14.42 11.16
15 10 1 -0.19 9.66
15 10 1 25.65 12.28
10 15 1 13.19 10.74
15 10 -1 25.82 10.95
15 10 1 25.72 10.4
15 -10 -1 6.48 10.12
15 -10 -2 5.7 9.62
15 10 -2 12.4 9.89
15 -10 2 26.27 11.19
15 10 2 7.56 9.6
15 10 2 18.33 12.19
10 15 2 -14.86 10.78
15 10 -2 5.11 9.96
15 10 2 9.39 9.56
15 -10 -3 -8.25 9.23
15 -10 3 17.98 10.6
15 10 3 9.2 9.07
15 10 3 5.98 11.16
10 15 3 -14.45 11.41
15 10 -3 5.95 10.17
15 10 -3 23.04 10.98
15 10 3 21.23 9.55
15 -10 4 7.44 9.94
15 10 4 -2 8.76
15 10 4 5.17 10.56
10 15 4 -29.71 11.66
15 10 4 -1.31 8.94
15 -10 5 8.1 9.22
15 10 5 6.73 8.41
15 10 5 -12.77 11.26
15 -10 6 7.27 8.61
15 10 6 4.92 7.81
15 10 6 -4.63 10.88
15 -10 7 2.49 7.3
15 10 7 -3.07 7.22
15 10 7 -18.4 10.38
15 -10 8 -6.61 6.16
15 10 8 -8.76 8.61
10 15 8 -17.02 9.7
15 10 9 -5.97 7.28
10 15 9 -2.68 7.42
15 10 10 -3.56 5.51
10 15 10 9.27 6.16
15 11 0 -5.26 9.87
15 11 0 17.46 10.26
15 -11 0 6.91 10.21
15 -11 -1 23.69 10.65
15 11 -1 11.17 10.14
15 -11 1 17.81 10.33
15 11 1 7.32 9.33
15 11 1 39.45 12.74
11 15 1 42.01 12.12
15 11 -1 50.29 11.83
15 11 1 38.03 11.02
15 -11 -2 5.59 8.95
15 -11 2 12.22 9.99
15 11 -2 7.97 9.76
15 11 2 21.11 11.61
11 15 2 -0.91 10.41
15 11 2 18.45 9.81
15 11 2 1.93 9.08
15 -11 -3 2.15 8.19
15 11 -3 8.02 9.45
15 -11 3 23.26 10.36
15 11 3 6.01 9.18
15 11 3 8.63 10.36
11 15 3 -5.05 10.39
15 11 4 3.83 8.42
15 11 4 -14.19 11.04
11 15 4 -19.68 10.45
15 -11 4 4.06 9.18
15 -11 5 11.61 9.02
15 11 5 15.72 8.44
15 11 5 -16 10.96
11 15 5 -14.02 10.77
15 -11 6 11.03 8.34
15 11 6 18 7.34
15 11 6 -6.12 9.94
15 -11 7 -1.66 6.84
15 11 7 -7.49 9.17
11 15 7 -15.35 9.71
15 -11 8 -18.22 5.94
15 11 8 -9.01 8.19
11 15 8 -11.97 8.53
15 11 9 -6.48 6.48
11 15 9 -0.84 6.65
15 11 10 -4.98 4.85
11 15 10 -3.17 5.25
15 -12 0 14.34 10.07
15 12 0 0.63 8.41
15 12 -1 12.87 9.56
15 -12 -1 10.06 9.34
15 12 1 15.15 9.01
15 -12 1 21.63 10.51
15 12 1 41.22 12.08
12 15 1 27.27 10.98
15 12 -2 -0.15 8.71
15 -12 -2 5.79 8.47
15 12 2 -2.98 8.51
15 -12 2 18.76 9.79
15 12 2 11.1 10.51
12 15 2 17.66 10.5
12 -15 -3 18.86 8.11
15 -12 -3 2.45 8.16
15 12 3 1.3 9.73
12 15 3 2.52 9.67
15 -12 3 9.65 9.33
15 12 3 -5.83 8.47
15 12 4 -3.12 7.74
15 12 4 1.71 9.71
12 15 4 -4.03 9.71
15 -12 4 7.36 8.85
15 -12 5 7.98 8.12
15 12 5 1.45 9.28
12 15 5 -10.54 9.78
15 -12 6 4.47 7.39
15 12 6 -5.13 9.38
12 15 6 -6.32 9.17
15 -12 7 -2.55 6.23
12 -15 7 13.14 6.69
15 12 7 -1.78 8.28
12 15 7 -17.05 9.33
12 -15 8 6.5 5.07
15 12 8 -15.51 7.52
12 15 8 -8.96 7.43
15 12 9 1.96 5.66
12 15 9 4.02 6.01
15 13 0 26.55 8.7
15 -13 0 26.5 9.91
15 13 1 6.77 7.83
15 -13 -1 0.76 8.81
15 -13 1 18.27 9.77
13 -15 -1 15.85 8.75
15 13 -1 -2.68 8.26
15 -13 -2 4.12 8.26
15 13 2 10.9 7.79
15 -13 2 8.97 9.12
13 -15 -2 15.33 8.09
15 13 2 25.71 10.41
13 15 2 19.28 10.19
15 -13 -3 -2.58 7.34
15 -13 3 14.05 9.1
15 13 3 17.56 10.15
13 15 3 18.72 9.9
15 -13 4 10.31 8.41
15 13 4 16.27 9.34
13 15 4 1.2 8.85
15 -13 5 13.85 7.75
13 -15 5 16.47 7.72
15 13 5 1.04 8.78
13 15 5 7.94 8.35
15 -13 6 9.9 6.93
13 -15 6 28.69 7.5
15 13 6 0.22 8.24
13 15 6 11.63 8.5
15 -13 7 7.32 5.77
13 -15 7 11.79 5.75
15 13 7 -2.06 7.38
13 15 7 2.26 7.53
15 13 8 6.69 6.35
13 15 8 13.23 6.75
15 13 9 -3.88 4.79
13 15 9 5.62 5.07
15 -14 0 9.12 8.4
14 -15 0 16.27 8.58
15 -14 -1 5.93 7.93
15 -14 1 8.71 8.31
14 -15 -1 11.88 7.98
14 -15 -2 0.86 6.81
15 -14 2 17.37 8.27
14 -15 2 24.37 8.96
15 14 2 41.54 10.06
14 15 2 44.23 10.23
15 -14 -2 4.49 7.12
15 -14 3 8.03 7.93
14 -15 3 30.46 8.73
15 14 3 17.84 9.23
15 -14 4 5.16 7.49
14 -15 4 14.59 7.55
15 14 4 7.82 8.28
14 15 4 10.46 8.58
15 -14 5 4.49 6.53
14 -15 5 11.33 7
15 14 5 5.94 8.25
14 15 5 6.97 7.88
15 -14 6 4.3 5.95
14 -15 6 8.93 6.06
15 14 6 -1.4 7.34
14 15 6 -1.48 7.19
15 -14 7 -9.94 5.05
14 -15 7 -0.73 4.63
15 14 7 -2.52 6.46
14 15 7 -8.45 6.83
15 14 8 1.4 5.41
14 15 8 9.79 5.64
15 -15 0 3.43 7.28
15 -15 1 16.78 7.94
15 -15 -1 5.94 6.72
15 -15 -2 -10.8 6.45
15 -15 2 5.93 7.39
15 -15 3 11.18 7.32
15 -15 4 -2.44 6.22
15 15 4 25.01 8.18
15 -15 5 10.31 6.26
15 15 5 12.14 7.23
15 -15 6 2.4 5.15
15 15 6 5.38 6.51
15 15 7 41.79 6.55
16 0 0 -9.41 11.77
16 0 0 5.86 10.39
0 -16 0 -19 23.14
16 0 -1 92.22 13.59
16 0 1 110.5 14.88
16 0 -1 122.72 14.47
16 0 1 101.18 14.13
0 -16 -1 110.43 29.44
0 -16 1 82.32 26.6
16 0 -2 63.18 12.3
16 0 2 67.87 13.53
16 0 -2 73.15 12.82
16 0 2 64.03 11.97
0 -16 -2 65.72 24.79
0 -16 2 80.56 24.48
16 0 -3 6.04 9.74
16 0 3 12.17 10.64
16 0 -3 15.77 10.14
16 0 3 14.52 10.86
16 0 4 -5.84 9.93
16 0 -4 4.61 9.85
16 0 4 -0.14 9.7
16 0 -4 9.26 9.68
16 0 5 39.64 10.22
16 0 -5 28.44 10.07
16 0 5 35.53 12.02
16 0 -5 30.05 10.04
16 0 6 24.25 8.56
16 0 6 33.2 12.11
16 0 7 155.65 15.81
16 0 8 124.6 13.63
16 0 9 72.39 11.36
16 0 10 12.38 8.02
16 0 -11 11.03 4.32
16 0 11 3.55 6.15
16 0 12 7.03 4.87
16 1 0 4.76 10.5
16 -1 0 -16.86 11.81
16 1 0 3.87 10.95
16 -1 0 -4.14 10.58
-1 -16 0 -9.65 22.09
1 -16 0 -5.82 23.88
16 1 -1 1.85 10.38
16 1 1 9.88 11.5
16 -1 -1 4.66 10.39
16 -1 1 -1.52 11.7
16 1 -1 5.74 10.97
16 -1 -1 30.41 11.4
16 1 1 2.16 11.09
16 -1 1 -3.24 10.67
-1 -16 -1 22.53 24.49
1 -16 -1 7.88 21.81
-1 -16 1 58.77 26.13
1 -16 1 -13.99 23.59
16 1 -2 13.01 10.95
1 -16 2 -12.05 22.69
16 1 2 2.04 11.05
16 -1 -2 13.51 10.52
16 -1 2 12.33 11.49
16 -1 -2 12.38 10.52
16 1 -2 25.09 11.77
16 -1 2 2.87 10.83
-1 -16 -2 -9.55 23.81
1 -16 -2 17.1 24.7
16 1 2 4.2 10.17
-1 -16 2 0.16 23.36
16 -1 -3 -5.26 9.88
16 1 3 12.7 11.12
16 -1 3 -2.38 10.99
16 -1 -3 11.22 9.83
16 1 -3 -1.2 9.98
16 1 3 10.95 10.03
16 -1 3 7.28 10.65
16 1 -3 -3.86 10.17
16 1 4 6.45 9.63
16 -1 4 2.84 9.97
16 -1 -4 25.15 9.92
16 1 -4 14.36 10.47
16 1 4 2.92 9.44
16 -1 4 8.65 9.75
16 1 -4 17.17 10.08
16 -1 -4 8.14 9.22
16 1 5 4.32 8.81
16 -1 5 8.1 8.75
16 1 -5 11.43 9.62
16 1 5 6.68 10.72
16 -1 5 22.84 11.46
16 1 -5 -0.35 10.2
16 -1 -5 2.33 8.95
16 -1 6 1.12 8.1
16 1 6 -3.14 10.15
16 -1 6 3.5 11.15
16 1 6 1.23 7.72
16 1 7 20.47 11.25
16 -1 7 5.13 10.66
1 16 -8 9.15 6.5
16 1 8 -1.57 9.8
16 -1 8 -8.11 9.2
16 1 9 -3.31 8.72
16 -1 9 2.25 8.93
16 1 10 3.75 7.15
16 -1 10 2.41 7.64
16 1 11 -0.86 6.2
16 -1 11 7.92 6.3
16 -1 -11 6.52 4.38
16 1 12 -1.84 5.08
16 -1 12 -2.4 4.82
16 2 0 86.75 13.67
16 -2 0 88.12 13.41
16 2 0 80.01 13.28
16 -2 0 87.52 12.73
-2 -16 0 57.2 25.63
2 -16 0 117.65 30.65
16 2 1 -0.02 10.74
16 -2 -1 3.96 10.31
16 -2 1 7.61 11.05
16 2 -1 5.56 11.56
16 -2 -1 18.4 10.01
16 2 1 3.77 11.65
16 -2 1 -1.77 9.87
-2 -16 -1 10.43 22.86
2 -16 -1 9.27 23.4
-2 -16 1 -5.47 22.38
2 -16 1 -26.53 22.28
16 2 -1 6.49 11.14
16 2 2 19.43 11.01
16 -2 -2 28.91 10.86
16 -2 2 15.8 11.44
16 -2 -2 30.13 10.7
16 2 -2 37.83 11.54
16 2 2 4.37 10.25
16 -2 2 3.67 10.09
-2 -16 2 5.64 21.08
16 2 -2 28.14 11.02
16 2 3 18.02 10.86
16 -2 -3 33.58 10.95
16 -2 3 20.44 11.21
16 2 -3 16.69 10.08
16 2 3 21.37 11.71
16 -2 3 29.84 10.52
16 2 -3 27.26 10.95
16 -2 -4 -6.6 9.29
16 -2 4 13 10.67
16 2 -4 12.77 10.69
16 2 4 6 10.61
16 -2 4 7.84 9.95
16 2 -4 -7 10.34
16 2 4 0.38 9.34
16 -2 5 31.95 10.4
16 2 -5 26.73 10.23
16 2 5 14.33 9.88
16 -2 5 23.28 10.81
16 2 -5 10.88 9.25
16 2 5 22.98 9.56
16 2 6 118.01 14.5
16 -2 6 116.87 13.83
16 -2 6 105.16 11.51
16 2 6 84.69 10.53
16 -2 7 52.79 9.68
16 2 7 68.77 12.62
16 -2 7 70.14 11.97
2 16 -8 73.67 9.08
16 2 8 84.6 12.14
16 -2 8 88.93 12.8
16 2 9 60.52 11.05
16 -2 9 46.16 10
2 16 -9 70.03 8.13
16 2 10 13.73 7.53
16 -2 10 10.06 7.56
16 2 11 3.94 5.94
16 -2 11 0.31 6.07
16 2 12 0.53 4.45
16 -2 12 2.79 4.71
16 -3 0 -30.48 12.68
16 3 0 4.11 11.6
16 -3 0 10.01 9.36
-3 -16 0 36.96 23.46
3 -16 0 25.33 23.1
16 3 0 13.27 11.32
16 -3 -1 4.61 10.28
16 -3 1 -13.51 12.12
16 3 -1 10.29 11.75
16 3 1 19.34 11.35
16 -3 1 10.2 9.6
-3 -16 -1 -7.48 20.52
3 -16 -1 -11.3 23.76
-3 -16 1 25.18 24.25
16 3 -1 13.49 11.11
3 -16 1 -3.41 22.07
16 3 1 23.9 11.42
16 -3 -2 -0.49 9.55
16 -3 2 -15.4 12.16
16 3 -2 -8.75 10.58
16 3 2 -12.73 11.51
16 -3 2 2.43 9.53
16 3 -2 15.89 11.03
16 3 2 1.14 10.23
16 -3 -3 9.57 9.75
16 -3 3 -3.08 11.94
16 3 -3 21.97 10.93
16 3 3 -5.42 10.1
16 -3 3 26.19 10.12
16 3 -3 -0.57 10.69
16 3 3 18.37 11.02
16 -3 -4 80.45 11.85
16 3 -4 54.12 11.49
16 3 4 59.96 12.07
16 -3 4 47.92 11.12
16 3 -4 44.76 10.67
16 3 4 58.72 11.41
16 -3 5 38.79 10.25
16 3 -5 42.12 11.14
16 3 5 32.18 10.19
16 -3 5 37.03 10.98
16 3 -5 43.77 10.55
16 3 5 22.04 9.05
16 -3 6 15.47 8.48
16 3 6 21.5 10.66
16 -3 6 27.89 10.54
16 3 6 20.24 8.1
16 -3 7 6.4 7.56
16 3 7 -1.67 9.75
16 -3 7 10.57 10
3 16 7 -0.81 7.59
3 16 -8 4.44 5.89
16 3 8 -2.69 9.04
16 -3 8 1.12 8.84
3 16 8 9.59 7.2
3 16 -9 13.9 5.59
16 3 9 -0.03 8.62
16 -3 9 -0.04 8.6
3 16 9 2.91 6.6
16 3 10 11.92 6.94
16 -3 10 28.46 7.92
3 16 10 15.68 6.32
16 -3 11 14.68 6.24
3 16 11 10.57 5.12
16 3 11 23.14 6.19
16 3 12 4.28 4.05
16 -3 12 5.18 4.72
16 -4 0 -22.87 12.67
16 4 0 1.67 10.32
16 4 0 8.92 11.07
16 -4 -1 -14.19 11.44
16 -4 1 -21.17 12.73
16 4 -1 14.5 11.17
16 4 1 13.79 11.82
16 4 1 56.62 12.02
16 4 -1 11.35 10.71
16 4 1 27.98 11.46
16 -4 -2 4.39 9.4
16 -4 2 -10.98 12.09
16 4 -2 4.11 10.11
16 4 2 -3.37 11.12
16 -4 2 -3.92 8.79
16 4 2 10.74 10.06
16 4 -2 -31.65 12.39
16 4 2 16.04 10.82
16 -4 -3 1.27 9.38
16 -4 3 -30.42 12.72
16 4 -3 2 10.72
16 4 3 -4.42 9.47
16 -4 3 16.93 9.34
16 4 3 0.94 9.5
16 4 -3 -21.49 11.62
16 4 3 19.54 10.22
16 -4 -4 -0.51 8.68
16 -4 4 -20.26 11.1
16 4 4 -9.56 10.42
16 -4 4 9.98 9.08
16 4 -4 2.24 9.76
16 4 -4 -4.16 10.36
16 4 4 2.16 9.12
16 -4 5 -8.85 9.57
16 4 -5 5.31 9.56
16 4 5 8.96 9.29
16 -4 5 7.6 9.41
16 4 -5 -1.53 8.93
16 4 5 -12.33 9.52
16 -4 6 24.89 8.83
16 4 6 7.47 10.14
16 -4 6 8.88 9.06
4 16 6 13.75 8.6
16 4 6 3.85 7.77
16 -4 7 52.34 9.28
16 -4 7 89.52 12.04
16 4 7 102.34 13.25
4 16 7 69.02 9.99
16 4 8 67.46 11.6
16 -4 8 50.49 10.57
4 16 8 47.14 8.84
16 4 9 36.47 9.07
16 -4 9 22.26 8.57
4 16 9 30.31 7.78
16 4 10 4.78 6.59
16 -4 10 2 6.55
4 16 10 9.73 5.72
16 4 11 4.92 5.17
16 -4 11 -8.32 5.83
4 16 11 7.33 4.85
16 -5 0 -8.3 11.27
16 5 0 25.69 11.85
16 5 0 -5.93 11.16
16 -5 -1 0.13 10.78
16 -5 1 14.86 11.3
16 5 -1 45.66 13.37
16 5 1 6.74 11.34
16 5 1 61.16 12.98
16 5 -1 5.94 11.09
16 5 1 -10.55 11.26
16 -5 -2 -6.46 10.66
16 -5 2 -10.34 11.67
16 5 -2 -11.37 11.96
16 5 2 10.74 10.57
16 5 2 17.34 10.87
16 5 -2 -18.71 11.44
16 5 2 -10.75 11.11
16 -5 -3 46.8 10.59
16 -5 3 10.59 10.54
16 5 -3 31.01 10.72
16 5 3 33.69 11.42
16 -5 3 34.9 9.31
16 5 3 49.19 11.6
16 5 -3 31 10.98
16 5 3 12.19 9.83
16 -5 -4 65.24 10.93
16 -5 4 60.54 12.07
16 5 -4 86.29 13.28
16 5 4 67.96 12.33
16 -5 4 69.8 10.58
16 5 4 73.4 12.19
5 16 4 41.64 10.23
16 5 -4 71.14 11.88
16 5 4 40.16 10.02
16 -5 5 95.73 12.18
16 5 -5 148.96 14.43
16 5 5 137.38 14.37
16 -5 5 118.3 12.16
16 5 5 124.6 12.88
5 16 5 113.59 12.29
16 5 -5 135.59 13.04
16 5 5 105 11.45
16 -5 6 42.54 9.77
16 5 6 62.7 11.18
16 -5 6 66.87 10.97
16 5 6 52.1 10.83
5 16 6 62.86 10.49
16 5 -6 79.76 10.72
16 -5 7 8.97 7.29
16 5 7 5.99 9.28
16 -5 7 10.14 8.94
5 16 7 14.98 8.8
16 5 8 2.11 8.45
16 -5 8 9.31 7.94
5 16 8 4.6 7.26
16 5 9 37.03 8.72
16 -5 9 29.2 8.34
5 16 9 22.09 7.31
16 5 10 39.98 7.41
16 -5 10 36.89 7.58
5 16 10 22.89 6.61
16 5 11 9.31 5.11
16 -5 11 13.33 5.47
5 16 11 18.06 5.33
16 -6 0 45.02 12.02
16 6 0 45.47 11.61
16 6 0 39.05 11.09
16 -6 -1 -2.69 10.16
16 -6 1 -7.26 10.97
16 6 -1 4.82 11.71
16 6 1 6.12 10.36
16 6 -1 -15.56 11.21
16 6 1 -15.32 11.45
16 -6 -2 -13.59 10.58
16 -6 2 3.4 10.57
16 6 -2 -5.92 11.68
16 6 2 11.56 10.13
16 6 2 23.03 11.13
6 16 2 -9.83 9.91
16 6 -2 -3.79 10.64
16 6 2 -14.71 10.79
16 -6 -3 12.09 9.23
16 -6 3 0.52 10.27
16 6 -3 13.67 11.58
16 6 3 12.45 9.26
16 6 3 11.96 10.44
6 16 3 -13.08 10.42
16 6 -3 14.67 10.03
16 6 3 -4.92 9.89
16 -6 -4 3.18 8.39
16 -6 4 -2.61 10.08
16 6 -4 -1.03 9.19
16 6 4 7.88 10.04
16 6 4 0.64 10.09
6 16 4 -34.26 11.1
16 6 -4 15.67 10.1
16 6 4 -7.21 8.93
16 -6 5 -3.68 9.05
16 6 -5 5.37 9.45
16 6 5 -5.79 9.86
16 -6 5 -2.91 8
16 6 5 -0.12 10.32
6 16 5 31.89 10.01
16 6 -5 27.06 9.94
16 6 5 -5.36 8.78
16 -6 6 12.62 8.51
16 6 6 5.67 8.76
16 -6 6 11.19 8.48
16 6 6 1.3 9.94
6 16 6 6.12 8.46
16 6 -6 22.96 9.61
16 -6 7 22.56 7.94
16 6 7 22.22 9.46
16 -6 7 15.92 8.12
16 6 7 5.26 9.27
6 16 7 24.03 9.16
16 6 8 13.42 8.77
16 -6 8 12.82 7.63
16 6 8 16.34 8.11
6 16 8 19.2 8.12
16 6 9 5.54 7.39
16 -6 9 -7.12 6.56
6 16 9 -5.7 6.92
16 6 10 5.14 5.7
16 -6 10 0.09 5.54
6 16 10 7.6 5.84
16 6 11 5.4 4.12
16 -6 11 2.78 4.53
6 16 11 2.14 4.49
16 -7 0 12.24 10.94
16 7 0 8.53 11.68
7 16 0 14.45 10.22
16 7 0 -11.02 10.82
16 -7 -1 -10.32 10.63
16 -7 1 -13.03 11.63
16 7 -1 -13.88 12.1
16 7 1 -5.38 10.76
16 7 1 21.22 11.79
7 16 1 9.74 9.79
16 7 -1 4.8 10.45
16 7 1 -3.22 10.01
16 -7 -2 17.37 9.86
16 -7 2 19.47 10.96
16 7 -2 40.97 12.74
16 7 2 33.46 10.45
16 7 2 51.74 12.37
7 16 2 18.06 9.75
16 7 -2 34.8 11.21
16 7 2 23.79 10.05
16 -7 -3 41.53 10.28
16 -7 3 40.8 12.3
16 7 -3 64.2 13.14
16 7 3 43.3 10.75
16 7 3 33.35 11.51
7 16 3 29.05 9.93
16 7 -3 59.44 11.99
16 7 3 39.53 10.35
16 -7 -4 93.4 11.53
16 7 -4 121.2 13.81
16 -7 4 79.56 12.6
16 7 4 83.94 12.64
16 7 4 88.55 13.41
7 16 4 65.5 11.23
16 7 -4 134.68 13.91
16 7 4 78.54 11.19
16 7 5 122.24 13.25
16 7 5 125.83 14.04
7 16 5 95.05 11.95
16 7 -5 144.8 13.83
16 7 5 97.91 11.08
16 -7 5 116.42 13.07
16 -7 6 55.65 10.08
16 7 6 90.48 12.19
7 16 6 100.17 11.78
16 7 6 74.66 12.2
16 -7 7 8.42 7.32
16 7 7 7.93 8.52
16 -7 7 24.64 7.92
16 7 7 24.25 9.23
7 16 7 20.3 9.26
16 7 8 3.81 7.49
16 -7 8 -0.25 6.55
16 7 8 -0.44 7.64
7 16 8 0.84 7.53
16 7 9 16.06 6.91
16 -7 9 17.55 6.53
16 7 9 4.54 6.56
7 16 9 16.59 7.13
16 7 10 30.26 5.97
16 -7 10 24.83 5.6
7 16 10 25.19 6.49
16 -8 0 43.93 11.98
16 8 0 33.88 11.19
8 16 0 65.85 11.88
16 8 0 42.48 11.72
16 -8 -1 -3.31 10.35
16 -8 1 3.61 10.8
16 8 -1 -0.27 11.58
16 8 1 -4.08 10.3
16 8 1 28.87 12.17
8 16 1 4.92 9.36
16 8 -1 0.43 9.9
16 8 1 1.99 9.49
16 -8 -2 -1.43 10.06
16 -8 2 15.19 10.88
16 8 -2 0.18 10.04
16 8 2 1.46 9.22
16 8 2 8.04 11.07
8 16 2 0.88 9.73
16 8 -2 17.85 10.43
16 8 2 7.37 9.99
16 -8 -3 -4.54 9.69
16 -8 3 3.58 10.04
16 8 -3 4.31 10.63
16 8 3 0.61 8.79
16 8 3 6.94 10.47
8 16 3 -6.86 9.72
16 8 -3 20.15 10.23
16 8 3 0.31 8.66
16 -8 -4 14.07 8.49
16 -8 4 7.09 9.64
16 8 -4 7.05 9.59
16 8 4 4.9 9.06
16 8 4 2.16 10.68
8 16 4 -12.22 10.85
16 8 -4 27.61 10.48
16 8 4 13.33 8.63
16 -8 5 2.57 8.95
16 8 5 2.17 8.71
16 8 5 -7.61 10.79
8 16 5 -22.17 10.54
16 8 -5 21.94 10.05
16 8 5 5.69 8.27
16 -8 6 -6.66 8.7
16 8 6 -5.35 8.5
16 8 6 -14.3 10.09
8 16 6 -26.27 10.46
16 -8 7 -10.85 8.02
16 8 7 -20.76 8.76
16 8 7 -4.36 9.28
8 16 7 -6.56 8.93
16 8 8 -0.1 6.94
16 8 8 -10.85 7.88
8 16 8 6.86 7.56
16 8 9 1.72 5.52
16 8 9 -2.41 6.6
8 16 9 -0.2 6.61
8 16 10 -2.97 5.53
16 -9 0 -8.63 10.5
16 9 0 -4.8 10.34
9 16 0 17.59 10.52
16 9 0 23.97 10.54
16 -9 -1 37.55 11.28
16 -9 1 48.55 12.2
16 9 -1 62.75 12.66
16 9 1 59.36 12.37
16 9 1 84.15 14.06
9 16 1 71.49 12.16
16 9 -1 59.26 11.88
16 9 1 68.16 12.21
16 -9 -2 -0.25 9.89
16 -9 2 21.24 11.16
16 9 -2 45.41 12.45
16 9 2 45.59 11.52
16 9 2 46.61 12.75
9 16 2 31.15 11.06
16 9 -2 41.6 11.42
16 9 2 31.03 10.34
16 -9 -3 32.97 9.83
16 9 -3 42.68 11.86
16 -9 3 31.97 10.99
16 9 3 47.57 11.1
16 9 3 49.21 12.6
9 16 3 24.44 10.31
16 9 -3 74 12.32
16 9 3 52.49 10.31
16 -9 4 37.34 10.57
16 9 4 49.35 11.05
16 9 4 47.16 11.9
9 16 4 24.78 10.28
16 9 -4 68.21 11.72
16 9 4 39.97 9.19
16 9 -4 57.78 11.6
16 -9 5 30.39 9.76
16 9 5 68.95 11.03
16 9 5 47.11 11.68
9 16 5 28.38 9.93
16 9 5 74.83 10.06
16 -9 6 25.12 9.06
16 9 6 31.34 9.33
16 9 6 35.73 10.58
9 16 6 21.39 9.15
16 -9 7 -4.28 7.15
16 9 7 11.32 7.41
16 9 7 -4.4 8.62
9 16 7 -10.47 9.44
16 9 8 -4.53 6.09
16 9 8 -12.63 7.81
9 16 8 -3.94 7.86
16 9 9 17.19 6.36
9 16 9 20.02 6.95
9 16 10 17.76 5.6
16 -10 0 3.4 10.2
16 10 0 -6.02 10.34
16 -10 -1 14.19 10.15
16 -10 1 13.5 10.76
16 10 -1 6.78 10.43
16 10 1 12.19 9.43
16 10 1 35.99 12.09
10 16 1 16.71 10.67
16 10 -1 53.07 11.9
16 10 1 43.3 11.21
16 -10 -2 -4.38 9.29
16 10 -2 8.5 10.24
16 -10 2 16.01 10.55
16 10 2 5.72 9.3
16 10 2 31.14 11.88
10 16 2 20.44 10.46
16 10 -2 31.16 10.99
16 10 2 28.23 10.01
16 -10 -3 0.56 8.35
16 10 -3 14.53 9.73
16 -10 3 15.4 10.23
16 10 3 23.67 9.96
16 10 3 19.78 11.26
10 16 3 7.27 9.85
16 10 -3 46.06 11.4
16 10 3 21.73 9.27
16 -10 4 6.85 9.34
16 10 4 21.6 9.51
16 10 4 10.85 9.97
10 16 4 -9.76 9.97
16 10 4 22.06 8.59
16 -10 5 -2.86 8.78
16 10 5 -1.12 8.03
16 10 5 0.54 10.1
10 16 5 -25.99 10.26
16 -10 6 0.44 7.62
16 10 6 -3.92 7.49
16 10 6 -13.97 9.32
10 16 6 -21.79 10.09
16 -10 7 9.38 6.95
16 10 7 9.78 8.3
10 16 7 0.57 8.47
16 10 7 4.83 6.54
10 -16 8 21.4 5.9
16 10 8 14.58 7.38
10 16 8 8.3 7.13
16 10 9 6.3 5.69
10 16 9 17.2 6.43
16 -11 0 0.36 9.63
16 11 0 5.33 9.63
16 11 0 27.07 10.74
16 -11 -1 -3.33 9.74
16 11 -1 -2.45 8.94
16 -11 1 -1.65 9.81
16 11 1 15.74 9.58
11 16 1 26.5 11.02
16 11 1 31.22 10.69
16 -11 -2 11.33 8.48
16 11 -2 30.83 9.9
16 -11 2 25.78 10.49
16 11 2 12.19 9.21
16 11 2 31.67 11.38
11 16 2 19.92 9.91
16 11 2 50.25 10.69
16 -11 -3 7.25 7.77
16 -11 3 29.92 10.01
16 11 3 23.9 9.26
16 11 3 41.03 11.14
11 16 3 34.17 10.59
16 -11 4 17.99 9.09
16 11 4 30.55 8.87
16 11 4 27.22 10.22
11 16 4 28.33 9.97
16 -11 5 7.4 8.1
16 11 5 9.1 7.92
16 11 5 9.24 9.35
11 16 5 8.55 8.76
16 -11 6 6.17 7.25
16 11 6 1.11 6.62
16 11 6 0.46 8.45
11 16 6 -2.33 9.07
16 -11 7 -4.37 6.41
16 11 7 -1.4 7.67
11 16 7 -5.38 7.99
11 -16 8 14.56 5.15
16 11 8 -2.66 6.4
11 16 8 -1.47 6.69
16 11 9 2.72 5.09
11 16 9 1.95 5.3
16 -12 0 70.03 11.4
16 12 0 56.37 10.44
16 -12 -1 19.09 9.21
16 12 -1 23.23 8.96
16 -12 1 9.58 9.16
16 12 1 22.59 9.26
16 -12 -2 8.43 7.93
16 -12 2 10.18 9.21
16 12 2 8.27 8.06
12 -16 -2 13.95 7.67
16 12 2 40.76 10.5
12 16 2 39.05 10.54
16 -12 -3 -2.16 7.24
16 -12 3 15.43 8.74
16 12 3 5.05 7.49
16 12 3 32.46 10.55
12 16 3 16.74 9.55
16 -12 4 11.07 8.26
16 12 4 5.91 7.01
16 12 4 23.6 9.73
12 16 4 0.71 8.5
16 -12 5 0.65 7.39
16 12 5 10.76 9.18
12 16 5 1.73 8.19
16 -12 6 9.64 6.6
12 -16 6 28.97 6.93
16 12 6 16.21 8.55
12 16 6 27.77 8.52
16 -12 7 6.09 5.32
12 -16 7 27.7 6.25
16 12 7 21.58 7.53
12 16 7 20.2 7.54
16 12 8 35.26 6.79
12 16 8 34.85 7.12
16 13 0 0.42 7.47
16 -13 0 -1.73 8.3
16 -13 -1 0.34 7.62
16 13 1 2.49 7.01
16 -13 1 3.24 8.49
13 -16 -1 20.59 7.75
16 -13 -2 -6.81 7.32
16 13 2 5.52 7.26
16 -13 2 -1.26 7.93
13 -16 -2 16.68 7.16
16 -13 3 20.19 8.59
16 13 3 45.95 10.11
13 16 3 37.57 9.55
16 -13 4 6.82 7.33
13 -16 4 30.03 7.98
16 13 4 23.97 8.98
13 16 4 36.11 9.18
16 -13 5 4.06 6.65
13 -16 5 19.59 6.79
16 13 5 12.55 8.07
13 16 5 11.26 7.92
16 -13 6 -0.82 5.81
13 -16 6 12.98 6.27
16 13 6 3.13 7.27
13 16 6 -4.77 7.08
16 -13 7 -9.63 4.96
13 -16 7 3.9 4.72
16 13 7 -2.41 5.98
13 16 7 4.76 6.46
16 13 8 10.11 5.15
13 16 8 6.09 5.28
16 -14 0 7.13 7.52
14 -16 0 10.13 7.18
16 -14 -1 26.34 7.33
16 -14 1 29.49 8.34
14 -16 -1 37.06 7.67
14 -16 1 44.22 8.36
16 -14 -2 23.36 6.73
14 -16 -2 19.45 6.67
14 -16 2 35.88 8.27
16 -14 2 15.78 7.78
16 -14 3 5.85 7.08
14 -16 3 25.02 7.69
16 -14 4 -3.13 6.62
14 -16 4 19.31 6.99
16 14 4 24.92 8.02
14 16 4 22.06 7.96
14 -16 5 8.81 5.83
16 14 5 16.64 7.35
14 16 5 5.63 6.73
16 -14 5 4.06 5.87
16 -14 6 -1.1 5.18
14 -16 6 9.03 5.09
16 14 6 17.14 6.67
14 16 6 2.95 6.36
16 14 7 43.14 6.6
14 16 7 48.47 6.55
16 -15 0 -5.7 6.37
15 -16 0 -5.99 6.17
16 -15 -1 -8.69 6.03
15 -16 -1 8.22 5.95
16 -15 1 -0.29 6.34
15 -16 1 9.6 6.66
16 -15 -2 -10.53 5.5
16 -15 2 -1.53 6.35
15 -16 2 1.09 6.11
16 -15 3 -1.53 5.93
15 -16 3 4.05 6.08
16 -15 4 3.56 5.57
15 -16 4 -2.41 5.42
16 -15 5 -5.19 5.05
15 -16 5 -5.92 5.2
16 -16 0 15.21 5.47
16 -16 -1 -9.45 4.91
16 -16 1 -3.61 5.56
16 -16 2 8.52 5.48
16 -16 3 9.38 5.22
16 -16 4 -0.39 4.69
17 0 0 -13.37 10.79
17 0 0 4.68 9.72
17 0 -1 46.9 11.77
17 0 1 54.7 12.61
17 0 -1 58.57 11.59
17 0 1 55.53 11.95
17 0 -2 32.51 10.43
17 0 2 28.36 11.51
17 0 -2 33.49 10.92
17 0 2 44.15 11.03
17 0 3 3.88 9.72
17 0 -3 8.63 9.34
17 0 3 -0.23 9.86
17 0 -3 8.68 9.05
17 0 4 -4.15 9.61
17 0 -4 1.84 9.09
17 0 4 6.23 9.72
17 0 -4 7.65 9.39
17 0 5 -3.26 8.43
17 0 -5 0.79 8.45
17 0 5 9.93 9.37
17 0 -5 1.51 9.06
17 0 6 -0.7 9.09
17 0 6 4.19 7.82
17 0 7 0.23 8.93
17 0 8 -15.54 8.75
17 0 9 -7.72 8.17
17 0 10 2.17 6.26
17 0 11 5.57 5.03
17 1 0 30.98 11.11
17 -1 0 24.09 11.16
17 1 0 36.9 11.66
17 -1 0 36.38 10.31
17 1 1 0.89 10.55
17 -1 -1 21.54 10.67
17 -1 1 4.4 10.62
17 -1 -1 -3.45 9.26
17 1 -1 6.6 9.74
17 1 1 5.24 9.52
17 -1 1 -8.01 9.06
17 1 -1 -0.48 9.68
17 1 2 -9 10.98
17 -1 -2 9.73 9.59
17 -1 2 -2.52 10.88
17 -1 -2 8.96 9.69
17 1 -2 2.71 10.38
17 1 2 1.44 9.88
17 -1 2 5.57 9.52
17 1 -2 4.92 9.39
17 -1 -3 -2.39 8.96
17 1 3 -13.97 10.47
17 -1 3 -6.6 10.4
17 -1 -3 8.17 8.99
17 1 -3 8.39 9.98
17 1 3 -6.52 9.81
17 -1 3 -11.38 10.08
17 1 -3 1.08 9.36
17 1 4 1.33 9.07
17 -1 4 2.65 9.26
17 -1 -4 7.31 8.67
17 1 -4 9.3 8.95
17 1 4 -18.28 10.93
17 -1 4 -7.77 9.79
17 1 -4 -16.34 10.08
17 -1 -4 -4.7 8.78
17 -1 5 -4.05 8.71
17 1 -5 1.85 8.66
17 1 5 -8.39 9.49
17 -1 5 14.18 9.62
17 1 -5 -4.4 9.6
17 -1 -5 -3.61 8.9
17 1 5 1.66 8.41
17 -1 6 10.22 7.96
17 1 6 13.18 10.21
17 -1 6 16.31 10.63
17 1 6 8.51 7.82
17 1 7 -5.6 9.5
17 -1 7 10.51 10.07
17 -1 7 2.11 6.8
17 1 8 3.96 8.26
17 -1 8 4.8 8.41
17 1 9 -5.45 8.05
17 -1 9 6.09 8.07
17 1 10 -1.35 6.25
17 -1 10 -3.3 6.31
17 1 11 -2.91 4.88
17 -1 11 -2.17 5.01
17 -2 0 -4.19 9.89
17 2 0 13.5 11.2
17 -2 0 -13.63 9.51
17 2 0 -6.42 10.52
17 -2 -1 -0.79 9.81
17 -2 1 23.94 11.33
17 -2 -1 15.57 9.55
17 2 -1 13.3 10.81
17 2 1 21.76 10.49
17 -2 1 2.16 9.31
17 2 -1 27.56 10.85
17 2 1 11.72 10.5
17 -2 -2 28.08 10.22
17 -2 2 44.95 12.39
17 -2 -2 29.54 9.56
17 2 -2 16.88 10.27
17 2 2 14.46 9.98
17 -2 2 20.23 9.54
17 2 -2 26.74 10.91
17 2 2 17.78 11.05
17 -2 -3 15.06 9.44
17 -2 3 30.21 11.05
17 2 -3 19.25 10.51
17 2 3 18.29 10.81
17 -2 3 7.97 9.43
17 2 -3 4.82 9.67
17 2 3 31.38 11.25
17 -2 4 14.44 10.05
17 2 -4 5.96 8.98
17 2 4 7.95 10.5
17 -2 4 -3.55 9.37
17 2 -4 8.97 9.54
17 2 4 11.23 9.32
17 -2 -4 8.18 9.29
17 -2 5 0.26 8.73
17 2 -5 3.11 9.45
17 2 5 6.68 10.14
17 -2 5 6.48 9.44
17 2 -5 3.62 9.06
17 2 5 -4.28 8.33
17 -2 6 11.73 7.99
17 2 6 3.98 9.83
17 -2 6 -0.75 9.27
17 2 6 -6.66 8.14
17 -2 7 0.56 7.08
17 2 7 2.28 9.07
17 -2 7 -1.1 8.77
17 2 8 -0.62 8.93
17 -2 8 6.47 8.89
17 2 9 -0.43 7.5
17 -2 9 0.74 6.92
17 2 10 0.81 5.97
17 -2 10 -4.34 6.41
17 2 11 4.28 4.93
17 -2 11 -4.38 5.2
17 -3 0 -5.16 9.84
17 3 0 8.86 11.22
17 -3 0 -5.16 8.29
17 3 0 5.18 10.68
17 -3 -1 17.31 10.01
17 -3 1 17.86 10.76
17 3 -1 12.7 10.88
17 3 1 11.63 9.42
17 -3 1 -2.65 9.03
17 3 -1 16.11 10.22
17 3 1 12.28 11.08
17 -3 -2 -6.45 9.52
17 -3 2 22.43 11.36
17 3 -2 7.08 11.18
17 3 2 -4.73 10.06
17 -3 2 -1.65 8.52
17 3 -2 -14.31 10.43
17 3 2 5.02 10.54
17 -3 -3 7.25 9.47
17 -3 3 21.41 10.62
17 3 -3 8.2 9.69
17 3 3 4.28 8.98
17 -3 3 3.6 8.7
17 3 -3 -6.19 10.4
17 3 3 9.85 9.71
17 -3 -4 -7.12 8.58
17 -3 4 9.14 9.75
17 3 -4 1.63 9.33
17 3 4 -11.18 10.16
17 -3 4 7.5 8.99
17 3 -4 -11.3 9.96
17 3 4 -2.59 8.75
17 -3 5 24.3 9.36
17 3 -5 3.18 9.18
17 3 5 6.53 9.16
17 -3 5 0.25 8.7
17 3 -5 -6.78 9.4
17 3 5 -14.63 9.06
17 -3 6 15.16 8.24
17 3 6 -3.9 9.91
17 -3 6 2.43 8.73
17 3 6 -10.2 8.55
17 -3 7 10.1 7.44
17 3 7 11.82 9.61
17 -3 7 18.54 8.92
17 3 8 1.26 8.72
17 -3 8 4.37 8.22
17 3 9 -5.26 7.65
17 -3 9 1 6.94
17 3 10 -1.36 5.7
17 -3 10 -4.19 5.89
17 3 11 -4.72 4.8
17 -3 11 2.3 4.71
17 -4 0 1.76 10.31
17 4 0 -3.8 9.54
17 4 0 -6.06 10.9
17 -4 -1 3.59 9.87
17 -4 1 -28.66 12.06
17 4 -1 17.3 11.67
17 4 1 7.07 10.78
17 4 -1 -21.96 11.68
17 4 1 -12.2 11.43
17 -4 -2 4.18 9.34
17 -4 2 -5.85 11.35
17 4 -2 -1.61 10.86
17 4 2 -5.59 9.39
17 -4 2 14.21 8.32
17 4 -2 -4.89 9.99
17 4 2 -3.59 10.52
17 -4 -3 3.09 8.91
17 -4 3 -6.7 11.41
17 4 -3 10.76 9.88
17 4 3 10.15 10.07
17 -4 3 17.68 8.86
17 4 -3 13.6 9.77
17 4 3 -4.38 10.28
17 -4 -4 7.94 8.54
17 -4 4 23.62 9.67
17 4 4 3.83 8.83
17 -4 4 4.37 7.88
17 4 -4 -5.13 9.63
17 4 -4 6.61 9.85
17 4 4 10.14 8.78
17 -4 5 17.64 9.25
17 4 -5 7.38 9.42
17 4 5 -5.01 9.1
17 -4 5 2.1 8.4
17 4 -5 -4.56 8.76
17 4 5 -7.38 8.34
17 -4 6 -1.28 8.04
17 4 6 -17.72 10.49
17 -4 6 0.82 8.6
17 4 6 -1.19 7.25
17 -4 7 0.28 7.07
17 4 7 -5.8 8.34
17 -4 7 -12.27 8.63
17 4 8 0.64 7.58
17 -4 8 -0.78 7.31
17 4 9 11.93 7.05
17 -4 9 2.42 6.68
17 4 10 -5.92 5.7
17 -4 10 1.52 5.36
17 4 11 -0.54 4.28
17 -4 11 0.51 4.39
17 -5 0 15.74 10.77
17 5 0 49.75 12.64
17 5 0 40.66 11.24
17 -5 -1 5.71 9.64
17 -5 1 -7.69 11.45
17 5 -1 -0.86 10.44
17 5 1 14.25 11.29
17 5 -1 -7.64 10.99
17 5 1 -26.2 12.1
17 -5 -2 17.04 9.76
17 -5 2 -12.5 11.64
17 5 -2 0.11 10.17
17 5 2 3.5 9.07
17 5 2 30.02 10.95
17 5 -2 -3.12 10.57
17 5 2 -23.54 11.67
17 -5 -3 -5.11 8.74
17 -5 3 -14.67 11.42
17 5 -3 -3.8 10.69
17 5 3 -5.36 9.11
17 5 3 13.95 10.09
17 5 -3 5.28 10.08
17 5 3 -16.13 10.42
17 -5 -4 -4.39 8.25
17 5 -4 20.74 10.25
17 5 4 9.01 9.66
17 -5 4 -2.38 7.92
17 5 4 -2.62 8.66
17 5 -4 -4.88 9.54
17 5 4 -5.66 8.69
17 -5 5 -3.14 8.88
17 5 -5 5.97 10.02
17 5 5 -1.97 9.46
17 -5 5 -3.7 7.82
17 5 -5 13.68 9.66
17 5 5 -12 8.7
17 -5 6 0.7 7.63
17 5 6 -1.51 8.66
17 -5 6 9.04 8.04
5 17 6 -24.1 8.69
17 5 -6 7.77 8.9
17 5 6 -5.69 7.38
17 -5 7 3.69 7.26
17 5 7 1.6 9.03
17 -5 7 1.24 7.31
5 17 7 9.09 7.29
17 5 8 3.02 8.13
17 -5 8 -2.38 7.09
5 17 8 4.11 6.8
17 5 9 7.44 6.43
17 -5 9 -1.71 6.23
5 17 9 -0.29 5.63
17 5 10 -1.68 5.19
17 -5 10 -0.97 5.03
17 -6 0 -9.21 10.77
17 6 0 19.72 11.54
17 6 0 -9.75 10.23
17 -6 -1 -20.5 11.06
17 -6 1 -10.91 11.38
17 6 -1 -6.83 10.44
17 6 1 25.25 11.14
17 6 -1 2.01 10.32
17 6 1 -7.95 10.85
17 -6 -2 2.8 8.88
17 -6 2 -16.65 11.45
17 6 -2 -6.07 11
17 6 2 1.46 9.81
17 6 2 29.11 10.76
17 6 -2 0.8 10.11
17 6 2 0.24 9.95
17 -6 -3 14.41 9.41
17 -6 3 -0.13 10.54
17 6 -3 2.73 9.97
17 6 3 9.81 9.94
17 6 3 12.76 9.98
17 6 -3 3.45 9.61
17 6 3 -12.11 9.97
17 -6 -4 9.99 8.77
17 -6 4 -8.62 10.01
17 6 -4 9.83 9.44
17 6 4 2.83 8.4
17 6 4 15.94 10.16
6 17 4 -9.48 9.38
17 6 -4 4.78 9.58
17 6 4 2.76 8.21
17 6 5 -1.35 8.73
17 6 5 3.89 9.53
6 17 5 -7.24 9.15
17 6 -5 13.28 8.85
17 6 5 -4.54 7.32
17 -6 6 10.68 7.81
17 6 6 1.95 8.34
17 -6 6 0.97 7.39
17 6 6 2.14 8.96
6 17 6 -10.41 8.77
17 6 -6 26.3 8.76
17 -6 7 4.67 6.91
17 6 7 -4.19 8.57
17 -6 7 1.68 6.95
6 17 7 -15.77 8.13
17 6 8 3.64 7.04
17 -6 8 -0.2 6.11
6 17 8 -16.39 6.98
17 6 9 -2.62 6.07
17 -6 9 -4.73 5.23
6 17 9 -9.25 5.88
17 6 10 3.06 4.91
17 -6 10 8.96 4.6
6 17 10 -4 4.53
17 -7 0 -10.82 10.74
17 7 0 -4.04 10.14
17 7 0 -7.41 10.12
17 -7 -1 -12.82 10.76
17 -7 1 -6.07 11
17 7 -1 -5.87 10.66
17 7 1 13.98 11.01
17 7 -1 2.48 10.22
17 7 1 0.86 9.94
17 -7 -2 -14.95 10.02
17 -7 2 -7.39 11.07
17 7 -2 15.68 11.04
17 7 2 17.83 9.49
17 7 2 24.47 11.19
7 17 2 12.7 9.05
17 7 -2 8.98 10.26
17 7 2 9.15 9.58
17 -7 -3 12.91 8.85
17 -7 3 4.51 10.01
17 7 -3 33.35 11.92
17 7 3 18.18 9.19
17 7 3 24.07 10.85
7 17 3 0.56 8.45
17 7 -3 23.39 10.45
17 7 3 15.6 9.06
17 -7 -4 -5.6 8.07
17 -7 4 -8.36 9.72
17 7 -4 9.24 9.96
17 7 4 -8.51 9.01
17 7 4 10.46 10.3
7 17 4 -0.88 8.44
17 7 -4 10.01 9.74
17 7 4 -3.11 8.2
17 -7 5 -8.92 9.17
17 7 5 2.32 8.55
17 7 5 6.31 9.89
7 17 5 -17.69 8.93
17 7 -5 21.45 9.8
17 7 5 5.68 7.39
17 -7 6 -12.15 7.9
17 7 6 -12.28 8.65
17 7 6 -1.15 8.71
7 17 6 -11.75 8.56
17 -7 7 5.05 6.47
17 7 7 1.96 7.5
17 7 7 -7.2 7.69
7 17 7 -11.93 7.8
17 7 8 7.12 7.18
7 17 8 -22.07 7.05
17 7 9 11.15 6.03
7 17 9 -4.63 5.78
17 -8 0 -3.21 10.32
17 8 0 -0.18 10.46
17 8 0 14.9 10.46
17 -8 -1 11.2 9.96
17 -8 1 14.63 10.96
17 8 -1 7.68 10.81
17 8 1 29.26 10.37
8 17 1 61.05 10.58
17 8 -1 43.44 11.51
17 8 1 27.01 10.47
17 -8 -2 -0.74 9.49
17 -8 2 13.27 10.42
17 8 -2 16.04 10.11
17 8 2 4.96 9.35
17 8 2 45.11 11.85
8 17 2 13.35 9.41
17 8 -2 32.23 10.98
17 8 2 9.62 9.37
17 -8 -3 12.07 8.34
17 -8 3 6.23 9.86
17 8 -3 19.08 10.38
17 8 3 15.34 9.41
17 8 3 44.14 11.7
8 17 3 11.48 8.99
17 8 -3 19.48 10.09
17 8 3 33.58 9.67
17 -8 4 -5.28 9.23
17 8 -4 7.23 9.62
17 8 4 11.11 8.99
17 8 4 12.3 10.5
8 17 4 -7.77 9.28
17 8 -4 26.78 10.34
17 8 4 13.98 8.3
17 -8 5 -1.72 8.42
17 8 5 3.41 8.72
17 8 5 5.64 9.3
8 17 5 -14.91 8.73
17 8 5 10.89 7.52
17 -8 6 -12.36 8.44
17 8 6 -6.41 8.1
17 8 6 13.55 8.93
8 17 6 -12.53 8.82
17 -8 7 3.43 6.21
17 8 7 -2.26 7.28
17 8 7 1.88 7.46
8 17 7 -3.19 7.68
17 8 8 -1.22 6.38
17 8 8 5.79 6.09
8 17 8 -11.14 6.97
17 8 9 1.11 4.91
8 17 9 -2.92 5.49
17 -9 0 25.97 11.04
17 9 0 27.29 10.77
17 9 0 58.56 11.43
17 -9 -1 0.53 9.82
17 -9 1 9.3 10.09
17 9 -1 19.82 11.05
17 9 1 10.39 9.85
9 17 1 52.44 10.26
17 9 -1 27.2 10.44
17 9 1 41.12 11.13
17 -9 -2 -8.09 9.72
17 -9 2 0.59 9.94
17 9 -2 9.77 10.02
17 9 2 8.23 9.26
17 9 2 33.5 11.52
9 17 2 26.96 9.73
17 9 -2 22.58 10.52
17 9 2 24.44 9.83
17 -9 -3 -1.06 8.29
17 -9 3 -3.37 9.39
17 9 -3 13.34 10.57
17 9 3 10.72 9
17 9 3 18.34 10.98
9 17 3 3.51 8.74
17 9 -3 5.54 10.06
17 9 3 12.7 8.8
17 -9 4 8.19 9
17 9 4 14.59 8.82
17 9 4 20.74 10.65
9 17 4 -0.87 8.61
17 9 4 14.7 8.04
17 -9 5 -2.23 8.38
17 9 5 18.18 8.83
17 9 5 29.06 10.04
9 17 5 -0.9 8.21
17 -9 6 -10.66 8.16
17 9 6 0.33 7.42
17 9 6 20.1 8.77
9 17 6 -1.32 8.21
17 -9 7 -5.1 6.05
17 9 7 -5.31 6.81
17 9 7 2.48 7.03
9 17 7 2.76 6.93
17 9 8 1.06 5.28
17 9 8 9.26 6.1
9 17 8 -7.29 6.54
9 17 9 -4.34 4.88
17 -10 0 -7.35 10.36
17 10 0 -0.6 8.76
17 10 0 15.15 10
17 -10 -1 -12.26 9.86
17 -10 1 1.27 9.43
17 10 -1 4.13 9.02
17 10 1 -1.13 8.95
17 10 -1 13.26 10.02
17 10 1 17.98 10.22
17 -10 -2 -10.69 8.93
17 -10 2 2.21 9.21
17 10 -2 8.77 8.92
17 10 2 5.79 8.74
10 17 2 29.81 9.55
17 10 -2 29.21 10.38
17 10 2 10.63 9
17 -10 -3 5.76 7.48
17 10 -3 16.13 9.85
17 -10 3 1.98 8.69
17 10 3 0.27 8.39
17 10 3 31.2 10.89
10 17 3 19.08 9.34
17 10 3 14.94 8.76
17 -10 4 -7.55 8.9
17 10 4 2.85 8.24
17 10 4 27.27 10.23
10 17 4 4.88 8.27
17 -10 5 -5.18 8.05
17 10 5 -2.89 7.63
17 10 5 6.59 8.95
10 17 5 0.43 7.94
17 -10 6 -11 7.17
17 10 6 -6.85 7.3
17 10 6 2.22 8.12
10 17 6 -9.09 7.83
17 -10 7 9.06 5.58
17 10 7 5.59 10.39
17 10 7 6.38 7.18
10 17 7 -5.26 6.79
10 -17 8 2.47 4.27
17 10 8 1.02 5.35
10 17 8 -4.75 5.78
17 -11 0 -4.14 9.18
17 11 0 5.59 8.35
17 -11 -1 -9.83 9.05
17 -11 1 -1.06 9.11
17 11 -1 6.35 8.82
17 11 1 4.16 8.08
17 -11 -2 -10.9 7.91
17 -11 2 -9.71 9.2
17 11 -2 12.42 9.22
17 11 2 2.73 8.22
11 17 2 19.5 8.88
17 -11 -3 -2.92 7.22
17 -11 3 4.83 8.4
17 11 3 -2.76 7.93
17 11 3 27.64 9.91
11 17 3 17.34 8.82
17 -11 4 3.82 7.68
17 11 4 -14.12 7.87
11 17 4 3.83 8.07
17 -11 5 -3.51 7.34
17 11 5 2.43 6.69
17 11 5 19.22 8.97
11 17 5 16.47 8.14
17 -11 6 0.46 6.3
17 11 6 -4.52 5.89
17 11 6 10.47 7.54
11 17 6 2.28 7.04
17 -11 7 1.56 4.98
11 -17 7 13.56 5.5
17 11 7 3.97 6.46
11 17 7 -0.32 6.35
17 11 8 11.66 5.16
11 17 8 -1.61 5.2
17 -12 0 -6.72 8.46
17 12 0 11.34 8.04
17 -12 -1 -7.61 8.24
17 -12 1 -6.12 8.19
17 12 -1 7.4 8.04
17 12 1 4.6 7.37
17 -12 -2 -12.25 7.56
17 -12 2 -12.95 8.38
17 12 2 7.16 7.3
12 -17 -2 17.79 6.83
17 12 3 16.07 7.61
12 17 3 25.62 8.91
17 -12 4 -0.2 7.22
17 12 4 -4.62 6.54
17 12 4 17.24 8.46
12 17 4 11.68 7.88
17 -12 5 -6.12 6.71
12 17 5 4.5 7.08
12 -17 6 11.53 5.66
12 17 6 2.73 6.65
12 -17 7 8.11 4.58
17 12 7 16.72 6.08
12 17 7 3.96 5.85
17 -13 0 4.19 7.27
13 -17 0 32.64 7.72
17 -13 -1 1.32 6.82
17 -13 1 -3.98 7.53
17 13 1 2.96 6.37
13 -17 -1 12.64 6.84
13 -17 1 14.66 7.03
17 -13 -2 -6.63 6.19
17 -13 2 -1.65 7.39
17 13 2 2.29 5.83
13 -17 -2 -4.21 5.82
17 -13 3 -7.33 7.12
13 -17 3 12.81 6.83
17 -13 4 0.97 6.32
13 17 4 10.02 7.17
17 -13 5 -11.08 6.13
13 -17 5 3.13 5.53
13 17 5 4.37 6.5
17 -13 6 -6.41 4.84
13 -17 6 9.6 5.09
13 17 6 2.52 5.82
17 -14 0 -6.23 6.44
14 -17 0 7.59 6.23
17 -14 -1 -2.96 5.77
17 -14 1 -3.8 6.57
14 -17 -1 6.28 5.87
14 -17 1 8.28 6.3
17 -14 -2 -0.85 5
17 -14 2 0.11 6.28
14 -17 2 10.26 6.37
17 -14 3 -0.42 5.92
14 -17 3 13.83 6.38
17 -14 4 -8.83 5.74
14 -17 4 -0.66 5.26
17 -14 5 -11.33 5.33
14 -17 5 -5.33 5.07
17 -15 0 -13.19 5.87
15 -17 0 0.92 5.02
17 -15 -1 -1.29 4.45
17 -15 1 -3.67 5.53
15 -17 -1 -5.42 4.69
15 -17 1 5.6 5.33
17 -15 2 -12.86 5.7
15 -17 2 5.58 5.23
17 -15 3 -5.66 5.27
15 -17 3 -2.88 5.03
17 -15 4 -8.61 4.74
15 -17 4 -2.98 4.54
18 0 0 216.09 15.88
18 0 0 217.89 16.41
18 0 1 60.15 12.33
18 0 -1 58.47 11.29
18 0 1 57.07 11.4
18 0 -1 61.01 11.46
18 0 2 -7.14 10.56
18 0 -2 -2.69 9.09
18 0 2 3.73 9.12
18 0 -2 10.33 9.42
18 0 3 -5.71 10.08
18 0 -3 -1.59 8.67
18 0 3 3.65 9.69
18 0 -3 6.1 9.13
18 0 4 -2.5 9.12
18 0 -4 1.34 8.32
18 0 4 -5.75 9.79
18 0 -4 -20.83 10.03
18 0 5 -0.31 10
18 0 -5 16.12 8.56
18 0 5 5.83 8.06
18 0 6 43.79 10.24
18 0 6 41.74 8.69
18 0 7 50.98 9.94
18 0 8 48.71 9.02
18 0 9 15.01 6.78
18 0 10 5.45 5.27
18 -1 0 4.08 9.73
18 1 0 4.75 9.39
18 -1 0 -7.18 8.98
18 1 0 -8.33 10.43
18 -1 -1 3.22 9.37
18 -1 1 0.72 10.07
18 -1 -1 12.06 9.76
18 1 -1 11.11 9.96
18 1 1 -7.24 9.87
18 -1 1 -2.17 8.67
18 1 -1 4.46 9.32
18 1 1 -7.41 10.94
18 -1 -2 2.24 8.98
18 -1 2 8.79 10.42
18 -1 -2 -3.47 8.84
18 1 -2 7.61 9.84
18 1 2 -14.92 10.28
18 -1 2 -5 8.9
18 1 -2 -4.26 9.31
18 1 2 0.1 10.47
18 -1 3 6.25 10.1
18 -1 -3 -1.91 8.59
18 1 -3 5.45 9.13
18 1 3 -3.32 9.78
18 -1 3 2.68 8.93
18 1 -3 1.2 9.16
18 -1 -3 1.71 8.54
18 1 3 6.26 9.74
18 -1 4 4.12 9.23
18 1 -4 -4.39 8.98
18 1 4 -5.6 10.03
18 -1 4 -1.95 9.06
18 1 -4 3.09 8.92
18 -1 -4 0.11 8.61
18 1 4 -8.1 9.38
18 -1 5 -3.12 8.35
18 1 5 9.56 9.82
18 -1 5 -3.58 9.12
18 1 -5 -6.52 9.27
18 -1 -5 -3.12 8.59
18 1 5 3.99 8.11
18 1 6 5.19 8.92
18 -1 6 8.13 8.84
18 1 6 -5.9 7.28
18 -1 6 -2.35 6.84
18 1 7 -2.15 8.23
18 -1 7 3.54 8.62
18 1 8 2.33 7.16
18 -1 8 -1.56 7.44
18 1 9 5.1 6.67
18 -1 9 -0.73 6.05
18 1 10 -4.07 5.29
18 -1 10 1.27 4.95
18 -2 0 24.97 10.93
18 -2 0 21.84 9.33
18 2 0 32.83 11.23
18 2 0 23.97 11.22
18 -2 -1 45.7 10.75
18 -2 1 52.76 12.21
18 -2 -1 50.89 10.44
18 2 -1 58.31 12.28
18 2 1 38.43 11.35
18 -2 1 48.89 10.45
18 2 -1 58.53 11.6
18 2 1 48.79 11.96
18 -2 -2 24.95 9.5
18 -2 2 23.56 10.99
18 2 -2 14.96 9.85
18 2 2 28.16 10.74
18 -2 2 24.27 8.79
18 2 -2 21.01 10.44
18 2 2 5.95 9.92
18 -2 3 -4.58 9.66
18 2 -3 -1.64 9.58
18 2 3 -3.8 10.2
18 -2 3 -1.21 8.59
18 2 -3 -18.96 10.37
18 2 3 1.26 9.89
18 -2 -3 8.01 8.77
18 -2 4 -0.27 8.81
18 2 -4 12.76 9.59
18 2 4 11.2 10.1
18 -2 4 -1.25 8.68
18 2 -4 5.09 8.8
18 2 4 -1.48 8.96
18 -2 -4 4.21 8.39
18 -2 5 21.56 8.93
18 2 5 9.21 10.12
18 -2 5 8.81 8.89
18 2 -5 11.61 9.03
18 2 5 -2.91 8.02
18 -2 6 27.72 7.94
18 2 6 19.63 9.58
18 -2 6 33.76 9.27
18 2 6 19.93 7.49
18 2 7 57.11 10.56
18 -2 7 69.91 10.14
18 -2 7 52.53 7.73
18 2 8 40.15 9.08
18 -2 8 32.04 8.16
18 2 9 10.25 6.79
18 -2 9 9.09 6.1
18 2 10 5.29 5.04
18 -2 10 3.72 5.02
18 -3 0 6.11 9.48
18 3 0 -5.13 9.57
18 3 0 3.42 10.4
18 -3 -1 4.12 9.26
18 -3 1 15.44 10.03
18 3 -1 -1.37 11
18 3 1 8.24 10.65
18 -3 1 0.57 8.41
18 3 -1 -11.28 10.83
18 3 1 9.83 10.83
18 -3 -2 14.55 9.29
18 -3 2 27.82 11.18
18 3 -2 17.68 10.95
18 3 2 8.91 9.61
18 -3 2 7.62 8.1
18 3 -2 4.83 9.79
18 3 2 8.9 10.46
18 -3 -3 4.09 8.59
18 -3 3 8.84 9.88
18 3 -3 8.91 9.37
18 3 3 2.97 9.28
18 -3 3 6.04 8.38
18 3 -3 2.2 9.69
18 3 3 -3.58 9.95
18 -3 4 24.72 9.89
18 3 -4 6.84 9.09
18 3 4 7.52 9.56
18 -3 4 5.45 8.27
18 3 -4 -0.94 9.59
18 3 4 -16.63 9.51
18 -3 -4 10.63 8.44
18 -3 5 18.47 8.71
18 3 5 -6 9.39
18 -3 5 6.33 8.2
18 3 -5 12.89 9.01
18 3 5 -2.75 8.04
18 -3 6 14.22 7.52
18 3 6 11.15 8.49
18 -3 6 4.22 8.23
18 3 6 5.98 6.71
18 3 7 -0.4 8.3
18 -3 7 4.5 7.72
18 -3 7 -2.08 6.27
18 3 8 1.04 7.4
18 -3 8 -0.12 6.51
18 3 9 10.1 6.67
18 -3 9 8.73 5.93
18 3 10 3.8 4.91
18 -3 10 0.52 4.85
18 -4 0 9.14 9.83
18 4 0 17.85 10.48
18 4 0 -1.93 10.56
18 -4 -1 9.85 9.67
18 -4 1 21.98 10.71
18 4 -1 -4.37 10.8
18 4 1 22 10.36
18 4 -1 -6.12 10.35
18 4 1 -1.99 10.93
18 -4 -2 5.37 9.2
18 -4 2 24.76 11
18 4 -2 8.59 10.97
18 4 2 10.76 10.55
18 -4 2 4.32 7.99
18 4 -2 -3.24 10.2
18 4 2 -16.13 11.22
18 -4 -3 -3.92 8.28
18 -4 3 31.85 10.73
18 4 -3 5.44 9.72
18 4 3 -0.73 9.89
18 -4 3 -6.12 7.84
18 4 -3 1.41 9.26
18 4 3 -10.45 10.22
18 -4 4 19.85 9.54
18 4 -4 1.77 9.61
18 4 4 11.37 9.1
18 -4 4 -4.95 7.89
18 4 -4 -0.4 9.14
18 4 4 0.37 8.49
18 -4 -4 7.09 8.06
18 -4 5 14.74 8.67
18 4 5 21.25 9.41
18 -4 5 17.7 7.94
18 4 -5 23.58 9.29
18 4 5 7.53 7.64
18 -4 6 13.8 7.25
18 4 6 22.64 8.89
18 -4 6 23.73 7.87
18 4 6 19.64 7.54
18 -4 7 12 6.56
18 4 7 8.34 8.59
18 -4 7 4.5 6.92
18 4 8 17 7.53
18 -4 8 11.82 6.52
18 4 9 5.38 6.02
18 -4 9 16.14 5.78
18 4 10 6.38 4.77
18 -4 10 -2.1 4.22
18 -5 0 0.57 9.57
18 5 0 5.05 10.31
18 5 0 -11.75 10.77
18 -5 -1 16.32 9.96
18 -5 1 16.41 10.59
18 5 -1 5.48 9.98
18 5 1 7.93 9.42
18 5 -1 -1.84 9.86
18 5 1 -5.97 10.65
18 -5 -2 25.7 9.42
18 -5 2 55.79 11.87
18 5 -2 46.35 11.67
18 5 2 38.35 11.37
18 5 -2 35.75 10.62
18 5 2 21.48 10.16
18 -5 -3 35.24 10.2
18 -5 3 56.43 11.19
18 5 -3 40.52 11.03
18 5 3 47.42 11.37
18 5 -3 33.01 10.3
18 5 3 30.96 10.08
18 -5 -4 28.51 8.95
18 -5 4 39.06 10.21
18 5 -4 50.4 11.34
18 5 4 29.49 9.88
18 -5 4 33.66 8.49
18 5 -4 33.33 10.04
18 5 4 22.28 8.77
18 -5 5 41.73 9.39
18 5 5 36.81 10.45
18 -5 5 25.54 7.88
18 5 -5 49.59 9.98
18 5 5 15.41 7.75
18 -5 6 11.56 7.26
18 5 6 6.75 8.36
18 -5 6 9.51 6.68
18 -5 7 3.57 6.16
18 5 7 4.7 7.61
18 -5 7 -3.79 6.44
18 5 8 13.49 7.31
18 -5 8 2.03 5.7
18 5 9 7.26 5.78
18 -5 9 0.43 4.78
18 5 10 12.35 4.55
18 -6 0 5.79 9.65
18 6 0 -12.97 10.86
18 6 0 -1.77 10.42
18 -6 -1 -1.66 9.58
18 -6 1 -4.28 10.06
18 6 -1 5.94 9.71
18 6 1 1.2 9.39
18 6 -1 3.53 9.88
18 6 1 -6.66 10.28
18 -6 -2 1.25 8.58
18 -6 2 -23.51 11.35
18 6 -2 4.7 11.01
18 6 2 7.74 9.79
18 6 -2 5.89 9.29
18 6 2 -0.68 9.28
18 -6 -3 -5.52 8
18 -6 3 -6.61 9.55
18 6 -3 14.11 10.76
18 6 3 3.09 8.56
18 6 -3 2.46 9.22
18 6 3 -1.55 8.78
18 -6 -4 4.69 7.35
18 -6 4 16.56 9.4
18 6 -4 12.81 10.52
18 6 4 -4.22 9.19
18 6 4 29.14 10.25
18 6 -4 14.63 9.11
18 6 4 0.86 7.95
18 -6 5 7.63 7.99
18 6 5 5.16 8.11
18 6 -5 17.15 9.33
18 6 5 12.62 6.91
18 -6 6 14.55 7.33
18 6 6 3.6 7.67
18 -6 7 -1.79 5.87
18 6 7 1.41 7.13
18 -6 7 0.4 5.51
18 6 8 5.47 6.46
18 -6 8 2.05 5
18 6 9 -1.03 5.25
18 -7 0 -17.65 10.91
18 7 0 -15.99 10.37
18 7 0 -3.81 9.87
18 -7 -1 15.44 9.95
18 -7 1 -17.88 11.17
18 7 -1 -2.77 9.53
18 7 1 6.39 10.12
18 7 -1 14.66 10.01
18 7 1 10.6 9.43
18 -7 -2 17.4 9.18
18 -7 2 4.24 9.98
18 7 -2 19.14 10.86
18 7 2 29.79 10.18
18 7 -2 35.85 10.77
18 7 2 26.83 10.11
18 -7 -3 78.54 10.27
18 -7 3 69.64 11.88
18 7 3 94.65 12.4
18 7 -3 99.09 12.68
18 7 -3 101.27 12.53
18 7 3 68.16 10.94
18 -7 4 70.76 10.65
18 7 -4 129.42 13.37
18 7 4 122.07 12.73
18 7 4 137.27 12.25
7 18 4 103.17 10.4
18 7 -4 110.03 12.29
18 7 4 91.88 10.49
18 -7 -4 102.19 10.13
18 -7 5 37.83 8.98
18 7 5 35.99 9.27
18 7 5 49.16 9.73
7 18 5 27.14 7.82
18 7 5 31.75 8.01
18 -7 6 15.27 7.32
18 7 6 11.81 8.61
18 7 6 18.99 7.83
7 18 6 -0.64 6.98
18 -7 7 -1.95 5.72
18 7 7 2.36 7.17
7 18 7 -7.26 5.99
18 7 8 0.36 5.94
7 18 8 -11.67 5.53
18 7 9 9.78 4.66
18 -8 0 -16.98 11.01
18 8 0 2.05 9.94
18 8 0 9.76 9.82
18 -8 -1 1.08 9.26
18 -8 1 -5.67 10.11
18 8 -1 4.89 10.19
18 8 1 -1.81 9.14
18 8 -1 4.38 9.38
18 8 1 3.41 9.48
18 -8 -2 12.19 8.67
18 -8 2 -18.35 10.23
18 8 -2 9.05 9.91
18 8 2 11.04 8.69
8 18 2 23.46 8.36
18 8 -2 21.66 10.1
18 8 2 1.52 8.67
18 -8 -3 1.58 7.2
18 -8 3 -20.35 10.05
18 8 -3 5.63 10.12
18 8 3 7.95 9.18
8 18 3 7.25 7.93
18 8 -3 16.89 9.8
18 8 3 5.66 8.33
18 -8 4 -16.03 8.93
18 8 4 -5.33 7.92
18 8 4 22.07 9.46
8 18 4 -0.05 7.24
18 8 -4 20.69 9.57
18 8 4 16.72 7.59
18 -8 5 7.7 7.28
18 8 5 6.95 8.31
18 8 5 17.8 8.37
8 18 5 9.95 7.09
18 8 5 12.28 7.05
18 -8 6 1.51 6.41
18 8 6 -5.52 7.56
18 8 6 16.71 7.81
8 18 6 -10.57 7.21
18 -8 7 -1.1 5.36
18 8 7 1.72 6.55
18 8 7 17.7 6.22
8 18 7 -3.54 5.79
18 8 8 -2.82 5.34
8 18 8 5.33 4.86
18 -9 0 -12.45 9.91
18 9 0 6.02 9.62
18 9 0 16.31 10.15
18 -9 -1 -11.17 9.14
18 -9 1 -11.99 9.91
18 9 -1 9.27 9.55
18 9 1 -0.84 8.89
18 9 -1 25.43 10.01
18 9 1 15.88 9.54
18 -9 -2 24.58 8.74
18 -9 2 13.3 8.88
18 9 -2 26.13 10.25
18 9 2 31.79 9.84
18 9 -2 50.17 10.58
18 9 2 48.43 10.05
18 -9 -3 33.73 8.09
18 -9 3 12.57 8.77
18 9 -3 39.25 9.78
18 9 3 16.82 8.76
9 18 3 44.35 8.99
18 9 -3 66.23 10.98
18 9 3 49.58 9.33
18 -9 4 9.94 7.9
18 9 4 28.32 9.07
18 9 4 37.98 9.69
9 18 4 41.33 8.18
18 9 4 32.82 7.81
18 -9 5 12.24 7.55
18 9 5 30.6 8.67
9 18 5 30.86 7.58
18 -9 6 18.56 6.48
18 9 6 5.94 6.85
18 9 6 26.19 7.96
9 18 6 11.34 6.55
18 -9 7 -3.15 5
18 9 7 -10.6 6.25
9 18 7 1.81 5.75
18 10 0 0.06 7.96
18 10 0 22.77 9.82
18 -10 -1 -9.67 8.64
18 -10 1 -9.73 9.1
18 10 -1 8.75 8.91
18 10 1 -5.65 8.07
18 10 -1 26.92 9.88
18 10 1 14.34 9.22
18 -10 -2 8.96 7.41
18 -10 2 -3.84 8.82
18 10 -2 9.85 8.71
18 10 2 6.56 8.21
18 10 2 21.09 9.04
18 -10 -3 9.2 6.37
18 -10 3 -6.41 8.24
18 10 3 -4.69 8.17
18 -10 4 -19.51 8.19
18 10 4 -5.03 7.94
18 -10 5 -13.28 7.13
18 10 5 -7.43 6.87
18 10 5 27.33 8.41
10 18 5 14.61 7.14
18 -10 6 2.07 5.39
18 10 6 -3.15 6.11
18 10 6 18.62 6.93
10 18 6 2.31 6.25
18 -10 7 -4.39 4.25
10 -18 7 9.93 4.98
10 18 7 8.53 5.39
18 -11 0 1.4 7.81
18 11 0 8.69 7.65
18 -11 -1 -4.93 7.62
18 -11 1 -1.75 7.84
18 11 -1 18.79 8.21
18 11 1 7.71 7.71
18 -11 -2 3.3 6.45
18 -11 2 5.14 7.83
18 11 2 9.31 7.39
11 -18 -2 21.05 6.49
18 -11 3 9.8 7.53
18 11 3 16.19 7.32
18 -11 4 -0.88 6.74
18 11 4 18.28 7.18
18 -11 5 4.64 5.87
18 11 5 4.3 5.9
11 18 5 18.94 6.87
18 -11 6 0.27 5.15
11 -18 6 13.06 5.42
11 18 6 0.54 5.57
18 -12 0 3.15 7.09
18 12 0 25.96 7.47
12 -18 0 20.96 6.72
18 -12 -1 9.51 6.44
18 -12 1 10.86 7.18
18 12 1 32.66 7.53
12 -18 -1 28.98 7.09
18 -12 -2 11.72 5.75
18 -12 2 3.1 6.99
18 12 2 11.19 6.49
18 -12 3 -3.97 6.78
18 12 3 3.47 6.2
18 -12 4 -14.01 6.7
18 12 4 -13 5.74
18 -12 5 5.6 5.19
12 -18 5 7.91 5.32
18 -12 6 1.78 3.94
12 -18 6 10.04 4.67
18 -13 0 -13.24 6.53
13 -18 0 11.74 6.03
18 -13 -1 1.71 5.62
18 -13 1 -13.18 6.69
13 -18 -1 1.07 5.38
18 -13 -2 -0.11 4.55
18 -13 2 -2.22 6.39
18 -13 3 -3.03 5.87
13 -18 3 21 6.26
18 -13 4 -8.13 5.62
13 -18 4 16.4 5.58
18 -13 5 3.92 4.47
13 -18 5 9.94 4.83
18 -14 0 41.36 6.08
14 -18 0 29.5 5.66
18 -14 -1 11.34 4.66
18 -14 1 -1.57 5.18
14 -18 1 12.71 5.5
18 -14 2 -6.93 5.51
14 -18 2 4.88 5.08
18 -14 3 -11.15 5.04
14 -18 3 1.95 4.7
18 -14 4 10.07 4.41
14 -18 4 0.26 4.16
19 0 0 16.87 9.43
19 0 0 -3.63 9.44
19 0 -1 -0.74 8.86
19 0 1 10.12 9.67
19 0 -1 -1.63 9.07
19 0 1 0.9 9.61
19 0 -2 70.68 11.04
19 0 2 76.19 12.12
19 0 -2 49.93 10.45
19 0 2 65.39 11.93
19 0 -3 34.63 9.16
19 0 3 33.92 10.01
19 0 -3 28.57 9.31
19 0 3 53.7 11.51
19 0 -4 30.73 8.48
19 0 4 14.61 9.67
19 0 -4 5.7 8.35
19 0 4 18.49 9.04
19 0 5 -0.12 8.75
19 0 -5 -8.06 7.74
19 0 5 -5.12 7.51
19 0 6 -1.66 7.76
19 0 6 -9.86 6.99
19 0 7 -4.37 7.58
19 0 8 -1.89 6.4
19 0 9 0.23 5.22
19 0 10 5.44 4.44
19 -1 0 4.33 9.33
19 -1 0 26.94 9.49
19 1 0 4.28 9.41
19 1 0 2.9 9.46
19 -1 1 -3.09 9.36
19 -1 -1 3.39 8.47
19 1 -1 7.1 9.11
19 1 1 7.19 9.68
19 -1 1 11.07 9.16
19 1 -1 12.92 9.81
19 1 1 -2.8 9.99
19 -1 -1 -13.48 9.63
19 -1 2 14.47 10.22
19 -1 -2 1.71 8.1
19 1 -2 13.1 9.09
19 1 2 6.1 9.24
19 -1 2 4.92 8.97
19 1 -2 -11.66 9.23
19 1 2 -14.95 10.33
19 -1 -2 -3.01 8.61
19 -1 3 3.06 9.48
19 1 -3 1.37 8.39
19 1 3 1.81 9.28
19 -1 3 1.24 8.51
19 1 -3 -10.33 9.58
19 -1 -3 1.56 8.39
19 1 3 -7.46 9.81
19 1 -4 5.76 8.12
19 1 4 -0.65 8.81
19 -1 4 3.46 8.41
19 1 -4 2.61 8.41
19 -1 -4 -13.44 9.15
19 1 4 -9.93 9.06
19 -1 4 -1.57 8.77
19 1 5 -0.07 8.18
19 -1 5 2.6 8.25
19 1 -5 -2.49 7.69
19 1 5 -7.55 7.72
19 -1 5 11.09 7.57
19 1 6 4.14 7.74
19 -1 6 3.85 8.02
19 1 6 -9.98 6.87
19 -1 6 -0.62 6.55
19 1 7 6.97 7.73
19 -1 7 13.93 7.3
19 1 8 8.92 6.73
19 -1 8 8.23 6.26
19 1 9 -1.52 5.29
19 -1 9 -1.34 5.42
19 1 10 -1.5 4.13
19 -2 0 7.26 9.5
19 -2 0 -2.78 7.97
19 2 0 4.88 10.18
19 2 0 -6.16 9.84
19 -2 -1 4 8.78
19 -2 1 13.6 10.1
19 -2 -1 14.72 8.37
19 2 -1 10.42 9.97
19 2 1 14.55 10.49
19 -2 1 10.96 8.25
19 2 -1 3.77 9.51
19 2 1 -4.09 10.27
19 -2 2 14.75 9.69
19 2 -2 31.58 10.57
19 2 2 19.22 9.87
19 -2 2 12.38 8.57
19 2 -2 8.48 8.94
19 2 2 6.02 9.84
19 -2 -2 8.79 8.63
19 -2 3 44.41 10.46
19 2 -3 43.79 9.84
19 2 3 43.61 11.24
19 -2 3 52.08 9.98
19 2 -3 38.01 9.82
19 2 3 26.91 9.81
19 -2 -3 37.46 9.57
19 -2 4 22.87 9.11
19 2 -4 32.46 9.41
19 2 4 27.92 9.67
19 -2 4 32.96 9.29
19 2 -4 24.38 8.59
19 2 4 7.36 8.43
19 -2 -4 26.03 8.77
19 2 5 25.95 9.72
19 -2 5 25.56 8.56
19 2 -5 27.05 8.2
19 2 5 16.17 7.69
19 -2 5 21.92 8.21
19 2 6 0.84 7.81
19 -2 6 -3.48 7.75
19 2 6 0.4 5.94
19 -2 6 2.09 6.68
19 2 7 4.35 7.57
19 -2 7 8 6.72
19 2 8 -1.74 6.32
19 -2 8 3.07 5.78
19 2 9 2.43 5.51
19 -2 9 -6.27 5.16
19 -3 0 3.94 9.04
19 3 0 1.82 10.36
19 3 0 -6.68 10.38
19 -3 -1 16.7 9.51
19 -3 1 7.33 9.34
19 3 -1 17.18 9.76
19 -3 1 12.73 7.99
19 3 1 3.66 10.3
19 3 -1 -16.41 10.24
19 3 1 -12.07 10.98
19 -3 -2 -14.3 9.06
19 -3 2 14.27 9.39
19 3 -2 8.82 9.03
19 3 2 8.12 9.46
19 -3 2 -1.19 7.85
19 3 -2 -1.98 9.24
19 3 2 -9.91 10.54
19 -3 3 -2.99 9.01
19 3 -3 3.01 8.69
19 3 3 7.41 8.94
19 -3 3 11.16 8.22
19 3 -3 -7.85 9.14
19 3 3 -13.12 10.09
19 -3 -3 2.63 8.31
19 -3 4 -7.79 8.26
19 3 -4 0.23 8.22
19 3 4 14.91 9.86
19 -3 4 -1.7 7.81
19 3 -4 -0.79 8.64
19 3 4 -14.98 8.93
19 -3 -4 0.32 7.84
19 -3 5 5.58 7.56
19 3 5 7.1 8.69
19 -3 5 15.73 7.66
19 3 -5 24.46 8.14
19 3 5 0.22 7.32
19 3 6 12.49 8.73
19 -3 6 0.69 7.13
19 3 6 1.67 5.8
19 -3 6 9.73 6.56
19 3 7 4.96 7.31
19 -3 7 -7.36 6.61
19 -3 7 4.39 5.23
19 3 8 5.7 5.85
19 -3 8 5.02 5.55
19 3 9 17.07 5.65
19 -3 9 9.17 4.75
19 -4 0 4.57 9.08
19 4 0 3.59 10.1
19 4 0 -10.07 10.09
19 -4 -1 -1.51 8.7
19 -4 1 21.42 10.18
19 4 -1 -6.53 9.82
19 4 1 -1.8 9.4
19 4 -1 3.74 9.23
19 4 1 6.26 9.84
19 -4 -2 5.52 8.81
19 -4 2 19.24 10.12
19 4 -2 19.27 10.46
19 4 2 23.5 10.56
19 4 -2 4.72 9.12
19 4 2 9.32 9.53
19 -4 3 20.53 9.44
19 4 -3 18.47 9.21
19 4 3 14.97 10.01
19 -4 3 15.46 7.53
19 4 -3 10.03 9.02
19 4 3 11.08 8.83
19 -4 -3 44.33 9.46
19 -4 4 11.52 8.54
19 4 -4 25.56 9.84
19 4 4 14.96 9.4
19 -4 4 18.87 7.68
19 4 -4 29.31 8.82
19 4 4 3.74 7.89
19 -4 -4 13.95 7.97
19 -4 5 9.05 7.5
19 4 5 3.54 8.57
19 -4 5 3.53 6.71
19 4 -5 15.41 7.77
19 4 5 -3.78 6.88
19 -4 6 6.61 6.27
19 4 6 11.21 8.51
19 -4 6 8.75 6.61
19 4 7 0.86 7.18
19 -4 7 -6.83 6.05
19 -4 7 -0.64 5.41
19 4 8 4.88 6.11
19 -4 8 -2.76 5.06
19 4 9 7.04 4.96
19 -5 0 36.83 10.29
19 5 0 30.54 10.51
19 5 0 25.82 10.71
19 -5 -1 18.68 9.39
19 -5 1 21.04 9.83
19 5 -1 15.68 10.64
19 5 1 37.68 11.27
19 5 -1 18.84 9.8
19 5 1 16.6 9.96
19 -5 -2 -0.3 8.18
19 -5 2 14.49 9.26
19 5 -2 4.88 9.52
19 5 2 22.58 10.25
19 5 -2 5.46 9.03
19 5 2 -11.21 10.03
19 -5 -3 -3.69 7.61
19 -5 3 4.73 8.79
19 5 -3 0.84 8.76
19 5 3 -2.04 9.16
19 5 -3 3.26 8.58
19 5 3 -3.02 9.05
19 -5 4 7.98 8.23
19 5 -4 8.38 8.98
19 5 4 -0.07 8.65
19 5 -4 -0.94 7.84
19 5 4 -7.08 8.02
19 -5 -4 8.89 7.51
19 -5 5 1.1 6.94
19 5 5 3.79 7.64
19 5 -5 19.73 8.71
19 5 5 5.16 6.3
19 -5 6 7.56 6.13
19 5 6 12.39 7.64
19 -5 6 15.24 6.33
19 5 7 17.96 7.16
19 -5 7 8.93 5.07
19 -5 7 5.94 5.28
19 5 8 3.02 5.8
19 -5 8 0.71 4.33
19 5 9 3.35 4.59
19 -6 0 8.45 9.33
19 6 0 2.78 8.9
19 6 0 -13.62 9.75
19 -6 -1 0.53 8.66
19 -6 1 6.02 9.35
19 6 -1 1.3 8.9
19 6 1 -5 9.83
19 6 -1 -9.64 9.58
19 6 1 -9.77 9.64
19 -6 -2 0.94 8.09
19 -6 2 5.67 8.52
19 6 2 2.68 9.23
19 6 -2 9.52 9.07
19 6 2 9.9 9.15
19 6 -2 21.91 10.56
19 -6 -3 1.75 7.31
19 -6 3 3.58 8.27
19 6 -3 8.98 9.55
19 6 3 7.14 8.24
19 6 -3 -3.65 8.23
19 6 3 4.47 8.39
19 -6 4 4.83 7.71
19 6 4 3.48 7.97
19 6 -4 11.2 8.3
19 6 4 -11.67 7.65
19 -6 -4 3.19 6.99
19 -6 5 6.01 7
19 6 5 5.09 8.05
19 6 5 11.58 6.8
19 -6 6 7.21 6.23
19 6 6 3.2 7.2
19 6 7 -10.59 6.65
19 -6 7 -0.36 4.94
19 6 8 0.45 5.36
19 -7 0 8.35 9.23
19 7 0 2.36 9.32
19 7 0 9.21 9.12
19 -7 -1 17.62 8.95
19 -7 1 34.11 10.16
19 7 -1 13.11 9.15
19 7 1 16.31 8.68
19 7 -1 13.76 9.53
19 7 1 16.65 9.51
19 -7 -2 10.21 7.68
19 -7 2 25.68 9.33
19 7 -2 9.73 9.53
19 7 2 3.8 8.13
19 7 -2 18.9 9.44
19 7 2 3.63 8.84
19 -7 -3 0.98 6.82
19 -7 3 11.6 8.66
19 7 -3 7.47 8.6
19 7 3 3.79 8.65
19 7 -3 9.89 8.34
19 7 3 5.2 8.05
19 -7 4 0.15 7.23
19 7 4 8.4 8.29
19 7 -4 12.45 8.52
19 7 4 13.11 7.38
19 -7 5 4.21 6.89
19 7 5 2.47 7.79
19 7 5 3.41 6.23
19 -7 6 -0.39 5.79
19 7 6 1.24 6.78
19 7 7 4.23 6.34
19 -7 7 5.62 4.64
19 7 8 5.41 4.86
19 -8 0 14.99 8.89
19 8 0 -6.58 8.51
19 8 0 6.26 9.33
19 -8 -1 7.19 8.05
19 -8 1 21.95 9.16
19 8 -1 22.47 9.44
19 8 1 3.22 8.59
19 8 -1 23.14 9.58
19 8 1 14.36 9.23
19 -8 -2 21.25 7.82
19 -8 2 20.39 8.75
19 8 -2 30.25 9.39
19 8 2 19.61 8.08
19 8 -2 35.2 9.73
19 8 2 22.35 8.92
19 -8 -3 -7.69 7.13
19 -8 3 13.82 8.47
19 8 -3 8.63 8.71
19 8 3 -5.45 8.33
19 8 -3 15.92 8.57
19 8 3 11.94 7.92
19 -8 4 6.14 7.07
19 8 4 2.73 7.24
19 8 4 2.17 6.45
19 -8 5 3.2 6.39
19 8 5 -6.99 7.28
19 -8 6 1.97 5.47
19 8 6 3.52 6.68
19 8 7 1.73 5.53
19 -9 0 47.76 9.56
19 9 0 46.38 9.14
19 9 0 65.75 10.66
19 -9 -1 19.22 7.99
19 -9 1 21.32 8.75
19 9 -1 35.04 9.32
19 9 1 20.48 7.84
19 9 -1 35.12 9.68
19 9 1 32.36 9.66
19 -9 -2 6.25 6.71
19 -9 2 12.4 8.21
19 9 -2 5.66 8.11
19 9 2 5 7.54
19 9 -2 13.86 8.77
19 9 2 15.88 8.16
19 -9 -3 -1.8 5.95
19 -9 3 4.73 7.36
19 9 3 -7.3 7.49
19 9 3 14.09 7.41
19 -9 4 11.59 6.77
19 9 4 6.27 6.89
19 -9 5 9.68 6.17
19 9 5 11.15 6.88
19 -9 6 7.37 5.36
19 9 6 36.53 7.01
19 -10 0 6.36 7.36
19 10 0 3.53 7.31
19 -10 -1 -3.13 6.67
19 -10 1 9.64 7.55
19 10 -1 9.37 7.24
19 10 1 6.62 7.37
19 -10 -2 11.18 6.35
19 -10 2 1.85 6.95
19 10 2 -3.45 6.87
19 -10 3 15.14 6.93
19 10 3 3.25 6.74
19 -10 4 2.53 5.85
19 10 4 -3.12 6.64
19 -10 5 8.91 5.44
19 10 5 -2.34 5.64
19 -10 6 -1.85 4.1
19 -11 0 9.24 6.5
19 11 0 19.93 7.02
19 -11 -1 9.93 6.26
19 -11 1 12.31 6.85
19 11 1 4.53 6.38
11 -19 -1 10.23 5.55
19 -11 -2 1.18 5.29
19 -11 2 7.6 6.55
19 11 2 1.71 6.03
19 -11 3 4.68 6.14
19 11 3 -3.96 6.03
19 -11 4 1.9 5.55
19 11 4 4.92 5.55
19 -11 5 14.54 5.26
11 -19 5 19.98 5.32
19 -12 0 2.29 5.44
12 -19 0 10.17 5.58
19 -12 -1 1.6 5.17
19 -12 1 3.29 5.62
12 -19 -1 4.88 4.7
12 -19 1 14.26 5.82
19 -12 2 10.47 5.78
19 12 2 0.9 5.35
19 -12 3 11.8 5.51
12 -19 3 20.8 5.64
19 -12 4 3.61 4.71
12 -19 4 9.64 4.97
19 -13 0 2.32 4.47
13 -19 0 1.03 4.34
19 -13 1 -1.07 4.74
13 -19 1 1.77 4.64
19 -13 2 -0.32 4.72
13 -19 2 7.47 4.97
19 -13 3 1.46 4.35
13 -19 3 3.4 4.55
20 0 0 32.17 9.63
20 0 0 14.18 9.39
20 0 -1 51.7 9.74
20 0 1 61.79 10.45
20 0 -1 57.06 10.43
20 0 1 46.29 10.4
20 0 -2 41.59 9.04
20 0 2 40.76 9.68
20 0 -2 28.42 9.01
20 0 2 44.51 10.52
20 0 -3 17.85 8.02
20 0 3 25.37 8.9
20 0 -3 0.82 7.84
20 0 3 9.65 8.89
20 0 4 -9.75 8.66
20 0 -4 -2.96 7.54
20 0 4 -1.35 7.75
20 0 5 2.88 7.57
20 0 5 1.26 6.48
20 0 6 7.64 7.35
20 0 6 -6.15 5.76
20 0 7 8.22 6.41
20 0 8 16.78 5.56
20 -1 0 12.12 8.48
20 1 0 1.79 8.88
20 1 0 -11.24 9.66
20 -1 0 0.61 8.95
20 -1 -1 5.88 7.67
20 1 -1 -6.9 8.35
20 -1 1 7.1 8.09
20 1 1 16.38 9.05
20 1 -1 -11.23 8.8
20 1 1 -19.25 10.04
20 -1 -1 10.16 8.74
20 -1 1 -9.2 9.49
20 -1 -2 -4.98 7.61
20 1 -2 -2.32 7.95
20 -1 2 8.84 8.31
20 1 2 11.57 9.41
20 1 -2 -4.74 8.54
20 1 2 1.95 9.18
20 -1 -2 5.78 8.04
20 -1 2 -0.11 8.6
20 1 -3 9 7.53
20 1 3 9.12 9
20 -1 3 1.22 9.08
20 1 -3 7.01 7.86
20 -1 -3 1.52 7.62
20 1 3 -18.36 9.26
20 -1 3 -2.62 8.31
20 1 4 -0.16 7.89
20 -1 4 -1.69 7.91
20 1 -4 -9.15 7.84
20 -1 -4 -6.41 7.19
20 1 4 -11.54 7.75
20 -1 4 5.35 7.52
20 1 5 18.17 8.36
20 -1 5 1.81 7.37
20 1 5 -6.12 6.69
20 -1 5 2.77 6.57
20 1 6 0.44 7
20 -1 6 2.93 6.79
20 1 6 -1.91 5.56
20 -1 6 -0.26 5.6
20 1 7 7.55 6.33
20 -1 7 -3.61 5.98
20 1 8 1.33 5.19
20 -1 8 6.28 5.2
20 -2 0 63.42 9.32
20 2 0 61.65 11.09
20 2 0 54.21 10.97
20 -2 0 53.19 10.66
20 2 -1 28.74 9.59
20 -2 1 27.33 8.28
20 2 1 34.45 10.39
20 2 -1 19.13 8.89
20 2 1 21.42 9.54
20 -2 -1 25.23 9.27
20 -2 1 26.64 10.01
20 -2 2 18.13 9.4
20 2 -2 17.1 8.79
20 -2 2 16.54 7.91
20 2 2 18.98 9.19
20 2 -2 6.77 8.12
20 2 2 3.74 8.86
20 -2 -2 1.71 8.01
20 2 -3 8.9 9.26
20 2 3 9.73 8.81
20 -2 3 15.38 7.77
20 2 -3 7.25 7.84
20 2 3 -2.14 8.28
20 -2 -3 4.78 8.9
20 -2 3 2.34 8.26
20 2 4 0.61 7.84
20 -2 4 -4.54 7.13
20 2 -4 -9.76 7.73
20 -2 -4 -15.8 7.38
20 2 4 -3.62 7.44
20 -2 4 -5.06 7.35
20 2 5 -0.63 7.78
20 -2 5 2.36 6.91
20 2 -5 10.72 7.17
20 2 5 -2.2 6.09
20 -2 5 -1.74 6.37
20 2 6 18.24 7.75
20 -2 6 6.44 6.32
20 2 6 6.16 5.19
20 -2 6 -0.55 5.51
20 2 7 11.03 6.59
20 -2 7 9.29 5.95
20 2 8 4.58 5.18
20 -2 8 2.61 4.65
20 -3 0 2.68 8.81
20 3 0 1.6 9.39
20 3 0 -3 9.17
20 -3 1 8.06 9.29
20 3 -1 -1.46 8.59
20 3 1 1.68 9.2
20 3 -1 -4.49 8.54
20 3 1 5.36 8.89
20 -3 -1 8.8 8.15
20 -3 2 3.11 8.56
20 3 -2 15.06 9.02
20 -3 2 15.68 7.05
20 3 2 3.54 8.91
20 3 -2 0.4 8.41
20 3 2 -8.2 9.16
20 -3 -2 0.87 7.97
20 -3 3 -1.84 7.98
20 3 -3 17.3 8.23
20 3 3 9.2 9.07
20 -3 3 15 7.46
20 3 -3 -6.96 7.85
20 3 3 3.93 8.34
20 -3 -3 -1.53 7.16
20 -3 4 7.22 7.6
20 3 4 -3.78 8.14
20 -3 4 -1.38 6.65
20 3 -4 5.89 7.24
20 3 4 10.65 7.46
20 -3 -4 0.75 6.96
20 3 5 2.5 7.68
20 -3 5 7.34 6.81
20 3 -5 18.4 7.13
20 3 5 -1.66 5.89
20 -3 5 -1.54 6.39
20 3 6 6.99 6.96
20 -3 6 9.28 6.08
20 -3 6 -0.25 5.54
20 3 7 -1.02 6.01
20 -3 7 5.61 5.13
20 3 8 7.54 5.12
20 -3 8 -2.26 4.21
20 -4 0 28.76 9.72
20 4 0 18.41 9.82
20 4 0 7.82 8.83
20 -4 -1 10.8 8.37
20 -4 1 3.34 8.69
20 4 -1 7.47 8.9
20 4 1 0.81 8.54
20 4 -1 14.14 9.03
20 4 1 -0.69 8.98
20 -4 2 6.84 8.35
20 4 -2 20.07 9.63
20 4 2 4.45 8.94
20 4 -2 -6.75 8.12
20 4 2 -2.24 9.01
20 -4 -2 0.24 8.02
20 -4 3 -10.8 8.34
20 4 -3 -6.77 8.47
20 4 3 -0.42 8.11
20 4 -3 2.45 7.76
20 4 3 -10.65 8.42
20 -4 -3 4.72 7.4
20 -4 4 2.33 7.04
20 4 4 4.68 7.53
20 4 -4 0.38 7.14
20 4 4 -2.57 7.04
20 -4 -4 -7.12 6.65
20 4 5 6.87 7.95
20 -4 5 -7.36 5.68
20 4 -5 13.62 6.83
20 4 5 -2.92 5.67
20 -4 5 -1.74 6.29
20 4 6 11.26 6.99
20 -4 6 1.28 5.06
20 -4 6 4.38 5.62
20 4 7 6.41 6.16
20 -4 7 6.45 4.56
20 4 8 6.01 5.17
20 -5 0 3 8.25
20 5 0 -7.11 8.9
20 5 0 -8.76 9.05
20 -5 -1 0.12 7.86
20 -5 1 3.4 8.11
20 5 -1 7 8.46
20 5 1 2.26 9.1
20 5 -1 6.81 8.44
20 5 1 4.25 8.55
20 -5 2 13.56 8.61
20 5 -2 21.22 9.58
20 5 2 11.38 9
20 5 -2 15.19 8.33
20 5 2 2.61 8.55
20 -5 -2 8.85 7.8
20 -5 3 7.89 7.85
20 5 -3 25.6 9
20 5 3 17.99 8.22
20 5 -3 27.42 8.31
20 5 3 8.04 7.59
20 -5 -3 22.49 7.5
20 -5 4 8.95 7.06
20 5 4 19.4 7.93
20 5 -4 35.22 8.09
20 5 4 18.88 7.27
20 -5 5 11.7 6.53
20 5 5 7.82 7.45
20 5 5 6.37 5.87
20 5 6 -1.18 6.32
20 -5 6 0.88 5.1
20 5 7 0.94 5.84
20 5 8 8 4.73
20 -6 0 -0.35 8.14
20 6 0 3.34 7.82
20 6 0 9.84 8.96
20 -6 -1 2.23 7.79
20 -6 1 16.03 8.75
20 6 -1 7.63 8.52
20 6 1 3.73 8.66
20 6 -1 -1.73 7.99
20 6 1 11.06 8.73
20 -6 -2 5.07 7.33
20 -6 2 5.75 7.88
20 6 -2 12.06 8.23
20 6 2 3.28 8.43
20 6 -2 8.07 8.15
20 6 2 5.04 8.22
20 -6 3 2.52 7.34
20 6 -3 -0.37 7.61
20 6 3 -5.75 7.18
20 6 -3 14.41 7.64
20 6 3 1.27 7.35
20 -6 -3 -7.18 6.85
20 -6 4 -3.4 6.36
20 6 4 -10.39 8.05
20 6 -4 6.91 7.13
20 6 4 9.95 6.43
20 -6 5 -0.95 5.95
20 6 5 3.91 7.16
20 6 5 -0.72 8.16
20 6 6 1.84 6.24
20 -6 6 1.86 5.05
20 6 7 0.19 5.3
20 -7 0 -3.35 7.9
20 7 0 -2.29 7.53
20 7 0 3 8.37
20 -7 -1 5.73 7.51
20 -7 1 12.07 8.23
20 7 -1 2.85 7.42
20 7 1 3.95 7.32
20 7 -1 9.34 8.39
20 7 1 10.05 8.32
20 -7 -2 38.46 8.18
20 -7 2 29.32 8.33
20 7 -2 36.18 8.63
20 7 2 23.86 7.84
20 7 -2 33.3 8.59
20 7 2 27.13 8.77
20 -7 3 22.17 7.59
20 7 3 23.73 7.68
20 7 -3 27.3 8.04
20 7 3 24.84 7.87
20 -7 -3 16.85 6.42
20 -7 4 13.51 6.81
20 7 4 15.97 7.64
20 7 4 15.38 6.53
20 -7 5 17.39 6.1
20 7 5 9.66 7.08
20 7 6 5.42 6.07
20 -7 6 -1.51 4.54
20 7 7 3.8 4.72
20 -8 0 12.29 7.59
20 8 0 18.75 7.54
20 8 0 9.91 8.21
20 -8 -1 1.28 7.31
20 -8 1 17.78 7.89
20 8 -1 -1.33 7.55
20 8 1 4.94 7.22
20 8 -1 12.32 8.02
20 8 1 4.93 7.74
20 -8 -2 5.91 6.24
20 -8 2 10.36 7.27
20 8 -2 -0.81 7.62
20 8 2 4.59 6.83
20 8 -2 10.08 7.49
20 8 2 -1.93 7.19
20 -8 3 11.98 6.78
20 8 3 -3.83 6.86
20 8 3 8.37 6.74
20 -8 -3 6.16 5.44
20 -8 4 -11.17 6.35
20 8 4 -4.07 6.76
20 -8 5 -4.44 5.21
20 8 5 -1.16 6.02
20 8 6 9.11 5.43
20 -9 0 5.36 6.75
20 9 0 14.34 6.57
20 -9 -1 1.24 6.24
20 -9 1 5.72 6.82
20 9 -1 15.89 7.24
20 9 1 -1.9 6.26
20 -9 -2 8.03 5.89
20 -9 2 3.64 6.29
20 9 2 3.95 6.53
20 -9 3 14.3 6.3
20 9 3 9.95 6.29
20 -9 4 11.06 5.7
20 9 4 26.86 6.78
20 -9 5 2 4.74
20 9 5 6.85 5.49
20 -10 0 2.65 5.92
20 10 0 6.1 6.11
20 -10 -1 1.83 5.62
20 -10 1 1.7 5.88
20 10 1 -1.63 5.75
20 -10 -2 1.03 4.75
20 -10 2 3.7 5.75
20 10 2 -3.48 5.83
20 -10 3 -1.19 5.24
20 10 3 -5.72 6
20 -10 4 -8.76 5.16
20 10 4 3.54 4.89
10 -20 5 13.36 4.42
20 -11 0 1.47 5.07
11 -20 0 15.77 4.89
20 -11 -1 -2.39 4.77
20 -11 1 3.07 5.14
20 -11 2 9.1 5.32
11 -20 2 16.82 5.38
20 -11 3 6.81 4.69
11 -20 3 17.8 4.95
20 -11 4 6.04 4.16
11 -20 4 20.93 4.64
20 -12 1 2.41 4.32
20 -12 2 2.2 4.23
21 0 0 4.49 7
21 0 0 -0.22 8.03
21 0 -1 17.38 7.08
21 0 1 23.76 8.02
21 0 -1 30.25 8.79
21 0 1 30.55 9.12
21 0 -2 19.77 6.92
21 0 2 31.53 8.41
21 0 -2 21.23 7.89
21 0 2 28.04 8.81
21 0 3 38.8 8.5
21 0 -3 33.73 7.7
21 0 3 29.46 8.25
21 0 4 26.63 7.83
21 0 -4 30.81 7.17
21 0 4 32.29 7.18
21 0 5 16.49 6.89
21 0 5 6.81 5.67
21 0 6 3.98 5.8
21 0 7 -4.44 5.02
21 -1 0 14.95 7.11
21 1 0 -7.98 7.44
21 1 0 1.61 7.93
21 -1 0 6.69 8.28
21 1 -1 -3.82 7.2
21 -1 1 11.62 7.3
21 1 1 1.86 7.5
21 1 -1 -1.82 7.82
21 1 1 10.25 8.56
21 -1 -1 -3.13 7.79
21 -1 1 -14.77 8.6
21 1 -2 9.38 7.06
21 -1 2 1.25 6.99
21 1 2 11.35 8.12
21 1 -2 0.43 7.07
21 1 2 5.28 8.05
21 -1 -2 -2.68 7.68
21 -1 2 -4.53 8.11
21 -1 3 3.49 6.76
21 1 3 8.96 7.66
21 1 -3 -5.01 7.08
21 -1 -3 -2.12 6.56
21 1 3 -0.37 7.29
21 -1 3 -2.14 7.56
21 -1 4 1.02 6.52
21 1 4 5.55 7.57
21 1 -4 -1.35 6.3
21 -1 -4 -2.59 6.46
21 1 4 3.15 6.34
21 -1 4 -3.98 6.22
21 1 5 2.85 6.49
21 -1 5 4.6 6.15
21 1 5 -2.3 5.24
21 -1 5 7.17 5.54
21 1 6 8.34 6.24
21 -1 6 3.4 5.35
21 -1 6 2.94 4.54
21 1 7 -4.27 5.11
21 -1 7 0.3 4.57
21 2 0 -2.97 7.98
21 2 0 -5.9 8.23
21 -2 0 1.17 7.68
21 2 -1 13.09 7.63
21 2 1 4.44 8.41
21 2 -1 -9.5 7.94
21 2 1 0.3 8
21 -2 -1 5.66 7.33
21 -2 1 0.53 7.73
21 2 -2 37.19 8.02
21 -2 2 38.02 7.36
21 2 2 39.51 9.15
21 2 -2 28.32 8.01
21 2 2 32.77 9.06
21 -2 -2 30.88 8.04
21 -2 2 39.18 8.9
21 -2 3 48.17 7.7
21 2 3 54.85 9.49
21 2 -3 38.62 8.13
21 2 3 33.64 8.15
21 -2 -3 28.64 7.3
21 -2 3 28.14 7.92
21 -2 4 37.71 7.15
21 2 4 33.18 8.45
21 2 -4 29.94 7.24
21 -2 -4 32.27 6.84
21 2 4 31.55 7.27
21 -2 4 28.1 7.21
21 2 5 18.67 7.19
21 -2 5 16.68 6.21
21 2 5 4.55 5.44
21 -2 5 9.67 5.68
21 2 6 -2.04 6.14
21 -2 6 -0.43 4.84
21 -2 6 -0.26 4.28
21 2 7 -2.91 5.02
21 3 0 3.12 7.76
21 3 0 -4.11 7.9
21 -3 0 -0.43 7.49
21 3 -1 23.69 8.4
21 3 1 12.97 8.55
21 3 -1 10.57 7.6
21 3 1 17.88 8.64
21 -3 -1 12.3 7.79
21 -3 1 9.88 7.96
21 3 -2 0.58 7.03
21 3 2 7.66 7.62
21 3 -2 3.53 7.15
21 3 2 9.56 8.14
21 -3 -2 2.24 7.06
21 -3 2 -0.92 7.33
21 3 3 10.52 8.07
21 3 -3 -4.78 6.63
21 3 3 -6.38 7.12
21 -3 -3 2.6 6.62
21 -3 3 -4.77 6.86
21 -3 4 4.62 5.62
21 3 4 4.3 7.61
21 3 -4 4.98 6.34
21 3 4 -5.48 6.15
21 -3 4 5.39 6.14
21 -3 5 8.61 4.98
21 3 5 4.11 6.66
21 3 5 -1.96 5.1
21 -3 5 6.5 5.42
21 3 6 7.44 5.82
21 -3 6 0.32 4.16
21 3 7 4.06 4.91
21 4 0 4.46 7.82
21 4 0 0.76 7.75
21 -4 0 -4.87 7.68
21 4 -1 21.57 8.2
21 4 1 7.78 8.19
21 4 -1 3.19 7.59
21 4 1 4.41 7.83
21 -4 -1 -1.11 7.26
21 -4 1 -1.96 7.79
21 4 -2 18.88 7.83
21 4 2 13.68 8.44
21 4 -2 2.58 6.73
21 4 2 17.94 8.11
21 -4 -2 8.11 6.96
21 -4 2 0.2 7.14
21 4 3 29.09 8.08
21 4 -3 23.09 7.37
21 4 3 13.7 7.07
21 -4 -3 9.42 6.44
21 -4 3 12.72 6.79
21 4 4 18.77 7.3
21 4 -4 19.42 6.75
21 4 4 14.01 6.07
21 -4 4 14.21 6.34
21 4 5 -0.23 6.3
21 4 5 8.86 5.27
21 -4 5 7.59 5.34
21 4 6 5.93 5.49
21 4 7 2.46 4.64
21 5 0 38.64 8.98
21 5 0 29.41 8.68
21 -5 0 38.22 8.52
21 -5 1 24.05 8.02
21 5 -1 50.11 9.22
21 5 1 40.85 8.58
21 5 -1 25.56 7.97
21 5 1 25.06 8.35
21 -5 -1 19.99 7.75
21 -5 2 23.12 7.8
21 5 -2 18.89 7.48
21 5 2 21.04 7.8
21 5 -2 21.42 7.42
21 5 2 10.86 7.6
21 -5 -2 7.95 6.69
21 -5 3 -0.05 6.48
21 5 3 -7.08 6.98
21 5 -3 13.54 6.68
21 5 3 -4.42 6.57
21 -5 -3 2.16 5.87
21 5 4 -6.12 6.65
21 5 -4 7.53 6.26
21 5 4 11.37 6.01
21 -5 4 -1.32 5.63
21 5 5 6.27 6.34
21 -5 5 5.56 5.25
21 5 6 13.11 5.87
21 -6 0 6.93 7.03
21 6 0 -10.32 7.42
21 6 0 -2.13 7.54
21 -6 1 -0.97 6.88
21 6 -1 12.92 7.19
21 6 1 4.84 7.13
21 6 -1 4.92 7.16
21 6 1 -1.06 7.37
21 -6 -1 12.2 7
21 -6 2 1.17 6.63
21 6 -2 6.03 7.14
21 6 2 -1.17 7.01
21 6 -2 12.25 7.04
21 6 2 1.04 6.88
21 -6 -2 6.24 6.09
21 -6 3 8.82 6.18
21 6 3 6.56 6.58
21 6 -3 3.7 6.33
21 6 3 4.58 6.34
21 -6 -3 4.11 5.24
21 6 4 -4.55 6.57
21 6 4 6.07 5.48
21 -6 4 -2.86 5.52
21 6 5 2.67 5.89
21 -6 5 4.39 4.74
21 6 6 1.93 4.96
21 -7 0 31.04 7.39
21 7 0 20.18 7.36
21 7 0 26.22 8.01
21 -7 1 27.03 7.44
21 7 -1 26.22 7.27
21 7 1 28.83 7.49
21 7 -1 31.21 7.9
21 7 1 17.13 7.59
21 -7 -1 7.79 6.31
21 -7 2 11 6.47
21 7 2 17.25 6.52
21 7 -2 16.67 6.67
21 7 2 18.13 7.15
21 -7 -2 10.15 6.01
21 -7 3 7.52 5.88
21 7 3 8.52 6.25
21 7 3 20.17 6.67
21 -7 4 2.05 5.08
21 7 4 -7.47 6.12
21 7 5 10.7 5.69
21 -7 5 -1.05 4.17
21 -8 0 3.16 5.92
21 8 0 1.49 6.07
21 8 0 -3.23 6.78
21 -8 1 4.92 6.02
21 8 -1 -2.54 5.73
21 8 1 -6.62 6.27
21 8 1 -5 6.79
21 -8 -1 -5.43 5.61
21 -8 2 0.18 5.63
21 8 2 -1.01 5.74
21 -8 -2 4.92 4.8
21 -8 3 4.25 5.29
21 8 3 -4.22 5.87
21 -8 4 -4.73 4.79
21 8 4 4.68 5.49
21 -9 0 42.94 6.43
21 9 0 46.34 6.69
21 -9 1 30.41 6.03
21 9 1 29.62 6.34
21 -9 -1 30.04 5.65
21 -9 2 6.49 5.15
21 9 2 10.83 5.56
21 -9 3 14.31 5.12
21 9 3 -5.04 5.12
21 -10 0 -1.68 4.36
21 -10 1 3.54 4.63
21 -10 2 6.11 4.6
10 -21 2 12.07 4.41
22 0 0 23.98 6.18
22 0 0 28.09 8.02
22 0 1 14.8 6.27
22 0 -1 10.2 6.92
22 0 1 8.97 7.1
22 0 2 9.23 6.26
22 0 -2 7.59 6.19
22 0 2 11.42 6.66
22 0 3 2.1 5.86
22 0 -3 2.2 5.57
22 0 3 3.63 6.18
22 0 4 -1.19 5.53
22 0 4 1.77 5.32
22 0 5 3.52 5.03
22 1 0 4.59 6.26
22 1 0 4.59 7.06
22 -1 0 -11.3 7.32
22 1 -1 4.34 5.7
22 -1 1 5.28 5.18
22 1 1 10.86 6.76
22 1 -1 -2.47 6.56
22 1 1 -0.6 6.66
22 -1 -1 4.15 6.57
22 -1 1 13.99 7.19
22 -1 2 2.28 5.34
22 1 2 0.69 6.29
22 1 -2 0.9 6.13
22 -1 -2 -11.95 6.51
22 1 2 2.42 6.35
22 -1 2 -3.23 6.29
22 -1 3 -4.94 5.27
22 1 3 1.21 6.19
22 1 -3 9.98 6.05
22 -1 -3 2.77 5.37
22 1 3 5.02 6.1
22 -1 3 -1.87 6.02
22 -1 4 2.84 5.03
22 1 4 5.84 5.76
22 1 4 -0.76 5.25
22 -1 4 4.19 5.33
22 1 5 8.28 5.32
22 2 0 7.64 6.35
22 2 0 -0.69 6.65
22 -2 0 13.1 7.22
22 2 -1 23.14 6.76
22 2 1 14.93 6.72
22 2 -1 21.67 6.98
22 2 1 18.71 7.43
22 -2 -1 12.4 6.82
22 -2 1 14.81 7.35
22 2 2 9.6 6.64
22 2 -2 3.28 6.05
22 2 2 8.04 6.71
22 -2 -2 -5.63 6.09
22 -2 2 6.31 6.68
22 2 3 3.19 6.69
22 2 -3 8.79 5.69
22 2 3 7.49 5.84
22 -2 -3 -7.94 5.79
22 -2 3 6.28 5.92
22 2 4 7.78 5.96
22 2 4 6.21 5.28
22 -2 4 2.09 5.1
22 2 5 7.91 5.4
22 3 0 -2.81 6.64
22 3 0 1.1 6.66
22 -3 0 -0.82 6.58
22 3 -1 0.99 6.14
22 3 1 4.48 6.63
22 3 -1 -0.64 6.37
22 3 1 1.92 6.48
22 -3 -1 0.96 6.24
22 -3 1 -2.66 6.55
22 3 2 -10.12 6.91
22 3 -2 6.67 6.13
22 3 2 7.54 6.5
22 -3 -2 -2.53 6.11
22 -3 2 0.33 6.02
22 3 3 -5.93 6.56
22 3 -3 6.76 5.63
22 3 3 2.93 5.69
22 -3 -3 2.04 5.08
22 -3 3 0.98 5.54
22 3 4 2.48 5.76
22 3 4 2.52 4.88
22 -3 4 -0.53 5
22 3 5 -5.13 5.21
22 4 0 10.63 6.99
22 4 0 15.94 6.83
22 -4 0 12.04 6.53
22 4 -1 -1.71 6.39
22 4 1 6.36 6.45
22 4 -1 10.28 6.52
22 4 1 4.43 6.56
22 -4 -1 2.48 6.03
22 -4 1 8.64 6.54
22 4 2 4.64 6.4
22 4 -2 3.65 5.63
22 4 2 11.31 6.34
22 -4 -2 -5.96 5.89
22 -4 2 2.56 5.92
22 4 3 -8.54 6.18
22 4 -3 5.32 5.31
22 4 3 3.99 5.53
22 -4 -3 -11.12 5.15
22 -4 3 -0.06 5.42
22 4 4 10.49 6.1
22 4 4 9.89 4.67
22 -4 4 1 4.82
22 4 5 -1.88 5.13
22 5 0 8.55 6.02
22 5 0 1.48 6.09
22 -5 0 -2.03 6
22 5 -1 -7.05 5.99
22 5 1 -2.04 6.34
22 5 -1 1.5 5.86
22 5 1 7.4 6.45
22 -5 -1 3.74 5.75
22 -5 1 -6.42 5.89
22 5 2 0.94 5.89
22 5 -2 6.45 5.83
22 5 2 -0.89 5.92
22 -5 -2 0.02 5.3
22 -5 2 -2.89 5.83
22 5 3 -0.09 5.51
22 5 3 18.38 5.72
22 -5 3 9.42 5.38
22 5 4 9.89 5.78
22 -5 4 1.45 4.52
22 6 0 8.39 5.81
22 6 0 -4.08 6.12
22 -6 0 2.94 5.64
22 6 -1 6.89 5.89
22 6 1 3.15 5.91
22 6 -1 7.86 6.14
22 6 1 -2.61 6.05
22 -6 -1 6.05 5.63
22 -6 1 -3.47 5.71
22 6 2 1.41 5.48
22 6 2 5.52 5.74
22 -6 -2 -0.15 4.69
22 -6 2 1.92 5.31
22 6 3 -2.47 5.19
22 6 3 6.36 4.99
22 -6 3 3.13 4.8
22 6 4 2.75 4.82
22 7 0 6.04 5.14
22 -7 0 -1.49 5.11
22 7 1 12.04 5.4
22 -7 -1 8.45 5.01
22 -7 1 0.92 5.1
22 7 2 11.79 5.45
22 -7 2 10.53 5.03
22 7 3 9.67 5.04
22 -7 3 6.98 4.43
22 8 1 10.13 4.96
22 -8 1 7.3 4.62
23 0 0 -4.07 5.79
23 0 -1 6.35 5.54
23 0 1 -0.44 5.35
23 0 -2 17.19 5.39
23 0 2 20.05 5.69
23 0 3 4.05 4.48
23 1 0 1.14 5.4
23 -1 0 -0.88 5.45
23 1 -1 3.85 5.43
23 1 1 -3.46 5.39
23 -1 -1 0.64 5.39
23 -1 1 3.07 5.37
23 1 -2 0.34 4.78
23 -1 -2 3.19 4.9
23 1 2 -0.16 5.03
23 -1 2 1.87 5.1
23 1 3 10.8 4.48
23 -1 3 3.48 4.53
23 2 0 1.6 5.32
23 -2 0 6.12 5.46
23 2 -1 17.03 5.71
23 2 1 3.96 5.48
23 -2 -1 11.14 5.41
23 -2 1 8.14 5.49
23 2 -2 12.38 5.23
23 2 2 8.96 5.26
23 -2 2 5.9 5.14
23 -2 3 7.6 4.45
23 3 0 16.5 5.34
23 3 0 22.48 5.92
23 -3 0 19.49 5.84
23 3 1 11.64 5.16
23 3 -1 9.17 5.32
23 3 1 16.26 5.66
23 -3 -1 6.16 5.13
23 -3 1 3.12 5.16
23 3 2 5.59 4.84
23 -3 2 -2.82 4.92
23 4 0 6.05 5.3
23 -4 0 3.16 5.05
23 4 1 1.82 5
23 4 -1 2.31 4.9
23 4 1 10.22 5.13
23 -4 1 -7.55 5.2
23 -4 2 1.07 4.36
23 5 0 26.59 5.53
loop_
_smtbx_masks_void_nr
_smtbx_masks_void_average_x
_smtbx_masks_void_average_y
_smtbx_masks_void_average_z
_smtbx_masks_void_volume
_smtbx_masks_void_count_electrons
1 -0.411 -0.031 -0.408 3145.6 0.0
