#------------------------------------------------------------------------------
#$Date: 2017-01-12 00:54:14 +0200 (Thu, 12 Jan 2017) $
#$Revision: 190412 $
#$URL: file:///home/coder/svn-repositories/cod/cif/4/51/40/4514001.cif $
#------------------------------------------------------------------------------
#
# This file is available in the Crystallography Open Database (COD),
# http://www.crystallography.net/
#
# All data on this site have been placed in the public domain by the
# contributors.
#
data_4514001
loop_
_publ_author_name
'Yan, Wei'
'Zhang, Chuanlei'
'Chen, Shuguang'
'Han, Lijuan'
'Zheng, Hegen'
_publ_section_title
;
 Two Lanthanide Metal-Organic Frameworks as Remarkably Selective and
 Sensitive Bifunctional Luminescence Sensor for Metal Ions and Small
 Organic Molecules.
;
_journal_name_full               'ACS applied materials &amp; interfaces'
_journal_paper_doi               10.1021/acsami.6b14563
_journal_year                    2017
_chemical_formula_sum            'C25 H17 N3 O10 Tb'
_chemical_formula_weight         678.33
_space_group_crystal_system      monoclinic
_space_group_IT_number           14
_space_group_name_Hall           '-P 2yn'
_space_group_name_H-M_alt        'P 1 21/n 1'
_symmetry_space_group_name_Hall  '-P 2yn'
_symmetry_space_group_name_H-M   'P 1 21/n 1'
_atom_sites_solution_hydrogens   mixed
_audit_creation_method           SHELXL-2014/7
_cell_angle_alpha                90
_cell_angle_beta                 94.0280(10)
_cell_angle_gamma                90
_cell_formula_units_Z            4
_cell_length_a                   10.6273(10)
_cell_length_b                   18.7534(17)
_cell_length_c                   11.9852(11)
_cell_measurement_reflns_used    9935
_cell_measurement_temperature    296(2)
_cell_measurement_theta_max      27.44
_cell_measurement_theta_min      2.21
_cell_volume                     2382.7(4)
_computing_structure_refinement  'SHELXL-2014/7 (Sheldrick, 2014)'
_diffrn_ambient_temperature      296(2)
_diffrn_measured_fraction_theta_full 0.993
_diffrn_measured_fraction_theta_max 0.991
_diffrn_measurement_device_type  'CCD area detector'
_diffrn_measurement_method       'phi and omega scans'
_diffrn_radiation_type           MoK\a
_diffrn_radiation_wavelength     0.71073
_diffrn_reflns_av_R_equivalents  0.0331
_diffrn_reflns_av_unetI/netI     0.0282
_diffrn_reflns_Laue_measured_fraction_full 0.993
_diffrn_reflns_Laue_measured_fraction_max 0.991
_diffrn_reflns_limit_h_max       10
_diffrn_reflns_limit_h_min       -13
_diffrn_reflns_limit_k_max       24
_diffrn_reflns_limit_k_min       -24
_diffrn_reflns_limit_l_max       15
_diffrn_reflns_limit_l_min       -15
_diffrn_reflns_number            20948
_diffrn_reflns_point_group_measured_fraction_full 0.993
_diffrn_reflns_point_group_measured_fraction_max 0.991
_diffrn_reflns_theta_full        25.242
_diffrn_reflns_theta_max         27.444
_diffrn_reflns_theta_min         2.172
_exptl_absorpt_coefficient_mu    3.035
_exptl_crystal_colour            yellow
_exptl_crystal_density_diffrn    1.891
_exptl_crystal_description       block
_exptl_crystal_F_000             1332
_refine_diff_density_max         1.305
_refine_diff_density_min         -0.897
_refine_diff_density_rms         0.104
_refine_ls_extinction_method     none
_refine_ls_goodness_of_fit_ref   1.040
_refine_ls_hydrogen_treatment    constr
_refine_ls_matrix_type           full
_refine_ls_number_parameters     352
_refine_ls_number_reflns         5399
_refine_ls_number_restraints     2
_refine_ls_restrained_S_all      1.041
_refine_ls_R_factor_all          0.0268
_refine_ls_R_factor_gt           0.0236
_refine_ls_shift/su_max          0.003
_refine_ls_shift/su_mean         0.000
_refine_ls_structure_factor_coef Fsqd
_refine_ls_weighting_details
'w=1/[\s^2^(Fo^2^)+(0.0313P)^2^+3.5401P] where P=(Fo^2^+2Fc^2^)/3'
_refine_ls_weighting_scheme      calc
_refine_ls_wR_factor_gt          0.0615
_refine_ls_wR_factor_ref         0.0646
_reflns_Friedel_coverage         0.000
_reflns_number_gt                4928
_reflns_number_total             5399
_reflns_threshold_expression     'I > 2\s(I)'
_cod_data_source_file            am6b14563_si_002.cif
_cod_data_source_block           2
_cod_database_code               4514001
_shelx_shelxl_version_number     2014/7
_shelx_space_group_comment
;
The symmetry employed for this shelxl refinement is uniquely defined
by the following loop, which should always be used as a source of
symmetry information in preference to the above space-group names.
They are only intended as comments.
;
_shelx_res_file
;

    1.res created by SHELXL-2014/7

TITL 1 in P2(1)/n
CELL 0.71073  10.6273  18.7534  11.9852  90.000  94.028  90.000
ZERR   4.00   0.0010   0.0017   0.0011   0.000   0.001   0.000
LATT 1
SYMM 0.5-X, 0.5+Y, 0.5-Z
SFAC C  H  N  O  Tb
UNIT 100 68 12 40 4
OMIT   -1   5   3
OMIT   -1   4   4
L.S. 20
ACTA
BOND
FMAP 2
PLAN 5
EQIV_$1 1-x,-y,2-z
DFIX 2.16 0.01 H9A H22_$1
DELU 0.005 N1 C14
DELU 0.005 O7 N3
FREE C17  Tb1
FREE Tb1  C18
FREE N3   Tb1
TEMP 23.000
WGHT    0.031300    3.540100
FVAR       0.08491
TB1   5    0.381880    0.039790    0.599666    11.00000    0.01193    0.01555 =
         0.01684   -0.00017    0.00084    0.00257
N1    3    0.648806    0.249010    0.987145    11.00000    0.03665    0.12728 =
         0.05905   -0.04881   -0.01492    0.02098
N2    3   -0.379525    0.271599    0.668670    11.00000    0.02303    0.05309 =
         0.06162   -0.01324   -0.01170    0.00159
N3    3    0.279106   -0.062345    0.748223    11.00000    0.06110    0.03480 =
         0.04070    0.00836    0.02765    0.00839
O1    4    0.206192    0.107408    0.656001    11.00000    0.01838    0.03197 =
         0.03823   -0.01457    0.00108    0.00551
O1W   4    0.880455    0.202191    0.057916    11.00000    0.03483    0.07578 =
         0.11458    0.05328   -0.02703   -0.02198
AFIX   3
H1WD  2    0.859405    0.209981    0.123946    11.00000   -1.20000
AFIX   3
H1WA  2    0.960345    0.199781    0.058216    11.00000   -1.50000
H1WB  2    0.848315    0.163041    0.034246    11.00000   -1.50000
H1WC  2    0.853745    0.235961    0.015266    11.00000   -1.50000
AFIX   0
O2    4    0.387770    0.136194    0.739936    11.00000    0.01980    0.04238 =
         0.04397   -0.02142   -0.00264    0.00953
O3    4    0.034844    0.427540    0.949142    11.00000    0.02049    0.01634 =
         0.03529   -0.00386    0.00504   -0.00401
O4    4   -0.104868    0.348499    0.990368    11.00000    0.02721    0.01867 =
         0.04360   -0.00555    0.01846   -0.00321
O5    4    0.586953    0.038807    0.674991    11.00000    0.01765    0.04498 =
         0.03123   -0.01122   -0.00681    0.00911
O6    4    0.727793   -0.012126    0.569470    11.00000    0.01968    0.03512 =
         0.02277   -0.00456   -0.00432    0.00296
O7    4    0.374949   -0.026377    0.777408    11.00000    0.07616    0.06221 =
         0.03013    0.01382    0.00051   -0.01461
O8    4    0.222357   -0.047777    0.654683    11.00000    0.03434    0.03293 =
         0.05604    0.00724    0.01733    0.00083
O9    4    0.241280   -0.109853    0.807899    11.00000    0.10325    0.04727 =
         0.06904    0.02649    0.04423   -0.00370
C1    1   -0.330768    0.212032    0.712483    11.00000    0.02458    0.04448 =
         0.05579   -0.01714   -0.00112   -0.01004
AFIX  43
H1    2   -0.381277    0.171507    0.711431    11.00000   -1.20000
AFIX   0
C2    1   -0.208330    0.207014    0.759812    11.00000    0.02391    0.02562 =
         0.04959   -0.00876    0.00366   -0.00193
AFIX  43
H2    2   -0.177884    0.163786    0.788555    11.00000   -1.20000
AFIX   0
C3    1   -0.131526    0.266813    0.764052    11.00000    0.01519    0.02356 =
         0.02878   -0.00843    0.00119    0.00121
C4    1   -0.182355    0.329498    0.719681    11.00000    0.02592    0.02622 =
         0.05047   -0.00330   -0.00464    0.00238
AFIX  43
H4    2   -0.135112    0.371282    0.722039    11.00000   -1.20000
AFIX   0
C5    1   -0.304580    0.328921    0.671790    11.00000    0.03045    0.04374 =
         0.06157   -0.00488   -0.01198    0.00653
AFIX  43
H5    2   -0.336572    0.370937    0.639829    11.00000   -1.20000
AFIX   0
C6    1    0.003360    0.261441    0.806275    11.00000    0.01598    0.01631 =
         0.02798   -0.00347    0.00278   -0.00101
C7    1    0.076082    0.208763    0.761193    11.00000    0.01842    0.02253 =
         0.02788   -0.00791    0.00245   -0.00103
AFIX  43
H7    2    0.037209    0.177485    0.709339    11.00000   -1.20000
AFIX   0
C8    1    0.204146    0.200489    0.789771    11.00000    0.02040    0.02031 =
         0.02663   -0.00339    0.00343    0.00431
C9    1    0.263091    0.247199    0.868952    11.00000    0.01833    0.02789 =
         0.02717   -0.00436   -0.00095    0.00551
C10   1    0.190541    0.300815    0.913464    11.00000    0.01946    0.02240 =
         0.02662   -0.00634    0.00035    0.00192
AFIX  43
H10   2    0.229248    0.332381    0.964961    11.00000   -1.20000
AFIX   0
C11   1    0.062515    0.308754    0.883624    11.00000    0.01626    0.01688 =
         0.02276   -0.00244    0.00338    0.00043
C12   1    0.399030    0.244744    0.910036    11.00000    0.02113    0.05420 =
         0.02914   -0.01848   -0.00532    0.01374
C13   1    0.454594    0.183965    0.958154    11.00000    0.04983    0.06986 =
         0.04006   -0.01516   -0.01199    0.03286
AFIX  43
H13   2    0.409621    0.141727    0.963770    11.00000   -1.20000
AFIX   0
C14   1    0.582799    0.189309    0.998225    11.00000    0.06600    0.09761 =
         0.04634   -0.01608   -0.01393    0.05860
AFIX  43
H14   2    0.621986    0.150116    1.033206    11.00000   -1.20000
AFIX   0
C15   1    0.597819    0.306677    0.944165    11.00000    0.02276    0.12184 =
         0.06474   -0.04787   -0.00289   -0.00317
AFIX  43
H15   2    0.645632    0.347960    0.939391    11.00000   -1.20000
AFIX   0
C16   1    0.472351    0.306321    0.905651    11.00000    0.02052    0.07237 =
         0.05323   -0.02809   -0.00366   -0.00169
AFIX  43
H16   2    0.435900    0.347944    0.876178    11.00000   -1.20000
AFIX   0
C17   1    0.271391    0.144460    0.726020    11.00000    0.01938    0.02110 =
         0.02523   -0.00254    0.00357    0.00425
C18   1   -0.008571    0.364505    0.943178    11.00000    0.01794    0.01499 =
         0.02021   -0.00174   -0.00130    0.00042
C19   1    0.693937    0.013345    0.659797    11.00000    0.01746    0.02242 =
         0.02616   -0.00286   -0.00326    0.00006
C20   1    0.786471    0.012454    0.758866    11.00000    0.01892    0.02611 =
         0.02681   -0.00470   -0.00577    0.00236
C21   1    0.743309    0.015291    0.865500    11.00000    0.01978    0.05832 =
         0.02935   -0.00985   -0.00431    0.00878
AFIX  43
H21   2    0.657529    0.020729    0.874014    11.00000   -1.20000
AFIX   0
C22   1    0.825942    0.010153    0.958453    11.00000    0.02289    0.07136 =
         0.02654   -0.01125   -0.00377    0.01046
AFIX  43
H22   2    0.794795    0.011021    1.029040    11.00000   -1.20000
AFIX   0
C23   1    0.955251    0.003676    0.949436    11.00000    0.02013    0.03809 =
         0.02826   -0.00829   -0.00863    0.00464
C24   1    0.997241    0.004741    0.842953    11.00000    0.01588    0.07968 =
         0.03119   -0.00261   -0.00385    0.00992
AFIX  43
H24   2    1.083559    0.003563    0.834600    11.00000   -1.20000
AFIX   0
C25   1    0.914650    0.007514    0.747999    11.00000    0.02094    0.06566 =
         0.02642   -0.00272   -0.00255    0.00522
AFIX  43
H25   2    0.945561    0.006049    0.677341    11.00000   -1.20000

AFIX   0
HKLF 4

REM  1 in P2(1)/n
REM R1 =  0.0236 for    4928 Fo > 4sig(Fo)  and  0.0268 for all    5399 data
REM    352 parameters refined using      2 restraints

END

WGHT      0.0314      3.4043

REM Highest difference peak  1.305,  deepest hole -0.897,  1-sigma level  0.104
Q1    1   0.3707  0.0405  0.6682  11.00000  0.05    1.30
Q2    1   0.4015  0.0405  0.5262  11.00000  0.05    1.14
Q3    1   0.5446  0.1502  1.0202  11.00000  0.05    1.06
Q4    1   1.1423 -0.0350  0.7926  11.00000  0.05    0.96
Q5    1   0.6302  0.2084  1.0341  11.00000  0.05    0.80
;
_shelx_res_checksum              96717
_shelx_hkl_file
;
  -1   0   0    0.20    0.04
  -2   0   0   44.63    1.73
  -3   0   0    0.12    0.07
  -4   0   0  274.30   10.30
  -5   0   0    0.28    0.11
  -6   0   0   74.93    2.98
  -7   0   0    0.23    0.15
  -7   0   0    0.58    0.25
  -8   0   0  197.74    8.19
  -8   0   0  189.38    6.97
  -8   0   0  186.61    7.36
  -9   0   0    0.87    0.35
  -9   0   0   -0.07    0.16
  -9   0   0    0.28    0.19
 -10   0   0   64.63    2.54
 -10   0   0   60.13    2.67
 -11   0   0    0.23    0.22
 -11   0   0    0.15    0.22
 -12   0   0   67.35    2.89
 -12   0   0   62.75    2.69
 -13   0   0   -0.10    0.26
   0  -1   0   -0.23    0.01
   0   1   0   -0.26    0.01
   0   1   0   -0.21    0.02
  -1  -1   0  335.15   12.32
   1  -1   0  300.37   12.20
  -1   1   0  392.37   14.31
  -1   1   0  360.42   13.06
  -2  -1   0   11.31    0.46
  -2  -1   0   10.84    0.47
  -2   1   0   12.45    0.55
  -2   1   0   10.72    0.49
  -3  -1   0  151.75    5.47
  -3  -1   0  151.09    5.77
  -3   1   0  159.96    6.39
  -3   1   0  150.55    5.79
  -4  -1   0    5.69    0.31
  -4  -1   0    5.48    0.32
  -4   1   0    5.63    0.34
  -4   1   0    5.59    0.39
  -5  -1   0  333.24   11.88
  -5  -1   0  333.03   12.53
  -5   1   0  346.82   13.88
  -5   1   0  324.30   12.56
  -6  -1   0   42.32    1.68
  -6  -1   0   41.39    1.76
  -6   1   0   44.10    2.00
  -6   1   0   42.61    1.80
  -7  -1   0   47.70    1.92
  -7  -1   0   48.54    2.02
  -7   1   0   49.53    2.30
  -7   1   0   48.61    2.05
  -8  -1   0    3.01    0.36
  -8  -1   0    2.53    0.33
  -8   1   0    3.05    0.36
  -9  -1   0  128.98    5.50
  -9  -1   0  120.06    4.85
  -9  -1   0  120.63    4.61
  -9   1   0  122.53    4.89
 -10  -1   0   27.59    1.37
 -10  -1   0   27.83    1.31
 -10   1   0   27.15    1.30
 -10   1   0   29.02    1.42
 -11  -1   0    9.70    0.68
 -11  -1   0   10.54    0.73
 -11   1   0    9.76    0.74
 -11   1   0    9.10    0.67
 -12  -1   0    2.47    0.40
 -12  -1   0    2.13    0.42
 -12   1   0    1.38    0.38
 -12   1   0    1.53    0.35
 -13  -1   0   50.21    2.27
 -13   1   0   54.33    2.31
 -13   1   0   51.22    2.46
   0  -2   0  182.57    6.05
   0   2   0  156.89    6.98
   0   2   0  163.68    6.33
  -1  -2   0   53.84    1.95
   1  -2   0   51.47    1.92
  -1   2   0   57.90    2.28
   2  -2   0    8.85    0.41
  -2  -2   0   10.55    0.43
  -2   2   0   11.32    0.51
  -2   2   0   11.03    0.48
  -3  -2   0   84.78    3.05
  -3  -2   0   83.35    3.20
  -3   2   0   84.38    3.55
  -3   2   0   84.61    3.25
  -4  -2   0   45.61    1.73
  -4  -2   0   44.53    1.81
  -4   2   0   44.79    1.86
  -4   2   0   48.57    2.03
  -5  -2   0   59.26    2.25
  -5  -2   0   60.92    2.35
  -5   2   0   58.63    2.40
  -5   2   0   59.63    2.63
  -6  -2   0   28.59    1.26
  -6  -2   0   29.25    1.22
  -6   2   0   29.42    1.32
  -6   2   0   30.75    1.44
  -7  -2   0   56.10    2.35
  -7  -2   0   58.58    2.26
  -7   2   0   59.70    2.64
  -7   2   0   57.34    2.41
  -8  -2   0   95.57    3.60
  -8  -2   0   97.75    3.79
  -8   2   0   93.18    4.19
  -8   2   0   94.51    3.84
  -9  -2   0    0.22    0.21
  -9  -2   0    0.88    0.23
  -9   2   0    1.19    0.27
 -10  -2   0   10.45    0.69
 -10  -2   0   10.84    0.68
 -10   2   0    9.95    0.73
 -11  -2   0   31.19    1.47
 -11  -2   0   31.32    1.54
 -11   2   0   32.72    1.63
 -11   2   0   31.86    1.49
 -12  -2   0   35.40    1.65
 -12   2   0   36.28    1.81
 -12   2   0   34.88    1.66
 -13  -2   0    0.23    0.28
 -13   2   0    0.59    0.34
 -13   2   0    0.67    0.32
   0  -3   0   -0.14    0.03
   0  -3   0   -0.25    0.03
   0   3   0   -0.21    0.04
   0   3   0   -0.20    0.07
   1  -3   0   20.27    0.73
   1  -3   0   19.60    0.77
  -1  -3   0   19.88    0.75
  -1   3   0   19.92    0.90
  -1   3   0   20.91    0.82
   1   3   0   18.87    0.77
  -2  -3   0  222.08    7.67
   2  -3   0  201.06    7.61
  -2   3   0  223.14    8.89
  -3  -3   0  148.30    5.23
   3  -3   0  130.38    5.18
  -3   3   0  150.86    5.57
  -3   3   0  156.21    6.09
  -4  -3   0    0.45    0.09
  -4  -3   0    0.58    0.10
  -4   3   0    0.48    0.11
  -4   3   0    0.23    0.10
  -5  -3   0   97.27    3.81
  -5  -3   0   99.05    3.64
  -5   3   0   96.78    3.89
  -5   3   0  104.06    4.23
  -6  -3   0  137.53    4.94
  -6  -3   0  133.42    5.18
  -6   3   0  137.96    5.74
  -6   3   0  132.65    5.26
  -7  -3   0   12.32    0.65
  -7  -3   0   12.03    0.65
  -7   3   0   13.42    0.78
  -7   3   0   12.41    0.72
  -8  -3   0   10.72    0.61
  -8  -3   0    9.93    0.60
  -8   3   0   10.03    0.67
  -8   3   0   11.57    0.74
  -9  -3   0   74.86    2.89
  -9  -3   0   74.68    3.01
  -9   3   0   71.58    3.10
 -10  -3   0   25.87    1.25
 -10  -3   0   28.25    1.31
 -10   3   0   25.97    1.38
 -11  -3   0    8.12    0.62
 -11   3   0   10.23    0.76
 -12  -3   0    7.29    0.60
 -12   3   0    5.70    0.68
 -12   3   0    6.69    0.58
 -13  -3   0   32.97    1.61
 -13   3   0   34.34    1.82
 -13   3   0   33.13    1.64
   0  -4   0  981.72   31.91
   0  -4   0  879.53   31.65
   0   4   0  882.82   33.69
   0   4   0  850.99   37.22
   1  -4   0    3.38    0.16
   1  -4   0    3.19    0.19
  -1  -4   0    3.18    0.18
  -1  -4   0    3.20    0.18
   1   4   0    2.18    0.31
  -1   4   0    3.04    0.27
   1   4   0    2.82    0.18
  -1   4   0    3.19    0.21
  -2  -4   0    0.29    0.07
   2  -4   0    0.25    0.05
  -2   4   0    0.31    0.11
  -2   4   0    0.44    0.10
  -3  -4   0  122.64    4.35
   3  -4   0  112.07    4.30
  -3   4   0  128.61    5.07
   4  -4   0   88.36    3.56
  -4  -4   0   98.99    3.60
  -4   4   0  101.65    3.87
  -4   4   0  107.78    4.19
  -5  -4   0  105.12    4.03
  -5  -4   0  102.62    3.85
  -5   4   0  110.20    4.48
  -5   4   0  104.22    4.13
  -6  -4   0    4.40    0.30
  -6  -4   0    4.16    0.32
  -6   4   0    3.96    0.38
  -6   4   0    4.92    0.39
  -7  -4   0   67.61    2.68
  -7  -4   0   70.48    2.79
  -7   4   0   72.30    2.92
  -7   4   0   71.42    3.10
  -8  -4   0   52.85    2.12
  -8  -4   0   49.73    2.04
  -8   4   0   50.57    2.23
  -8   4   0   51.10    2.34
  -9  -4   0   17.13    0.85
  -9  -4   0   14.52    0.82
  -9   4   0   15.98    0.95
 -10  -4   0    3.19    0.40
 -10  -4   0    2.75    0.37
 -10   4   0    2.99    0.45
 -11  -4   0   44.68    1.91
 -11   4   0   43.34    2.11
 -12  -4   0    9.27    0.68
 -12   4   0   10.41    0.74
 -12   4   0    9.71    0.82
 -13  -4   0    2.98    0.46
 -13   4   0    3.62    0.50
 -13   4   0    3.86    0.63
   0  -5   0    0.08    0.05
   0  -5   0    0.05    0.05
   0   5   0   -0.06    0.13
   1  -5   0    2.25    0.17
   1  -5   0    1.97    0.13
  -1  -5   0    2.28    0.16
  -1  -5   0    2.08    0.15
   1   5   0    2.20    0.18
   1   5   0    1.86    0.31
  -1   5   0    2.31    0.19
  -1   5   0    1.99    0.24
   2  -5   0   99.93    3.85
  -2  -5   0  116.52    3.82
   2  -5   0  106.58    3.76
  -2   5   0  106.66    4.46
   2   5   0   93.88    3.96
  -2   5   0  110.57    4.07
  -3  -5   0   58.70    2.13
   3  -5   0   53.94    2.09
  -3   5   0   60.40    2.49
  -4  -5   0    0.85    0.14
  -4   5   0    0.82    0.18
  -4   5   0    0.84    0.16
  -5  -5   0    9.63    0.46
  -5  -5   0    8.63    0.47
  -5   5   0    9.42    0.56
  -5   5   0    9.39    0.55
  -6  -5   0  123.95    4.57
  -6  -5   0  126.04    4.77
  -6   5   0  122.20    4.91
  -6   5   0  127.28    5.29
  -7  -5   0    0.92    0.19
  -7  -5   0    1.36    0.20
  -7   5   0    1.25    0.26
  -7   5   0    1.29    0.24
  -8  -5   0   21.03    0.97
  -8  -5   0   21.12    0.97
  -8   5   0   19.42    1.09
  -9  -5   0    3.78    0.39
  -9  -5   0    3.24    0.37
  -9   5   0    3.07    0.45
 -10  -5   0   71.95    2.91
 -10   5   0   75.84    3.21
 -11  -5   0    1.44    0.31
 -11   5   0    1.70    0.40
 -12  -5   0    5.26    0.55
 -12   5   0    6.01    0.71
 -13  -5   0    3.18    0.47
 -13  -5   0    3.08    0.47
 -13   5   0    3.50    0.51
 -13   5   0    3.27    0.59
   0  -6   0  208.24    6.74
   0  -6   0  184.18    6.65
   0   6   0  179.57    7.96
   0   6   0  180.16    7.11
   1  -6   0    1.52    0.16
  -1  -6   0    1.46    0.13
  -1  -6   0    1.55    0.14
   1  -6   0    1.40    0.12
   1   6   0    1.15    0.27
  -1   6   0    1.73    0.25
   1   6   0    1.50    0.17
  -1   6   0    1.87    0.20
   2  -6   0   -0.15    0.05
   2  -6   0   -0.32    0.05
  -2  -6   0   -0.23    0.06
  -2   6   0   -0.29    0.04
  -2   6   0   -0.20    0.11
   2   6   0   -0.20    0.04
   2   6   0   -0.25    0.07
   3  -6   0  136.17    4.94
  -3  -6   0  139.62    5.00
  -3   6   0  140.16    5.84
  -3   6   0  140.61    5.35
   4  -6   0    1.09    0.14
  -4  -6   0    1.32    0.19
  -4  -6   0    1.37    0.17
  -4   6   0    1.59    0.21
  -5  -6   0   75.12    2.88
  -5  -6   0   78.75    2.97
  -5   6   0   78.38    3.33
  -5   6   0   77.30    3.13
  -6  -6   0    1.62    0.21
  -6  -6   0    1.92    0.20
  -6   6   0    1.58    0.23
  -6   6   0    1.39    0.26
  -7  -6   0  135.16    5.01
  -7  -6   0  137.76    5.21
  -7   6   0  140.18    5.78
  -7   6   0  131.96    5.39
  -8  -6   0    3.61    0.31
  -8  -6   0    3.18    0.34
  -8   6   0    3.11    0.44
  -9  -6   0   23.65    1.11
  -9   6   0   23.48    1.28
 -10  -6   0    2.39    0.35
 -10   6   0    2.20    0.43
 -11  -6   0   50.65    2.12
 -11   6   0   48.64    2.36
 -12  -6   0    0.21    0.22
 -12  -6   0    0.34    0.21
 -12   6   0    0.02    0.26
 -13  -6   0    4.00    0.52
 -13  -6   0    3.65    0.50
 -13   6   0    4.09    0.67
   0  -7   0    0.39    0.08
   0  -7   0    0.14    0.08
   0   7   0    0.07    0.16
   0   7   0   -0.08    0.08
  -1  -7   0    4.00    0.25
   1  -7   0    3.79    0.22
   1  -7   0    4.60    0.28
   1   7   0    3.07    0.45
  -1   7   0    3.69    0.29
  -1   7   0    4.26    0.41
   1   7   0    4.34    0.29
  -2  -7   0  208.21    7.40
   2  -7   0  215.14    7.36
   2  -7   0  214.46    7.49
  -2  -7   0  213.24    7.43
   2   7   0  188.70    7.78
  -2   7   0  209.66    8.73
  -3  -7   0    7.98    0.40
  -3  -7   0    7.82    0.41
   3  -7   0    7.29    0.36
  -3   7   0    7.55    0.48
  -3   7   0    7.65    0.51
  -4  -7   0    0.29    0.11
   4  -7   0    0.28    0.09
  -4   7   0    0.19    0.13
  -4   7   0    0.38    0.15
   5  -7   0    0.12    0.07
  -5  -7   0    0.33    0.11
  -5  -7   0    1.08    0.18
  -5   7   0    0.24    0.14
  -6  -7   0  125.37    4.58
  -6  -7   0  130.24    4.63
  -6  -7   0  129.47    4.75
   6  -7   0  112.29    4.54
  -6   7   0  125.05    5.30
  -6   7   0  128.10    4.96
  -7  -7   0    3.75    0.33
  -7  -7   0    3.31    0.28
  -7   7   0    4.14    0.49
  -7   7   0    3.14    0.36
  -8  -7   0    5.58    0.41
  -8   7   0    4.79    0.55
  -9  -7   0    3.33    0.37
  -9   7   0    2.79    0.47
 -10  -7   0   89.35    3.65
 -10  -7   0   97.39    3.65
 -10   7   0   94.95    4.00
 -11  -7   0    0.58    0.24
 -11  -7   0    0.48    0.24
 -11   7   0    0.18    0.27
 -12  -7   0   11.01    0.76
 -12  -7   0   10.79    0.74
 -12   7   0   10.15    0.90
 -13  -7   0    1.94    0.38
 -13  -7   0    1.49    0.36
 -13   7   0    1.59    0.48
   0  -8   0    9.82    0.47
   0   8   0    8.26    0.50
   0   8   0    9.05    0.71
   1  -8   0  107.68    3.75
  -1  -8   0  101.10    3.76
   1  -8   0  110.15    3.84
  -1  -8   0  110.47    3.81
  -1   8   0  103.95    4.57
   1   8   0   95.89    4.68
   1   8   0   99.24    4.02
   2  -8   0   12.64    0.54
  -2  -8   0   12.79    0.58
  -2  -8   0   12.46    0.58
   2  -8   0   13.64    0.64
   2   8   0   11.07    0.93
  -2   8   0   12.69    0.67
  -2   8   0   12.27    0.77
   2   8   0   11.23    0.55
  -3  -8   0  104.43    3.81
  -3  -8   0  103.24    3.79
   3  -8   0  103.35    3.73
  -3   8   0  105.86    4.10
  -3   8   0  103.13    4.48
  -4  -8   0   46.66    1.79
  -4  -8   0   45.67    1.81
  -4   8   0   46.04    2.10
  -4   8   0   46.04    1.97
  -5  -8   0   50.06    1.91
  -5  -8   0   48.44    1.87
   5  -8   0   45.09    1.82
  -5   8   0   46.27    2.16
  -5   8   0   50.15    2.08
  -6  -8   0    3.56    0.31
  -6  -8   0    3.49    0.24
  -6  -8   0    3.23    0.30
   6  -8   0    3.28    0.27
  -6   8   0    3.19    0.35
  -7  -8   0   78.83    2.99
  -7  -8   0   73.33    2.92
  -7   8   0   78.83    3.24
  -8  -8   0    0.34    0.17
  -8  -8   0    0.61    0.19
  -8   8   0    0.34    0.24
  -9  -8   0   18.66    1.01
  -9  -8   0   21.24    1.01
  -9   8   0   20.76    1.19
 -10  -8   0    3.36    0.40
 -10  -8   0    2.79    0.40
 -10   8   0    2.52    0.48
 -11  -8   0   56.81    2.46
 -11  -8   0   59.42    2.43
 -11   8   0   58.55    2.75
 -12  -8   0   13.71    0.88
 -12  -8   0   13.74    0.87
 -12   8   0   13.63    1.07
   0  -9   0    0.07    0.07
   0  -9   0    0.07    0.09
   0   9   0    0.02    0.20
   0   9   0    0.54    0.16
  -1  -9   0  197.95    6.70
  -1  -9   0  177.18    6.63
   1  -9   0  198.22    6.74
   1   9   0  179.96    8.11
  -1   9   0  187.13    7.97
   1   9   0  175.25    7.07
  -2  -9   0  314.73   10.74
  -2  -9   0  299.78   10.68
   2  -9   0  298.35   10.80
   2   9   0  284.72   11.28
  -2   9   0  304.50   12.64
   2   9   0  300.39   12.94
  -2   9   0  307.65   11.41
  -3  -9   0   29.79    1.15
  -3  -9   0   29.24    1.17
  -3   9   0   28.90    1.30
   3   9   0   24.52    1.11
  -3   9   0   28.61    1.42
  -4  -9   0    3.33    0.27
  -4  -9   0    2.86    0.25
   4  -9   0    2.66    0.20
  -4   9   0    2.98    0.37
  -4   9   0    2.94    0.35
   5  -9   0   64.78    2.49
  -5  -9   0   67.84    2.54
  -5   9   0   67.44    2.80
  -5   9   0   66.89    2.97
  -7  -9   0    0.77    0.21
  -7  -9   0    0.54    0.18
   7  -9   0    0.43    0.15
  -7   9   0    0.54    0.24
  -8  -9   0   30.60    1.36
  -8  -9   0   28.64    1.28
  -8   9   0   27.42    1.49
  -9  -9   0   31.04    1.41
  -9  -9   0   33.60    1.49
  -9   9   0   30.95    1.66
 -10  -9   0   46.04    1.98
 -10  -9   0   45.40    2.04
 -10   9   0   49.91    2.32
 -11  -9   0    1.05    0.29
 -11  -9   0    1.03    0.29
 -11   9   0    0.85    0.37
 -12  -9   0    6.77    0.60
 -12  -9   0    6.25    0.57
 -12   9   0    5.18    0.74
   0 -10   0   81.31    3.07
   0 -10   0   86.24    3.15
   0  10   0   84.50    3.94
   1 -10   0   26.19    1.05
  -1 -10   0   25.56    1.07
  -1 -10   0   26.63    1.10
   1 -10   0   27.15    1.14
   1  10   0   25.52    1.60
  -1  10   0   26.23    1.22
   1  10   0   26.52    1.19
  -1  10   0   25.48    1.47
  -2 -10   0    7.46    0.42
   2 -10   0    8.18    0.49
  -2 -10   0    7.89    0.43
   2 -10   0    7.43    0.38
   2  10   0    7.36    0.91
   2  10   0    7.02    0.41
  -2  10   0    7.49    0.65
  -2  10   0    7.24    0.51
  -3 -10   0   78.62    2.93
   3 -10   0   76.98    3.01
  -3 -10   0   79.70    2.95
   3 -10   0   78.62    2.87
  -3  10   0   82.68    3.21
   3  10   0   70.95    2.99
  -3  10   0   82.66    3.54
  -4 -10   0  175.25    6.18
  -4 -10   0  172.96    6.17
   4 -10   0  166.29    6.08
  -4  10   0  169.13    7.24
  -4  10   0  167.34    6.62
   5 -10   0    9.71    0.50
  -5 -10   0    9.96    0.55
  -5  10   0   10.60    0.70
  -5  10   0   10.34    0.69
   6 -10   0   12.33    0.61
  -6 -10   0   13.62    0.67
  -6  10   0   12.55    0.78
  -6  10   0    9.64    0.73
  -7 -10   0   50.65    2.06
   7 -10   0   47.82    1.96
  -7 -10   0   47.80    1.98
  -7  10   0   52.26    2.28
  -8 -10   0  134.35    4.93
  -8 -10   0  128.11    4.86
  -8  10   0  128.82    5.32
  -9 -10   0   17.91    1.00
  -9 -10   0   19.16    0.96
  -9  10   0   19.25    1.18
 -10 -10   0    9.04    0.66
 -10 -10   0    8.61    0.62
 -10  10   0    8.38    0.78
 -11 -10   0   27.10    1.32
 -11 -10   0   28.02    1.38
 -11  10   0   24.50    1.55
 -12 -10   0   14.38    0.93
 -12 -10   0   13.54    0.88
 -12  10   0   14.12    1.12
   0 -11   0    0.42    0.11
   0  11   0    1.03    0.37
   0  11   0    0.05    0.14
  -1 -11   0  220.65    7.71
   1 -11   0  212.62    7.61
   1 -11   0  217.57    7.75
  -1 -11   0  209.38    7.63
  -1  11   0  202.60    8.19
  -1  11   0  218.20    9.24
   1  11   0  201.98    8.15
   1  11   0  229.93    9.45
  -2 -11   0    4.34    0.32
   2 -11   0    4.75    0.30
   2 -11   0    4.31    0.36
  -2 -11   0    4.66    0.34
   2  11   0    4.55    0.32
  -2  11   0    5.02    0.43
   2  11   0    4.59    0.74
  -2  11   0    4.60    0.57
  -3 -11   0   60.74    2.19
   3 -11   0   55.93    2.10
   3 -11   0   57.33    2.26
  -3 -11   0   55.89    2.18
   3  11   0   50.12    2.17
  -3  11   0   56.80    2.39
  -3  11   0   56.93    2.68
  -4 -11   0    0.63    0.16
   4 -11   0    1.10    0.16
  -4 -11   0    1.22    0.20
  -4  11   0    0.83    0.24
  -4  11   0    0.77    0.27
  -5 -11   0  110.01    4.00
   5 -11   0  106.55    3.92
  -5  11   0  107.29    4.36
  -5  11   0  105.50    4.70
  -6 -11   0   11.64    0.69
  -6 -11   0   13.86    0.69
   6 -11   0   10.50    0.60
  -6  11   0   13.46    0.83
  -6  11   0   12.65    0.83
  -7 -11   0   35.81    1.56
   7 -11   0   33.24    1.45
  -7 -11   0   33.64    1.48
  -7  11   0   37.50    1.76
  -8 -11   0    2.69    0.36
  -8 -11   0    2.34    0.32
  -8  11   0    1.81    0.41
  -9 -11   0   98.03    3.84
  -9 -11   0  101.21    3.91
  -9  11   0  100.96    4.28
 -10 -11   0   24.93    1.29
 -10 -11   0   24.84    1.23
 -10  11   0   25.43    1.50
 -11 -11   0    0.53    0.27
 -11 -11   0    0.48    0.25
 -11  11   0    0.63    0.37
 -12 -11   0    0.50    0.27
 -12 -11   0    0.20    0.26
 -12  11   0    0.04    0.35
   0 -12   0  198.69    7.12
   0 -12   0  215.17    7.24
   0  12   0  178.53    7.65
   0  12   0  203.92    8.79
   1 -12   0    4.28    0.37
  -1 -12   0    4.61    0.35
   1 -12   0    4.41    0.30
  -1 -12   0    4.20    0.31
  -1  12   0    3.91    0.60
  -1  12   0    3.68    0.43
   1  12   0    4.15    0.72
   2 -12   0    0.23    0.10
   2 -12   0    0.13    0.14
  -2 -12   0    0.37    0.12
  -2 -12   0    0.28    0.14
  -2  12   0    0.34    0.19
  -2  12   0    0.15    0.24
   2  12   0    0.31    0.37
   2  12   0    0.28    0.12
  -3 -12   0    5.13    0.37
  -3 -12   0    5.54    0.38
   3 -12   0    5.33    0.43
   3 -12   0    5.49    0.33
   3  12   0    4.68    0.30
  -3  12   0    4.53    0.50
  -3  12   0    4.49    0.58
   4 -12   0  194.23    7.12
  -4 -12   0  197.00    7.23
  -4 -12   0  208.29    7.24
  -4  12   0  200.23    7.77
  -4  12   0  198.13    8.55
   5 -12   0    0.18    0.11
  -5 -12   0    0.26    0.16
  -5 -12   0    0.24    0.15
  -5  12   0    0.07    0.23
  -5  12   0    0.28    0.22
   6 -12   0   13.10    0.66
  -6 -12   0   15.35    0.78
  -6 -12   0   11.55    0.69
  -6  12   0   13.46    0.90
  -6  12   0   12.57    0.87
  -7 -12   0    1.94    0.31
  -7 -12   0    2.20    0.33
  -7  12   0    1.38    0.37
  -8 -12   0   78.00    3.17
  -8 -12   0   81.50    3.12
  -8  12   0   79.56    3.49
  -9 -12   0    1.33    0.29
  -9 -12   0    0.92    0.27
  -9  12   0    0.83    0.35
 -10 -12   0   19.18    1.07
 -10 -12   0   19.16    1.01
 -10  12   0   16.44    1.20
 -11 -12   0    1.06    0.30
 -11 -12   0    0.85    0.30
 -11  12   0    0.48    0.37
   0 -13   0    0.39    0.13
   0  13   0    0.44    0.21
   0  13   0    1.56    0.48
   1 -13   0   82.32    3.05
  -1 -13   0   75.56    2.94
   1 -13   0   78.30    2.92
  -1 -13   0   83.06    3.02
  -1  13   0   78.68    3.82
  -1  13   0   77.17    3.26
   1  13   0   70.86    3.17
   1  13   0   82.15    4.01
  -2 -13   0    1.65    0.25
  -2 -13   0    1.87    0.25
   2 -13   0    1.97    0.22
   2 -13   0    2.02    0.30
   2  13   0    1.64    0.23
   2  13   0    1.55    0.54
  -2  13   0    1.78    0.33
  -2  13   0    1.38    0.41
   3 -13   0   38.35    1.71
  -3 -13   0   41.39    1.65
  -3 -13   0   38.91    1.63
   3 -13   0   39.46    1.56
  -3  13   0   40.64    1.85
  -3  13   0   40.01    2.12
  -4 -13   0    0.13    0.13
   4 -13   0    0.18    0.11
  -4 -13   0    0.41    0.15
  -4  13   0    0.27    0.21
  -4  13   0    0.18    0.28
  -5 -13   0  134.76    4.90
  -5 -13   0  131.68    4.92
   5 -13   0  128.95    4.80
  -5  13   0  129.87    5.82
  -5  13   0  135.10    5.34
   6 -13   0    4.42    0.35
  -6 -13   0    4.78    0.48
  -6 -13   0    4.63    0.41
  -6  13   0    3.76    0.52
  -7 -13   0   22.53    1.07
  -7 -13   0   22.14    1.12
  -7  13   0   21.48    1.27
  -8 -13   0    0.19    0.19
  -8 -13   0    0.68    0.25
  -8  13   0    0.37    0.31
  -9 -13   0   30.29    1.39
  -9 -13   0   29.92    1.46
  -9  13   0   28.27    1.64
 -10 -13   0    2.36    0.39
 -10 -13   0    2.67    0.43
 -10  13   0    2.63    0.55
 -11 -13   0    1.56    0.36
 -11  13   0    1.97    0.51
   0 -14   0   93.56    3.53
   0 -14   0   97.19    3.64
   0  14   0  106.25    4.74
   0  14   0   86.50    3.86
   1 -14   0    0.61    0.15
  -1 -14   0    0.60    0.19
   1 -14   0    0.48    0.19
  -1 -14   0    0.61    0.16
   1  14   0    0.41    0.22
   1  14   0    0.22    0.43
  -1  14   0    0.43    0.35
  -1  14   0    0.61    0.25
  -2 -14   0    0.21    0.15
   2 -14   0   -0.02    0.14
  -2 -14   0    0.16    0.12
   2 -14   0    0.16    0.11
   2  14   0    0.08    0.36
  -2  14   0    0.63    0.24
   2  14   0    0.20    0.07
  -2  14   0    0.35    0.33
  -3 -14   0   11.05    0.64
  -3 -14   0   11.55    0.64
   3 -14   0   13.66    0.75
   3 -14   0   11.38    0.58
  -3  14   0   10.84    0.78
  -3  14   0   12.14    1.00
  -4 -14   0  114.61    4.32
   4 -14   0  114.15    4.22
  -4 -14   0  113.94    4.34
  -4  14   0  115.13    4.72
  -4  14   0  120.67    5.27
  -5 -14   0    3.17    0.36
  -5 -14   0    3.14    0.38
   5 -14   0    3.11    0.28
  -5  14   0    2.93    0.47
  -5  14   0    3.02    0.52
  -6 -14   0    7.00    0.51
  -6 -14   0    6.62    0.51
  -6  14   0    6.87    0.73
  -7 -14   0    4.11    0.44
  -7 -14   0    4.07    0.47
  -7  14   0    4.11    0.59
  -8 -14   0   49.17    2.16
  -8 -14   0   51.20    2.09
  -8  14   0   48.58    2.41
  -9 -14   0    0.74    0.26
  -9 -14   0    0.69    0.27
  -9  14   0    0.83    0.38
 -10 -14   0    6.38    0.66
 -10  14   0    6.51    0.83
 -11 -14   0    5.62    0.64
 -11  14   0    3.83    0.69
   0 -15   0    0.42    0.19
   0 -15   0    0.20    0.13
   0  15   0    0.98    0.48
   0  15   0    0.35    0.23
  -1 -15   0   60.48    2.35
   1 -15   0   57.86    2.25
  -1 -15   0   56.78    2.27
   1 -15   0   58.37    2.37
  -1  15   0   61.67    3.16
   1  15   0   60.83    3.32
  -1  15   0   53.51    2.54
   1  15   0   57.70    2.49
   2 -15   0   32.57    1.45
  -2 -15   0   29.02    1.32
  -2 -15   0   33.76    1.39
   2 -15   0   29.61    1.27
  -2  15   0   29.31    1.89
   2  15   0   30.45    2.17
  -2  15   0   31.53    1.57
   3 -15   0   29.99    1.42
  -3 -15   0   30.30    1.34
  -3 -15   0   28.80    1.32
   3 -15   0   29.62    1.25
  -3  15   0   31.14    1.55
  -3  15   0   31.55    1.86
  -4 -15   0    1.85    0.29
  -4 -15   0    1.79    0.29
   4 -15   0    2.03    0.25
  -4  15   0    1.51    0.36
  -4  15   0    2.20    0.54
  -5 -15   0   72.46    2.83
  -5 -15   0   71.62    2.86
  -5  15   0   73.93    3.50
  -5  15   0   69.41    3.15
  -6 -15   0   27.07    1.23
  -6 -15   0   25.90    1.26
  -6  15   0   24.67    1.44
  -7 -15   0   17.25    0.91
  -7 -15   0   16.15    0.94
  -7  15   0   16.77    1.13
  -8 -15   0    0.83    0.26
  -8 -15   0    0.34    0.25
  -8  15   0    0.14    0.29
  -9 -15   0   33.31    1.51
  -9 -15   0   31.11    1.56
  -9  15   0   30.19    1.79
 -10 -15   0   11.83    0.86
 -10  15   0   12.67    1.06
   0 -16   0   22.48    1.05
   0 -16   0   23.96    1.16
   0  16   0   24.13    1.28
   0  16   0   23.50    1.79
  -1 -16   0   50.10    2.07
   1 -16   0   52.83    2.05
  -1 -16   0   53.16    2.15
   1 -16   0   52.32    2.18
   1  16   0   55.75    3.14
  -1  16   0   53.68    2.96
  -1  16   0   47.87    2.34
   2 -16   0    0.14    0.19
  -2 -16   0   -0.09    0.11
   2 -16   0    0.10    0.12
  -2 -16   0    0.03    0.16
  -2  16   0    0.24    0.24
   2  16   0   -0.33    0.43
  -2  16   0   -0.06    0.33
  -3 -16   0   43.89    1.86
   3 -16   0   45.42    1.98
  -3 -16   0   46.40    1.88
   3 -16   0   45.79    1.78
  -3  16   0   45.70    2.53
  -3  16   0   40.92    2.09
   4 -16   0   76.31    2.99
  -4 -16   0   77.96    3.10
  -4 -16   0   79.29    3.10
  -4  16   0   81.18    3.46
  -4  16   0   83.42    3.94
  -5 -16   0   23.34    1.13
  -5 -16   0   22.90    1.15
  -5  16   0   22.86    1.35
  -5  16   0   24.83    1.57
  -6 -16   0    1.81    0.32
  -6 -16   0    1.94    0.33
  -6  16   0    1.41    0.41
  -7 -16   0   13.35    0.80
  -7 -16   0   14.37    0.86
  -7  16   0   13.60    1.02
  -8 -16   0   24.11    1.28
  -8 -16   0   25.00    1.24
  -8  16   0   24.99    1.52
  -9 -16   0    1.43    0.34
  -9  16   0    1.96    0.51
 -10 -16   0    2.45    0.43
 -10  16   0    1.86    0.54
   0 -17   0    0.06    0.13
   0 -17   0    0.11    0.19
   0  17   0    0.15    0.24
   0  17   0    0.33    0.47
  -1 -17   0   13.34    0.75
   1 -17   0   14.04    0.74
  -1 -17   0   14.69    0.84
   1 -17   0   15.72    0.88
  -1  17   0   14.46    0.97
  -1  17   0   16.15    1.42
   1  17   0   16.19    1.55
   2 -17   0   80.74    3.12
  -2 -17   0   73.58    2.95
   2 -17   0   77.27    2.91
  -2 -17   0   77.90    3.02
  -2  17   0   78.31    3.97
  -2  17   0   70.34    3.30
  -3 -17   0    8.62    0.59
  -3 -17   0    9.93    0.64
   3 -17   0    9.68    0.55
  -3  17   0   10.82    0.83
  -3  17   0   11.27    1.12
  -4 -17   0    1.81    0.32
  -4 -17   0    1.87    0.31
  -4  17   0    1.86    0.56
  -4  17   0    1.89    0.42
  -5 -17   0   14.16    0.83
  -5 -17   0   14.62    0.84
  -5  17   0   15.46    1.05
  -6 -17   0   49.79    2.05
  -6 -17   0   48.15    2.09
  -6  17   0   46.31    2.36
  -7 -17   0    2.51    0.40
  -7 -17   0    2.91    0.40
  -7  17   0    3.03    0.56
  -8 -17   0    3.03    0.46
  -8  17   0    2.57    0.55
  -9 -17   0    7.18    0.64
  -9  17   0    7.67    0.93
   0 -18   0    9.73    0.61
   0 -18   0   10.83    0.73
   0  18   0   13.41    1.38
  -1 -18   0   38.80    1.64
   1 -18   0   38.22    1.75
   1 -18   0   36.66    1.60
  -1 -18   0   41.78    1.75
   1  18   0   39.56    2.66
  -1  18   0   36.31    1.90
  -1  18   0   40.24    2.56
   2 -18   0    2.88    0.33
  -2 -18   0    3.18    0.41
   2 -18   0    3.29    0.46
  -2 -18   0    3.00    0.37
  -2  18   0    2.85    0.71
  -2  18   0    2.66    0.49
  -3 -18   0   56.46    2.28
  -3 -18   0   59.69    2.33
   3 -18   0   53.87    2.18
   3 -18   0   57.41    2.42
  -3  18   0   50.96    2.58
  -3  18   0   55.05    3.11
  -4 -18   0    4.78    0.49
  -4 -18   0    5.03    0.46
  -4  18   0    6.19    0.73
  -4  18   0    4.69    0.82
  -5 -18   0    9.32    0.66
  -5 -18   0    8.57    0.62
  -5  18   0    8.90    0.81
  -6 -18   0    0.13    0.19
  -6 -18   0    0.32    0.22
  -6  18   0    0.15    0.30
  -7 -18   0   35.68    1.70
  -7  18   0   36.74    1.99
  -8 -18   0    4.57    0.58
  -8  18   0    4.71    0.73
  -9 -18   0    3.19    0.51
  -9  18   0    3.40    0.66
   0 -19   0    0.38    0.23
   0 -19   0    0.36    0.18
   0  19   0    0.39    0.60
   1 -19   0    5.51    0.42
  -1 -19   0    4.59    0.53
   1 -19   0    4.53    0.53
  -1 -19   0    4.87    0.42
  -1  19   0    5.23    0.98
   1  19   0    4.48    1.01
  -2 -19   0   75.65    3.06
   2 -19   0   77.94    3.00
  -2 -19   0   80.07    3.15
   2 -19   0   80.34    3.22
  -2  19   0   75.94    3.46
  -2  19   0   79.87    4.23
  -3 -19   0    0.28    0.23
  -3 -19   0    0.41    0.20
   3 -19   0    0.33    0.26
  -3  19   0    0.45    0.50
  -3  19   0    0.11    0.28
  -4 -19   0    3.06    0.40
  -4 -19   0    2.08    0.37
  -4  19   0    3.28    0.72
  -4  19   0    2.32    0.51
  -5 -19   0    2.85    0.41
  -5 -19   0    2.34    0.37
  -5  19   0    1.80    0.46
  -6 -19   0   54.54    2.37
  -6  19   0   55.49    2.71
  -7 -19   0    0.08    0.19
  -7  19   0   -0.33    0.26
  -8 -19   0    7.34    0.65
  -8  19   0    6.36    0.86
   0 -20   0   23.23    1.19
   0 -20   0   19.66    1.02
   0  20   0   21.25    1.89
  -1 -20   0   50.50    2.08
  -1 -20   0   42.55    1.91
   1 -20   0   47.24    2.08
   1 -20   0   44.55    1.90
  -1  20   0   46.77    2.99
  -2 -20   0    1.09    0.25
  -2 -20   0    0.79    0.29
   2 -20   0    1.06    0.33
  -2  20   0    0.83    0.36
  -2  20   0    1.69    0.67
  -3 -20   0   28.15    1.35
  -3 -20   0   29.10    1.40
  -3  20   0   25.74    1.60
  -3  20   0   32.15    2.17
  -4 -20   0    2.79    0.42
  -4 -20   0    2.45    0.38
  -4  20   0    2.62    0.53
  -4  20   0    2.37    0.71
  -5 -20   0   18.65    1.02
  -5  20   0   16.49    1.23
  -6 -20   0    4.23    0.52
  -6  20   0    4.09    0.69
  -7 -20   0   32.24    1.59
  -7  20   0   31.00    1.87
   0 -21   0    0.54    0.30
   0 -21   0    0.24    0.18
   0  21   0   -0.12    0.55
   1 -21   0   14.68    0.80
  -1 -21   0   15.76    0.95
  -1 -21   0   14.55    0.83
   1 -21   0   14.70    0.96
  -1  21   0   13.12    1.63
  -2 -21   0   42.76    1.98
   2 -21   0   44.46    2.05
  -2 -21   0   41.84    1.88
  -2  21   0   49.28    2.99
  -3 -21   0    4.10    0.47
  -3  21   0    3.89    0.91
  -3  21   0    3.02    0.58
  -4 -21   0   -0.15    0.16
  -4  21   0   -0.51    0.27
  -5 -21   0   12.76    0.83
  -5  21   0   13.34    1.09
  -6 -21   0   27.76    1.42
  -6  21   0   26.68    1.70
   0 -22   0   16.53    0.91
   0 -22   0   18.06    1.07
  -1 -22   0   11.34    0.73
   1 -22   0   12.58    0.90
  -1 -22   0   12.08    0.86
  -1  22   0   15.91    1.65
   2 -22   0    3.79    0.55
  -2 -22   0    4.23    0.48
  -2  22   0    3.80    0.91
  -3 -22   0   12.77    0.81
  -3  22   0   12.81    1.60
  -4 -22   0   27.99    1.38
  -4  22   0   26.26    1.66
  -5 -22   0    5.41    0.59
  -5  22   0    6.19    0.85
   0 -23   0    0.30    0.30
   1 -23   0   13.28    0.92
  -1 -23   0   11.52    0.75
  -2 -23   0    7.19    0.57
   2 -23   0    6.66    0.73
  -2  23   0    7.13    1.24
  -3 -23   0   12.47    0.81
  -4 -23   0   -0.07    0.20
   1 -24   0    1.72    0.44
  -2 -24   0   -0.09    0.19
 -13   0   1   25.75    1.35
 -12   0   1   -0.19    0.23
 -12   0   1   -0.05    0.23
 -11   0   1   55.55    2.44
 -11   0   1   53.44    2.28
 -10   0   1    0.31    0.22
 -10   0   1    0.49    0.22
  -9   0   1   27.67    1.25
  -9   0   1   26.72    1.32
  -8   0   1    0.02    0.16
  -8   0   1    0.11    0.16
  -8   0   1    0.39    0.28
  -7   0   1  231.94    8.46
  -7   0   1  237.47    8.94
  -6   0   1    0.28    0.13
  -6   0   1    0.14    0.12
  -5   0   1   80.37    3.15
  -5   0   1   80.59    2.99
  -4   0   1    0.06    0.07
  -3   0   1  281.40   10.26
  -3   0   1  294.07   10.78
  -2   0   1    0.02    0.02
   1   0  -1   66.58    2.52
   1   0  -1   72.29    2.94
  -1   0   1   74.13    2.70
   0   0   1    0.04    0.02
   0   0  -1   -0.01    0.02
   0   0  -1    0.06    0.02
   0   0   1    0.05    0.02
  -1   0  -1 1000.00   38.85
  -1   0  -1  870.32   34.36
  -2   0  -1    0.06    0.08
  -3   0  -1    7.31    0.50
  -4   0  -1    0.13    0.07
  -5   0  -1   78.12    3.16
  -5   0  -1   83.18    3.58
  -6   0  -1    0.33    0.13
  -6   0  -1   -0.51    0.19
  -7   0  -1   11.64    0.67
  -7   0  -1   12.06    0.87
  -8   0  -1    0.15    0.27
  -8   0  -1    0.39    0.17
  -9   0  -1  180.61    7.09
  -9   0  -1  190.71    7.94
  -9   0  -1  175.68    6.68
 -10   0  -1    0.23    0.20
 -10   0  -1   -0.10    0.20
 -11   0  -1   16.04    0.99
 -11   0  -1   17.25    0.94
 -12   0  -1    0.12    0.23
 -12   0  -1   -0.01    0.23
 -13   0  -1   70.13    3.13
 -13   0  -1   69.80    2.93
 -13  -1   1    2.36    0.43
 -13   1   1    3.46    0.49
 -13   1   1    2.20    0.48
 -12  -1   1   73.39    3.04
 -12   1   1   74.70    3.06
 -12   1   1   76.38    3.28
 -11  -1   1    0.88    0.31
 -11  -1   1    1.07    0.30
 -11   1   1    0.88    0.28
 -11   1   1    0.87    0.30
 -10  -1   1    2.36    0.36
 -10  -1   1    2.69    0.38
 -10   1   1    1.92    0.36
 -10   1   1    2.14    0.35
  -9  -1   1   10.91    0.65
  -9  -1   1   10.04    0.67
  -9  -1   1   11.17    0.85
  -9   1   1   11.03    0.71
  -9   1   1   10.02    0.63
  -8  -1   1  129.73    4.84
  -8  -1   1  127.30    5.09
  -8   1   1  130.56    5.13
  -8   1   1  134.74    5.62
  -8   1   1  129.35    4.84
  -7  -1   1   12.68    0.68
  -7  -1   1   12.31    0.66
  -7   1   1   12.00    0.69
  -6  -1   1   33.90    1.41
  -6  -1   1   31.24    1.34
  -6   1   1   34.23    1.44
  -6   1   1   32.22    1.54
  -5  -1   1  164.80    6.26
  -5  -1   1  160.99    5.94
  -5   1   1  159.94    6.28
  -5   1   1  173.04    6.90
  -4  -1   1  260.83    9.82
  -4  -1   1  260.73    9.32
  -4   1   1  264.50    9.86
   3  -1  -1    3.81    0.25
  -3  -1   1    4.76    0.27
  -3  -1   1    4.38    0.26
  -3   1   1    4.83    0.30
  -2  -1   1  172.27    5.81
   2  -1  -1  144.74    5.47
  -2  -1   1  152.57    5.51
  -2   1   1  168.76    5.85
   2   1  -1  136.67    6.46
  -1  -1   1   22.86    0.89
   1   1  -1   22.35    1.00
   1  -1   1    3.67    0.19
  -1  -1  -1    4.20    0.18
  -1   1  -1    4.05    0.26
  -2   1  -1  216.03    8.96
  -3   1  -1   84.74    3.55
  -3   1  -1   80.20    3.18
  -4   1  -1   61.75    2.69
  -4   1  -1   59.36    2.40
  -5  -1  -1    1.52    0.21
  -5   1  -1    1.05    0.25
  -5   1  -1    1.40    0.21
  -6  -1  -1  221.76    8.40
  -6   1  -1  215.34    8.41
  -6   1  -1  226.49    9.35
  -7  -1  -1   60.54    2.56
  -7  -1  -1   65.47    2.98
  -7   1  -1   63.58    2.92
  -7   1  -1   61.75    2.58
  -8  -1  -1   57.97    2.37
  -8  -1  -1   61.97    2.53
  -8  -1  -1   63.25    2.95
  -8   1  -1   60.68    2.87
  -8   1  -1   59.26    2.54
  -9  -1  -1    1.33    0.28
  -9  -1  -1    2.17    0.34
  -9  -1  -1    1.69    0.49
  -9   1  -1    2.12    0.34
 -10  -1  -1  116.70    4.68
 -10  -1  -1  123.03    5.34
 -10  -1  -1  109.43    4.40
 -10   1  -1  116.63    4.71
 -11  -1  -1    7.49    0.59
 -11  -1  -1    7.22    0.62
 -11   1  -1    7.97    0.66
 -11   1  -1    8.02    0.59
 -12  -1  -1   15.28    0.97
 -12  -1  -1   14.83    0.90
 -12   1  -1   16.09    1.02
 -12   1  -1   14.17    0.90
 -13  -1  -1    1.32    0.36
 -13   1  -1    1.17    0.39
 -13   1  -1    1.12    0.35
 -13  -2   1   11.14    0.78
 -13   2   1    9.39    0.74
 -13   2   1    9.82    0.86
 -12  -2   1    0.04    0.25
 -12   2   1    0.06    0.28
 -12   2   1    0.36    0.29
 -11  -2   1   56.62    2.30
 -11  -2   1   56.13    2.41
 -11   2   1   51.64    2.28
 -11   2   1   53.90    2.47
 -10  -2   1   40.41    1.85
 -10  -2   1   41.23    1.78
 -10   2   1   42.23    1.79
 -10   2   1   41.05    1.93
  -9  -2   1    8.50    0.58
  -9  -2   1    8.53    0.56
  -9   2   1    7.61    0.61
  -8  -2   1    0.25    0.19
  -8  -2   1    0.48    0.18
  -8   2   1    0.35    0.20
  -7  -2   1   93.89    3.64
  -7  -2   1   98.99    3.82
  -7   2   1   99.48    4.19
  -7   2   1   96.97    3.88
  -6  -2   1  102.15    4.04
  -6  -2   1  102.82    3.87
  -6   2   1  109.84    4.45
  -6   2   1  103.60    4.11
  -5  -2   1    6.20    0.34
  -5  -2   1    5.30    0.34
  -5   2   1    4.90    0.37
  -5   2   1    5.47    0.39
  -4  -2   1   33.27    1.31
  -4  -2   1   34.90    1.35
   4  -2  -1   28.00    1.29
  -4   2   1   35.95    1.47
  -4   2   1   36.52    1.43
  -3  -2   1  146.41    5.26
   3  -2  -1  128.31    4.98
  -3  -2   1  140.58    5.02
  -3   2   1  144.83    5.33
  -2  -2   1   47.60    1.63
  -2  -2   1   47.20    1.68
   2  -2  -1   40.88    1.61
  -2   2   1   48.39    1.76
   2   2  -1   36.68    1.96
  -1  -2   1  116.35    4.75
  -1  -2   1  136.31    4.55
   1  -2  -1  129.47    4.57
   1   2  -1  129.39    5.34
   0  -2  -1   15.25    0.61
   0   2  -1   17.48    0.77
   0   2   1   17.79    0.70
  -1  -2  -1  578.28   19.84
  -1  -2  -1  574.52   19.91
  -1   2  -1  601.61   23.39
   1   2   1  493.70   21.04
  -2  -2  -1   32.17    1.16
  -2  -2  -1   31.67    1.17
  -2   2  -1   29.18    1.26
  -2   2  -1   32.90    1.42
  -3  -2  -1    0.24    0.07
  -3   2  -1    0.01    0.09
  -3   2  -1    0.05    0.07
  -4  -2  -1   66.35    2.45
  -4   2  -1   64.61    2.63
  -4   2  -1   69.08    2.93
  -5  -2  -1  398.07   14.76
  -5   2  -1  416.99   15.64
  -5   2  -1  435.45   17.28
  -6  -2  -1   20.66    0.91
  -6  -2  -1   21.38    0.97
  -6   2  -1   20.75    1.00
  -6   2  -1   21.04    1.15
  -7  -2  -1    4.46    0.36
  -7  -2  -1    4.25    0.33
  -7   2  -1    4.01    0.38
  -7   2  -1    4.02    0.49
  -8  -2  -1   27.96    1.24
  -8  -2  -1   26.22    1.29
  -8   2  -1   30.14    1.55
  -8   2  -1   29.11    1.36
  -9  -2  -1  114.66    4.46
  -9  -2  -1  121.87    4.73
  -9  -2  -1  123.46    5.43
  -9   2  -1  115.27    4.77
  -9   2  -1  120.62    5.28
 -10  -2  -1    3.85    0.43
 -10  -2  -1    3.87    0.68
 -10  -2  -1    4.35    0.49
 -10   2  -1    4.43    0.52
 -11  -2  -1    8.96    0.68
 -11  -2  -1    8.77    0.64
 -11   2  -1    9.27    0.73
 -12  -2  -1   14.71    0.89
 -12   2  -1   14.90    0.91
 -12   2  -1   14.25    0.99
 -13  -2  -1   41.38    1.87
 -13  -2  -1   41.72    1.91
 -13   2  -1   41.30    2.10
 -13   2  -1   42.06    1.94
 -13  -3   1    7.67    0.68
 -13   3   1    8.86    0.82
 -13   3   1    9.81    0.74
 -12  -3   1   49.50    2.16
 -12   3   1   48.71    2.37
 -12   3   1   51.14    2.19
 -11  -3   1   19.79    1.07
 -11   3   1   20.22    1.21
 -11   3   1   22.15    1.12
 -10  -3   1    2.66    0.36
 -10  -3   1    1.80    0.32
 -10   3   1    1.73    0.37
  -9  -3   1   38.54    1.69
  -9  -3   1   41.48    1.77
  -9   3   1   40.73    1.86
  -8  -3   1   41.94    1.79
  -8  -3   1   44.70    1.87
  -8   3   1   45.86    1.97
  -7  -3   1   29.94    1.34
  -7  -3   1   30.87    1.32
  -7   3   1   33.91    1.47
  -7   3   1   30.03    1.44
  -6  -3   1    4.81    0.33
  -6  -3   1    4.94    0.34
  -6   3   1    5.33    0.42
  -6   3   1    5.61    0.40
  -5  -3   1   88.05    3.42
  -5  -3   1   88.97    3.29
  -5   3   1   89.72    3.53
  -5   3   1   90.25    3.75
  -4  -3   1  167.15    6.31
  -4  -3   1  167.91    6.03
  -4   3   1  175.19    6.94
  -4   3   1  162.00    6.41
   3  -3  -1    1.94    0.15
  -3  -3   1    2.11    0.13
  -3  -3   1    1.94    0.15
   3   3  -1    1.80    0.30
  -3   3   1    1.88    0.21
  -3   3   1    1.93    0.15
  -2  -3   1  161.23    5.61
   2  -3  -1  155.41    5.56
  -2   3   1  150.82    6.49
  -2   3   1  175.01    5.98
   2   3  -1  144.50    6.64
  -1  -3   1  301.38    9.69
   1  -3  -1  285.26    9.73
  -1   3   1  239.99   10.29
  -1   3   1  262.48   11.24
   0  -3   1   90.86    3.13
   0  -3  -1   82.67    3.09
   0  -3   1   87.18    3.07
   0   3  -1   85.99    3.27
   0   3   1   87.44    3.33
   0   3  -1   88.36    3.68
  -1  -3  -1   10.31    0.41
  -1  -3  -1   11.19    0.44
   1  -3   1   11.04    0.40
  -1   3  -1   11.37    0.56
   1   3   1    9.50    0.46
  -1   3  -1   11.23    0.48
  -2  -3  -1   46.40    1.65
  -2  -3  -1   45.04    1.63
   2  -3   1   40.02    1.60
  -2   3  -1   48.64    1.97
  -3  -3  -1   70.50    2.64
  -3  -3  -1   72.33    2.66
  -3   3  -1   77.07    3.15
  -3   3  -1   72.65    2.85
  -4  -3  -1   90.40    3.41
  -4   3  -1   97.02    4.03
  -4   3  -1   94.62    3.66
  -5  -3  -1    4.74    0.30
  -5   3  -1    4.85    0.36
  -5   3  -1    4.64    0.43
  -6  -3  -1  114.94    4.46
  -6  -3  -1  114.20    4.22
  -6   3  -1  113.87    4.52
  -6   3  -1  118.20    4.98
  -7  -3  -1   79.60    3.16
  -7  -3  -1   78.30    2.99
  -7   3  -1   78.60    3.23
  -7   3  -1   81.10    3.55
  -8  -3  -1   49.71    2.02
  -8  -3  -1   50.28    2.12
  -8   3  -1   50.43    2.40
  -8   3  -1   51.53    2.21
  -9  -3  -1    7.29    0.52
  -9  -3  -1    6.85    0.54
  -9   3  -1    7.99    0.61
 -10  -3  -1   32.32    1.93
 -10  -3  -1   29.96    1.42
 -10  -3  -1   33.48    1.53
 -10   3  -1   32.65    1.60
 -11  -3  -1   32.54    1.50
 -11  -3  -1   33.05    1.59
 -11   3  -1   33.28    1.68
 -12  -3  -1   10.56    0.72
 -12   3  -1   10.98    0.85
 -12   3  -1    9.86    0.72
 -13  -3  -1    3.64    0.49
 -13  -3  -1    3.40    0.47
 -13   3  -1    3.47    0.58
 -13   3  -1    3.49    0.50
 -13  -4   1   11.85    0.84
 -13   4   1   11.99    0.99
 -13   4   1   12.87    0.87
 -12  -4   1    1.20    0.31
 -12   4   1    1.23    0.38
 -12   4   1    0.74    0.28
 -11  -4   1   12.04    0.75
 -11   4   1   11.53    0.87
 -10  -4   1   74.59    2.93
 -10   4   1   73.20    3.19
  -9  -4   1    3.66    0.39
  -9  -4   1    3.51    0.38
  -9   4   1    3.18    0.44
  -8  -4   1    1.84    0.27
  -8  -4   1    3.03    0.31
  -8   4   1    2.58    0.38
  -7  -4   1   14.19    0.69
  -7  -4   1   13.60    0.70
  -7   4   1   14.20    0.81
  -7   4   1   14.40    0.75
  -6  -4   1  118.90    4.60
  -6  -4   1  120.41    4.42
  -6   4   1  125.13    5.04
  -6   4   1  116.68    4.73
   5  -4  -1    2.51    0.24
  -5  -4   1    3.47    0.26
  -5  -4   1    3.96    0.24
  -5   4   1    3.52    0.33
  -5   4   1    3.58    0.27
  -4  -4   1  138.16    5.09
  -4  -4   1  129.79    4.88
  -4   4   1  135.81    5.61
  -4   4   1  137.46    5.22
  -3  -4   1  156.96    5.46
  -3  -4   1  150.03    5.25
   3  -4  -1  136.15    5.20
   3   4  -1  135.07    6.32
  -3   4   1  146.03    6.06
  -3   4   1  152.73    5.61
  -2  -4   1  354.76   12.18
   2  -4  -1  351.02   12.10
  -2   4   1  331.88   13.97
   2   4  -1  320.66   14.14
  -1  -4   1  170.60    5.61
   1  -4  -1  153.47    5.54
  -1   4   1  148.23    6.57
  -1   4   1  159.80    5.97
   1   4  -1  153.25    5.85
   0  -4  -1   83.12    2.83
   0  -4  -1   76.99    2.83
   0  -4   1   80.19    2.80
   0  -4   1   78.07    2.86
   0   4  -1   77.44    2.98
   0   4   1   77.97    3.06
  -1  -4  -1    1.35    0.11
   1  -4   1    1.84    0.16
   1  -4   1    1.52    0.10
  -1   4  -1    1.65    0.22
  -1   4  -1    1.44    0.14
   1   4   1    1.45    0.14
  -2  -4  -1   62.50    2.26
  -2  -4  -1   62.01    2.23
   2  -4   1   58.01    2.19
  -2   4  -1   64.69    2.68
  -2   4  -1   62.33    2.41
  -3  -4  -1    0.07    0.06
  -3  -4  -1    0.05    0.05
   3  -4   1    0.03    0.04
  -3   4  -1    0.12    0.10
  -3   4  -1   -0.04    0.02
  -4  -4  -1  132.80    4.75
  -4  -4  -1  124.49    4.74
  -4   4  -1  133.88    5.08
  -4   4  -1  136.93    5.58
  -5  -4  -1   56.85    2.12
  -5   4  -1   57.81    2.52
  -5   4  -1   53.85    2.30
  -6  -4  -1   99.89    3.86
  -6  -4  -1  100.27    3.66
  -6   4  -1   98.86    4.30
  -6   4  -1   98.02    3.94
  -7  -4  -1    0.56    0.16
  -7  -4  -1    0.49    0.15
  -7   4  -1    0.86    0.23
  -7   4  -1    0.74    0.23
  -8  -4  -1   81.14    3.24
  -8  -4  -1   79.32    3.07
  -8   4  -1   81.17    3.62
  -8   4  -1   81.38    3.35
  -9  -4  -1   28.75    1.31
  -9  -4  -1   27.22    1.25
  -9   4  -1   27.62    1.41
 -10  -4  -1    9.56    0.63
 -10  -4  -1    9.65    0.65
 -10   4  -1   10.41    0.75
 -11  -4  -1    0.11    0.20
 -11  -4  -1    0.18    0.19
 -11   4  -1    0.18    0.25
 -12  -4  -1   28.03    1.37
 -12  -4  -1   27.72    1.36
 -12   4  -1   27.92    1.55
 -13  -4  -1   12.88    0.85
 -13  -4  -1   13.39    0.86
 -13   4  -1   13.29    0.90
 -13   4  -1   13.00    1.00
 -13  -5   1   35.09    1.69
 -13   5   1   33.86    1.70
 -13   5   1   36.50    1.93
 -12  -5   1    3.85    0.48
 -12   5   1    4.25    0.62
 -12   5   1    4.41    0.52
 -11  -5   1   20.06    1.06
 -11   5   1   19.74    1.22
 -10  -5   1    0.86    0.26
 -10   5   1    0.82    0.31
  -9  -5   1   62.91    2.54
  -9   5   1   64.59    2.79
  -8  -5   1   14.85    0.76
  -8  -5   1   14.35    0.73
  -8   5   1   13.98    0.87
  -7  -5   1   22.20    1.03
  -7  -5   1   23.60    1.02
  -7   5   1   22.91    1.17
  -7   5   1   23.68    1.09
  -6  -5   1    0.23    0.09
   6  -5  -1    0.13    0.11
  -6  -5   1    0.23    0.12
  -6   5   1    0.22    0.16
  -6   5   1    0.17    0.11
  -5  -5   1  287.60    9.91
  -5  -5   1  284.08   10.37
   5  -5  -1  255.69    9.84
  -5   5   1  279.92   11.44
  -5   5   1  280.18   10.54
  -4  -5   1   12.81    0.51
  -4  -5   1   11.59    0.56
  -4   5   1   11.55    0.65
  -4   5   1   11.99    0.60
   3  -5  -1    1.61    0.14
  -3  -5   1    1.33    0.16
  -3   5   1    1.57    0.18
  -2  -5   1   41.64    1.50
   2  -5  -1   40.60    1.46
   2   5  -1   36.85    1.91
  -2   5   1   37.73    1.76
  -1  -5   1  180.84    6.21
   1  -5  -1  181.35    6.21
  -1  -5   1  182.23    6.27
   1  -5  -1  176.27    6.26
   1   5  -1  161.94    6.55
  -1   5   1  182.31    6.69
  -1   5   1  164.03    7.37
   0  -5   1    0.67    0.11
   0  -5  -1    0.56    0.08
   0  -5   1    0.74    0.08
   0  -5  -1    0.66    0.09
   0   5   1    0.37    0.17
   0   5  -1    0.48    0.08
   0   5  -1    0.45    0.15
   0   5   1    0.78    0.16
  -1  -5  -1    3.28    0.19
   1  -5   1    3.23    0.23
   1  -5   1    3.79    0.17
  -1   5  -1    3.43    0.32
   1   5   1    3.07    0.23
  -1   5  -1    3.49    0.22
   2  -5   1    0.74    0.07
   2  -5   1    0.77    0.13
  -2  -5  -1    0.62    0.09
   2   5   1    0.46    0.08
  -2   5  -1    0.90    0.14
  -2   5  -1    0.69    0.15
  -3  -5  -1  209.60    7.22
  -3  -5  -1  208.44    7.23
   3  -5   1  182.63    7.14
  -3   5  -1  212.34    8.48
   4  -5   1    7.92    0.42
  -4  -5  -1   11.64    0.47
  -4  -5  -1    9.98    0.49
  -4   5  -1   10.50    0.60
  -5  -5  -1    0.66    0.13
  -5  -5  -1    0.60    0.15
  -5   5  -1    0.34    0.16
  -5   5  -1    0.98    0.21
  -6  -5  -1   13.55    0.64
  -6  -5  -1   12.65    0.66
  -6   5  -1   13.61    0.80
  -6   5  -1   14.33    0.77
  -7  -5  -1  100.01    3.91
  -7  -5  -1   98.65    3.72
  -7   5  -1  103.14    4.37
  -7   5  -1   98.27    4.03
  -8  -5  -1    0.84    0.19
  -8  -5  -1    0.64    0.18
  -8   5  -1    0.63    0.24
  -8   5  -1    0.37    0.20
  -9  -5  -1    0.91    0.22
  -9  -5  -1    1.05    0.24
  -9  -5  -1    0.96    0.23
  -9   5  -1    0.77    0.27
 -10  -5  -1    9.69    0.64
 -10  -5  -1    9.46    0.61
 -10   5  -1    9.17    0.73
 -11  -5  -1   34.76    1.58
 -11  -5  -1   35.21    1.59
 -11   5  -1   35.20    1.80
 -12  -5  -1    0.56    0.25
 -12  -5  -1    0.66    0.26
 -12   5  -1    0.39    0.30
 -13  -5  -1    3.95    0.50
 -13  -5  -1    2.99    0.45
 -13   5  -1    3.49    0.59
 -13  -6   1    0.61    0.30
 -13   6   1    0.80    0.34
 -13   6   1    1.15    0.44
 -12  -6   1    0.32    0.24
 -12   6   1    0.55    0.33
 -11  -6   1    0.06    0.20
 -11   6   1   -0.17    0.24
 -10  -6   1  106.36    4.10
 -10   6   1  107.24    4.47
  -9  -6   1    0.25    0.18
  -9   6   1    0.22    0.23
  -8  -6   1    0.31    0.17
  -8   6   1    0.11    0.19
  -7  -6   1    0.44    0.15
  -7  -6   1    0.58    0.13
  -7   6   1    0.21    0.20
  -6  -6   1  162.98    6.07
   6  -6  -1  153.32    5.82
  -6  -6   1  163.27    5.86
  -6   6   1  161.76    6.70
  -6   6   1  163.71    6.29
   5  -6  -1   20.99    0.91
  -5  -6   1   21.37    0.87
  -5  -6   1   22.01    0.93
  -5   6   1   22.11    1.07
  -5   6   1   20.89    1.00
  -4  -6   1   64.55    2.35
  -4   6   1   60.22    2.67
   3  -6  -1  154.19    5.62
  -3  -6   1  166.93    5.70
  -3   6   1  156.11    6.62
   3   6  -1  154.56    6.94
   1  -6  -1  100.51    3.53
  -1  -6   1   96.00    3.48
  -1  -6   1   98.08    3.53
   1  -6  -1   99.29    3.48
  -1   6   1   95.34    4.21
  -1   6   1   99.32    3.80
   1   6  -1   89.43    3.66
   0  -6  -1   71.59    2.63
   0  -6   1   74.27    2.60
   0  -6  -1   73.97    2.63
   0  -6   1   72.42    2.67
   0   6  -1   74.34    3.20
   0   6   1   70.37    3.26
   0   6   1   70.51    2.86
   0   6  -1   70.84    2.77
   1  -6   1   17.58    0.67
   1  -6   1   16.19    0.75
  -1  -6  -1   17.45    0.70
  -1   6  -1   16.24    0.75
  -1   6  -1   17.25    0.91
   1   6   1   17.36    0.78
  -2  -6  -1   89.88    3.16
   2  -6   1   87.37    3.11
   2  -6   1   88.69    3.25
  -2   6  -1   93.50    3.78
   2   6   1   79.28    3.34
  -3  -6  -1    0.00    0.07
   3  -6   1    0.22    0.06
  -3  -6  -1    0.09    0.07
  -3   6  -1    0.04    0.09
  -3   6  -1   -0.05    0.11
  -4  -6  -1   53.89    2.02
   4  -6   1   51.08    1.98
  -4  -6  -1   56.94    2.07
  -4   6  -1   54.58    2.41
  -4   6  -1   53.94    2.22
  -5  -6  -1    9.92    0.54
  -5  -6  -1    9.97    0.50
  -5   6  -1   10.16    0.64
  -5   6  -1    9.86    0.60
  -6  -6  -1   59.30    2.30
  -6  -6  -1   59.72    2.34
  -6   6  -1   59.39    2.53
  -6   6  -1   63.46    2.72
  -7  -6  -1    5.14    0.37
  -7  -6  -1    5.02    0.37
  -7  -6  -1    4.51    0.37
  -7   6  -1    4.56    0.49
  -7   6  -1    4.70    0.48
  -8  -6  -1   63.99    2.54
  -8  -6  -1   61.39    2.43
  -8  -6  -1   61.01    2.47
  -8   6  -1   59.66    2.68
  -8   6  -1   65.33    2.85
  -9  -6  -1   13.79    0.80
  -9  -6  -1   15.31    0.80
  -9  -6  -1   14.62    0.79
  -9   6  -1   15.02    0.94
 -10  -6  -1   26.35    1.27
 -10  -6  -1   26.53    1.25
 -10   6  -1   27.37    1.45
 -11  -6  -1    0.14    0.21
 -11  -6  -1    0.30    0.20
 -11   6  -1    0.00    0.24
 -12  -6  -1   21.86    1.17
 -12  -6  -1   21.47    1.16
 -12   6  -1   23.15    1.38
 -13  -6  -1    1.08    0.32
 -13  -6  -1    0.76    0.29
 -13   6  -1    0.82    0.39
 -13  -7   1   16.96    1.03
 -13  -7   1   16.45    1.04
 -13   7   1   18.11    1.08
 -13   7   1   17.56    1.27
 -12  -7   1    2.31    0.39
 -12   7   1    2.56    0.53
 -11  -7   1   27.38    1.33
 -11   7   1   27.85    1.56
 -10  -7   1    1.85    0.32
 -10   7   1    1.38    0.40
  -9  -7   1   98.42    3.80
  -9   7   1  100.92    4.18
  -8  -7   1    0.98    0.22
  -8   7   1    1.62    0.35
   7  -7  -1   66.07    2.61
  -7  -7   1   69.12    2.61
  -7   7   1   66.71    2.87
  -6  -7   1    1.09    0.19
  -6  -7   1    1.32    0.14
   6  -7  -1    1.11    0.19
  -6   7   1    1.06    0.26
  -6   7   1    1.11    0.19
  -5  -7   1  171.62    6.27
   5  -7  -1  165.15    6.21
  -5  -7   1  181.32    6.49
  -5   7   1  179.31    6.74
  -5   7   1  169.68    7.23
   4  -7  -1    1.42    0.17
  -4  -7   1    1.73    0.20
  -4   7   1    2.04    0.24
  -4   7   1    1.99    0.27
  -3  -7   1   74.18    2.75
  -3  -7   1   75.89    2.75
   3   7  -1   72.38    3.55
  -3   7   1   72.09    3.22
  -3   7   1   74.53    2.99
  -2  -7   1   22.41    0.93
  -2  -7   1   24.47    0.95
   2  -7  -1   20.95    0.90
  -2   7   1   21.50    1.17
  -2   7   1   25.16    1.09
  -1  -7   1  269.19    9.24
  -1  -7   1  290.40    9.33
   1  -7  -1  259.95    9.23
   1  -7  -1  268.14    9.32
   1   7  -1  262.62   11.05
  -1   7   1  260.85    9.92
   1   7  -1  236.60    9.78
  -1   7   1  244.01   10.98
   0  -7   1   13.94    0.61
   0  -7   1   12.95    0.54
   0  -7  -1   13.13    0.57
   0   7   1   12.64    0.86
   0   7  -1   14.12    0.82
   0   7  -1   12.27    0.59
   0   7   1   12.52    0.68
   1  -7   1    1.26    0.11
  -1  -7  -1    1.25    0.14
   1  -7   1    1.19    0.17
  -1   7  -1    1.36    0.17
   1   7   1    1.53    0.20
  -1   7  -1    1.59    0.26
  -2  -7  -1    0.00    0.04
   2  -7   1    0.15    0.09
  -2  -7  -1    0.14    0.07
   2  -7   1    0.11    0.05
  -2   7  -1    0.09    0.12
  -2   7  -1    0.11    0.08
   2   7   1    0.15    0.06
   3  -7   1  243.74    9.13
  -3  -7  -1  262.10    9.04
   3  -7   1  240.90    8.94
  -3   7  -1  264.44   10.61
  -3   7  -1  259.38    9.63
   4  -7   1    0.15    0.06
  -4  -7  -1    0.13    0.09
  -4  -7  -1    0.11    0.09
  -4   7  -1    0.42    0.16
  -4   7  -1    0.19    0.12
  -5  -7  -1    0.75    0.16
   5  -7   1    0.88    0.13
  -5  -7  -1    0.64    0.14
  -5   7  -1    0.20    0.12
  -5   7  -1    0.80    0.20
  -6  -7  -1    1.02    0.17
  -6  -7  -1    0.69    0.17
  -6   7  -1    0.67    0.22
  -7  -7  -1  250.96    9.20
  -7  -7  -1  237.61    8.76
  -7  -7  -1  240.01    8.75
  -7   7  -1  246.82   10.21
  -7   7  -1  240.51    9.37
  -8  -7  -1    0.78    0.18
  -8  -7  -1    0.52    0.19
  -8  -7  -1    0.33    0.17
  -8   7  -1    0.52    0.24
  -9  -7  -1    5.53    0.46
  -9  -7  -1    5.20    0.44
  -9   7  -1    4.56    0.57
 -10  -7  -1    0.47    0.21
 -10  -7  -1    0.46    0.21
 -10   7  -1    0.51    0.28
 -11  -7  -1   57.26    2.28
 -11  -7  -1   52.00    2.28
 -11   7  -1   52.39    2.55
 -12  -7  -1    0.29    0.24
 -12  -7  -1   -0.01    0.18
 -12   7  -1    0.32    0.30
 -13  -7  -1   11.90    0.83
 -13  -7  -1   11.75    0.81
 -13   7  -1   10.99    0.98
 -13  -8   1    2.12    0.41
 -12  -8   1    0.27    0.21
 -12  -8   1    0.58    0.27
 -12   8   1    0.32    0.33
 -11  -8   1    9.89    0.68
 -11   8   1    8.96    0.82
 -10  -8   1   84.25    3.24
 -10   8   1   79.20    3.57
  -9  -8   1    2.91    0.37
  -9   8   1    2.99    0.49
  -8  -8   1   19.39    0.95
  -8   8   1   19.66    1.14
   7  -8  -1    7.19    0.47
  -7  -8   1    7.34    0.48
  -7   8   1    6.58    0.59
  -6  -8   1  141.73    5.08
   6  -8  -1  137.73    5.04
  -6   8   1  135.28    5.82
  -5  -8   1   32.80    1.37
   5  -8  -1   33.56    1.35
  -5   8   1   34.61    1.57
   4  -8  -1   48.56    1.88
  -4  -8   1   50.77    1.93
  -4  -8   1   52.00    1.95
  -4   8   1   51.24    2.14
  -4   8   1   47.44    2.24
   4   8  -1   47.68    2.66
  -3  -8   1   90.84    3.27
   3  -8  -1   88.97    3.21
  -3  -8   1   92.86    3.27
   3   8  -1   84.74    4.18
  -3   8   1   82.40    3.84
  -3   8   1   88.72    3.55
  -2  -8   1  370.45   12.54
  -2  -8   1  348.47   12.44
   2  -8  -1  341.82   12.55
   2   8  -1  344.55   13.13
  -2   8   1  349.38   14.71
  -2   8   1  361.00   13.33
   1  -8  -1    2.47    0.22
  -1  -8   1    2.85    0.24
  -1   8   1    2.43    0.39
   1   8  -1    2.72    0.23
   1   8  -1    2.65    0.43
   0  -8  -1  108.59    3.95
   0  -8   1  115.25    3.99
   0  -8  -1  109.69    3.92
   0  -8   1  108.73    3.89
   0   8   1  105.56    4.86
   0   8  -1  110.82    4.78
   0   8   1  104.95    4.25
   0   8  -1  104.87    4.16
   1  -8   1   57.63    2.10
   1  -8   1   54.40    1.98
  -1  -8  -1   54.48    2.03
  -1  -8  -1   55.55    2.02
   1   8   1   53.53    2.19
  -1   8  -1   57.12    2.50
  -1   8  -1   45.45    2.14
  -2  -8  -1  125.90    4.50
   2  -8   1  120.87    4.57
  -2  -8  -1  128.56    4.49
   2  -8   1  127.29    4.42
  -2   8  -1  124.46    4.79
  -2   8  -1  127.42    5.34
   2   8   1  115.61    4.73
  -3  -8  -1    1.86    0.23
   3  -8   1    3.25    0.19
  -3  -8  -1    2.75    0.22
   3  -8   1    3.39    0.30
   3   8   1    2.79    0.21
  -3   8  -1    3.23    0.30
  -3   8  -1    3.48    0.38
  -4  -8  -1   93.76    3.53
   4  -8   1   94.99    3.48
  -4  -8  -1   99.07    3.59
  -4   8  -1   97.40    3.84
  -4   8  -1   98.75    4.20
   5  -8   1   27.15    1.13
  -5  -8  -1   29.13    1.23
  -5  -8  -1   27.72    1.16
  -5   8  -1   29.26    1.42
  -5   8  -1   29.85    1.35
  -6  -8  -1   27.17    1.24
  -6  -8  -1   28.73    1.19
  -6   8  -1   29.23    1.43
  -7  -8  -1    0.15    0.15
  -7  -8  -1    0.73    0.20
  -7  -8  -1    0.03    0.11
  -7   8  -1    0.06    0.17
  -7   8  -1    0.08    0.20
  -8  -8  -1  120.12    4.58
  -8  -8  -1  124.79    4.53
  -8   8  -1  120.16    4.94
  -9  -8  -1   13.47    0.79
  -9  -8  -1   13.44    0.76
  -9   8  -1   14.37    0.94
 -10  -8  -1   30.96    1.45
 -10  -8  -1   31.38    1.39
 -10   8  -1   28.72    1.61
 -11  -8  -1    1.15    0.30
 -11  -8  -1    1.55    0.32
 -11   8  -1    0.63    0.35
 -12  -8  -1   37.65    1.77
 -12  -8  -1   37.65    1.73
 -12   8  -1   38.11    2.02
 -12  -9   1   16.47    1.03
 -12  -9   1   17.40    1.02
 -12   9   1   19.44    1.30
 -11  -9   1   10.91    0.74
 -11  -9   1   12.28    0.80
 -11   9   1   10.75    0.93
 -10  -9   1    1.69    0.33
 -10  -9   1    1.51    0.31
 -10   9   1    1.76    0.43
  -9  -9   1   70.59    2.92
  -9  -9   1   70.94    2.87
  -9   9   1   77.38    3.24
  -8  -9   1   59.09    2.41
  -8  -9   1   62.10    2.47
  -8   9   1   60.54    2.71
   7  -9  -1   24.29    1.10
  -7  -9   1   24.39    1.14
  -7  -9   1   23.57    1.10
  -7   9   1   24.22    1.29
   6  -9  -1    0.19    0.11
  -6  -9   1    0.29    0.15
  -6  -9   1    0.01    0.04
  -6   9   1    0.00    0.15
  -6   9   1   -0.01    0.06
   5  -9  -1   71.17    2.65
  -5  -9   1   76.34    2.72
  -5  -9   1   73.92    2.73
  -5   9   1   72.23    3.13
  -5   9   1   59.83    2.92
  -4  -9   1   56.81    2.15
  -4  -9   1   58.62    2.17
   4  -9  -1   57.11    2.10
  -4   9   1   51.83    2.51
  -4   9   1   55.47    2.38
   4   9  -1   51.52    2.94
  -3  -9   1    0.52    0.14
  -3  -9   1    0.66    0.14
   3  -9  -1    0.77    0.13
   3   9  -1    1.09    0.38
  -3   9   1    0.70    0.20
  -3   9   1    0.78    0.23
  -2  -9   1   11.90    0.56
   2  -9  -1   10.68    0.58
  -2  -9   1   12.36    0.59
   2  -9  -1   12.58    0.55
  -2   9   1   11.78    0.81
   2   9  -1   11.06    0.53
  -2   9   1   11.15    0.69
  -1  -9   1  238.53    8.47
   1  -9  -1  250.94    8.57
  -1  -9   1  253.70    8.58
   1  -9  -1  243.04    8.48
  -1   9   1  232.68    9.13
   1   9  -1  213.70    8.99
   1   9  -1  246.68   10.26
  -1   9   1  233.42   10.18
   0  -9  -1  156.92    5.35
   0  -9  -1  144.23    5.30
   0  -9   1  155.90    5.39
   0   9  -1  135.32    5.63
   0   9  -1  150.99    6.45
   0   9   1  143.47    6.52
   1  -9   1    4.96    0.35
  -1  -9  -1    5.28    0.32
  -1  -9  -1    4.97    0.30
   1  -9   1    5.04    0.27
   1   9   1    5.06    0.38
  -1   9  -1    4.04    0.49
   1   9   1    4.46    0.64
  -2  -9  -1   74.06    2.72
   2  -9   1   72.81    2.79
  -2  -9  -1   70.17    2.69
   2  -9   1   75.91    2.64
   2   9   1   69.82    2.85
  -2   9  -1   73.23    3.28
  -2   9  -1   73.56    2.91
   3  -9   1  201.38    7.38
   3  -9   1  200.00    7.16
  -3  -9  -1  203.11    7.26
  -3  -9  -1  213.06    7.26
   3   9   1  179.33    7.61
  -3   9  -1  210.03    7.76
  -3   9  -1  212.22    8.57
   4  -9   1   79.74    2.91
  -4  -9  -1   80.39    2.98
  -4   9  -1   81.89    3.26
  -4   9  -1   79.40    3.55
  -5  -9  -1    2.59    0.26
  -5  -9  -1    2.39    0.28
  -5   9  -1    2.66    0.35
  -5   9  -1    2.44    0.34
  -6  -9  -1   33.77    1.42
  -6  -9  -1   33.56    1.35
   6  -9   1   30.98    1.30
  -6   9  -1   32.45    1.61
  -7  -9  -1    6.53    0.48
  -7  -9  -1    6.33    0.45
  -7   9  -1    7.26    0.60
  -7   9  -1    7.18    0.58
  -8  -9  -1   22.90    1.05
  -8  -9  -1   21.77    1.10
  -8   9  -1   23.65    1.27
  -9  -9  -1    0.22    0.19
  -9  -9  -1    0.63    0.22
  -9   9  -1    0.34    0.28
 -10  -9  -1   20.28    1.08
 -10  -9  -1   19.98    1.02
 -10   9  -1   20.31    1.25
 -11  -9  -1   39.19    1.86
 -11  -9  -1   41.04    1.81
 -11   9  -1   44.44    2.15
 -12  -9  -1    5.42    0.56
 -12  -9  -1    4.62    0.56
 -12   9  -1    5.69    0.75
 -12 -10   1    0.32    0.27
 -12 -10   1    0.43    0.26
 -12  10   1    0.74    0.41
 -11 -10   1   18.32    1.00
 -11 -10   1   17.92    1.05
 -11  10   1   16.92    1.22
 -10 -10   1   48.15    2.08
 -10 -10   1   46.58    2.01
 -10  10   1   46.34    2.32
  -9 -10   1   22.86    1.12
  -9 -10   1   21.46    1.05
  -9  10   1   16.98    1.19
   8 -10  -1   -0.09    0.15
  -8 -10   1    0.35    0.20
  -8 -10   1    0.16    0.18
  -8  10   1    0.40    0.28
  -7 -10   1  100.04    3.83
   7 -10  -1  102.36    3.82
  -7 -10   1  100.83    3.88
  -7  10   1  103.53    4.23
  -6 -10   1   51.75    2.00
   6 -10  -1   47.46    1.94
  -5 -10   1   48.07    1.94
  -5 -10   1   51.31    1.98
   5 -10  -1   48.47    1.89
  -5  10   1   46.44    2.26
  -5  10   1   49.31    2.18
   4 -10  -1    1.00    0.16
  -4 -10   1    0.65    0.17
  -4 -10   1    0.83    0.18
  -4  10   1    1.24    0.28
  -4  10   1    1.16    0.27
   4  10  -1    0.55    0.40
  -3 -10   1   33.75    1.35
  -3 -10   1   32.13    1.33
   3 -10  -1   32.67    1.29
   3  10  -1   32.58    2.00
  -3  10   1   34.61    1.54
  -3  10   1   29.24    1.65
   2 -10  -1   33.86    1.43
   2 -10  -1   34.23    1.37
  -2 -10   1   33.90    1.39
  -2 -10   1   37.77    1.43
  -2  10   1   35.87    1.61
  -2  10   1   34.59    1.83
   2  10  -1   35.91    2.03
   2  10  -1   33.86    1.41
   1 -10  -1    0.48    0.11
   1 -10  -1    0.19    0.11
  -1 -10   1    0.34    0.12
  -1 -10   1    0.42    0.11
   1  10  -1    0.47    0.28
   1  10  -1    0.49    0.14
  -1  10   1    0.49    0.19
  -1  10   1    0.58    0.28
   0 -10  -1   91.55    3.48
   0 -10  -1  101.18    3.54
   0 -10   1  103.45    3.58
   0 -10   1   93.45    3.46
   0  10   1   92.98    4.43
   0  10  -1   97.19    4.36
   0  10  -1   88.23    3.72
  -1 -10  -1  202.47    7.40
   1 -10   1  218.79    7.53
  -1 -10  -1  206.82    7.44
   1  10   1  199.71    9.07
   1  10   1  201.21    7.92
  -1  10  -1  216.49    8.88
  -1  10  -1  205.35    7.89
  -2 -10  -1   93.00    3.34
  -2 -10  -1   85.84    3.31
   2 -10   1   89.27    3.42
  -2  10  -1   91.23    3.57
   2  10   1   85.96    3.50
  -2  10  -1   95.50    4.04
  -3 -10  -1    0.23    0.11
   3 -10   1    0.09    0.07
  -3 -10  -1    0.06    0.10
   3 -10   1    0.14    0.13
   3  10   1    0.13    0.08
  -3  10  -1    0.09    0.19
  -3  10  -1    0.34    0.16
  -4 -10  -1   33.63    1.38
  -4  10  -1   33.66    1.70
  -4  10  -1   36.21    1.58
   6 -10   1    8.79    0.51
  -6 -10  -1   10.54    0.56
  -6 -10  -1   10.59    0.62
  -6  10  -1   12.21    0.74
  -6  10  -1    9.71    0.71
  -7 -10  -1    3.63    0.40
  -7 -10  -1    3.12    0.34
  -7  10  -1    2.96    0.42
  -7  10  -1    3.81    0.48
  -8 -10  -1    4.33    0.39
  -8 -10  -1    4.33    0.46
  -8  10  -1    4.71    0.58
  -9 -10  -1   76.53    2.92
  -9 -10  -1   72.57    2.98
  -9  10  -1   73.74    3.28
 -10 -10  -1    9.91    0.67
 -10 -10  -1    9.87    0.69
 -10  10  -1   10.19    0.85
 -11 -10  -1    9.00    0.68
 -11 -10  -1    9.72    0.68
 -11  10  -1    8.88    0.95
 -12 -10  -1    9.62    0.74
 -12  10  -1    9.58    0.93
 -12 -11   1   37.37    1.82
 -12 -11   1   39.13    1.78
 -12  11   1   35.62    2.08
 -11 -11   1    3.88    0.51
 -11 -11   1    3.59    0.48
 -11  11   1    4.09    0.68
 -10 -11   1    2.68    0.42
 -10 -11   1    2.86    0.40
 -10  11   1    2.51    0.53
  -9 -11   1    8.86    0.64
  -9 -11   1    9.28    0.62
  -9  11   1    8.39    0.79
   8 -11  -1   91.47    3.45
  -8 -11   1   86.63    3.50
  -8 -11   1   89.00    3.45
  -8  11   1   91.13    3.86
  -7 -11   1    0.26    0.19
   7 -11  -1    0.24    0.16
  -7 -11   1    0.24    0.15
  -7  11   1    0.11    0.24
   6 -11  -1   18.84    0.90
  -6 -11   1   19.79    0.95
  -6 -11   1   19.20    0.97
  -6  11   1   21.72    1.17
  -5 -11   1   12.29    0.66
  -5 -11   1   11.34    0.63
   5 -11  -1   11.22    0.58
  -5  11   1   12.08    0.80
  -5  11   1   10.52    0.78
  -4 -11   1   74.95    2.85
   4 -11  -1   75.27    2.78
  -4 -11   1   74.24    2.84
   4  11  -1   74.88    3.91
  -4  11   1   75.70    3.14
  -4  11   1   71.30    3.40
  -3 -11   1    3.54    0.31
   3 -11  -1    3.27    0.25
  -3 -11   1    3.79    0.30
  -3  11   1    3.23    0.48
  -3  11   1    3.56    0.45
   3  11  -1    3.27    0.64
   2 -11  -1   25.57    1.07
  -2 -11   1   25.75    1.10
  -2 -11   1   28.04    1.15
   2 -11  -1   26.27    1.15
   2  11  -1   25.84    1.12
  -2  11   1   25.40    1.51
   2  11  -1   27.98    1.74
  -2  11   1   24.89    1.29
   1 -11  -1   49.71    1.97
  -1 -11   1   54.14    2.00
   1 -11  -1   50.04    1.92
  -1 -11   1   48.25    1.91
   1  11  -1   45.44    2.05
  -1  11   1   53.61    2.61
  -1  11   1   50.37    2.20
   1  11  -1   51.04    2.65
   0 -11  -1  171.97    6.50
   0 -11   1  176.86    6.48
   0 -11  -1  186.61    6.58
   0 -11   1  187.55    6.62
   0  11  -1  196.01    7.97
   0  11   1  185.61    8.05
   0  11   1  168.23    7.03
  -1 -11  -1   12.97    0.64
   1 -11   1   13.51    0.70
  -1 -11  -1   11.99    0.62
   1 -11   1   13.39    0.59
  -1  11  -1   13.81    0.96
   1  11   1   12.51    1.10
  -1  11  -1   12.26    0.70
  -2 -11  -1   93.03    3.51
   2 -11   1   98.28    3.62
  -2 -11  -1   94.40    3.50
  -2  11  -1   95.23    3.77
  -2  11  -1   98.13    4.28
   2  11   1   89.89    3.69
   3 -11   1    4.41    0.40
  -3 -11  -1    5.06    0.34
  -3 -11  -1    5.19    0.36
   3  11   1    4.98    0.32
  -3  11  -1    5.93    0.57
  -3  11  -1    5.19    0.44
  -4 -11  -1   86.26    3.23
  -4  11  -1   87.64    3.53
  -4  11  -1   85.63    3.88
  -5 -11  -1    3.73    0.33
   5 -11   1    3.68    0.27
  -5  11  -1    4.07    0.48
  -5  11  -1    3.89    0.46
  -6 -11  -1   67.17    2.64
  -6 -11  -1   71.13    2.73
   6 -11   1   66.72    2.59
  -6  11  -1   66.47    3.13
  -6  11  -1   73.62    2.98
  -7 -11  -1   62.99    2.45
  -7 -11  -1   60.27    2.51
  -7  11  -1   64.35    2.77
  -8 -11  -1   22.21    1.14
  -8 -11  -1   23.60    1.08
  -8  11  -1   23.29    1.31
  -9 -11  -1    2.17    0.33
  -9 -11  -1    2.22    0.36
  -9  11  -1    2.57    0.47
 -10 -11  -1   70.51    2.77
 -10 -11  -1   67.08    2.83
 -10  11  -1   68.40    3.15
 -11 -11  -1    7.04    0.61
 -11  11  -1    6.37    0.79
 -12 -11  -1    1.34    0.35
 -12  11  -1    1.99    0.51
 -11 -12   1   33.26    1.65
 -11 -12   1   33.76    1.59
 -11  12   1   33.49    1.92
 -10 -12   1    5.72    0.60
 -10 -12   1    4.55    0.51
 -10  12   1    5.25    0.73
  -9 -12   1   27.05    1.29
  -9 -12   1   27.61    1.35
  -9  12   1   25.08    1.53
  -8 -12   1    2.13    0.33
  -8 -12   1    1.87    0.32
  -8  12   1    1.50    0.42
   7 -12  -1   90.65    3.43
  -7 -12   1   90.60    3.48
  -7 -12   1   88.55    3.52
  -7  12   1   92.19    3.88
  -6 -12   1    0.22    0.15
  -6 -12   1    0.26    0.18
   6 -12  -1    0.50    0.16
  -6  12   1    0.33    0.25
  -5 -12   1   33.23    1.43
  -5 -12   1   32.40    1.40
   5 -12  -1   32.36    1.34
  -5  12   1   31.17    1.61
  -5  12   1   32.82    1.72
   4 -12  -1    0.20    0.12
  -4 -12   1    0.29    0.13
  -4 -12   1    0.03    0.13
  -4  12   1   -0.17    0.18
  -4  12   1   -0.13    0.23
   4  12  -1    0.12    0.36
  -3 -12   1  169.02    6.04
   3 -12  -1  165.33    5.98
  -3 -12   1  166.89    6.08
  -3  12   1  162.32    7.27
  -3  12   1  166.78    6.56
   2 -12  -1    1.23    0.18
   2 -12  -1    1.19    0.22
  -2 -12   1    1.49    0.23
  -2 -12   1    1.18    0.19
   2  12  -1    1.47    0.50
  -2  12   1    0.90    0.27
   2  12  -1    0.84    0.17
  -2  12   1    1.03    0.36
   1 -12  -1    1.49    0.21
  -1 -12   1    1.62    0.24
  -1 -12   1    1.73    0.21
   1 -12  -1    1.65    0.24
   1  12  -1    1.77    0.27
  -1  12   1    2.20    0.36
   1  12  -1    1.98    0.50
  -1  12   1    1.61    0.44
   0 -12  -1   10.79    0.60
   0 -12  -1   10.42    0.56
   0 -12   1   10.59    0.54
   0 -12   1   12.31    0.65
   0  12   1   11.88    0.75
   0  12  -1   10.85    0.65
   0  12   1   10.39    1.01
   0  12  -1   11.43    0.99
  -1 -12  -1  271.57   10.07
   1 -12   1  286.19   10.02
   1 -12   1  295.04   10.23
  -1 -12  -1  296.24   10.14
  -1  12  -1  292.19   12.10
  -1  12  -1  273.62   10.74
   1  12   1  278.04   10.77
   1  12   1  269.86   12.28
   2 -12   1    0.43    0.17
  -2 -12  -1    0.36    0.13
   2 -12   1    0.58    0.12
  -2 -12  -1    0.36    0.13
  -2  12  -1    0.56    0.29
  -2  12  -1    0.30    0.18
  -3 -12  -1    3.87    0.33
  -3 -12  -1    4.06    0.31
   3 -12   1    3.86    0.42
   3 -12   1    3.52    0.25
   3  12   1    4.06    0.29
  -3  12  -1    3.85    0.42
  -3  12  -1    3.15    0.49
   4 -12   1    0.18    0.09
  -4 -12  -1    0.34    0.14
  -4 -12  -1    0.13    0.13
  -4  12  -1    0.05    0.23
  -4  12  -1    0.00    0.17
   5 -12   1  150.23    5.58
  -5 -12  -1  155.05    5.73
  -5 -12  -1  157.81    5.68
  -5  12  -1  155.59    6.72
  -5  12  -1  159.08    6.15
  -6 -12  -1    3.93    0.43
  -6 -12  -1    4.81    0.40
  -6  12  -1    4.29    0.52
  -6  12  -1    5.46    0.57
  -7 -12  -1    1.05    0.23
  -7 -12  -1    1.27    0.27
  -7  12  -1    0.95    0.31
  -8 -12  -1    0.39    0.20
  -8 -12  -1   -0.04    0.16
  -8  12  -1   -0.14    0.22
  -9 -12  -1   55.60    2.26
  -9 -12  -1   56.21    2.36
  -9  12  -1   53.99    2.61
 -10 -12  -1    0.12    0.22
 -10  12  -1   -0.10    0.27
 -11 -12  -1   10.99    0.78
 -11  12  -1   10.37    0.95
 -11 -13   1    1.63    0.37
 -11  13   1    1.47    0.49
 -10 -13   1    0.59    0.26
 -10 -13   1    1.11    0.31
 -10  13   1    0.90    0.39
  -9 -13   1    0.58    0.23
  -9 -13   1    0.59    0.25
  -9  13   1    0.57    0.34
  -8 -13   1   39.43    1.72
  -8 -13   1   38.75    1.77
  -8  13   1   39.55    2.02
  -7 -13   1   -0.01    0.15
   7 -13  -1   -0.11    0.13
  -7 -13   1   -0.04    0.18
  -7  13   1    0.17    0.26
  -6 -13   1   30.21    1.39
   6 -13  -1   30.35    1.31
  -6 -13   1   31.66    1.37
  -6  13   1   29.78    1.60
   5 -13  -1    3.19    0.32
  -5 -13   1    3.29    0.38
  -5 -13   1    3.39    0.37
  -5  13   1    2.68    0.45
  -5  13   1    2.30    0.45
  -4 -13   1  112.00    4.16
  -4 -13   1  109.05    4.14
   4 -13  -1  108.55    4.06
  -4  13   1  112.17    4.55
  -4  13   1  107.97    5.01
   4  13  -1  115.23    5.59
  -3 -13   1    1.03    0.21
   3 -13  -1    1.24    0.19
  -3 -13   1    1.18    0.21
  -3  13   1    0.71    0.35
  -3  13   1    1.21    0.30
   2 -13  -1   36.23    1.52
  -2 -13   1   36.45    1.50
   2 -13  -1   34.47    1.41
  -2 -13   1   34.96    1.44
   2  13  -1   34.79    2.21
   2  13  -1   33.14    1.48
  -2  13   1   33.95    2.00
  -2  13   1   36.72    1.72
   1 -13  -1    1.84    0.23
   1 -13  -1    1.91    0.27
  -1 -13   1    2.18    0.25
  -1 -13   1    1.60    0.26
   1  13  -1    1.32    0.50
  -1  13   1    1.35    0.46
  -1  13   1    0.90    0.28
   0 -13  -1  110.79    4.12
   0 -13  -1  119.83    4.20
   0 -13   1  106.42    4.09
   0 -13   1  116.09    4.23
   0  13  -1  104.29    4.43
   0  13   1  112.72    5.32
   0  13  -1  120.61    5.28
   0  13   1  107.57    4.52
  -1 -13  -1    5.01    0.37
   1 -13   1    3.82    0.41
   1 -13   1    4.26    0.30
  -1 -13  -1    4.16    0.33
  -1  13  -1    4.72    0.66
  -1  13  -1    4.14    0.45
   1  13   1    4.52    0.47
   2 -13   1   40.57    1.53
  -2 -13  -1   39.07    1.59
  -2 -13  -1   39.07    1.60
   2 -13   1   42.06    1.71
  -2  13  -1   41.89    2.13
  -2  13  -1   39.53    1.76
   2  13   1   32.53    1.64
   3 -13   1   12.82    0.76
   3 -13   1   12.36    0.58
  -3 -13  -1   12.86    0.68
  -3 -13  -1   12.68    0.65
  -3  13  -1   12.58    0.78
  -3  13  -1   12.18    0.94
  -4 -13  -1   62.93    2.47
   4 -13   1   61.24    2.33
  -4 -13  -1   62.67    2.42
  -4  13  -1   61.64    2.99
  -4  13  -1   63.81    2.69
  -5 -13  -1    0.46    0.17
  -5 -13  -1    0.26    0.16
  -5  13  -1    0.34    0.27
  -5  13  -1    0.09    0.20
  -6 -13  -1   87.05    3.28
  -6 -13  -1   84.09    3.34
  -6  13  -1   87.80    3.65
  -6  13  -1   85.22    3.92
  -7 -13  -1    7.46    0.55
  -7 -13  -1    7.31    0.51
  -7  13  -1    7.12    0.67
  -8 -13  -1   31.05    1.51
  -8 -13  -1   32.85    1.44
  -8  13  -1   33.30    1.73
  -9 -13  -1    1.81    0.35
  -9  13  -1    1.53    0.42
 -10 -13  -1   37.18    1.74
 -10  13  -1   35.05    1.96
 -11 -13  -1    1.50    0.36
 -11  13  -1    0.87    0.42
 -11 -14   1   24.67    1.31
 -11 -14   1   24.85    1.36
 -11  14   1   24.46    1.62
 -10 -14   1    6.86    0.62
 -10 -14   1    7.54    0.62
 -10  14   1    5.90    0.80
  -9 -14   1    8.03    0.65
  -9 -14   1    8.52    0.64
  -9  14   1    8.20    0.90
  -8 -14   1    3.23    0.44
  -8 -14   1    3.59    0.43
  -8  14   1    3.61    0.58
  -7 -14   1   62.70    2.50
  -7 -14   1   59.18    2.52
  -7  14   1   62.26    2.85
  -6 -14   1    4.83    0.43
  -6 -14   1    4.33    0.45
   6 -14  -1    4.67    0.38
  -6  14   1    4.90    0.64
  -5 -14   1   24.69    1.14
   5 -14  -1   26.11    1.08
  -5 -14   1   22.82    1.14
  -5  14   1   21.75    1.32
  -5  14   1   23.38    1.48
  -4 -14   1   14.79    0.77
   4 -14  -1   13.77    0.70
  -4 -14   1   14.78    0.79
  -4  14   1   13.47    1.09
   4  14  -1   13.33    1.42
  -4  14   1   14.67    0.96
  -3 -14   1   75.24    2.96
   3 -14  -1   74.77    2.90
  -3 -14   1   78.34    3.01
  -3  14   1   78.03    3.79
  -3  14   1   80.78    3.35
   3  14  -1   78.37    4.17
  -2 -14   1   12.38    0.67
   2 -14  -1   13.98    0.75
   2 -14  -1   12.64    0.64
  -2 -14   1   14.23    0.74
   2  14  -1   13.07    1.30
  -2  14   1   13.05    1.13
  -2  14   1   11.32    0.85
   1 -14  -1    4.88    0.35
   1 -14  -1    4.35    0.39
  -1 -14   1    4.41    0.34
  -1 -14   1    5.12    0.42
  -1  14   1    4.66    0.55
   1  14  -1    4.55    0.80
  -1  14   1    4.92    0.79
   1  14  -1    4.40    0.46
   0 -14   1    7.74    0.45
   0 -14   1    7.55    0.53
   0 -14  -1    8.00    0.47
   0 -14  -1    7.41    0.50
   0  14  -1    6.35    0.87
   0  14   1    7.25    0.62
   0  14  -1    6.71    0.55
   0  14   1    7.66    1.00
  -1 -14  -1   84.00    3.21
  -1 -14  -1   86.19    3.24
   1 -14   1   84.13    3.15
   1 -14   1   87.07    3.33
  -1  14  -1   80.42    3.47
  -1  14  -1   89.22    4.14
   1  14   1   84.82    3.49
   2 -14   1    1.32    0.27
  -2 -14  -1    1.09    0.21
  -2 -14  -1    1.11    0.21
   2 -14   1    1.33    0.19
  -2  14  -1    1.09    0.38
  -2  14  -1    1.22    0.29
   2  14   1    0.77    0.19
  -3 -14  -1    2.56    0.31
   3 -14   1    2.51    0.37
   3 -14   1    2.74    0.24
  -3 -14  -1    3.00    0.33
  -3  14  -1    2.57    0.52
  -3  14  -1    3.06    0.41
  -4 -14  -1   20.39    0.99
   4 -14   1   20.33    0.86
  -4 -14  -1   19.81    0.94
  -4  14  -1   20.06    1.30
  -4  14  -1   18.46    1.09
  -5 -14  -1  115.55    4.37
  -5 -14  -1  117.36    4.43
  -5  14  -1  120.88    4.80
  -5  14  -1  114.95    5.25
  -6 -14  -1    4.59    0.48
  -6 -14  -1    4.82    0.42
  -6  14  -1    4.55    0.57
  -6  14  -1    4.43    0.60
  -7 -14  -1    0.16    0.17
  -7 -14  -1    0.23    0.18
  -7  14  -1    0.35    0.28
  -8 -14  -1    8.42    0.61
  -8  14  -1    6.24    0.76
  -9 -14  -1   53.81    2.32
  -9  14  -1   52.68    2.60
 -10 -14  -1    0.21    0.22
 -10  14  -1   -0.08    0.28
 -11 -14  -1    5.75    0.64
 -11  14  -1    4.57    0.74
 -10 -15   1    0.92    0.31
 -10 -15   1    1.03    0.33
 -10  15   1    1.27    0.48
  -9 -15   1   13.21    0.89
  -9 -15   1   14.04    0.86
  -9  15   1   15.58    1.15
  -8 -15   1   31.77    1.56
  -8 -15   1   33.54    1.53
  -8  15   1   34.27    1.86
  -7 -15   1    5.48    0.49
  -7 -15   1    5.96    0.51
  -7  15   1    5.67    0.70
  -6 -15   1   10.85    0.70
  -6 -15   1   11.96    0.71
   6 -15  -1   11.11    0.63
  -6  15   1   10.64    0.87
   5 -15  -1   46.09    1.82
  -5 -15   1   45.90    1.91
  -5 -15   1   45.37    1.90
  -5  15   1   41.75    2.15
  -4 -15   1   79.43    3.11
  -4 -15   1   81.00    3.12
   4 -15  -1   78.80    3.02
  -4  15   1   80.71    3.92
  -4  15   1   80.69    3.49
   3 -15  -1    4.10    0.33
  -3 -15   1    4.62    0.41
  -3 -15   1    4.25    0.37
  -3  15   1    4.26    0.71
  -3  15   1    3.80    0.54
   3  15  -1    3.50    0.87
  -2 -15   1   13.37    0.76
  -2 -15   1   14.41    0.73
   2 -15  -1   13.38    0.79
   2 -15  -1   14.80    0.71
  -2  15   1   14.15    1.22
   2  15  -1   14.16    1.41
  -2  15   1   13.64    0.95
   1 -15  -1   29.90    1.22
  -1 -15   1   27.62    1.21
   1 -15  -1   28.19    1.29
  -1 -15   1   29.89    1.31
  -1  15   1   28.57    1.49
  -1  15   1   27.50    1.89
   1  15  -1   30.07    2.01
   1  15  -1   24.93    1.33
   0 -15  -1   46.48    1.85
   0 -15   1   44.98    1.82
   0 -15   1   47.66    1.96
   0 -15  -1   45.80    1.90
   0  15  -1   49.02    2.69
   0  15  -1   43.31    2.04
   0  15   1   44.49    2.12
   0  15   1   49.36    2.76
   1 -15   1    2.82    0.37
   1 -15   1    2.63    0.28
  -1 -15  -1    2.77    0.31
  -1 -15  -1    3.21    0.35
  -1  15  -1    3.00    0.61
   1  15   1    3.64    0.44
  -1  15  -1    2.54    0.39
  -2 -15  -1   18.54    0.94
   2 -15   1   21.51    1.07
   2 -15   1   20.37    0.89
  -2 -15  -1   19.73    0.96
  -2  15  -1   20.30    1.42
   2  15   1   20.99    1.01
  -2  15  -1   19.79    1.11
   3 -15   1   35.91    1.43
   3 -15   1   35.47    1.65
  -3 -15  -1   34.92    1.53
  -3 -15  -1   35.74    1.52
  -3  15  -1   36.03    1.72
  -3  15  -1   36.89    2.05
  -4 -15  -1   47.66    1.90
  -4 -15  -1   44.30    1.93
  -4  15  -1   46.73    2.45
  -4  15  -1   46.74    2.14
  -5 -15  -1   -0.07    0.16
  -5 -15  -1   -0.02    0.14
  -5  15  -1    0.14    0.22
  -5  15  -1   -0.07    0.29
  -6 -15  -1   49.23    1.94
  -6 -15  -1   45.17    1.99
  -6  15  -1   44.10    2.19
  -7 -15  -1   10.09    0.64
  -7 -15  -1   10.84    0.72
  -7  15  -1    9.83    0.83
  -8 -15  -1   19.78    1.08
  -8  15  -1   19.25    1.25
  -9 -15  -1    5.60    0.60
  -9  15  -1    4.47    0.68
 -10 -15  -1   24.06    1.29
 -10  15  -1   21.68    1.47
 -10 -16   1   15.87    1.01
 -10  16   1   14.34    1.20
  -9 -16   1    9.48    0.68
  -9 -16   1    8.58    0.69
  -9  16   1    6.79    0.88
  -8 -16   1    5.13    0.57
  -8 -16   1    4.70    0.52
  -8  16   1    4.67    0.69
  -7 -16   1   26.83    1.28
  -7 -16   1   25.91    1.30
  -7  16   1   23.59    1.49
  -6 -16   1   35.84    1.61
  -6 -16   1   35.62    1.59
  -6  16   1   33.55    1.85
  -5 -16   1    8.25    0.59
  -5 -16   1    9.06    0.60
   5 -16  -1    8.43    0.53
  -5  16   1    8.62    0.78
  -4 -16   1   14.94    0.85
  -4 -16   1   17.21    0.89
   4 -16  -1   17.06    0.81
  -4  16   1   15.27    1.29
  -4  16   1   16.21    1.09
  -3 -16   1   57.27    2.33
  -3 -16   1   59.18    2.39
   3 -16  -1   54.11    2.26
   3  16  -1   64.64    3.60
  -3  16   1   59.75    2.70
  -3  16   1   60.06    3.15
  -2 -16   1   90.26    3.46
   2 -16  -1   91.57    3.49
  -2 -16   1   85.68    3.37
   2 -16  -1   89.37    3.34
  -2  16   1   87.57    4.44
   2  16  -1   94.02    4.76
  -2  16   1   84.38    3.78
  -1 -16   1    5.17    0.47
   1 -16  -1    5.88    0.47
   1 -16  -1    5.41    0.40
  -1 -16   1    5.06    0.39
  -1  16   1    3.90    0.79
  -1  16   1    5.44    0.65
   1  16  -1    5.91    0.98
   0 -16   1    0.68    0.18
   0 -16  -1    0.75    0.23
   0 -16  -1    0.93    0.20
   0 -16   1    0.50    0.23
   0  16   1    1.03    0.34
   0  16  -1    1.04    0.29
   0  16   1    0.65    0.50
   0  16  -1    0.65    0.47
   1 -16   1   33.28    1.42
  -1 -16  -1   33.48    1.48
   1 -16   1   35.37    1.60
  -1 -16  -1   36.40    1.53
   1  16   1   35.76    1.67
  -1  16  -1   32.43    1.67
  -1  16  -1   39.80    2.25
   2 -16   1   16.78    0.95
  -2 -16  -1   17.75    0.87
  -2 -16  -1   15.50    0.83
   2 -16   1   16.73    0.77
  -2  16  -1   14.84    0.97
  -2  16  -1   16.39    1.30
   3 -16   1    1.38    0.31
  -3 -16  -1    1.27    0.26
  -3 -16  -1    1.41    0.26
   3 -16   1    1.45    0.21
  -3  16  -1    1.61    0.48
  -3  16  -1    1.19    0.32
  -4 -16  -1   38.51    1.61
  -4 -16  -1   36.85    1.63
  -4  16  -1   36.17    1.82
  -4  16  -1   37.59    2.13
  -5 -16  -1   63.91    2.55
  -5 -16  -1   61.87    2.60
  -5  16  -1   65.87    2.89
  -5  16  -1   64.76    3.21
  -6 -16  -1   13.15    0.79
  -6 -16  -1   11.93    0.72
  -6  16  -1   12.93    0.94
  -7 -16  -1    0.25    0.20
  -7  16  -1   -0.07    0.27
  -8 -16  -1   19.72    1.10
  -8  16  -1   18.43    1.26
  -9 -16  -1   27.41    1.41
  -9  16  -1   26.07    1.62
 -10 -16  -1    8.63    0.71
 -10  16  -1    8.83    1.00
  -9 -17   1   26.64    1.43
  -9  17   1   27.69    1.72
  -8 -17   1    7.68    0.64
  -8 -17   1    8.01    0.63
  -8  17   1    6.64    0.84
  -7 -17   1    8.17    0.62
  -7 -17   1    7.04    0.59
  -7  17   1    7.29    0.86
  -6 -17   1    2.96    0.41
  -6 -17   1    2.83    0.41
  -6  17   1    3.03    0.56
  -5 -17   1   38.21    1.69
  -5 -17   1   36.59    1.67
  -5  17   1   38.64    2.00
  -4 -17   1    8.15    0.58
   4 -17  -1    8.87    0.54
  -4 -17   1    9.38    0.64
  -4  17   1    8.84    0.80
  -4  17   1    7.13    0.99
  -3 -17   1   12.85    0.73
   3 -17  -1   12.08    0.67
  -3 -17   1   14.21    0.79
  -3  17   1   12.15    1.22
  -3  17   1   12.89    0.96
   3  17  -1   11.09    1.54
   2 -17  -1    3.97    0.35
  -2 -17   1    3.81    0.44
  -2 -17   1    4.05    0.36
   2 -17  -1    3.01    0.42
  -2  17   1    3.52    0.75
   2  17  -1    3.82    0.92
  -2  17   1    3.54    0.55
   1 -17  -1   98.66    3.78
  -1 -17   1  100.06    3.79
  -1 -17   1   95.67    3.65
   1 -17  -1   92.76    3.64
   1  17  -1  104.89    5.10
  -1  17   1   91.26    4.10
  -1  17   1   98.47    4.92
   0 -17  -1   21.26    1.08
   0 -17   1   22.62    1.14
   0 -17  -1   19.81    1.00
   0 -17   1   20.67    0.99
   0  17   1   23.56    1.27
   0  17  -1   24.40    1.79
  -1 -17  -1    0.00    0.16
   1 -17   1   -0.02    0.21
  -1 -17  -1    0.30    0.15
   1 -17   1    0.00    0.13
  -1  17  -1    0.00    0.20
  -1  17  -1   -0.33    0.35
   2 -17   1    8.95    0.68
   2 -17   1    8.91    0.52
  -2 -17  -1    8.49    0.57
  -2 -17  -1   10.41    0.64
  -2  17  -1    9.68    0.74
  -2  17  -1   11.83    1.12
  -3 -17  -1   79.18    3.14
  -3 -17  -1   79.03    3.15
   3 -17   1   79.86    3.29
  -3  17  -1   87.55    4.09
  -3  17  -1   79.30    3.46
  -4 -17  -1   18.60    0.98
  -4 -17  -1   18.63    0.99
  -4  17  -1   18.22    1.40
  -4  17  -1   22.21    1.22
  -5 -17  -1    0.59    0.23
  -5 -17  -1    0.81    0.25
  -5  17  -1    0.08    0.38
  -5  17  -1    0.58    0.31
  -6 -17  -1    7.44    0.60
  -6  17  -1    8.65    0.78
  -7 -17  -1   33.00    1.57
  -7  17  -1   32.73    1.81
  -8 -17  -1    3.54    0.50
  -8  17  -1    3.01    0.57
  -9 -17  -1    3.40    0.49
  -9  17  -1    3.06    0.61
  -9 -18   1    0.04    0.22
  -9  18   1    0.41    0.39
  -8 -18   1    3.48    0.49
  -8 -18   1    3.29    0.47
  -8  18   1    3.94    0.68
  -7 -18   1    1.93    0.38
  -7 -18   1    2.32    0.39
  -7  18   1    1.73    0.51
  -6 -18   1   48.19    2.15
  -6 -18   1   52.51    2.16
  -6  18   1   48.17    2.50
  -5 -18   1    0.31    0.20
  -5 -18   1    0.48    0.24
  -5  18   1    0.00    0.28
  -4 -18   1    7.16    0.59
  -4 -18   1    7.91    0.57
   4 -18  -1    8.65    0.54
  -4  18   1    8.11    1.07
  -4  18   1    9.81    0.84
  -3 -18   1    8.11    0.56
   3 -18  -1    8.64    0.54
  -3 -18   1    8.73    0.62
  -3  18   1    8.58    0.79
  -3  18   1    6.88    1.02
   3  18  -1    8.70    1.37
  -2 -18   1   79.24    3.18
  -2 -18   1   83.42    3.28
   2 -18  -1   85.59    3.32
   2 -18  -1   83.39    3.16
  -2  18   1   76.72    3.60
   2  18  -1   87.88    4.65
  -2  18   1   82.74    4.32
   1 -18  -1    0.62    0.26
  -1 -18   1    0.52    0.19
   1 -18  -1    0.81    0.21
  -1 -18   1    0.68    0.26
  -1  18   1    0.87    0.34
  -1  18   1    0.72    0.53
   1  18  -1    0.47    0.55
   0 -18   1   60.45    2.51
   0 -18   1   57.44    2.33
   0 -18  -1   58.20    2.36
   0 -18  -1   60.07    2.45
   0  18  -1   67.80    3.56
   0  18   1   55.93    2.67
   1 -18   1   13.19    0.86
   1 -18   1   13.46    0.71
  -1 -18  -1   12.94    0.73
  -1 -18  -1   12.99    0.81
  -1  18  -1   13.82    1.34
  -1  18  -1   14.27    0.94
  -2 -18  -1   51.01    2.19
   2 -18   1   55.37    2.36
   2 -18   1   50.45    2.10
  -2 -18  -1   57.85    2.26
  -2  18  -1   57.78    3.11
  -2  18  -1   53.20    2.49
  -3 -18  -1    0.50    0.20
   3 -18   1    0.63    0.28
  -3 -18  -1    0.35    0.21
  -3  18  -1    0.03    0.38
  -3  18  -1    0.54    0.30
  -4 -18  -1   47.54    2.06
  -4  18  -1   51.95    2.78
  -4  18  -1   47.70    2.33
  -5 -18  -1    2.18    0.36
  -5  18  -1    4.90    0.64
  -5  18  -1    2.23    0.61
  -6 -18  -1   23.41    1.21
  -6  18  -1   22.35    1.39
  -7 -18  -1    0.14    0.19
  -7  18  -1   -0.12    0.27
  -8 -18  -1   29.20    1.49
  -8  18  -1   28.78    1.73
  -9 -18  -1    2.50    0.46
  -9  18  -1    2.26    0.56
  -8 -19   1    0.06    0.22
  -8  19   1   -0.22    0.34
  -7 -19   1   13.23    0.87
  -7 -19   1   14.33    0.90
  -7  19   1   12.25    1.09
  -6 -19   1    1.00    0.29
  -6 -19   1    1.00    0.29
  -6  19   1    0.59    0.38
  -5 -19   1   69.03    2.85
  -5 -19   1   69.92    2.85
  -5  19   1   69.19    3.25
  -4 -19   1    1.30    0.29
  -4 -19   1    0.43    0.26
  -4  19   1    1.29    0.42
   3 -19  -1   11.68    0.66
  -3 -19   1   11.70    0.70
  -3 -19   1   11.33    0.75
  -3  19   1    9.44    0.89
  -3  19   1   12.19    1.26
  -2 -19   1    0.60    0.26
   2 -19  -1    0.08    0.22
   2 -19  -1    0.44    0.17
  -2 -19   1   -0.11    0.12
  -2  19   1    0.21    0.51
  -2  19   1    0.43    0.32
   2  19  -1    0.65    0.61
   1 -19  -1   73.00    3.03
  -1 -19   1   73.23    2.90
  -1 -19   1   74.84    3.04
   1 -19  -1   73.17    2.90
  -1  19   1   71.39    3.31
   1  19  -1   86.19    4.38
   0 -19  -1    0.28    0.23
   0 -19   1   -0.02    0.23
   0 -19   1    0.21    0.16
   0 -19  -1    0.60    0.19
   0  19  -1    0.58    0.53
   1 -19   1    0.19    0.22
  -1 -19  -1    0.02    0.13
  -1 -19  -1    0.13    0.22
   1 -19   1    0.14    0.14
  -1  19  -1   -0.18    0.47
  -2 -19  -1    4.54    0.47
  -2 -19  -1    4.26    0.49
   2 -19   1    4.35    0.55
  -2  19  -1    4.26    0.59
  -2  19  -1    3.69    0.79
  -3 -19  -1   91.90    3.64
   3 -19   1   98.90    3.83
  -3 -19  -1   89.08    3.62
  -3  19  -1   98.13    4.76
  -3  19  -1   90.39    4.01
  -4 -19  -1    1.05    0.28
  -4  19  -1    1.46    0.56
  -4  19  -1    0.72    0.34
  -5 -19  -1   -0.02    0.16
  -5  19  -1   -0.05    0.27
  -6 -19  -1    2.73    0.43
  -6  19  -1    1.66    0.47
  -7 -19  -1   44.05    2.00
  -7  19  -1   42.74    2.27
  -8 -19  -1    0.14    0.22
  -8  19  -1   -0.29    0.32
  -7 -20   1    1.69    0.36
  -7  20   1    0.84    0.44
  -6 -20   1   47.01    2.11
  -6 -20   1   47.84    2.13
  -6  20   1   47.84    2.50
  -5 -20   1    4.08    0.53
  -5 -20   1    4.90    0.53
  -5  20   1    4.51    0.70
  -4 -20   1   15.16    0.94
  -4 -20   1   15.80    0.90
  -4  20   1   15.15    1.16
  -3 -20   1    3.00    0.44
  -3 -20   1    2.85    0.39
  -3  20   1    2.73    0.56
  -3  20   1    2.12    0.69
  -2 -20   1   37.63    1.64
  -2 -20   1   37.27    1.73
   2 -20  -1   35.70    1.59
   2 -20  -1   39.57    1.77
  -2  20   1   36.21    1.98
   2  20  -1   36.41    2.76
  -1 -20   1    1.49    0.27
   1 -20  -1    1.30    0.34
   1 -20  -1    1.51    0.27
  -1 -20   1    1.45    0.35
   1  20  -1    2.11    0.78
   0 -20  -1   10.75    0.76
   0 -20   1   11.23    0.80
   0 -20   1   10.90    0.66
   0 -20  -1   11.29    0.68
   0  20  -1   11.88    1.56
  -1 -20  -1   19.57    1.04
   1 -20   1   17.57    1.08
  -1 -20  -1   17.65    0.94
  -1  20  -1   19.50    1.75
   2 -20   1   42.18    1.99
  -2 -20  -1   40.67    1.81
  -2  20  -1   44.14    2.74
   3 -20   1    1.67    0.38
  -3 -20  -1    1.28    0.28
  -3  20  -1    1.02    0.57
  -3  20  -1    0.43    0.33
  -4 -20  -1   23.72    1.24
  -4  20  -1   26.30    1.52
  -4  20  -1   25.50    1.89
  -5 -20  -1    6.00    0.60
  -5  20  -1    4.80    0.68
  -6 -20  -1   11.24    0.79
  -6  20  -1   12.06    1.00
  -7 -20  -1    1.10    0.33
  -7  20  -1    1.05    0.43
  -6 -21   1    0.69    0.27
  -6  21   1    0.19    0.37
  -5 -21   1   30.78    1.50
  -5 -21   1   28.31    1.45
  -5  21   1   30.20    1.80
  -4 -21   1   13.82    0.87
  -4 -21   1   17.77    1.01
  -4  21   1   15.12    1.18
  -3 -21   1    1.26    0.29
  -3 -21   1    1.26    0.34
  -3  21   1    0.80    0.41
   2 -21  -1    7.16    0.71
  -2 -21   1    7.13    0.62
  -2 -21   1    6.21    0.51
   2 -21  -1    6.53    0.51
   2  21  -1    6.61    1.30
  -1 -21   1   48.60    2.13
   1 -21  -1   45.24    1.94
  -1 -21   1   44.66    1.94
   1 -21  -1   46.70    2.10
   1  21  -1   48.90    3.23
   0 -21  -1   15.61    0.93
   0 -21   1   13.81    0.80
   0 -21   1   16.66    1.00
   0 -21  -1   14.05    0.81
   0  21  -1   14.13    1.77
  -1 -21  -1    0.04    0.15
   1 -21   1   -0.01    0.25
  -1  21  -1    0.69    0.61
  -2 -21  -1    7.44    0.56
   2 -21   1    7.71    0.70
  -2  21  -1    6.23    1.13
  -3 -21  -1   40.54    1.90
   3 -21   1   46.35    2.11
  -3  21  -1   45.27    2.84
  -4 -21  -1    5.98    0.54
  -4  21  -1    5.63    1.00
  -4  21  -1    5.71    0.78
  -5 -21  -1   -0.04    0.19
  -5  21  -1    0.14    0.34
  -6 -21  -1    7.40    0.64
  -6  21  -1    6.78    0.86
  -5 -22   1    3.43    0.47
  -5  22   1    3.93    0.71
  -4 -22   1    8.13    0.63
  -4  22   1    8.25    0.96
  -3 -22   1   16.85    0.96
  -3 -22   1   17.26    1.07
  -2 -22   1   27.67    1.33
  -2 -22   1   27.79    1.45
   1 -22  -1    2.83    0.37
  -1 -22   1    2.98    0.38
   1 -22  -1    2.58    0.45
  -1 -22   1    3.53    0.53
   1  22  -1    3.18    0.94
   0 -22   1    7.84    0.71
   0 -22  -1    8.29    0.59
   0  22  -1   10.61    1.55
   1 -22   1   20.34    1.24
  -1 -22  -1   22.67    1.13
  -1  22  -1   22.42    2.00
   2 -22   1    7.19    0.78
  -2 -22  -1    8.35    0.62
  -2  22  -1    9.38    1.35
  -3 -22  -1    0.06    0.20
   3 -22   1    0.04    0.27
  -3  22  -1    0.19    0.55
  -4 -22  -1   11.05    0.77
  -5 -22  -1   22.81    1.23
  -5  22  -1   21.84    1.47
  -4 -23   1   21.42    1.17
  -3 -23   1    1.45    0.32
  -2 -23   1    8.10    0.63
  -2 -23   1    9.50    0.76
  -1 -23   1    7.85    0.71
   0 -23   1   17.34    1.06
   0 -23  -1   14.72    0.88
   0  23  -1   15.32    1.91
  -1 -23  -1    0.02    0.17
   1 -23   1    0.13    0.28
  -1  23  -1    0.32    0.61
   2 -23   1   12.87    0.96
  -2 -23  -1   12.14    0.79
  -2  23  -1   12.83    1.66
  -3 -23  -1    9.33    0.69
  -3  23  -1    8.79    1.34
  -4 -23  -1   13.87    0.89
  -1 -24   1    2.75    0.51
   0 -24   1   -0.03    0.30
  -1 -24  -1   29.14    1.43
   1 -24   1   30.15    1.63
  -1  24  -1   31.09    2.54
 -13   0   2    0.30    0.24
 -12   0   2   31.14    1.62
 -12   0   2   30.60    1.49
 -11   0   2    0.18    0.24
 -11   0   2   -0.10    0.21
 -10   0   2   67.44    2.92
 -10   0   2   70.42    2.78
  -9   0   2   -0.04    0.12
  -9   0   2    0.11    0.19
  -8   0   2   33.78    1.56
  -8   0   2   35.31    1.49
  -7   0   2   -0.08    0.12
  -7   0   2   -0.06    0.13
  -6   0   2  281.40   10.13
  -6   0   2  284.77   10.71
  -5   0   2    0.62    0.13
  -5   0   2    0.19    0.12
  -3   0   2   -0.22    0.02
   3   0  -2   -0.20    0.02
   3   0  -2   -0.19    0.08
  -3   0   2   -0.18    0.08
   2   0  -2    2.88    0.18
  -2   0   2    2.87    0.24
  -2   0   2    3.07    0.18
   2   0  -2    2.39    0.20
  -1   0   2   -0.37    0.05
   1   0  -2   -0.30    0.06
   1   0  -2   -0.33    0.03
   0   0   2   15.18    0.67
   0   0  -2   16.75    0.61
   0   0  -2   16.66    0.77
   0   0   2   16.42    0.61
  -1   0  -2   -0.16    0.03
   1   0   2   -0.29    0.03
  -1   0  -2   -0.39    0.06
  -2   0  -2  695.34   28.65
  -2   0  -2  679.76   24.23
  -3   0  -2   -0.07    0.10
  -3   0  -2    0.06    0.05
  -4   0  -2    0.58    0.22
  -5   0  -2   -0.07    0.16
  -6   0  -2  291.91   11.18
  -6   0  -2  298.31   12.45
  -7   0  -2    0.33    0.16
  -7   0  -2   -0.14    0.24
  -8   0  -2    3.31    0.53
  -8   0  -2    3.01    0.38
  -9   0  -2    0.27    0.19
  -9   0  -2   -0.54    0.32
 -10   0  -2   44.21    2.32
 -10   0  -2   41.37    1.95
 -10   0  -2   41.62    1.81
 -11   0  -2    0.15    0.22
 -11   0  -2   -0.01    0.20
 -12   0  -2    1.75    0.35
 -12   0  -2    1.05    0.33
 -13   0  -2    0.15    0.25
 -13   0  -2    0.21    0.28
 -13  -1   2    0.05    0.23
 -13   1   2    0.35    0.26
 -12  -1   2    1.52    0.35
 -12   1   2    1.10    0.33
 -12   1   2    2.03    0.44
 -11  -1   2   88.28    3.75
 -11  -1   2   89.53    3.55
 -11   1   2   93.69    3.82
 -11   1   2   89.76    3.56
 -10  -1   2    1.78    0.33
 -10  -1   2    1.23    0.31
 -10   1   2    1.56    0.34
 -10   1   2    1.67    0.31
  -9  -1   2    0.60    0.19
  -9  -1   2    0.85    0.24
  -9   1   2    0.71    0.21
  -9   1   2    1.29    0.29
  -8  -1   2    4.82    0.43
  -8  -1   2    5.19    0.41
  -8   1   2    4.90    0.40
  -8   1   2    4.90    0.46
  -7  -1   2   81.50    3.38
  -7  -1   2   85.30    3.22
  -7   1   2   86.53    3.22
  -7   1   2   88.29    3.67
  -7   1   2   83.34    3.42
  -6  -1   2    1.11    0.20
  -6  -1   2    1.06    0.20
  -6   1   2    1.36    0.21
  -6   1   2    1.80    0.25
  -5  -1   2   25.29    1.11
  -5  -1   2   27.60    1.18
  -5   1   2   28.50    1.22
   4  -1  -2   12.87    0.60
   3  -1  -2   93.23    3.59
  -3  -1   2  108.86    3.83
  -3   1   2  107.52    3.86
   3   1  -2   85.37    4.22
  -3   1   2  102.91    3.60
  -2  -1   2    9.68    0.46
   2  -1  -2    8.52    0.42
  -2  -1   2    8.53    0.39
   2   1  -2    8.86    0.49
  -2   1   2    9.67    0.50
  -2   1   2    8.88    0.39
  -1  -1   2   77.50    2.76
   1  -1  -2   70.96    2.73
  -1  -1   2   75.85    2.92
   1  -1  -2   80.55    3.22
   1   1  -2   79.67    3.24
  -1   1   2   79.11    2.97
   1   1  -2   72.76    2.74
  -1   1   2   77.92    2.74
   0  -1  -2    0.41    0.06
   0  -1   2    0.25    0.07
   0  -1  -2    0.44    0.12
   0   1  -2    0.66    0.13
   0   1   2    0.35    0.05
   0   1  -2    0.34    0.05
   0   1   2    0.16    0.08
   1  -1   2  380.66   14.35
  -1  -1  -2  434.64   14.34
  -1   1  -2  417.00   14.18
  -1   1  -2  422.84   16.80
   1   1   2  362.40   15.15
  -2  -1  -2   41.56    1.53
  -2   1  -2   42.02    1.50
  -2   1  -2   41.16    1.90
  -3  -1  -2  128.74    4.61
  -3   1  -2  130.65    5.52
  -4  -1  -2  136.42    4.91
  -4   1  -2  138.34    5.89
  -5  -1  -2   65.88    3.00
  -5   1  -2   63.60    2.95
  -6  -1  -2   -0.28    0.23
  -6   1  -2   -0.77    0.20
  -6   1  -2    0.27    0.15
  -7  -1  -2   82.32    3.83
  -7  -1  -2   83.23    3.33
  -7   1  -2   81.82    3.34
  -7   1  -2   82.15    3.78
  -8  -1  -2   11.28    0.69
  -8  -1  -2   11.17    0.92
  -8   1  -2   11.57    0.71
  -8   1  -2   11.47    0.89
  -9  -1  -2   88.10    3.57
  -9  -1  -2   86.16    4.13
  -9  -1  -2   84.47    3.34
  -9   1  -2   87.98    3.60
  -9   1  -2   88.97    4.08
 -10  -1  -2    0.35    0.21
 -10  -1  -2    0.13    0.37
 -10  -1  -2    0.70    0.25
 -10   1  -2    0.59    0.25
 -10   1  -2    0.91    0.40
 -11  -1  -2   48.54    2.07
 -11  -1  -2   51.52    2.29
 -11  -1  -2   52.31    2.14
 -11   1  -2   47.91    2.30
 -11   1  -2   50.64    2.14
 -12  -1  -2   13.66    0.78
 -12  -1  -2   12.35    0.88
 -12  -1  -2   13.20    0.82
 -12   1  -2   11.50    0.79
 -12   1  -2   12.43    0.91
 -13  -1  -2   10.42    0.76
 -13   1  -2   10.65    0.86
 -13   1  -2   10.15    0.77
 -13  -2   2    6.12    0.63
 -13   2   2    7.19    0.64
 -13   2   2    6.79    0.79
 -12  -2   2   34.47    1.65
 -12   2   2   35.07    1.66
 -12   2   2   37.38    1.85
 -11  -2   2    0.00    0.23
 -11   2   2   -0.01    0.24
 -11   2   2   -0.04    0.21
 -10  -2   2   71.74    2.97
 -10  -2   2   71.90    2.84
 -10   2   2   69.42    2.83
 -10   2   2   70.34    3.04
  -9  -2   2   28.26    1.28
  -9  -2   2   27.36    1.33
  -9   2   2   29.25    1.41
  -9   2   2   27.61    1.27
  -8  -2   2   14.99    0.79
  -8  -2   2   16.18    0.78
  -8   2   2   12.31    0.72
  -8   2   2   14.95    0.85
  -7  -2   2    0.00    0.13
  -7  -2   2   -0.06    0.11
  -7   2   2    0.30    0.17
  -6  -2   2  300.83   10.95
  -6  -2   2  302.88   11.53
  -6   2   2  322.76   12.64
  -6   2   2  298.95   11.60
  -5  -2   2   80.08    3.09
  -5  -2   2   79.22    2.95
  -5   2   2   78.05    3.15
  -4  -2   2   34.05    1.32
  -4  -2   2   35.93    1.37
   4  -2  -2   30.31    1.30
   4   2  -2   30.95    1.65
  -4   2   2   35.51    1.45
  -3  -2   2   18.96    0.81
  -3  -2   2   21.00    0.86
   3  -2  -2   19.48    0.81
   3   2  -2   18.85    1.03
  -3   2   2   21.73    0.93
   2  -2  -2  171.79    6.18
  -2  -2   2  173.68    6.55
  -2   2   2  185.49    6.65
   2   2  -2  168.43    7.29
  -1  -2   2   21.65    0.87
   1  -2  -2   20.35    0.83
  -1  -2   2   21.08    0.84
   1   2  -2   23.35    1.03
  -1   2   2   23.44    0.97
   0  -2  -2    6.22    0.25
   0  -2   2    5.48    0.26
   0   2   2    4.77    0.20
  -1  -2  -2   11.59    0.43
   1  -2   2   10.36    0.45
  -1   2  -2   11.22    0.58
   1   2   2    9.60    0.47
  -1   2  -2    9.45    0.37
  -2  -2  -2  127.11    4.43
   2  -2   2  110.72    4.48
  -2   2  -2  130.91    5.29
  -2   2  -2  130.47    4.40
  -3  -2  -2   34.32    1.32
  -3   2  -2   35.82    1.65
  -4  -2  -2   18.07    0.75
  -4   2  -2   17.56    0.98
  -5  -2  -2   58.26    2.15
  -5   2  -2   55.93    2.63
  -5   2  -2   57.13    2.34
  -6   2  -2  144.13    5.70
  -6   2  -2  149.49    6.35
  -7  -2  -2   35.48    1.45
  -7  -2  -2   36.37    1.58
  -7  -2  -2   33.88    1.91
  -7   2  -2   35.83    1.61
  -7   2  -2   35.83    1.83
  -8  -2  -2    0.10    0.26
  -8  -2  -2    0.34    0.17
  -8  -2  -2    0.33    0.17
  -8   2  -2    0.54    0.20
  -8   2  -2    0.26    0.24
  -9  -2  -2   16.03    0.92
  -9  -2  -2   17.06    1.29
  -9  -2  -2   16.24    0.85
  -9   2  -2   16.79    1.17
  -9   2  -2   17.72    0.98
 -10  -2  -2   79.97    3.85
 -10  -2  -2   77.82    3.06
 -10  -2  -2   75.63    3.02
 -10  -2  -2   79.79    3.26
 -10   2  -2   76.05    3.30
 -11  -2  -2    2.75    0.43
 -11  -2  -2    2.57    0.36
 -11  -2  -2    2.43    0.37
 -11   2  -2    3.65    0.50
 -12  -2  -2    0.71    0.30
 -12  -2  -2    1.13    0.28
 -12  -2  -2    1.22    0.32
 -12   2  -2    1.13    0.37
 -12   2  -2    1.33    0.32
 -13  -2  -2    9.56    0.72
 -13   2  -2    8.63    0.71
 -13   2  -2    9.25    0.82
 -13  -3   2    0.10    0.26
 -13   3   2    0.05    0.25
 -13   3   2    0.06    0.30
 -12  -3   2   12.61    0.84
 -12   3   2   13.27    0.85
 -12   3   2   14.60    1.01
 -11  -3   2   45.98    2.02
 -11   3   2   48.06    2.24
 -11   3   2   46.93    2.04
 -10  -3   2   34.85    1.49
 -10   3   2   30.86    1.46
 -10   3   2   30.87    1.61
  -9  -3   2    2.57    0.34
  -9  -3   2    1.70    0.29
  -9   3   2    2.08    0.32
  -9   3   2    2.47    0.39
  -8  -3   2   23.35    1.10
  -8  -3   2   24.76    1.14
  -8   3   2   25.28    1.25
  -7  -3   2  160.34    5.81
  -7  -3   2  158.26    6.08
  -7   3   2  157.42    6.19
  -6  -3   2   70.21    2.65
  -6  -3   2   69.12    2.75
  -6   3   2   70.18    2.86
  -5  -3   2    9.74    0.49
   5  -3  -2    7.93    0.48
  -5  -3   2   10.28    0.50
  -5   3   2   10.08    0.59
  -4  -3   2  150.48    5.53
   4  -3  -2  141.08    5.25
  -4  -3   2  147.66    5.29
   4   3  -2  130.37    6.30
  -4   3   2  161.79    5.67
  -3  -3   2  158.73    5.44
   3  -3  -2  150.88    5.40
  -3  -3   2  157.11    5.70
   3   3  -2  127.86    6.42
  -3   3   2  162.44    5.83
  -2  -3   2   16.99    0.71
   2  -3  -2   17.97    0.72
  -2  -3   2   19.17    0.74
   2   3  -2   16.93    0.92
  -2   3   2   19.74    0.87
   0  -3  -2  357.76   12.10
   0  -3   2  315.64   12.08
   0   3   2  339.60   12.64
   1  -3   2   35.19    1.37
  -1  -3  -2   35.62    1.28
  -1  -3  -2   37.00    1.34
   1   3   2   33.14    1.44
  -1   3  -2   40.06    1.65
   2  -3   2   25.32    1.07
  -2  -3  -2   28.21    1.04
  -2  -3  -2   26.67    0.99
  -2   3  -2   27.98    1.29
  -3  -3  -2   52.32    1.97
  -3  -3  -2   53.74    1.94
  -3   3  -2   53.62    2.38
  -4  -3  -2   57.30    2.24
  -4  -3  -2   62.28    2.23
  -4   3  -2   60.40    2.44
  -4   3  -2   61.50    2.71
  -5  -3  -2   86.33    3.13
  -5  -3  -2   82.04    3.14
  -5   3  -2   85.43    3.77
  -5   3  -2   87.86    3.40
  -6  -3  -2    0.07    0.10
  -6  -3  -2    0.11    0.09
  -6   3  -2    0.00    0.17
  -6   3  -2    0.32    0.15
  -7  -3  -2   45.11    1.83
  -7  -3  -2   44.56    1.83
  -7  -3  -2   48.39    1.97
  -7   3  -2   46.62    2.02
  -7   3  -2   46.81    2.25
  -8  -3  -2   70.49    2.81
  -8  -3  -2   65.90    2.62
  -8  -3  -2   66.69    2.62
  -8   3  -2   69.60    3.19
  -8   3  -2   67.17    2.86
  -9  -3  -2   79.15    3.10
  -9  -3  -2   80.20    3.30
  -9  -3  -2   80.28    3.91
  -9  -3  -2   79.50    3.09
  -9   3  -2   80.73    3.73
  -9   3  -2   82.17    3.38
 -10  -3  -2    5.73    0.46
 -10  -3  -2    5.55    0.82
 -10  -3  -2    5.58    0.47
 -10  -3  -2    5.34    0.51
 -10   3  -2    5.35    0.60
 -11  -3  -2   18.25    1.41
 -11  -3  -2   17.15    1.00
 -11  -3  -2   17.22    0.93
 -11  -3  -2   15.53    0.89
 -11   3  -2   16.15    1.05
 -12  -3  -2   19.48    1.06
 -12  -3  -2   20.48    1.09
 -12   3  -2   20.32    1.24
 -13  -3  -2    2.14    0.39
 -13  -3  -2    2.23    0.38
 -13   3  -2    1.47    0.38
 -13   3  -2    2.50    0.52
 -13  -4   2   46.55    2.09
 -13   4   2   47.78    2.12
 -13   4   2   43.27    2.30
 -12  -4   2   14.89    0.89
 -12   4   2   14.03    1.03
 -12   4   2   13.65    0.88
 -11  -4   2    0.25    0.22
 -11   4   2    0.37    0.22
 -11   4   2    0.26    0.28
 -10  -4   2   24.31    1.19
 -10   4   2   24.26    1.20
 -10   4   2   25.94    1.37
  -9  -4   2   70.94    2.88
  -9  -4   2   74.72    2.99
  -9   4   2   74.63    3.14
  -8  -4   2    6.74    0.48
  -8  -4   2    7.43    0.48
  -8   4   2    7.21    0.58
  -7  -4   2    1.16    0.20
  -7  -4   2    1.59    0.22
  -7   4   2    0.88    0.24
   6  -4  -2   38.10    1.71
  -6  -4   2   45.69    1.75
  -6  -4   2   44.08    1.72
  -6   4   2   43.92    1.89
   5  -4  -2  186.31    7.21
  -5  -4   2  209.40    7.59
  -5  -4   2  207.22    7.27
  -5   4   2  203.79    7.74
  -4  -4   2    8.76    0.41
   4  -4  -2    7.94    0.42
  -4  -4   2    7.26    0.42
  -4   4   2    9.49    0.54
  -3  -4   2   71.37    2.52
  -3  -4   2   65.86    2.57
   3   4  -2   60.36    3.06
  -3   4   2   73.82    2.75
   2  -4  -2  137.11    4.85
  -2  -4   2  138.96    4.91
   2   4  -2  132.99    5.81
  -1  -4   2  699.09   24.50
   1  -4  -2  693.68   24.35
  -1   4   2  663.23   25.96
   0   4  -2    0.55    0.15
   0   4   2    0.44    0.13
   1  -4   2    7.04    0.26
  -1  -4  -2    6.05    0.27
  -1  -4  -2    7.33    0.33
  -1   4  -2    7.17    0.46
   1   4   2    6.53    0.36
   2  -4   2    0.46    0.11
  -2  -4  -2    0.48    0.06
  -2  -4  -2    0.60    0.10
   2   4   2    0.34    0.09
  -2   4  -2    0.72    0.17
  -3  -4  -2  186.44    6.73
  -3  -4  -2  188.42    6.71
  -3   4  -2  193.41    7.96
  -4  -4  -2    0.75    0.13
  -4  -4  -2    0.99    0.12
  -4   4  -2    1.01    0.18
  -4   4  -2    1.01    0.21
  -5  -4  -2  102.02    3.84
  -5  -4  -2  107.13    3.87
  -5   4  -2  105.89    4.16
  -5   4  -2  107.79    4.59
  -6  -4  -2   60.56    2.43
  -6  -4  -2   66.44    2.43
  -6   4  -2   64.38    2.93
  -6   4  -2   65.21    2.66
  -7  -4  -2   87.43    3.23
  -7  -4  -2   85.96    3.24
  -7   4  -2   88.31    3.88
  -7   4  -2   82.80    3.50
  -8  -4  -2   -0.02    0.13
  -8  -4  -2    0.54    0.19
  -8  -4  -2    0.25    0.14
  -8   4  -2    0.17    0.24
  -8   4  -2    0.16    0.18
  -9  -4  -2   71.66    2.95
  -9  -4  -2   69.89    2.78
  -9  -4  -2   71.26    2.78
  -9   4  -2   71.22    3.05
  -9   4  -2   71.81    3.34
 -10  -4  -2   10.56    0.72
 -10  -4  -2   11.50    1.09
 -10  -4  -2   10.45    0.66
 -10  -4  -2   10.77    0.66
 -10   4  -2   12.07    0.83
 -11  -4  -2   17.58    0.94
 -11  -4  -2   16.79    0.92
 -11  -4  -2   17.31    1.41
 -11   4  -2   17.30    1.09
 -12  -4  -2    0.05    0.22
 -12  -4  -2    0.25    0.21
 -12   4  -2   -0.08    0.24
 -13  -4  -2   22.08    1.16
 -13  -4  -2   20.63    1.13
 -13   4  -2   20.11    1.33
 -13  -5   2    0.26    0.28
 -13   5   2    0.24    0.26
 -13   5   2    0.36    0.36
 -12  -5   2   26.17    1.31
 -12   5   2   22.96    1.26
 -12   5   2   26.56    1.51
 -11  -5   2    5.52    0.50
 -11   5   2    5.98    0.71
 -11   5   2    5.15    0.53
 -10  -5   2   39.09    1.71
 -10   5   2   37.90    1.90
  -9  -5   2    0.34    0.19
  -9   5   2    0.13    0.22
  -8  -5   2   43.30    1.80
  -8  -5   2   43.01    1.79
  -8   5   2   42.49    1.98
  -7  -5   2    1.04    0.21
  -7  -5   2    1.06    0.18
  -7   5   2    0.84    0.24
   6  -5  -2   47.94    1.90
  -6  -5   2   49.08    1.92
  -6  -5   2   46.53    1.89
  -6   5   2   48.45    2.10
  -5  -5   2    0.00    0.09
   5  -5  -2    0.01    0.09
  -5  -5   2   -0.05    0.07
  -5   5   2   -0.05    0.13
  -4  -5   2  401.76   14.67
  -4  -5   2  405.58   13.99
   4  -5  -2  375.01   13.89
   4   5  -2  364.09   16.56
  -4   5   2  423.47   14.89
  -2  -5   2  198.24    6.84
   2  -5  -2  204.57    6.77
   2   5  -2  169.18    8.07
  -1  -5   2    2.67    0.21
   1  -5  -2    3.08    0.19
  -1   5   2    2.89    0.32
   0  -5  -2  132.38    5.03
   0  -5   2  146.75    5.11
   0  -5   2  143.88    5.00
   0   5   2  139.44    5.44
   0   5  -2  145.21    6.01
   0   5  -2  142.69    5.33
   1  -5   2    8.01    0.30
  -1  -5  -2    6.20    0.35
  -1  -5  -2    7.23    0.31
   1   5   2    7.76    0.41
  -1   5  -2    8.11    0.51
  -1   5  -2    7.87    0.39
  -2  -5  -2    0.24    0.06
  -2  -5  -2    0.09    0.07
  -2   5  -2    0.34    0.15
   2   5   2    0.26    0.09
  -3  -5  -2    5.09    0.29
  -3  -5  -2    4.77    0.25
   3  -5   2    4.45    0.32
  -3   5  -2    5.29    0.34
  -3   5  -2    5.20    0.41
  -4  -5  -2  368.28   13.10
  -4  -5  -2  367.06   13.02
  -4   5  -2  370.59   15.31
  -5  -5  -2    7.02    0.41
  -5  -5  -2    6.78    0.37
  -5   5  -2    7.25    0.55
  -5   5  -2    7.50    0.49
  -6  -5  -2    2.67    0.25
  -6  -5  -2    2.29    0.26
  -6   5  -2    2.45    0.36
  -6   5  -2    2.60    0.33
  -7  -5  -2   28.23    1.23
  -7  -5  -2   27.39    1.18
  -7   5  -2   28.75    1.37
  -7   5  -2   28.41    1.48
  -8  -5  -2  137.49    5.25
  -8  -5  -2  139.42    5.23
  -8  -5  -2  149.43    5.56
  -8   5  -2  141.09    5.66
  -8   5  -2  145.07    6.20
  -9  -5  -2   23.79    1.14
  -9  -5  -2   24.49    1.17
  -9  -5  -2   27.29    1.25
  -9   5  -2   25.20    1.34
 -10  -5  -2    3.18    0.42
 -10  -5  -2    4.62    0.46
 -10  -5  -2    3.54    0.40
 -10   5  -2    3.70    0.53
 -11  -5  -2    0.79    0.25
 -11  -5  -2    1.54    0.30
 -11  -5  -2    0.78    0.49
 -11   5  -2    1.53    0.39
 -12  -5  -2   59.46    2.46
 -12  -5  -2   58.04    2.44
 -12   5  -2   57.36    2.73
 -13  -5  -2   -0.11    0.19
 -13  -5  -2   -0.26    0.21
 -13   5  -2    0.15    0.30
 -13  -6   2   43.16    2.00
 -13   6   2   45.36    2.31
 -13   6   2   43.08    2.02
 -12  -6   2    0.42    0.25
 -12   6   2    0.15    0.23
 -12   6   2    0.37    0.33
 -11  -6   2    1.09    0.29
 -11   6   2    1.49    0.40
 -10  -6   2    0.97    0.27
 -10   6   2    0.63    0.32
  -9  -6   2  121.80    4.55
  -9   6   2  118.82    4.93
  -8  -6   2   12.26    0.69
  -8   6   2   12.36    0.83
  -7  -6   2    0.09    0.11
   7  -6  -2    0.23    0.13
  -7  -6   2    0.16    0.14
  -7   6   2    0.20    0.18
  -6  -6   2    4.86    0.30
  -6  -6   2    4.28    0.34
   6  -6  -2    4.31    0.34
  -6   6   2    4.29    0.47
   5  -6  -2  132.89    5.04
  -5  -6   2  139.42    5.24
  -5  -6   2  145.47    5.10
  -5   6   2  139.75    5.48
   4  -6  -2    1.01    0.15
  -4  -6   2    0.67    0.14
  -4   6   2    0.88    0.16
   4   6  -2    1.08    0.35
  -4   6   2    1.66    0.27
   3  -6  -2   77.93    2.92
  -3  -6   2   84.98    2.98
   3   6  -2   76.51    3.69
  -2   6   2    0.13    0.10
   2   6  -2    0.15    0.14
  -1  -6   2  408.15   14.03
   1   6  -2  382.87   14.74
   0  -6   2    3.63    0.19
   0  -6  -2    3.24    0.20
   0  -6   2    3.08    0.24
   0   6  -2    3.38    0.21
   0   6  -2    3.84    0.38
   0   6   2    3.84    0.33
  -1  -6  -2   40.56    1.58
   1  -6   2   36.46    1.66
   1  -6   2   45.45    1.56
   1   6   2   43.89    1.77
  -1   6  -2   48.16    2.01
  -1   6  -2   45.21    1.73
  -2  -6  -2   10.04    0.41
   2  -6   2    9.03    0.37
  -2  -6  -2    9.56    0.46
   2   6   2    9.06    0.48
  -2   6  -2    9.92    0.61
  -3  -6  -2  140.14    4.87
   3  -6   2  120.87    4.80
  -3  -6  -2  138.28    4.92
  -3   6  -2  145.05    5.82
  -3   6  -2  138.98    5.25
  -4  -6  -2   -0.04    0.08
  -4  -6  -2    0.00    0.07
  -4   6  -2    0.05    0.11
  -4   6  -2   -0.07    0.14
  -5  -6  -2   59.89    2.25
  -5  -6  -2   60.80    2.31
  -5   6  -2   59.89    2.73
  -6  -6  -2   16.38    0.79
  -6  -6  -2   16.77    0.74
  -6   6  -2   15.35    0.87
  -6   6  -2   16.53    0.97
  -7  -6  -2   71.51    2.79
  -7  -6  -2   73.21    2.84
  -7   6  -2   74.38    3.09
  -7   6  -2   76.81    3.36
  -8  -6  -2    0.29    0.16
  -8  -6  -2    0.53    0.17
  -8  -6  -2    0.78    0.20
  -8   6  -2    0.32    0.26
  -8   6  -2    0.46    0.23
  -9  -6  -2   85.97    3.35
  -9  -6  -2   87.71    3.50
  -9  -6  -2   84.22    3.30
  -9   6  -2   88.13    3.67
 -10  -6  -2    0.18    0.17
 -10  -6  -2   -0.20    0.17
 -10   6  -2   -0.14    0.20
 -11  -6  -2   16.10    0.93
 -11  -6  -2   16.59    0.91
 -11   6  -2   17.78    1.12
 -12  -6  -2    0.40    0.28
 -12  -6  -2    0.66    0.25
 -12   6  -2    0.39    0.31
 -13  -6  -2   31.43    1.55
 -13   6  -2   31.86    1.81
 -13  -7   2    1.92    0.41
 -13   7   2    2.06    0.42
 -13   7   2    1.77    0.52
 -12  -7   2   19.54    1.11
 -12   7   2   20.86    1.34
 -11  -7   2    8.21    0.62
 -11   7   2    7.19    0.80
 -10  -7   2   57.91    2.36
 -10   7   2   55.00    2.62
  -9  -7   2    1.11    0.27
  -9   7   2    0.71    0.32
  -8  -7   2  103.84    3.96
  -8   7   2  105.39    4.33
  -7  -7   2    0.23    0.14
   7  -7  -2    0.16    0.13
  -7   7   2    0.04    0.19
  -6  -7   2   66.84    2.61
   6  -7  -2   67.72    2.60
  -6  -7   2   70.04    2.63
  -6   7   2   67.59    2.89
  -5  -7   2    0.21    0.12
   5  -7  -2   -0.03    0.08
  -5   7   2   -0.04    0.15
  -5   7   2    0.14    0.12
   5   7  -2   -0.41    0.24
  -4  -7   2  248.13    8.58
   4  -7  -2  247.44    8.51
   4   7  -2  229.98   10.36
  -4   7   2  229.87    9.95
   3  -7  -2   12.30    0.53
  -3  -7   2   11.14    0.56
  -3   7   2   12.00    0.69
   3   7  -2   10.41    0.86
  -3   7   2    9.34    0.67
   2  -7  -2  188.15    6.88
  -2  -7   2  196.79    6.96
  -2   7   2  194.55    7.47
   2   7  -2  194.88    8.32
   1  -7  -2    1.23    0.15
  -1  -7   2    1.27    0.17
  -1  -7   2    1.51    0.14
   1   7  -2    1.21    0.12
   0  -7   2  168.19    6.03
   0  -7  -2  139.78    5.93
   0  -7   2  175.88    5.91
   0  -7  -2  162.16    5.95
   0   7   2  171.83    6.44
   0   7  -2  170.57    6.29
   0   7  -2  179.63    7.13
   1  -7   2   12.54    0.48
   1  -7   2   12.29    0.60
  -1  -7  -2   12.01    0.51
  -1   7  -2   10.18    0.55
   1   7   2   12.26    0.62
  -1   7  -2   11.79    0.73
  -2  -7  -2   22.26    0.87
   2  -7   2   21.48    0.98
   2  -7   2   22.56    0.83
  -2   7  -2   22.99    1.16
  -2   7  -2   22.44    0.99
   2   7   2   21.34    0.97
  -3  -7  -2    0.94    0.15
   3  -7   2    0.70    0.08
  -3  -7  -2    0.42    0.09
  -3   7  -2    0.43    0.18
  -3   7  -2    0.87    0.17
   3   7   2    0.57    0.13
   4  -7   2  300.14   11.92
  -4  -7  -2  348.21   12.05
  -4  -7  -2  342.58   12.05
  -4   7  -2  349.23   12.85
  -4   7  -2  360.94   14.17
  -5  -7  -2    0.22    0.10
  -5  -7  -2    0.19    0.11
  -5   7  -2    0.25    0.15
  -5   7  -2    0.12    0.17
  -6  -7  -2    7.54    0.48
  -6  -7  -2    8.07    0.44
  -6   7  -2    8.36    0.64
  -7  -7  -2    4.72    0.38
  -7  -7  -2    5.19    0.37
  -7   7  -2    4.19    0.48
  -7   7  -2    5.15    0.55
  -8  -7  -2  117.09    4.70
  -8  -7  -2  125.19    4.67
  -8  -7  -2  133.04    4.94
  -8   7  -2  129.89    5.52
  -8   7  -2  125.87    5.10
  -9  -7  -2    0.10    0.18
  -9  -7  -2    0.04    0.16
  -9   7  -2    0.10    0.21
 -10  -7  -2    1.55    0.30
 -10  -7  -2    1.14    0.26
 -10   7  -2    0.95    0.34
 -11  -7  -2    2.94    0.41
 -11  -7  -2    2.45    0.36
 -11   7  -2    1.82    0.43
 -12  -7  -2   35.09    1.63
 -12  -7  -2   33.41    1.64
 -12   7  -2   37.25    1.92
 -12  -8   2   10.16    0.73
 -12   8   2    9.35    0.90
 -11  -8   2    0.99    0.28
 -11   8   2    0.42    0.33
 -10  -8   2    5.56    0.48
 -10   8   2    5.61    0.71
  -9  -8   2   93.79    3.67
  -9   8   2   96.35    4.06
   8  -8  -2   32.06    1.40
  -8  -8   2   29.37    1.35
  -8   8   2   30.45    1.58
   7  -8  -2    0.41    0.16
  -7  -8   2    0.56    0.17
  -7   8   2    0.43    0.23
   6  -8  -2    3.58    0.30
  -6  -8   2    3.65    0.32
  -6   8   2    3.42    0.45
   5  -8  -2  147.97    5.21
  -5  -8   2  148.62    5.27
  -5   8   2  138.13    6.06
   5   8  -2  139.10    6.61
  -4  -8   2   16.33    0.76
   4  -8  -2   16.61    0.72
   4   8  -2   13.59    1.17
  -4   8   2   16.68    0.91
  -4   8   2   14.66    0.88
  -3  -8   2    4.58    0.33
   3  -8  -2    4.36    0.28
   3   8  -2    4.31    0.62
  -3   8   2    4.85    0.44
  -3   8   2    4.56    0.47
  -2  -8   2   44.96    1.72
  -2  -8   2   47.14    1.77
   2  -8  -2   45.52    1.72
   2   8  -2   43.33    2.27
  -2   8   2   43.72    1.97
   1  -8  -2  417.33   14.62
   1  -8  -2  405.58   14.53
  -1  -8   2  414.23   14.66
   1   8  -2  400.35   15.38
  -1   8   2  408.13   15.59
   1   8  -2  431.70   17.27
   0  -8  -2   20.63    0.87
   0  -8   2   21.06    0.83
   0  -8  -2   21.43    0.86
   0  -8   2   20.71    0.92
   0   8  -2   21.74    1.17
   0   8  -2   20.29    0.89
   1  -8   2   71.22    2.48
  -1  -8  -2   70.69    2.55
  -1  -8  -2   67.11    2.51
   1  -8   2   70.53    2.63
  -1   8  -2   68.50    3.09
   1   8   2   63.69    2.74
   2  -8   2  207.08    7.47
  -2  -8  -2  205.07    7.33
   2  -8   2  209.45    7.25
  -2   8  -2  215.37    8.71
  -2   8  -2  207.56    7.82
   2   8   2  191.85    7.79
  -3  -8  -2  335.40   11.75
   3  -8   2  315.42   11.65
   3  -8   2  343.16   11.92
  -3   8  -2  347.60   12.52
   3   8   2  301.49   12.44
  -3   8  -2  349.44   13.85
  -4  -8  -2    5.02    0.34
   4  -8   2    4.49    0.24
  -4  -8  -2    4.65    0.30
  -4   8  -2    4.59    0.47
  -4   8  -2    4.66    0.39
  -5  -8  -2   71.20    2.67
  -5  -8  -2   70.88    2.75
  -5   8  -2   72.27    2.97
  -5   8  -2   73.59    3.24
  -6  -8  -2   28.39    1.20
  -6  -8  -2   29.34    1.28
  -6   8  -2   30.27    1.52
  -7  -8  -2   81.94    3.12
  -7  -8  -2   80.38    3.19
  -7   8  -2   83.40    3.47
  -7   8  -2   86.86    3.74
  -8  -8  -2    0.27    0.16
  -8  -8  -2   -0.01    0.16
  -8   8  -2   -0.02    0.18
  -8   8  -2   -0.27    0.22
  -9  -8  -2   54.83    2.29
  -9  -8  -2   57.03    2.24
  -9   8  -2   54.52    2.53
 -10  -8  -2   16.96    0.96
 -10  -8  -2   17.98    0.92
 -10   8  -2   17.43    1.12
 -11  -8  -2   25.71    1.23
 -11  -8  -2   24.34    1.25
 -11   8  -2   24.41    1.45
 -12  -8  -2    0.40    0.25
 -12   8  -2    0.52    0.35
 -12  -9   2   13.88    0.92
 -12   9   2   17.18    1.22
 -11  -9   2   27.25    1.35
 -11   9   2   26.85    1.60
 -10  -9   2   16.42    0.92
 -10   9   2   16.23    1.13
  -9  -9   2    4.49    0.47
  -9   9   2    4.97    0.65
  -8  -9   2   18.77    0.93
   8  -9  -2   16.52    0.91
  -8   9   2   18.79    1.13
   7  -9  -2   94.64    3.57
  -7  -9   2   94.81    3.58
  -7   9   2   92.03    3.93
   6  -9  -2   25.86    1.15
  -6  -9   2   26.95    1.18
  -5  -9   2    0.05    0.13
   5  -9  -2    0.38    0.13
  -5   9   2    0.10    0.17
   5   9  -2   -0.34    0.24
  -5   9   2   -0.03    0.06
  -4  -9   2   99.47    3.58
   4  -9  -2   92.92    3.50
  -4   9   2   92.48    4.19
   4   9  -2   91.05    4.60
  -4   9   2  100.44    3.92
  -3  -9   2   24.82    1.06
   3  -9  -2   25.06    1.01
  -3  -9   2   25.22    1.04
   3   9  -2   21.32    1.50
  -3   9   2   23.85    1.32
  -3   9   2   23.93    1.23
   2  -9  -2   58.33    2.15
  -2  -9   2   59.85    2.17
  -2  -9   2   59.45    2.22
   2   9  -2   52.36    2.20
   2   9  -2   59.65    2.85
  -2   9   2   61.15    2.48
  -2   9   2   50.89    2.69
   1  -9  -2   23.53    1.03
   1  -9  -2   25.35    1.03
  -1  -9   2   26.04    1.01
  -1  -9   2   27.09    1.09
  -1   9   2   25.99    1.26
   1   9  -2   23.28    1.04
   1   9  -2   26.02    1.46
   0  -9  -2  138.22    4.99
   0  -9   2  136.63    5.07
   0  -9   2  141.12    4.94
   0  -9  -2  136.38    5.00
   0   9   2  138.23    5.43
   0   9  -2  137.31    5.27
   0   9  -2  141.89    6.04
  -1  -9  -2  143.68    5.41
   1  -9   2  150.55    5.53
   1  -9   2  156.18    5.36
  -1  -9  -2  148.15    5.43
  -1   9  -2  155.85    6.51
  -2  -9  -2   -0.07    0.08
   2  -9   2    0.13    0.12
  -2  -9  -2    0.15    0.09
   2  -9   2    0.36    0.08
  -2   9  -2    0.07    0.18
   2   9   2    0.14    0.08
  -2   9  -2    0.57    0.15
   3  -9   2   21.34    0.82
  -3  -9  -2   21.58    0.88
   3  -9   2   20.76    1.01
  -3   9  -2   21.19    1.02
  -3   9  -2   21.73    1.17
  -4  -9  -2  192.83    6.93
   4  -9   2  183.69    6.84
   4  -9   2  188.27    7.11
  -4  -9  -2  199.58    6.99
  -4   9  -2  200.87    7.47
  -4   9  -2  197.70    8.23
  -5  -9  -2   41.93    1.69
  -5  -9  -2   41.75    1.61
   5  -9   2   37.23    1.54
  -5   9  -2   44.27    1.86
  -5   9  -2   42.35    2.00
  -6  -9  -2    0.40    0.16
  -6  -9  -2    0.68    0.16
  -6   9  -2    0.40    0.18
  -6   9  -2    0.65    0.26
  -7  -9  -2    6.08    0.45
  -7  -9  -2    5.81    0.41
  -7   9  -2    5.97    0.59
  -7   9  -2    5.35    0.51
  -8  -9  -2   32.20    1.38
  -8  -9  -2   32.36    1.46
  -8   9  -2   33.13    1.64
  -9  -9  -2    5.31    0.46
  -9  -9  -2    4.69    0.41
  -9   9  -2    5.52    0.63
 -10  -9  -2    1.55    0.32
 -10  -9  -2    1.50    0.29
 -10   9  -2    1.20    0.36
 -11  -9  -2   13.51    0.86
 -11   9  -2   14.07    1.04
 -12  -9  -2   59.58    2.50
 -12   9  -2   55.11    2.78
 -12 -10   2   18.69    1.12
 -12 -10   2   19.45    1.10
 -12  10   2   18.40    1.34
 -11 -10   2    0.06    0.20
 -11 -10   2    0.39    0.25
 -11  10   2   -0.15    0.26
 -10 -10   2   18.94    1.02
 -10  10   2   18.26    1.24
  -9 -10   2   11.69    0.74
  -9  10   2   12.43    0.94
  -8 -10   2    5.70    0.47
   8 -10  -2    5.33    0.45
  -8  10   2    5.29    0.65
  -7 -10   2    3.21    0.37
   7 -10  -2    3.26    0.37
  -7  10   2    4.94    0.59
  -6 -10   2   56.39    2.22
   6 -10  -2   53.89    2.16
  -5 -10   2   36.67    1.54
  -5 -10   2   37.94    1.54
   5 -10  -2   37.61    1.49
   5  10  -2   36.53    2.32
  -5  10   2   33.81    1.79
   4 -10  -2   18.99    0.81
  -4 -10   2   18.33    0.85
  -4 -10   2   18.42    0.86
  -4  10   2   16.50    1.00
   4  10  -2   16.91    1.38
  -4  10   2   16.61    1.06
  -3 -10   2   15.63    0.76
  -3 -10   2   16.45    0.74
   3 -10  -2   14.86    0.69
  -3  10   2   14.23    0.99
   3  10  -2   14.30    1.18
  -3  10   2   15.65    0.93
  -2 -10   2   84.42    2.98
  -2 -10   2   84.65    3.05
   2 -10  -2   83.33    2.98
   2  10  -2   73.56    3.07
  -2  10   2   73.86    3.69
  -2  10   2   81.39    3.35
   1 -10  -2  119.64    4.43
  -1 -10   2  128.43    4.49
   1 -10  -2  121.18    4.40
  -1 -10   2  120.29    4.37
  -1  10   2  119.50    4.85
   1  10  -2  128.14    5.47
   1  10  -2  112.19    4.62
   0 -10  -2   11.70    0.57
   0 -10  -2   11.82    0.58
   0 -10   2   13.04    0.65
   0  10   2   13.01    0.76
   0  10  -2   12.37    0.89
   0  10  -2   10.97    0.59
  -1 -10  -2    9.75    0.50
   1 -10   2    9.44    0.44
   1 -10   2    8.15    0.53
  -1 -10  -2    9.24    0.47
  -1  10  -2   11.44    0.78
  -1  10  -2    9.37    0.53
   1  10   2   10.05    0.60
   2 -10   2   77.96    2.72
  -2 -10  -2   72.63    2.81
   2 -10   2   77.42    2.93
  -2 -10  -2   73.57    2.77
  -2  10  -2   76.86    3.43
  -2  10  -2   72.41    2.99
  -3 -10  -2   29.29    1.16
  -3 -10  -2   27.79    1.21
   3 -10   2   27.70    1.30
   3 -10   2   28.43    1.09
  -3  10  -2   30.29    1.32
  -3  10  -2   29.58    1.52
   4 -10   2    6.90    0.34
   4 -10   2    6.56    0.50
  -4 -10  -2    7.07    0.40
  -4  10  -2    7.13    0.51
  -4  10  -2    7.09    0.61
  -5 -10  -2   35.73    1.47
  -5 -10  -2   35.04    1.38
   5 -10   2   31.61    1.31
  -5  10  -2   34.85    1.74
  -5  10  -2   34.95    1.60
  -6 -10  -2   65.96    2.50
  -6 -10  -2   61.97    2.39
  -6  10  -2   61.77    2.69
  -6  10  -2   61.38    2.90
  -7 -10  -2    5.94    0.42
  -7 -10  -2    5.62    0.45
  -7  10  -2    6.09    0.55
  -7  10  -2    5.35    0.58
  -8 -10  -2   -0.08    0.15
  -8 -10  -2    0.09    0.16
  -8  10  -2   -0.07    0.21
  -9 -10  -2   10.38    0.63
  -9 -10  -2   10.98    0.71
  -9  10  -2   11.19    0.84
 -10 -10  -2   56.35    2.41
 -10  10  -2   58.39    2.70
 -11 -10  -2    7.35    0.63
 -11  10  -2    7.77    0.86
 -12 -10  -2    4.53    0.56
 -12  10  -2    3.47    0.61
 -12 -11   2    5.36    0.65
 -12 -11   2    6.05    0.64
 -12  11   2    6.34    0.87
 -11 -11   2   46.89    2.11
 -11 -11   2   44.76    2.04
 -11  11   2   46.98    2.41
 -10 -11   2    4.13    0.48
 -10 -11   2    4.72    0.53
 -10  11   2    3.56    0.61
  -9 -11   2    1.90    0.33
  -9 -11   2    1.83    0.34
   9 -11  -2    2.37    0.37
  -9  11   2    2.55    0.51
  -8 -11   2   33.97    1.58
  -8 -11   2   34.19    1.55
   8 -11  -2   34.28    1.55
  -8  11   2   38.77    1.87
  -7 -11   2  151.17    5.48
   7 -11  -2  147.03    5.40
  -7 -11   2  144.97    5.45
  -7  11   2  142.10    5.94
   6 -11  -2    2.99    0.33
  -6 -11   2    2.57    0.33
  -6 -11   2    2.67    0.33
  -6  11   2    3.01    0.49
   5 -11  -2    8.63    0.50
  -5 -11   2    8.15    0.54
  -5 -11   2    8.94    0.54
   5  11  -2    8.51    1.15
  -5  11   2    8.01    0.70
  -5  11   2    9.88    0.72
  -4 -11   2   29.46    1.26
   4 -11  -2   27.97    1.20
  -4 -11   2   29.18    1.27
  -4  11   2   31.85    1.52
   4  11  -2   29.17    1.97
  -4  11   2   27.09    1.58
  -3 -11   2   84.01    3.13
   3 -11  -2   81.79    3.09
  -3 -11   2   85.72    3.18
  -3  11   2   78.28    3.84
  -3  11   2   83.33    3.51
   3  11  -2   88.00    4.19
  -2 -11   2   14.87    0.73
   2 -11  -2   14.05    0.68
  -2 -11   2   14.98    0.69
  -2  11   2   14.83    0.91
  -2  11   2   14.15    1.04
   2  11  -2   14.17    0.67
  -1 -11   2   53.02    2.00
   1 -11  -2   49.41    1.92
  -1 -11   2   49.36    1.90
   1 -11  -2   50.61    1.95
   1  11  -2   44.24    2.00
   1  11  -2   56.03    2.63
  -1  11   2   48.15    2.22
   0 -11  -2   48.79    1.95
   0 -11   2   49.27    1.90
   0 -11   2   52.47    2.04
   0 -11  -2   50.56    1.95
   0  11  -2   53.27    2.56
   0  11   2   49.43    2.21
  -1 -11  -2   93.73    3.55
  -1 -11  -2   97.08    3.54
   1 -11   2   98.84    3.66
  -1  11  -2   94.47    3.76
   1  11   2   94.43    3.84
  -1  11  -2   97.29    4.35
   2 -11   2   11.64    0.65
  -2 -11  -2   10.91    0.56
  -2 -11  -2   10.69    0.53
   2 -11   2   10.12    0.47
   2  11   2    9.58    0.58
  -2  11  -2   10.40    0.61
  -2  11  -2   10.70    0.80
   3 -11   2   36.09    1.55
  -3 -11  -2   32.98    1.43
   3 -11   2   34.97    1.31
  -3 -11  -2   34.52    1.37
  -3  11  -2   34.15    1.54
  -3  11  -2   34.94    1.78
   4 -11   2   26.72    1.05
   4 -11   2   27.47    1.29
  -4 -11  -2   26.04    1.11
  -4  11  -2   26.39    1.45
  -4  11  -2   28.40    1.31
  -5 -11  -2   76.74    2.88
  -5  11  -2   77.19    3.50
  -5  11  -2   76.30    3.19
  -6 -11  -2    0.35    0.16
  -6 -11  -2    0.21    0.15
  -6  11  -2    0.05    0.18
  -6  11  -2    0.22    0.24
  -7 -11  -2   51.93    2.06
  -7 -11  -2   53.77    2.16
  -7  11  -2   52.22    2.36
  -7  11  -2   49.67    2.48
  -8 -11  -2    7.37    0.55
  -8 -11  -2    6.59    0.48
  -8  11  -2    6.91    0.64
  -9 -11  -2   20.80    1.11
  -9  11  -2   21.54    1.28
 -10 -11  -2    0.07    0.20
 -10  11  -2    0.03    0.27
 -11 -11  -2   40.62    1.88
 -11  11  -2   39.76    2.12
 -12 -11  -2    4.73    0.59
 -11 -12   2   -0.05    0.19
 -11 -12   2    0.16    0.25
 -11  12   2   -0.25    0.31
 -10 -12   2   25.25    1.31
 -10 -12   2   24.90    1.26
 -10  12   2   24.15    1.53
  -9 -12   2    6.64    0.57
  -9 -12   2    8.07    0.60
  -9  12   2    7.71    0.85
  -8 -12   2   50.78    2.17
  -8 -12   2   50.51    2.20
   8 -12  -2   54.47    2.17
  -8  12   2   51.91    2.50
  -7 -12   2    3.26    0.40
  -7 -12   2    3.50    0.41
   7 -12  -2    3.51    0.38
  -7  12   2    4.21    0.58
   6 -12  -2  111.02    4.20
  -6 -12   2  114.25    4.28
  -6 -12   2  116.27    4.30
  -6  12   2  110.87    4.70
  -5 -12   2    2.29    0.31
  -5 -12   2    1.90    0.28
   5 -12  -2    1.83    0.25
  -5  12   2    1.95    0.40
   5  12  -2    2.76    0.79
  -5  12   2    2.55    0.44
  -4 -12   2   21.25    0.98
  -4 -12   2   21.30    1.00
   4 -12  -2   20.87    0.92
  -4  12   2   19.98    1.19
   4  12  -2   20.31    1.67
  -4  12   2   19.15    1.28
  -3 -12   2    0.51    0.15
   3 -12  -2    0.50    0.14
  -3 -12   2    0.50    0.18
  -3  12   2    0.47    0.30
   3  12  -2    0.29    0.20
  -3  12   2    0.64    0.29
  -2 -12   2  148.60    5.26
   2 -12  -2  148.92    5.26
  -2 -12   2  152.25    5.36
  -2  12   2  142.00    5.80
   2  12  -2  138.67    5.51
  -2  12   2  137.87    6.47
   1 -12  -2   16.91    0.82
  -1 -12   2   17.87    0.86
   1 -12  -2   17.68    0.80
  -1 -12   2   16.90    0.78
  -1  12   2   18.02    1.04
   1  12  -2   16.80    0.84
   1  12  -2   18.70    1.29
   0 -12   2    0.99    0.15
   0 -12   2    0.70    0.19
   0 -12  -2    1.05    0.18
   0 -12  -2    0.74    0.16
   0  12  -2    0.66    0.17
   0  12   2    1.06    0.27
   0  12  -2    0.74    0.34
   1 -12   2    1.31    0.17
  -1 -12  -2    1.16    0.19
   1 -12   2    1.01    0.23
  -1 -12  -2    1.42    0.20
  -1  12  -2    1.64    0.41
   1  12   2    1.81    0.29
  -1  12  -2    1.52    0.25
  -2 -12  -2  191.20    7.08
   2 -12   2  196.20    7.23
  -2 -12  -2  200.46    7.07
   2  12   2  193.77    7.52
  -2  12  -2  193.29    7.54
  -2  12  -2  203.73    8.48
  -3 -12  -2    0.37    0.13
  -3 -12  -2    0.44    0.15
   3 -12   2    0.16    0.17
   3 -12   2    0.12    0.06
   3  12   2    0.33    0.13
  -3  12  -2    0.43    0.26
  -3  12  -2    0.39    0.17
   4 -12   2    3.24    0.22
  -4 -12  -2    3.27    0.29
   4 -12   2    2.87    0.39
  -4  12  -2    3.50    0.48
  -4  12  -2    4.36    0.47
  -5 -12  -2    4.39    0.38
  -5 -12  -2    4.35    0.36
  -5  12  -2    3.90    0.52
  -5  12  -2    5.10    0.48
  -6 -12  -2   75.42    2.86
  -6 -12  -2   76.56    2.97
  -6  12  -2   72.96    3.20
  -6  12  -2   76.15    3.47
  -7 -12  -2   18.84    0.97
  -7 -12  -2   16.30    0.86
  -7  12  -2   18.49    1.13
  -7  12  -2   18.66    1.09
  -8 -12  -2   -0.12    0.13
  -8  12  -2    0.24    0.24
  -9 -12  -2    0.34    0.22
  -9  12  -2   -0.18    0.21
 -10 -12  -2   67.87    2.90
 -10  12  -2   73.29    3.26
 -11 -12  -2    0.12    0.21
 -11  12  -2    0.29    0.34
 -11 -13   2   51.91    2.33
 -11 -13   2   51.63    2.28
 -11  13   2   51.17    2.67
 -10 -13   2    1.31    0.33
 -10 -13   2    1.29    0.32
 -10  13   2    1.70    0.48
  -9 -13   2    0.16    0.18
  -9 -13   2    0.55    0.26
  -9  13   2    0.62    0.34
  -8 -13   2    6.46    0.53
   8 -13  -2    6.35    0.51
  -8 -13   2    5.51    0.50
  -8  13   2    5.40    0.72
  -7 -13   2   70.43    2.93
   7 -13  -2   78.17    2.90
  -7 -13   2   73.18    2.96
  -7  13   2   74.05    3.32
  -6 -13   2    4.72    0.47
  -6 -13   2    4.92    0.49
   6 -13  -2    4.93    0.39
  -6  13   2    4.68    0.62
  -5 -13   2   30.26    1.34
  -5 -13   2   27.62    1.31
   5 -13  -2   30.53    1.27
  -5  13   2   30.09    1.60
   5  13  -2   29.17    2.21
  -4 -13   2    2.61    0.32
   4 -13  -2    2.33    0.28
  -4 -13   2    2.45    0.32
   4  13  -2    2.95    0.75
  -4  13   2    2.28    0.43
  -4  13   2    2.09    0.46
  -3 -13   2  115.11    4.23
   3 -13  -2  109.92    4.13
  -3 -13   2  112.08    4.17
  -3  13   2  113.33    4.65
  -3  13   2  110.41    5.17
  -2 -13   2    1.06    0.20
   2 -13  -2    1.12    0.19
  -2 -13   2    1.30    0.23
  -2  13   2    1.33    0.34
   1 -13  -2   45.20    1.82
   1 -13  -2   46.86    1.79
  -1 -13   2   45.50    1.76
  -1 -13   2   47.16    1.88
  -1  13   2   43.12    2.09
   1  13  -2   49.13    2.55
   1  13  -2   39.36    1.87
   0 -13   2    1.74    0.28
   0 -13  -2    2.22    0.26
   0 -13   2    1.73    0.21
   0 -13  -2    1.72    0.23
   0  13  -2    1.01    0.42
   0  13   2    1.85    0.36
   0  13  -2    1.35    0.25
  -1 -13  -2  118.08    4.34
  -1 -13  -2  116.53    4.35
   1 -13   2  114.49    4.26
   1 -13   2  121.28    4.48
  -1  13  -2  119.11    5.37
   1  13   2  120.64    4.71
  -1  13  -2  115.08    4.63
  -2 -13  -2    0.10    0.12
  -2 -13  -2    0.06    0.11
   2 -13   2    0.10    0.09
   2 -13   2    0.17    0.16
  -2  13  -2   -0.07    0.26
  -2  13  -2    0.15    0.16
   2  13   2    0.17    0.13
   3 -13   2   20.33    1.03
  -3 -13  -2   19.85    0.87
  -3 -13  -2   19.50    0.91
   3 -13   2   17.79    0.78
  -3  13  -2   18.12    1.20
  -3  13  -2   19.06    1.00
   3  13   2   18.04    0.90
   4 -13   2    3.28    0.44
  -4 -13  -2    3.22    0.31
  -4 -13  -2    3.00    0.35
  -4  13  -2    2.62    0.39
  -4  13  -2    2.84    0.48
  -5 -13  -2   35.65    1.46
  -5 -13  -2   35.56    1.53
  -5  13  -2   32.91    1.84
  -5  13  -2   36.23    1.69
  -6 -13  -2    2.43    0.30
  -6 -13  -2    3.16    0.38
  -6  13  -2    2.67    0.43
  -6  13  -2    2.24    0.43
  -7 -13  -2   40.13    1.79
  -7  13  -2   41.74    2.00
  -8 -13  -2    4.58    0.51
  -8  13  -2    3.41    0.55
  -9 -13  -2   18.28    1.04
  -9  13  -2   19.27    1.22
 -10 -13  -2    0.25    0.23
 -10  13  -2    0.43    0.32
 -11 -13  -2   24.59    1.35
 -11  13  -2   26.80    1.63
 -11 -14   2    0.30    0.24
 -11 -14   2    0.02    0.27
 -11  14   2    0.12    0.38
 -10 -14   2   19.97    1.17
 -10 -14   2   21.56    1.17
 -10  14   2   20.85    1.43
  -9 -14   2   28.39    1.37
  -9 -14   2   27.84    1.40
  -9  14   2   25.84    1.62
  -8 -14   2   11.38    0.75
  -8 -14   2   11.25    0.73
  -8  14   2   11.28    0.94
  -7 -14   2    1.00    0.26
  -7 -14   2    0.97    0.27
   7 -14  -2    0.86    0.24
  -7  14   2    0.86    0.36
   6 -14  -2   58.06    2.27
  -6 -14   2   57.21    2.34
  -6 -14   2   56.43    2.34
  -6  14   2   55.63    2.67
  -5 -14   2   14.80    0.81
   5 -14  -2   14.31    0.74
  -5 -14   2   14.25    0.78
   5  14  -2   11.78    1.56
  -5  14   2   13.55    1.00
  -4 -14   2   30.34    1.34
  -4 -14   2   31.73    1.38
   4 -14  -2   30.04    1.28
  -4  14   2   27.04    1.58
  -4  14   2   30.69    1.82
   4  14  -2   29.12    2.20
   3 -14  -2    5.72    0.40
  -3 -14   2    6.12    0.47
  -3 -14   2    5.42    0.41
  -3  14   2    4.95    0.74
  -3  14   2    5.62    0.68
   3  14  -2    5.69    0.97
  -2 -14   2  108.19    4.14
  -2 -14   2  108.02    4.05
   2 -14  -2  108.26    4.05
  -2  14   2  110.49    4.56
   2  14  -2  112.78    5.38
   1 -14  -2    9.61    0.57
   1 -14  -2    8.76    0.51
  -1 -14   2    8.14    0.58
  -1 -14   2    8.80    0.50
   1  14  -2    8.84    1.06
  -1  14   2    8.25    0.73
   0 -14   2    6.33    0.39
   0 -14  -2    6.63    0.44
   0 -14  -2    6.71    0.45
   0 -14   2    7.56    0.52
   0  14   2    6.76    0.62
   0  14  -2    6.25    0.84
   0  14  -2    5.70    0.48
   1 -14   2    8.38    0.59
   1 -14   2    7.73    0.43
  -1 -14  -2    8.33    0.50
  -1 -14  -2    8.02    0.49
  -1  14  -2    6.59    0.82
  -1  14  -2    7.20    0.54
   1  14   2    7.67    0.60
   2 -14   2   69.44    2.54
   2 -14   2   66.31    2.76
  -2 -14  -2   70.54    2.66
  -2 -14  -2   67.67    2.62
   2  14   2   70.73    2.82
  -2  14  -2   66.00    2.84
  -2  14  -2   66.24    3.32
   3 -14   2    5.96    0.33
   3 -14   2    6.25    0.51
  -3 -14  -2    5.25    0.40
  -3 -14  -2    5.56    0.39
   3  14   2    4.47    0.38
  -3  14  -2    5.25    0.68
  -3  14  -2    4.92    0.48
  -4 -14  -2    3.72    0.40
   4 -14   2    4.26    0.51
  -4 -14  -2    3.73    0.35
  -4  14  -2    3.94    0.47
  -4  14  -2    3.70    0.56
  -5 -14  -2    6.29    0.49
  -5 -14  -2    6.56    0.46
  -5  14  -2    5.31    0.67
  -5  14  -2    6.05    0.56
  -6 -14  -2  116.70    4.52
  -6  14  -2  123.55    4.90
  -6  14  -2  117.20    5.33
  -7 -14  -2    0.37    0.20
  -7  14  -2    0.55    0.31
  -8 -14  -2    0.61    0.24
  -8  14  -2    0.49    0.30
  -9 -14  -2    8.06    0.65
  -9  14  -2    7.06    0.82
 -10 -14  -2   39.66    1.87
 -10  14  -2   39.72    2.13
 -10 -15   2   14.72    0.92
 -10 -15   2   14.01    0.93
 -10  15   2   12.95    1.13
  -9 -15   2    0.36    0.22
  -9 -15   2    0.42    0.26
  -9  15   2    0.33    0.33
  -8 -15   2    9.89    0.70
  -8 -15   2    9.87    0.70
  -8  15   2   10.08    0.91
  -7 -15   2   50.29    2.18
  -7 -15   2   51.13    2.21
   7 -15  -2   51.89    2.12
  -7  15   2   53.02    2.56
  -6 -15   2    5.28    0.47
  -6 -15   2    5.30    0.48
   6 -15  -2    4.74    0.41
  -6  15   2    4.89    0.68
  -5 -15   2    5.34    0.45
   5 -15  -2    4.60    0.38
  -5 -15   2    3.91    0.45
  -5  15   2    5.44    0.69
   5  15  -2    5.31    1.07
  -4 -15   2   18.96    0.98
  -4 -15   2   19.78    0.96
   4 -15  -2   17.94    0.90
  -4  15   2   20.63    1.25
  -4  15   2   17.93    1.37
   4  15  -2   21.29    1.81
  -3 -15   2   64.88    2.64
   3 -15  -2   64.90    2.55
  -3 -15   2   63.05    2.57
  -3  15   2   67.90    3.00
   3  15  -2   72.88    3.82
  -2 -15   2    2.26    0.29
  -2 -15   2    2.11    0.32
   2 -15  -2    2.11    0.27
  -2  15   2    1.85    0.42
   2  15  -2    1.54    0.60
   1 -15  -2   29.95    1.34
  -1 -15   2   32.99    1.46
   1 -15  -2   33.96    1.42
  -1 -15   2   31.30    1.33
  -1  15   2   31.24    1.65
   1  15  -2   31.18    2.07
   0 -15  -2   28.85    1.25
   0 -15  -2   29.06    1.23
   0 -15   2   28.64    1.32
   0 -15   2   29.00    1.18
   0  15   2   27.82    1.46
   0  15  -2   26.99    1.82
   0  15  -2   24.38    1.31
   1 -15   2   43.21    1.94
  -1 -15  -2   48.11    1.85
  -1 -15  -2   41.69    1.81
   1 -15   2   45.83    1.76
  -1  15  -2   48.54    2.53
   1  15   2   44.66    2.03
  -1  15  -2   42.65    1.97
  -2 -15  -2    0.17    0.15
   2 -15   2    0.23    0.20
   2 -15   2    0.20    0.12
  -2 -15  -2    0.15    0.14
  -2  15  -2   -0.07    0.30
  -2  15  -2    0.19    0.19
   2  15   2    0.24    0.16
  -3 -15  -2    7.82    0.51
  -3 -15  -2    8.97    0.57
   3 -15   2    8.99    0.66
  -3  15  -2    9.08    0.67
  -3  15  -2    9.43    0.88
   4 -15   2   30.64    1.51
  -4 -15  -2   30.66    1.31
  -4 -15  -2   30.69    1.38
  -4  15  -2   30.87    1.77
  -4  15  -2   29.81    1.52
  -5 -15  -2   67.75    2.71
  -5  15  -2   65.43    3.26
  -5  15  -2   68.55    2.95
  -6 -15  -2    1.04    0.25
  -6  15  -2    0.75    0.30
  -6  15  -2    0.58    0.35
  -7 -15  -2   26.07    1.29
  -7  15  -2   25.49    1.46
  -8 -15  -2   23.84    1.25
  -8  15  -2   24.43    1.45
  -9 -15  -2   14.03    0.91
  -9  15  -2   15.29    1.11
 -10 -15  -2    0.00    0.20
 -10  15  -2   -0.47    0.27
 -10 -16   2   13.23    0.88
 -10 -16   2   11.97    0.88
 -10  16   2   13.44    1.16
  -9 -16   2   31.53    1.53
  -9 -16   2   28.86    1.45
  -9  16   2   27.21    1.76
  -8 -16   2   12.53    0.81
  -8 -16   2   11.72    0.81
  -8  16   2   11.74    1.03
  -7 -16   2    0.11    0.21
  -7 -16   2   -0.01    0.17
  -7  16   2   -0.08    0.27
  -6 -16   2   19.84    1.10
  -6 -16   2   22.16    1.13
   6 -16  -2   22.43    1.05
  -6  16   2   21.59    1.39
  -5 -16   2   40.69    1.81
  -5 -16   2   43.53    1.85
   5 -16  -2   42.93    1.75
  -5  16   2   40.54    2.14
  -4 -16   2    6.76    0.48
   4 -16  -2    6.02    0.44
  -4 -16   2    6.88    0.53
   4  16  -2    4.12    1.00
  -4  16   2    6.48    0.77
  -3 -16   2    0.62    0.23
  -3 -16   2    0.85    0.21
   3 -16  -2    0.97    0.20
  -3  16   2    0.46    0.31
   3  16  -2    0.02    0.42
  -2 -16   2   40.80    1.72
   2 -16  -2   40.13    1.71
  -2 -16   2   42.16    1.82
  -2  16   2   42.44    2.10
   2  16  -2   46.02    2.74
  -1 -16   2   52.74    2.17
  -1 -16   2   49.59    2.01
   1 -16  -2   49.18    2.04
   1 -16  -2   54.95    2.13
   1  16  -2   51.97    2.99
  -1  16   2   48.11    2.39
   0 -16   2    0.65    0.26
   0 -16   2    0.44    0.16
   0 -16  -2    0.64    0.18
   0 -16  -2    0.59    0.21
   0  16   2    0.54    0.28
   0  16  -2    0.68    0.46
   0  16  -2    0.58    0.26
   1 -16   2   19.49    0.88
  -1 -16  -2   20.30    0.96
  -1 -16  -2   19.73    0.95
   1 -16   2   20.37    1.08
   1  16   2   18.73    1.08
  -1  16  -2   19.37    1.46
  -1  16  -2   18.61    1.05
   2 -16   2   28.05    1.39
  -2 -16  -2   27.79    1.24
  -2 -16  -2   27.15    1.26
   2 -16   2   28.40    1.16
  -2  16  -2   27.63    1.77
  -2  16  -2   28.17    1.41
  -3 -16  -2   41.84    1.76
   3 -16   2   43.52    1.96
  -3 -16  -2   43.54    1.82
  -3  16  -2   45.01    2.40
  -3  16  -2   41.27    1.97
  -4 -16  -2    2.29    0.34
   4 -16   2    2.17    0.39
  -4  16  -2    1.78    0.50
  -4  16  -2    2.45    0.41
  -5 -16  -2   39.53    1.75
  -5  16  -2   41.27    2.20
  -5  16  -2   37.96    1.92
  -6 -16  -2   33.48    1.57
  -6  16  -2   32.56    1.92
  -6  16  -2   35.72    1.78
  -7 -16  -2   20.46    1.09
  -7  16  -2   18.57    1.23
  -8 -16  -2    0.66    0.26
  -8  16  -2    1.49    0.44
  -9 -16  -2   16.59    1.00
  -9  16  -2   14.95    1.16
 -10 -16  -2   30.97    1.58
 -10  16  -2   30.08    1.82
  -9 -17   2    0.82    0.30
  -9 -17   2    0.44    0.29
  -9  17   2    0.60    0.44
  -8 -17   2   20.25    1.14
  -8 -17   2   20.91    1.18
  -8  17   2   23.42    1.51
  -7 -17   2   13.85    0.88
  -7 -17   2   13.81    0.87
  -7  17   2   15.08    1.15
  -6 -17   2   25.67    1.29
  -6 -17   2   26.21    1.29
  -6  17   2   24.93    1.56
  -5 -17   2    3.27    0.42
  -5 -17   2    2.86    0.40
   5 -17  -2    3.39    0.37
  -5  17   2    4.02    0.65
   4 -17  -2   27.09    1.21
  -4 -17   2   25.84    1.25
  -4 -17   2   27.05    1.30
   4  17  -2   33.40    2.40
  -4  17   2   23.73    1.52
  -3 -17   2   12.95    0.75
   3 -17  -2   13.61    0.73
  -3 -17   2   14.36    0.83
   3  17  -2   12.91    1.60
  -3  17   2   15.48    1.07
  -2 -17   2   22.22    1.17
   2 -17  -2   23.42    1.09
  -2 -17   2   23.67    1.09
   2  17  -2   26.42    2.00
  -2  17   2   23.50    1.42
  -1 -17   2    0.42    0.16
  -1 -17   2    0.07    0.20
   1 -17  -2    0.39    0.17
   1 -17  -2    0.00    0.21
  -1  17   2    0.24    0.27
   1  17  -2   -0.29    0.43
   0 -17   2  160.33    6.07
   0 -17  -2  154.18    5.90
   0 -17   2  160.49    5.86
   0 -17  -2  164.88    5.98
   0  17   2  160.89    6.48
   0  17  -2  166.59    7.54
  -1 -17  -2   19.49    0.97
   1 -17   2   19.33    1.10
  -1 -17  -2   19.34    0.99
   1 -17   2   19.93    0.91
  -1  17  -2   19.61    1.12
   1  17   2   21.95    1.15
  -1  17  -2   19.90    1.54
  -2 -17  -2    7.06    0.49
  -2 -17  -2    5.99    0.47
   2 -17   2    6.02    0.56
  -2  17  -2    5.06    0.83
  -2  17  -2    6.31    0.58
   3 -17   2    2.41    0.41
  -3 -17  -2    2.18    0.34
  -3  17  -2    2.52    0.58
  -3  17  -2    2.86    0.45
  -4 -17  -2   60.03    2.55
   4 -17   2   65.73    2.74
  -4  17  -2   63.56    3.25
  -4  17  -2   63.41    2.81
  -5 -17  -2    6.97    0.54
  -5  17  -2    6.67    0.86
  -5  17  -2    7.13    0.66
  -6 -17  -2    0.19    0.18
  -6  17  -2    0.29    0.26
  -7 -17  -2    6.85    0.60
  -7  17  -2    7.69    0.83
  -8 -17  -2   47.37    2.15
  -8  17  -2   49.06    2.43
  -9 -17  -2    7.05    0.63
  -9  17  -2    6.88    0.85
  -9 -18   2   56.85    2.51
  -9 -18   2   58.37    2.56
  -9  18   2   57.71    2.99
  -8 -18   2    1.12    0.35
  -8 -18   2    0.74    0.29
  -8  18   2    0.63    0.43
  -7 -18   2    0.93    0.31
  -7 -18   2    0.85    0.27
  -7  18   2    0.88    0.42
  -6 -18   2    1.84    0.36
  -6 -18   2    1.98    0.36
  -6  18   2    1.64    0.48
  -5 -18   2   76.29    3.09
   5 -18  -2   79.59    3.02
  -5 -18   2   77.68    3.13
  -5  18   2   74.84    3.55
  -4 -18   2   -0.09    0.14
  -4 -18   2    0.07    0.20
   4 -18  -2   -0.20    0.11
  -4  18   2   -0.07    0.26
   4  18  -2   -0.57    0.48
  -3 -18   2    0.94    0.24
   3 -18  -2    1.04    0.23
  -3 -18   2    0.91    0.28
  -3  18   2    0.98    0.38
   3  18  -2    1.95    0.75
  -2 -18   2    8.87    0.66
   2 -18  -2    8.13    0.55
  -2 -18   2    8.32    0.55
   2  18  -2    8.61    1.30
  -2  18   2   10.07    0.87
  -1 -18   2   81.05    3.14
  -1 -18   2   83.69    3.31
   1 -18  -2   84.31    3.25
   1 -18  -2   79.39    3.16
   1  18  -2   88.17    4.50
  -1  18   2   77.35    3.59
   0 -18   2    2.86    0.45
   0 -18  -2    4.15    0.37
   0 -18   2    3.32    0.35
   0 -18  -2    3.36    0.42
   0  18   2    3.70    0.53
   0  18  -2    3.83    0.83
  -1 -18  -2   33.25    1.48
   1 -18   2   33.80    1.60
  -1 -18  -2   32.78    1.47
  -1  18  -2   33.03    2.20
   2 -18   2    7.86    0.66
  -2 -18  -2    7.05    0.52
  -2  18  -2    7.84    0.67
  -2  18  -2    7.39    1.00
  -3 -18  -2   61.03    2.53
   3 -18   2   63.39    2.71
  -3  18  -2   59.75    2.76
  -3  18  -2   65.77    3.34
  -4 -18  -2    1.12    0.27
   4 -18   2    0.69    0.31
  -4  18  -2    0.61    0.44
  -4  18  -2    0.78    0.32
  -5 -18  -2   18.40    1.00
  -5  18  -2   16.29    1.12
  -5  18  -2   18.73    1.40
  -6 -18  -2    0.27    0.21
  -6  18  -2    0.13    0.27
  -7 -18  -2   21.40    1.17
  -7  18  -2   21.32    1.36
  -8 -18  -2   -0.15    0.20
  -8  18  -2   -0.44    0.26
  -8 -19   2   40.91    1.90
  -8 -19   2   38.87    1.87
  -8  19   2   38.72    2.24
  -7 -19   2   -0.16    0.21
  -7 -19   2   -0.23    0.18
  -7  19   2   -0.06    0.32
  -6 -19   2   23.08    1.22
  -6 -19   2   24.32    1.26
  -6  19   2   22.33    1.52
  -5 -19   2    0.77    0.30
  -5 -19   2    0.90    0.27
  -5  19   2    1.11    0.43
   4 -19  -2   39.95    1.75
  -4 -19   2   40.72    1.81
  -4 -19   2   41.32    1.89
  -4  19   2   43.70    2.23
   4  19  -2   44.80    3.10
  -3 -19   2    1.01    0.30
  -3 -19   2    1.07    0.25
   3 -19  -2    0.88    0.23
   3  19  -2    0.36    0.61
  -3  19   2    0.59    0.36
  -2 -19   2   20.71    1.04
   2 -19  -2   21.52    1.04
  -2 -19   2   22.45    1.16
  -2  19   2   19.56    1.34
   2  19  -2   24.22    2.01
  -1 -19   2    0.30    0.23
   1 -19  -2    0.31    0.22
  -1 -19   2    0.10    0.14
   1 -19  -2    0.42    0.18
   1  19  -2    0.10    0.48
  -1  19   2    0.54    0.34
   0 -19  -2   50.56    2.05
   0 -19   2   49.23    2.19
   0 -19  -2   47.55    2.09
   0 -19   2   46.74    1.97
   0  19  -2   54.26    3.12
  -1 -19  -2    2.00    0.31
   1 -19   2    2.17    0.42
  -1  19  -2    2.34    0.68
  -2 -19  -2    3.03    0.39
   2 -19   2    3.02    0.48
  -2  19  -2    2.15    0.66
   3 -19   2    1.33    0.38
  -3 -19  -2    1.69    0.31
  -3  19  -2    1.94    0.43
  -3  19  -2    1.31    0.58
  -4 -19  -2   80.98    3.29
   4 -19   2   83.86    3.49
  -4  19  -2   82.81    4.19
  -4  19  -2   82.86    3.61
  -5 -19  -2    0.58    0.24
  -5  19  -2    0.90    0.50
  -5  19  -2    0.48    0.32
  -6 -19  -2    0.08    0.19
  -6  19  -2   -0.07    0.27
  -7 -19  -2    0.86    0.30
  -7  19  -2    0.63    0.38
  -8 -19  -2   49.12    2.23
  -8  19  -2   49.18    2.54
  -7 -20   2    2.79    0.48
  -7 -20   2    2.52    0.43
  -7  20   2    1.95    0.57
  -6 -20   2    3.92    0.51
  -6 -20   2    4.18    0.52
  -6  20   2    3.01    0.65
  -5 -20   2   50.65    2.19
  -5 -20   2   51.51    2.24
  -5  20   2   48.69    2.59
  -4 -20   2    7.43    0.57
  -4 -20   2    7.57    0.65
  -4  20   2    6.17    0.83
  -3 -20   2    3.63    0.42
  -3 -20   2    3.64    0.50
   3 -20  -2    4.16    0.43
  -3  20   2    3.59    0.64
   3  20  -2    3.32    1.00
  -2 -20   2    3.22    0.48
  -2 -20   2    4.08    0.43
   2 -20  -2    4.43    0.45
  -2  20   2    3.01    0.60
   2  20  -2    4.00    0.99
   1 -20  -2   28.80    1.38
   1 -20  -2   27.54    1.28
  -1 -20   2   26.46    1.40
  -1 -20   2   26.31    1.25
   1  20  -2   31.40    2.34
   0 -20   2    0.98    0.33
   0 -20  -2    1.73    0.30
   0  20  -2    0.89    0.62
   1 -20   2   19.66    1.17
  -1 -20  -2   20.19    1.05
  -1  20  -2   24.67    1.89
  -2 -20  -2    7.24    0.56
   2 -20   2    8.30    0.71
  -2  20  -2    7.26    1.10
   3 -20   2   66.40    2.80
  -3 -20  -2   58.49    2.57
  -3  20  -2   64.96    3.52
  -3  20  -2   62.91    2.88
   4 -20   2    3.33    0.55
  -4 -20  -2    3.75    0.47
  -4  20  -2    2.97    0.75
  -4  20  -2    2.65    0.51
  -5 -20  -2   21.21    1.15
  -5  20  -2   20.77    1.34
  -6 -20  -2    5.49    0.61
  -6  20  -2    4.85    0.70
  -7 -20  -2   10.31    0.77
  -7  20  -2   11.57    1.00
  -6 -21   2   11.03    0.81
  -6 -21   2    9.43    0.73
  -6  21   2   10.80    1.04
  -5 -21   2    0.28    0.21
  -5 -21   2    0.08    0.25
  -5  21   2    0.35    0.40
  -4 -21   2   31.70    1.57
  -4 -21   2   30.56    1.47
  -4  21   2   31.43    1.87
   3 -21  -2   16.87    0.91
  -3 -21   2   17.22    1.04
  -3 -21   2   17.25    0.94
  -3  21   2   16.52    1.25
   3  21  -2   16.27    2.04
   2 -21  -2    2.15    0.33
  -2 -21   2    2.09    0.34
  -2 -21   2    1.52    0.37
   2  21  -2    2.73    0.94
  -2  21   2    1.55    0.48
  -1 -21   2    5.94    0.66
   1 -21  -2    5.63    0.48
   1  21  -2    5.96    1.16
   0 -21   2   52.23    2.34
   0 -21  -2   48.00    2.14
   0  21  -2   59.01    3.43
  -1 -21  -2   10.12    0.67
   1 -21   2    8.69    0.76
  -1  21  -2   10.21    1.38
  -2 -21  -2    1.13    0.29
   2 -21   2    0.90    0.35
  -2  21  -2    1.92    0.70
   3 -21   2    3.01    0.53
  -3 -21  -2    3.27    0.44
  -3  21  -2    2.83    0.79
  -4 -21  -2   37.36    1.75
  -4  21  -2   36.29    1.98
  -4  21  -2   41.50    2.54
  -5 -21  -2    5.16    0.58
  -5  21  -2    4.43    0.68
  -6 -21  -2   -0.18    0.16
  -6  21  -2   -0.21    0.30
  -5 -22   2   24.12    1.34
  -5 -22   2   24.71    1.29
  -5  22   2   25.66    1.68
  -4 -22   2    1.79    0.35
  -4 -22   2    1.48    0.39
  -4  22   2    1.57    0.52
  -3 -22   2    3.21    0.51
  -3 -22   2    4.03    0.47
  -3  22   2    3.52    0.67
  -2 -22   2   22.05    1.28
  -2 -22   2   22.23    1.13
   2 -22  -2   24.06    1.15
   2  22  -2   22.10    2.19
   1 -22  -2   20.83    1.10
  -1 -22   2   22.83    1.29
   1  22  -2   25.27    2.21
   0 -22   2    3.13    0.52
   0 -22  -2    4.27    0.47
   0  22  -2    4.54    1.03
  -1 -22  -2    9.61    0.67
   1 -22   2    9.62    0.81
  -1  22  -2    8.98    1.36
  -2 -22  -2   16.88    0.98
   2 -22   2   19.00    1.18
  -2  22  -2   17.86    1.72
  -3 -22  -2   15.29    0.93
   3 -22   2   16.47    1.09
  -3  22  -2   16.13    1.58
  -4 -22  -2    0.02    0.22
  -4  22  -2    0.44    0.54
  -5 -22  -2    7.40    0.63
  -5  22  -2    6.85    0.86
  -4 -23   2    6.00    0.55
  -4 -23   2    5.39    0.66
  -4  23   2    5.61    0.86
  -3 -23   2   21.28    1.25
  -3 -23   2   20.63    1.11
  -2 -23   2    3.69    0.56
   2  23  -2    4.00    1.15
   1 -23  -2    7.14    0.57
  -1 -23   2    8.49    0.75
   1  23  -2    7.84    1.42
   0 -23   2   11.34    0.88
   0 -23  -2   10.18    0.71
   0  23  -2   12.57    1.68
   1 -23   2   24.08    1.38
  -1 -23  -2   23.55    1.20
  -1  23  -2   21.29    2.06
   2 -23   2    0.39    0.34
  -2 -23  -2    0.93    0.29
  -2  23  -2    1.02    0.68
   3 -23   2   11.11    0.91
  -3 -23  -2    9.76    0.72
  -3  23  -2   10.01    1.41
   0 -24   2    3.21    0.54
   0 -24  -2    2.73    0.42
   0  24  -2    3.56    1.08
  -1 -24  -2    0.36    0.24
 -13   0   3   13.57    0.89
 -12   0   3    0.37    0.23
 -11   0   3   95.80    3.94
 -11   0   3   92.02    3.68
 -10   0   3   -0.11    0.20
 -10   0   3   -0.37    0.19
  -9   0   3   38.46    1.72
  -9   0   3   34.80    1.58
  -8   0   3    0.00    0.16
  -8   0   3    0.18    0.13
  -6   0   3   -0.09    0.05
  -6   0   3   -0.01    0.14
  -5   0   3  218.50    8.24
  -5   0   3  213.95    7.76
  -4   0   3   -0.10    0.09
  -4   0   3    0.11    0.08
   4   0  -3    0.00    0.10
  -3   0   3  199.24    7.01
   3   0  -3  176.09    7.62
   3   0  -3  176.56    6.54
  -2   0   3   -0.33    0.08
   2   0  -3   -0.15    0.08
  -2   0   3   -0.39    0.04
   2   0  -3   -0.30    0.04
  -1   0   3  530.50   18.52
   1   0  -3  488.55   18.44
   1   0  -3  558.01   21.57
  -1   0   3  504.29   19.68
   0   0   3   -0.18    0.05
   0   0   3   -0.26    0.05
   0   0  -3   -0.15    0.04
   0   0  -3   -0.28    0.09
  -1   0  -3    9.29    0.37
   1   0   3    8.65    0.39
  -2   0  -3    0.03    0.04
  -2   0  -3   -0.46    0.11
  -3   0  -3  454.24   18.78
  -3   0  -3  449.97   16.00
  -4   0  -3   -0.38    0.17
  -4   0  -3    0.32    0.08
  -5   0  -3    8.30    0.41
  -5   0  -3    8.80    0.69
  -6   0  -3    0.08    0.09
  -7   0  -3  116.33    4.27
  -7   0  -3  115.20    5.28
  -7   0  -3  119.94    4.66
  -8   0  -3   -0.03    0.10
  -8   0  -3   -0.05    0.24
  -8   0  -3   -0.02    0.13
  -9   0  -3    0.01    0.31
  -9   0  -3    0.74    0.25
  -9   0  -3    0.37    0.15
 -10   0  -3   -0.31    0.29
 -10   0  -3   -0.03    0.13
 -10   0  -3   -0.10    0.17
 -11   0  -3   67.54    2.91
 -11   0  -3   63.79    2.67
 -12   0  -3   -0.04    0.23
 -12   0  -3    0.00    0.25
 -13   0  -3   -0.04    0.24
 -13   0  -3    0.40    0.33
 -13  -1   3    0.77    0.30
 -13   1   3    0.94    0.31
 -12  -1   3    2.77    0.42
 -12   1   3    3.84    0.47
 -12   1   3    2.37    0.47
 -11  -1   3    1.08    0.31
 -11  -1   3    2.21    0.42
 -11   1   3    2.06    0.41
 -11   1   3    1.00    0.31
 -10  -1   3   65.15    2.79
 -10  -1   3   65.05    2.63
 -10   1   3   65.12    2.83
 -10   1   3   64.21    2.63
  -9  -1   3    6.46    0.54
  -9  -1   3    5.34    0.47
  -9   1   3    6.83    0.50
  -9   1   3    6.76    0.57
  -8  -1   3    0.73    0.22
  -8  -1   3    0.30    0.15
  -8   1   3    0.03    0.08
  -8   1   3    0.07    0.18
  -7  -1   3    0.76    0.21
  -7   1   3    1.04    0.25
  -6  -1   3  217.33    8.39
  -6   1   3  220.35    7.94
  -6   1   3  223.17    8.44
  -5  -1   3   34.08    1.47
  -5   1   3   34.78    1.50
  -5   1   3   32.79    1.36
  -4  -1   3    0.24    0.13
   4  -1  -3   -0.02    0.08
  -4  -1   3    0.03    0.08
  -4   1   3    0.24    0.10
  -4   1   3    0.32    0.15
  -3  -1   3    0.33    0.12
  -3   1   3    0.15    0.07
   2  -1  -3  198.99    7.97
  -2  -1   3  198.70    6.87
  -2  -1   3  188.71    7.27
   2  -1  -3  185.13    6.82
   2   1  -3  195.53    8.02
  -2   1   3  197.73    6.85
   2   1  -3  186.70    6.83
  -2   1   3  189.98    7.33
  -1  -1   3  213.99    8.32
   1  -1  -3  223.81    7.81
   1  -1  -3  238.92    9.20
  -1  -1   3  215.39    7.86
  -1   1   3  205.30    7.84
  -1   1   3  225.85    8.37
   1   1  -3  224.13    7.91
   1   1  -3  226.54    9.21
   0  -1  -3   47.54    2.03
   0  -1   3   43.14    1.78
   0  -1   3   45.31    1.67
   0  -1  -3   45.70    1.65
   0   1  -3   48.62    2.03
   0   1  -3   43.92    1.63
   0   1   3   43.41    1.80
   0   1   3   44.87    1.64
  -1  -1  -3    3.47    0.18
   1  -1   3    3.08    0.19
  -1  -1  -3    3.29    0.30
  -1   1  -3    3.34    0.16
   1   1   3    2.74    0.16
  -2  -1  -3  241.46    9.66
  -2  -1  -3  230.38    8.19
   2  -1   3  206.84    8.16
  -2   1  -3  233.26    8.14
  -2   1  -3  238.11    9.64
  -3  -1  -3   71.52    2.57
  -3  -1  -3   68.70    3.20
  -3   1  -3   70.73    3.18
  -3   1  -3   72.04    2.54
  -4  -1  -3  144.86    5.20
  -4  -1  -3  148.13    6.33
  -4   1  -3  144.21    5.17
  -4   1  -3  146.73    6.29
  -5  -1  -3   10.01    0.78
  -5  -1  -3   10.62    0.49
  -5   1  -3   10.15    0.74
  -5   1  -3    9.56    0.46
  -6  -1  -3  106.48    3.92
  -6  -1  -3  112.39    4.88
  -6   1  -3  105.55    3.89
  -6   1  -3  106.78    4.82
  -7  -1  -3    2.21    0.25
  -7  -1  -3    0.77    0.44
  -7   1  -3    1.98    0.32
  -7   1  -3    2.89    0.24
  -7   1  -3    1.89    0.46
  -8  -1  -3    0.92    0.38
  -8  -1  -3    1.28    0.21
  -8  -1  -3    1.07    0.26
  -8   1  -3    0.90    0.32
  -8   1  -3    1.14    0.27
  -8   1  -3    1.13    0.19
  -9  -1  -3   15.57    1.26
  -9  -1  -3   16.48    0.84
  -9  -1  -3   17.65    0.99
  -9   1  -3   17.56    1.24
  -9   1  -3   18.59    1.02
  -9   1  -3   18.53    0.84
 -10  -1  -3   21.43    1.17
 -10  -1  -3   21.27    1.05
 -10  -1  -3   21.56    1.02
 -10  -1  -3   23.41    1.53
 -10   1  -3   20.51    1.17
 -10   1  -3   19.87    1.40
 -10   1  -3   20.85    0.99
 -11  -1  -3    0.17    0.17
 -11  -1  -3    0.10    0.20
 -11  -1  -3    0.12    0.21
 -11   1  -3    0.50    0.26
 -12  -1  -3   45.69    2.24
 -12  -1  -3   48.51    2.08
 -12   1  -3   49.08    2.09
 -12   1  -3   45.83    2.27
 -13  -1  -3    6.28    0.73
 -13  -1  -3    6.39    0.64
 -13   1  -3    4.74    0.67
 -13   1  -3    6.90    0.61
 -13  -2   3   10.00    0.76
 -13   2   3   10.72    0.77
 -12  -2   3    8.78    0.68
 -12   2   3    9.81    0.82
 -12   2   3    9.60    0.69
 -11  -2   3   56.82    2.41
 -11   2   3   55.69    2.61
 -11   2   3   59.72    2.43
 -10  -2   3    2.06    0.37
 -10  -2   3    1.19    0.30
 -10   2   3    1.35    0.30
 -10   2   3    1.86    0.39
  -9  -2   3   24.81    1.15
  -9  -2   3   25.11    1.22
  -9   2   3   22.70    1.26
  -9   2   3   23.69    1.15
  -8  -2   3   19.67    1.02
  -8  -2   3   20.79    0.98
  -8   2   3   20.60    1.10
  -7  -2   3   73.50    2.98
  -7  -2   3   75.23    2.84
  -7   2   3   72.19    3.05
  -6  -2   3    0.26    0.15
  -6  -2   3    0.13    0.13
  -6   2   3    0.38    0.18
  -6   2   3    0.17    0.12
   5  -2  -3  117.10    4.50
  -5  -2   3  131.30    4.78
  -5  -2   3  110.61    4.49
  -5   2   3  129.63    4.51
  -5   2   3  134.35    4.86
   5   2  -3  117.47    5.39
   4  -2  -3   53.62    2.07
  -4  -2   3   59.00    2.20
  -4   2   3   56.62    2.06
   4   2  -3   46.16    2.46
  -4   2   3   57.03    2.28
  -3  -2   3  203.10    7.32
  -3   2   3  205.88    7.42
   3   2  -3  186.12    8.11
  -3   2   3  180.62    6.90
   2  -2  -3   15.73    0.67
  -2  -2   3   13.91    0.59
   2  -2  -3   11.31    0.56
  -2  -2   3   13.05    0.61
   2   2  -3   13.81    0.73
  -2   2   3   14.68    0.72
  -2   2   3   14.05    0.57
  -1  -2   3    2.59    0.18
  -1  -2   3    2.22    0.17
   1  -2  -3    2.42    0.24
   1  -2  -3    2.46    0.16
   1   2  -3    2.95    0.28
   1   2  -3    2.29    0.16
  -1   2   3    2.57    0.27
  -1   2   3    2.88    0.15
   0  -2  -3    1.09    0.11
   0  -2  -3    1.13    0.19
   0  -2   3    1.20    0.13
   0   2  -3    0.94    0.08
   0   2   3    0.86    0.07
   0   2  -3    1.08    0.18
  -1  -2  -3    9.34    0.58
  -1  -2  -3    9.77    0.40
   1  -2   3    9.33    0.42
  -1   2  -3    8.51    0.54
  -1   2  -3    8.58    0.34
   1   2   3    8.65    0.46
   2  -2   3    1.82    0.17
  -2  -2  -3    1.64    0.14
  -2   2  -3    1.94    0.10
  -2   2  -3    1.98    0.27
  -3  -2  -3  141.27    5.26
  -3   2  -3  152.41    6.32
  -3   2  -3  150.43    5.21
  -4  -2  -3   50.09    1.86
  -4   2  -3   49.84    2.34
  -4   2  -3   49.05    1.80
  -5  -2  -3    1.55    0.18
  -5  -2  -3    1.61    0.35
  -5   2  -3    1.66    0.15
  -5   2  -3    1.79    0.33
  -6  -2  -3    7.12    0.72
  -6  -2  -3    7.79    0.43
  -6   2  -3    6.81    0.65
  -6   2  -3    7.95    0.54
  -7  -2  -3  133.08    6.08
  -7  -2  -3  138.64    4.95
  -7   2  -3  136.25    5.36
  -7   2  -3  134.44    5.99
  -8  -2  -3   21.82    0.99
  -8  -2  -3   23.10    1.14
  -8  -2  -3   21.64    1.45
  -8  -2  -3   22.26    1.01
  -8   2  -3   20.72    1.34
  -8   2  -3   22.05    1.16
  -9  -2  -3    1.38    0.49
  -9  -2  -3    2.25    0.37
  -9  -2  -3    2.59    0.33
  -9  -2  -3    2.09    0.28
  -9   2  -3    2.47    0.51
  -9   2  -3    1.89    0.35
 -10  -2  -3    9.93    0.64
 -10  -2  -3   10.72    1.05
 -10  -2  -3   10.21    0.62
 -10  -2  -3   10.17    0.72
 -10   2  -3    9.45    0.94
 -10   2  -3   10.38    0.76
 -11  -2  -3   40.26    2.33
 -11  -2  -3   38.31    1.71
 -11  -2  -3   38.33    1.68
 -11  -2  -3   39.41    1.87
 -11   2  -3   38.46    1.92
 -12  -2  -3    4.44    0.53
 -12  -2  -3    6.61    0.69
 -12   2  -3    5.13    0.66
 -13  -2  -3    0.28    0.26
 -13   2  -3    0.30    0.27
 -13   2  -3    0.01    0.28
 -13  -3   3   16.76    1.02
 -13   3   3   16.00    1.17
 -13   3   3   18.14    1.05
 -12  -3   3    2.87    0.43
 -12   3   3    3.33    0.55
 -12   3   3    2.71    0.41
 -11  -3   3   10.23    0.70
 -11   3   3   11.10    0.73
 -11   3   3   10.62    0.85
 -10  -3   3  106.11    4.01
 -10   3   3   99.38    4.31
 -10   3   3  105.51    4.01
  -9  -3   3    9.60    0.60
  -9  -3   3    9.14    0.62
  -9   3   3    9.38    0.70
  -9   3   3    8.43    0.59
  -8  -3   3    0.15    0.13
  -8  -3   3    0.12    0.16
  -8   3   3    0.14    0.19
  -8   3   3    0.07    0.12
  -7  -3   3   34.43    1.47
  -7  -3   3   35.49    1.54
  -7   3   3   35.68    1.65
   6  -3  -3  146.43    5.80
  -6  -3   3  164.57    6.11
  -6  -3   3  163.55    5.82
  -6   3   3  162.83    6.23
   5  -3  -3   38.53    1.54
  -5  -3   3   39.78    1.54
  -5  -3   3   39.54    1.59
   5   3  -3   32.56    1.91
  -5   3   3   39.62    1.71
  -4  -3   3    1.12    0.16
  -4  -3   3    1.34    0.18
   4  -3  -3    1.82    0.20
   4   3  -3    0.87    0.24
  -4   3   3    1.42    0.25
  -3  -3   3   97.60    3.79
  -3   3   3  104.68    3.95
   3   3  -3   96.12    4.29
  -2  -3   3   19.41    0.84
   2  -3  -3   21.37    0.94
   2   3  -3   20.89    1.04
  -2   3   3   21.43    1.00
   1  -3  -3   68.19    2.47
  -1  -3   3   69.65    2.51
   1   3  -3   70.86    2.97
  -1   3   3   67.11    2.44
  -1   3   3   64.42    2.71
   0  -3   3   44.10    1.58
   0  -3  -3   42.63    1.54
   0   3   3   38.81    1.48
  -1  -3  -3  107.28    3.61
   1  -3   3   95.99    3.66
   1   3   3   95.67    3.88
  -1   3  -3  104.00    4.32
  -2  -3  -3  140.91    5.02
   2  -3   3  131.05    5.09
  -2  -3  -3  148.36    4.98
  -2   3  -3  143.51    6.00
  -3  -3  -3   28.87    1.16
  -3   3  -3   30.96    1.08
  -3   3  -3   29.79    1.48
  -4  -3  -3   91.76    3.37
  -4   3  -3   96.59    3.29
  -4   3  -3   88.64    4.07
  -5  -3  -3   88.16    3.25
  -5  -3  -3   88.77    3.24
  -5   3  -3   88.93    3.96
  -6  -3  -3  121.20    4.39
  -6  -3  -3  118.66    4.39
  -6   3  -3  119.89    5.30
  -6   3  -3  121.85    4.77
  -7  -3  -3    0.72    0.35
  -7  -3  -3    0.58    0.16
  -7  -3  -3    0.32    0.14
  -7   3  -3    0.80    0.22
  -7   3  -3    0.49    0.29
  -8  -3  -3    1.91    0.26
  -8  -3  -3    1.87    0.27
  -8  -3  -3    1.71    0.48
  -8   3  -3    1.50    0.39
  -8   3  -3    1.79    0.33
  -9  -3  -3   43.90    2.43
  -9  -3  -3   42.52    1.77
  -9  -3  -3   42.57    1.94
  -9  -3  -3   41.54    1.77
  -9   3  -3   43.69    2.00
  -9   3  -3   43.57    2.26
 -10  -3  -3   27.19    1.25
 -10  -3  -3   26.98    1.81
 -10  -3  -3   26.94    1.38
 -10  -3  -3   27.48    1.26
 -10   3  -3   27.19    1.44
 -11  -3  -3    0.86    0.26
 -11  -3  -3    0.42    0.20
 -11  -3  -3    0.91    0.51
 -11  -3  -3    0.61    0.27
 -11   3  -3    0.81    0.31
 -12  -3  -3   29.58    1.40
 -12  -3  -3   28.14    1.37
 -12   3  -3   29.00    1.61
 -13  -3  -3   22.94    1.22
 -13   3  -3   25.52    1.30
 -13   3  -3   21.06    1.39
 -13  -4   3    4.17    0.54
 -13   4   3    3.47    0.62
 -13   4   3    3.54    0.51
 -12  -4   3   39.28    1.76
 -12   4   3   37.90    1.75
 -12   4   3   35.32    1.94
 -11  -4   3   44.74    1.92
 -11   4   3   41.91    1.89
 -11   4   3   41.47    2.10
 -10  -4   3    4.36    0.47
 -10   4   3    4.04    0.55
 -10   4   3    4.55    0.50
  -9  -4   3   25.47    1.22
  -9   4   3   25.90    1.38
  -9   4   3   26.02    1.22
  -8  -4   3   74.29    2.91
  -8  -4   3   72.98    3.01
  -8   4   3   76.91    3.18
  -7  -4   3   35.81    1.53
  -7  -4   3   36.85    1.58
  -7   4   3   37.45    1.72
   6  -4  -3    1.06    0.19
  -6  -4   3    0.55    0.16
  -6  -4   3    0.66    0.16
  -6   4   3    0.87    0.24
   5  -4  -3   41.60    1.70
  -5  -4   3   44.35    1.71
  -5  -4   3   45.61    1.76
   5   4  -3   35.97    2.16
  -5   4   3   47.14    1.93
   4  -4  -3  241.95    8.74
  -4  -4   3  241.63    8.79
  -4  -4   3  240.24    9.22
  -4   4   3  260.15    9.42
  -3  -4   3   34.33    1.51
  -3  -4   3   40.85    1.53
   3  -4  -3   42.27    1.51
   3   4  -3   34.36    1.85
  -3   4   3   44.93    1.76
   0  -4   3  587.21   21.23
   0  -4  -3  605.65   21.13
   0   4   3  594.70   22.53
  -1  -4  -3    2.11    0.15
   1  -4   3    1.10    0.15
  -1   4  -3    1.31    0.22
   1   4   3    1.55    0.19
  -2  -4  -3    8.75    0.39
  -2  -4  -3    7.93    0.31
  -2   4  -3    7.74    0.54
   2   4   3    7.13    0.43
   3  -4   3  101.97    3.96
  -3  -4  -3  104.55    3.88
  -3  -4  -3  110.60    3.84
  -3   4  -3  113.03    4.67
  -4  -4  -3  162.23    6.03
  -4  -4  -3  171.66    6.02
  -4   4  -3  172.61    7.20
  -5  -4  -3   11.43    0.56
  -5  -4  -3   10.87    0.51
  -5   4  -3   11.66    0.66
  -5   4  -3   10.56    0.76
  -6  -4  -3   48.63    1.86
  -6  -4  -3   49.59    1.90
  -6   4  -3   47.24    2.33
  -6   4  -3   47.51    2.09
  -7  -4  -3  117.87    4.30
  -7  -4  -3  116.64    4.32
  -7   4  -3  118.63    4.69
  -7   4  -3  114.94    5.18
  -8  -4  -3   79.91    3.03
  -8  -4  -3   78.43    3.04
  -8   4  -3   80.55    3.71
  -8   4  -3   79.73    3.34
  -9  -4  -3    1.09    0.27
  -9  -4  -3    1.02    0.46
  -9  -4  -3    1.01    0.23
  -9  -4  -3    0.93    0.22
  -9   4  -3    0.82    0.37
  -9   4  -3    1.24    0.33
 -10  -4  -3   41.56    1.90
 -10  -4  -3   42.67    2.45
 -10  -4  -3   41.65    1.76
 -10  -4  -3   39.38    1.74
 -10   4  -3   40.71    1.98
 -11  -4  -3   18.06    0.97
 -11  -4  -3   18.49    1.07
 -11  -4  -3   17.72    1.49
 -11  -4  -3   18.92    0.98
 -11   4  -3   18.48    1.16
 -12  -4  -3   24.35    1.24
 -12  -4  -3   25.24    1.26
 -12   4  -3   25.57    1.47
 -13   4  -3    0.14    0.30
 -13  -5   3   27.75    1.45
 -13   5   3   29.85    1.49
 -13   5   3   27.51    1.67
 -12  -5   3    0.80    0.30
 -12   5   3    0.97    0.29
 -12   5   3    0.79    0.38
 -11  -5   3   31.43    1.51
 -11   5   3   32.42    1.52
 -11   5   3   32.89    1.74
 -10  -5   3    0.56    0.24
 -10   5   3    0.58    0.31
 -10   5   3    0.16    0.20
  -9  -5   3  119.36    4.50
  -9   5   3  117.73    4.87
  -8  -5   3    0.26    0.18
  -8   5   3    0.09    0.21
   7  -5  -3   48.64    2.05
  -7  -5   3   51.18    2.03
  -7  -5   3   50.80    2.07
  -7   5   3   51.61    2.27
  -6  -5   3   18.92    0.90
   6  -5  -3   18.13    0.89
  -6  -5   3   20.07    0.88
  -6   5   3   20.58    1.07
  -5  -5   3   78.36    3.02
  -5  -5   3   76.64    2.94
   5  -5  -3   78.84    2.93
   5   5  -3   72.23    3.70
  -5   5   3   83.67    3.25
   4  -5  -3    0.87    0.16
  -4  -5   3    1.06    0.17
  -4  -5   3    1.06    0.12
  -4   5   3    0.85    0.24
   4   5  -3    0.53    0.26
   3  -5  -3  344.35   12.14
  -3  -5   3  321.15   12.78
  -3  -5   3  360.01   12.24
   3   5  -3  321.46   14.38
  -3   5   3  374.23   13.07
   1  -5  -3    0.04    0.03
  -1  -5   3    0.01    0.02
   1   5  -3    0.02    0.05
  -1   5   3    0.00    0.05
  -1  -5  -3  212.96    8.11
   1  -5   3  240.26    8.10
  -1  -5  -3  240.80    8.16
  -1   5  -3  238.61    9.66
   1   5   3  220.59    8.71
  -2  -5  -3    9.52    0.44
   2  -5   3    7.84    0.47
  -2  -5  -3    8.86    0.35
  -2   5  -3    9.99    0.62
  -3  -5  -3   34.44    1.35
   3  -5   3   32.29    1.41
  -3  -5  -3   34.06    1.27
  -3   5  -3   37.35    1.69
  -4  -5  -3   11.32    0.56
  -4  -5  -3   11.37    0.50
  -4   5  -3   12.16    0.66
  -4   5  -3   11.49    0.75
  -5  -5  -3  228.40    8.46
  -5  -5  -3  240.62    8.44
  -5   5  -3  242.18   10.02
  -6  -5  -3   11.49    0.58
  -6  -5  -3   12.85    0.64
  -6   5  -3   12.43    0.74
  -6   5  -3   13.11    0.85
  -7  -5  -3    9.49    0.58
  -7  -5  -3   11.26    0.57
  -7   5  -3   10.98    0.82
  -7   5  -3   11.43    0.72
  -8  -5  -3    1.02    0.21
  -8  -5  -3    0.27    0.15
  -8   5  -3    0.08    0.19
  -8   5  -3   -0.16    0.23
  -9  -5  -3  172.10    6.43
  -9  -5  -3  153.96    6.02
  -9  -5  -3  163.07    6.02
  -9   5  -3  169.24    7.18
  -9   5  -3  161.84    6.53
 -10  -5  -3    2.97    0.68
 -10  -5  -3    2.47    0.39
 -10  -5  -3    2.40    0.34
 -10  -5  -3    2.04    0.32
 -10   5  -3    2.81    0.48
 -11  -5  -3    0.15    0.18
 -11  -5  -3    0.04    0.19
 -11  -5  -3    0.51    0.46
 -11   5  -3   -0.31    0.20
 -12  -5  -3    2.88    0.41
 -12  -5  -3    3.30    0.45
 -12   5  -3    3.27    0.56
 -13  -5  -3   37.65    1.75
 -13  -6   3    0.84    0.34
 -13   6   3    1.03    0.35
 -13   6   3    0.67    0.43
 -12  -6   3   58.73    2.43
 -12   6   3   53.31    2.69
 -12   6   3   55.42    2.41
 -11  -6   3   -0.05    0.20
 -11   6   3   -0.30    0.18
 -11   6   3    0.05    0.26
 -10  -6   3    1.03    0.27
 -10   6   3    1.51    0.39
  -9  -6   3    1.46    0.29
  -9   6   3    1.37    0.37
  -8  -6   3  230.55    8.38
  -8   6   3  229.69    8.99
   7  -6  -3    2.41    0.32
  -7  -6   3    3.06    0.34
  -7   6   3    3.86    0.48
  -6  -6   3    0.92    0.16
   6  -6  -3    0.94    0.19
  -6  -6   3    0.52    0.16
  -6   6   3    0.61    0.23
   5  -6  -3    1.74    0.22
  -5  -6   3    1.41    0.21
  -5  -6   3    1.56    0.15
   5   6  -3    1.74    0.44
  -5   6   3    2.28    0.37
  -4  -6   3  212.85    7.71
   4  -6  -3  212.33    7.64
   4   6  -3  203.47    9.23
  -4   6   3  228.17    8.31
   3  -6  -3    1.08    0.16
  -3  -6   3    0.95    0.17
   3   6  -3    1.70    0.35
  -2  -6   3   17.47    0.77
   2  -6  -3   15.86    0.72
   2   6  -3   17.57    1.02
  -2   6   3   17.49    0.93
   1  -6   3    2.85    0.14
  -1  -6  -3    3.07    0.22
  -1  -6  -3    2.35    0.14
  -1   6  -3    2.80    0.35
  -2  -6  -3  100.14    3.61
  -2  -6  -3  103.02    3.69
   2  -6   3  100.05    3.78
  -2   6  -3  100.63    3.94
  -2   6  -3  103.34    4.41
  -3  -6  -3    1.39    0.18
   3  -6   3    1.44    0.21
  -3   6  -3    0.72    0.21
  -3   6  -3    1.27    0.20
  -4  -6  -3  266.30    9.50
  -4  -6  -3  265.36    9.54
  -4   6  -3  271.82   11.26
  -4   6  -3  269.40   10.19
  -5  -6  -3   13.21    0.59
  -5  -6  -3   13.32    0.66
  -5   6  -3   12.90    0.85
  -5   6  -3   13.36    0.75
  -6  -6  -3   34.49    1.37
  -6  -6  -3   36.12    1.45
  -6   6  -3   32.93    1.74
  -7  -6  -3   12.64    0.63
  -7  -6  -3   13.70    0.71
  -7   6  -3   12.76    0.90
  -7   6  -3   13.08    0.81
  -8  -6  -3  131.50    4.92
  -8  -6  -3  129.31    4.87
  -8   6  -3  133.71    5.84
  -8   6  -3  135.62    5.34
  -9  -6  -3    2.40    0.32
  -9  -6  -3    3.07    0.40
  -9  -6  -3    2.16    0.33
  -9   6  -3    2.82    0.44
  -9   6  -3    2.54    0.50
 -10  -6  -3   60.10    2.34
 -10  -6  -3   56.84    2.36
 -10   6  -3   55.52    2.63
 -11  -6  -3    0.36    0.44
 -11  -6  -3   -0.21    0.14
 -11  -6  -3    0.13    0.20
 -11   6  -3    0.06    0.24
 -12  -6  -3   19.47    1.66
 -12  -6  -3   18.14    1.04
 -12   6  -3   20.09    1.27
 -13  -7   3   43.60    2.00
 -13   7   3   43.37    2.01
 -13   7   3   42.03    2.30
 -12  -7   3    2.52    0.42
 -12   7   3    2.51    0.43
 -12   7   3    3.42    0.61
 -11  -7   3   15.44    0.91
 -11   7   3   15.20    1.09
 -10  -7   3    7.78    0.58
 -10   7   3    7.99    0.75
  -9  -7   3   27.37    1.29
  -9   7   3   27.64    1.51
   8  -7  -3   -0.04    0.15
  -8  -7   3   -0.08    0.16
  -8   7   3   -0.15    0.22
  -7  -7   3   73.49    2.77
   7  -7  -3   68.42    2.76
  -7   7   3   70.10    3.06
   6  -7  -3    4.20    0.33
  -6  -7   3    3.74    0.33
  -6   7   3    3.52    0.48
   6   7  -3    3.62    0.68
  -5  -7   3   40.90    1.61
   5  -7  -3   39.40    1.57
  -5   7   3   39.87    1.83
   5   7  -3   34.44    2.17
  -4  -7   3    0.78    0.17
   4  -7  -3    1.07    0.17
   4   7  -3    0.80    0.33
  -4   7   3    0.53    0.22
   3  -7  -3  190.18    7.05
  -3  -7   3  206.24    7.14
   3   7  -3  186.14    8.51
  -3   7   3  207.82    7.70
  -2  -7   3   66.11    2.45
   2  -7  -3   66.79    2.39
   2   7  -3   67.31    3.01
  -2   7   3   64.78    2.72
   2   7  -3   56.95    2.42
  -1  -7   3  224.77    8.07
   1  -7  -3  225.90    7.97
  -1   7   3  227.10    8.64
   1   7  -3  220.72    8.40
   0  -7   3   10.25    0.43
   0  -7   3   10.00    0.52
   0   7  -3   10.19    0.69
   0   7   3    9.52    0.60
   0   7  -3    9.56    0.48
   1  -7   3  121.66    4.05
  -1  -7  -3  109.29    4.14
  -1  -7  -3  106.86    4.08
  -1   7  -3  120.20    4.97
  -2  -7  -3   53.73    2.03
   2  -7   3   53.60    1.90
  -2  -7  -3   51.39    1.94
   2  -7   3   52.27    2.11
  -2   7  -3   55.06    2.48
  -2   7  -3   55.24    2.17
  -3  -7  -3   28.70    1.17
   3  -7   3   26.37    1.23
  -3  -7  -3   28.05    1.07
  -3   7  -3   29.51    1.46
   3   7   3   26.93    1.24
  -3   7  -3   30.81    1.29
  -4  -7  -3    2.76    0.20
   4  -7   3    3.53    0.37
  -4  -7  -3    2.80    0.25
  -4   7  -3    3.02    0.34
  -4   7  -3    2.79    0.40
  -5  -7  -3  197.30    7.19
  -5  -7  -3  197.07    7.13
  -5   7  -3  203.06    8.50
  -5   7  -3  201.85    7.71
  -6  -7  -3    1.57    0.23
  -6  -7  -3    1.47    0.19
  -6   7  -3    1.31    0.32
  -7  -7  -3    0.99    0.22
  -7  -7  -3    1.25    0.20
  -7   7  -3    1.50    0.34
  -7   7  -3    1.39    0.30
  -8  -7  -3   27.49    1.24
  -8  -7  -3   27.00    1.17
  -8   7  -3   24.87    1.49
  -8   7  -3   27.75    1.41
  -9  -7  -3  164.45    6.26
  -9  -7  -3  168.66    6.31
  -9  -7  -3  181.09    6.68
  -9   7  -3  170.29    6.83
 -10  -7  -3    0.97    0.26
 -10  -7  -3    0.74    0.25
 -10   7  -3    0.59    0.30
 -11  -7  -3    0.40    0.22
 -11  -7  -3    0.03    0.43
 -11   7  -3    0.80    0.34
 -12  -7  -3    0.03    0.43
 -12  -7  -3    0.01    0.20
 -12   7  -3    0.22    0.30
 -12  -8   3   34.20    1.63
 -12   8   3   32.05    1.88
 -12   8   3   34.04    1.63
 -11  -8   3   12.42    0.80
 -11   8   3   11.80    0.97
 -10  -8   3    0.37    0.22
 -10   8   3    0.15    0.28
  -9  -8   3   11.22    0.71
  -9   8   3   12.32    0.92
  -8  -8   3   57.06    2.34
   8  -8  -3   59.33    2.37
  -8   8   3   56.74    2.63
   7  -8  -3   13.69    0.74
  -7  -8   3   12.87    0.72
  -7   8   3   13.32    0.91
  -6  -8   3    0.38    0.17
   6  -8  -3    0.13    0.11
  -6   8   3    0.22    0.22
   6   8  -3   -0.06    0.31
   5  -8  -3   16.03    0.72
  -5  -8   3   15.76    0.75
  -5   8   3   11.63    0.84
   5   8  -3   13.79    1.19
   4  -8  -3  122.98    4.58
  -4  -8   3  130.68    4.66
   4   8  -3  124.36    5.77
   3  -8  -3   11.37    0.56
  -3  -8   3   11.58    0.61
  -3   8   3   11.88    0.77
   3   8  -3   11.63    0.92
  -2  -8   3    1.29    0.20
   2  -8  -3    1.35    0.17
   2   8  -3    1.23    0.11
   2   8  -3    1.35    0.34
  -2   8   3    1.19    0.28
   1  -8  -3   79.76    2.84
  -1  -8   3   80.50    2.91
  -1   8   3   75.86    3.18
   1   8  -3   71.79    2.93
   0  -8   3  230.15    8.55
   0  -8  -3  224.06    8.43
   0  -8  -3  234.52    8.45
   0  -8   3  245.66    8.39
   0   8  -3  244.53   10.06
   0   8  -3  237.83    8.93
   0   8   3  248.13    9.12
   1  -8   3   26.10    1.14
   1  -8   3   26.81    0.98
  -1  -8  -3   24.11    0.99
  -1   8  -3   26.23    1.37
   1   8   3   26.87    1.20
   2  -8   3   17.02    0.63
  -2  -8  -3   16.30    0.67
  -2  -8  -3   16.12    0.75
  -2   8  -3   17.19    0.98
  -2   8  -3   16.78    0.81
   2   8   3   16.92    0.82
   3  -8   3   48.19    2.03
   3  -8   3   47.82    1.79
  -3  -8  -3   51.01    1.86
  -3  -8  -3   52.49    1.96
   3   8   3   48.10    2.06
  -3   8  -3   52.52    2.38
  -3   8  -3   52.59    2.10
  -4  -8  -3  246.72    8.89
  -4  -8  -3  255.64    8.96
   4  -8   3  237.13    9.09
  -4   8  -3  257.57   10.58
  -4   8  -3  255.56    9.56
  -5  -8  -3    1.00    0.19
  -5  -8  -3    0.68    0.14
  -5   8  -3    0.87    0.21
  -5   8  -3    0.92    0.28
  -6  -8  -3    8.23    0.51
  -6  -8  -3    8.19    0.44
  -6   8  -3    7.39    0.67
  -7  -8  -3    0.61    0.20
  -7  -8  -3    0.76    0.17
  -7   8  -3    0.54    0.28
  -7   8  -3    0.40    0.20
  -8  -8  -3   35.68    1.61
  -8  -8  -3   39.02    1.55
  -8   8  -3   37.96    1.82
  -8   8  -3   36.27    1.93
  -9  -8  -3    5.14    0.44
  -9  -8  -3    5.94    0.48
  -9   8  -3    5.29    0.61
 -10  -8  -3   26.99    1.30
 -10   8  -3   25.76    1.48
 -11  -8  -3   13.24    0.84
 -11   8  -3   13.89    1.02
 -12  -8  -3   24.31    1.30
 -12  -8  -3   27.38    2.01
 -12   8  -3   24.20    1.51
 -12  -9   3    2.37    0.43
 -12   9   3    3.91    0.68
 -11  -9   3   11.33    0.78
 -11   9   3   11.56    0.98
 -10  -9   3   26.38    1.28
 -10   9   3   24.38    1.50
  -9  -9   3   18.31    0.97
   9  -9  -3   18.00    0.99
  -9   9   3   17.49    1.17
   8  -9  -3    0.78    0.23
  -8  -9   3    0.60    0.22
  -8   9   3    0.82    0.32
  -7  -9   3   55.75    2.24
   7  -9  -3   51.32    2.20
  -7   9   3   58.94    2.56
  -6  -9   3   89.86    3.50
   6  -9  -3   94.42    3.47
   6   9  -3   90.97    4.65
  -5  -9   3   37.02    1.52
   5  -9  -3   35.85    1.47
   5   9  -3   33.50    2.18
   4  -9  -3    0.34    0.11
  -4  -9   3    0.21    0.13
  -4   9   3    0.29    0.21
   4   9  -3    0.08    0.28
   3  -9  -3   91.94    3.43
  -3  -9   3   89.28    3.49
  -3   9   3   96.71    3.88
   3   9  -3   95.61    4.39
  -2  -9   3   85.67    3.05
  -2  -9   3   86.59    3.13
   2  -9  -3   84.82    3.05
   2   9  -3   84.88    3.86
  -2   9   3   83.23    3.45
   2   9  -3   71.27    3.11
  -1  -9   3   42.59    1.63
   1  -9  -3   40.28    1.56
   1   9  -3   37.59    1.57
  -1   9   3   38.71    1.82
   0  -9  -3   11.26    0.55
   0  -9  -3    9.66    0.49
   0  -9   3   11.53    0.49
   0  -9   3   11.55    0.60
   0   9   3   11.22    0.69
   0   9  -3   11.33    0.79
   0   9  -3   10.19    0.53
  -1  -9  -3   72.88    2.74
   1  -9   3   75.65    2.84
   1  -9   3   73.86    2.64
  -1  -9  -3   69.15    2.67
  -1   9  -3   75.88    3.35
   1   9   3   74.12    2.98
  -1   9  -3   72.24    2.88
   2  -9   3   67.52    2.61
   2  -9   3   67.09    2.37
  -2  -9  -3   63.75    2.41
  -2   9  -3   70.52    3.05
  -2   9  -3   64.57    2.65
   2   9   3   63.51    2.67
   3  -9   3   18.60    0.72
  -3  -9  -3   19.17    0.87
  -3  -9  -3   19.17    0.79
   3   9   3   19.60    0.92
  -3   9  -3   19.92    1.12
  -3   9  -3   19.80    0.95
   4  -9   3    9.01    0.40
  -4  -9  -3   11.21    0.57
  -4  -9  -3    9.89    0.47
  -4   9  -3   10.70    0.64
  -4   9  -3   10.07    0.75
  -5  -9  -3  115.31    4.24
  -5  -9  -3  111.85    4.14
  -5   9  -3  114.51    4.56
  -5   9  -3  114.89    5.03
  -6  -9  -3    7.59    0.51
  -6  -9  -3    8.05    0.45
  -6   9  -3    8.45    0.61
  -6   9  -3    7.26    0.67
  -7  -9  -3    1.80    0.29
  -7  -9  -3    2.41    0.26
  -7   9  -3    2.07    0.36
  -7   9  -3    2.53    0.44
  -8  -9  -3   46.87    1.93
  -8  -9  -3   45.46    1.82
  -8   9  -3   44.48    2.27
  -8   9  -3   43.97    2.12
  -9  -9  -3   27.37    1.33
  -9   9  -3   29.24    1.54
 -10  -9  -3   25.58    1.26
 -10   9  -3   24.10    1.42
 -11  -9  -3    0.01    0.18
 -11   9  -3    0.18    0.28
 -12  -9  -3    9.09    0.70
 -12   9  -3    7.80    0.89
 -12 -10   3   16.96    1.02
 -12  10   3   15.38    1.24
 -11 -10   3   16.12    0.97
 -11  10   3   15.79    1.19
 -10 -10   3    0.42    0.24
 -10  10   3    0.10    0.31
  -9 -10   3   17.54    0.95
   9 -10  -3   16.27    0.95
  -9  10   3   18.36    1.19
   8 -10  -3   44.48    1.91
  -8 -10   3   44.23    1.89
  -8  10   3   45.15    2.20
  -7 -10   3   35.89    1.59
   7 -10  -3   38.17    1.58
  -7  10   3   35.36    1.85
   6 -10  -3    9.64    0.57
  -6 -10   3    8.39    0.58
   6  10  -3   10.21    1.26
  -6  10   3    9.38    0.77
  -5 -10   3   52.52    2.16
   5 -10  -3   53.81    2.11
   5  10  -3   56.23    3.08
  -4 -10   3   83.04    3.16
   4 -10  -3   79.12    3.08
  -4  10   3   84.36    3.52
   4  10  -3   84.38    4.15
  -3 -10   3   36.70    1.51
   3 -10  -3   34.59    1.44
  -3 -10   3   36.64    1.46
   3  10  -3   36.87    2.09
  -3  10   3   35.14    1.75
   2 -10  -3    0.01    0.07
  -2 -10   3    0.02    0.07
  -2 -10   3    0.09    0.13
   2  10  -3    0.06    0.23
   2  10  -3    0.08    0.07
  -2  10   3    0.06    0.19
  -1 -10   3   74.66    2.85
  -1 -10   3   74.83    2.73
   1 -10  -3   76.55    2.78
   1  10  -3   68.58    2.85
   1  10  -3   76.70    3.50
  -1  10   3   73.42    3.13
   0 -10  -3   55.16    2.12
   0 -10  -3   53.43    2.08
   0 -10   3   53.99    2.19
   0  10   3   56.73    2.40
   0  10  -3   57.88    2.68
   1 -10   3   18.98    0.93
  -1 -10  -3   17.48    0.78
   1 -10   3   19.89    0.76
  -1 -10  -3   18.80    0.85
  -1  10  -3   18.84    0.88
   1  10   3   19.09    0.97
  -1  10  -3   19.85    1.15
  -2 -10  -3   27.10    1.13
   2 -10   3   29.67    1.09
   2 -10   3   30.01    1.32
  -2  10  -3   28.98    1.29
  -2  10  -3   29.53    1.54
   2  10   3   28.27    1.30
  -3 -10  -3  101.92    3.53
   3 -10   3   88.48    3.71
   3 -10   3   95.48    3.44
  -3 -10  -3   94.83    3.61
  -3  10  -3   99.73    3.86
  -3  10  -3  104.45    4.35
   3  10   3   93.67    3.81
  -4 -10  -3   52.25    1.99
  -4 -10  -3   51.94    2.09
  -4  10  -3   55.48    2.27
  -4  10  -3   52.59    2.53
  -5 -10  -3    1.95    0.26
  -5 -10  -3    1.63    0.20
  -5  10  -3    1.74    0.31
  -5  10  -3    1.51    0.35
  -6 -10  -3   26.21    1.19
  -6 -10  -3   25.78    1.09
  -6  10  -3   24.47    1.43
  -6  10  -3   26.83    1.33
  -7 -10  -3  100.71    3.74
  -7 -10  -3   94.72    3.61
  -7  10  -3   95.84    4.37
  -7  10  -3   97.93    4.05
  -8 -10  -3   30.51    1.41
  -8  10  -3   30.73    1.69
  -8  10  -3   30.84    1.59
  -9 -10  -3    0.91    0.26
  -9  10  -3    1.60    0.38
 -10 -10  -3    5.39    0.56
 -10  10  -3    4.58    0.64
 -11 -10  -3   30.31    1.50
 -11  10  -3   30.79    1.73
 -12 -10  -3   13.94    0.92
 -12  10  -3   15.48    1.16
 -12 -11   3    2.54    0.47
 -12 -11   3    3.40    0.50
 -12  11   3    1.74    0.56
 -11 -11   3    7.68    0.63
 -11 -11   3    5.02    0.58
 -11  11   3    6.59    0.85
 -10 -11   3   59.17    2.52
 -10  11   3   61.74    2.93
  -9 -11   3    5.44    0.53
   9 -11  -3    4.42    0.51
  -9  11   3    4.38    0.64
  -8 -11   3    0.15    0.20
   8 -11  -3   -0.17    0.13
  -8  11   3    0.13    0.26
   7 -11  -3   16.71    0.88
  -7 -11   3   17.90    0.93
  -7  11   3   17.33    1.13
  -6 -11   3  136.38    5.13
   6 -11  -3  139.30    5.07
  -6  11   3  139.31    5.64
   6  11  -3  132.47    6.66
  -5 -11   3   15.91    0.82
  -5 -11   3   15.66    0.81
   5 -11  -3   15.18    0.77
   5  11  -3   14.37    1.39
  -5  11   3   16.87    1.06
  -4 -11   3    0.05    0.11
   4 -11  -3    0.28    0.13
  -4 -11   3    0.07    0.14
   4  11  -3   -0.31    0.31
  -4  11   3   -0.01    0.21
   3 -11  -3    0.69    0.16
  -3 -11   3    0.70    0.19
  -3 -11   3    1.01    0.18
  -3  11   3    1.23    0.33
   3  11  -3    0.77    0.39
  -2 -11   3   90.49    3.14
   2 -11  -3   85.05    3.14
  -2 -11   3   83.89    3.22
   2  11  -3   75.40    3.22
  -2  11   3   87.89    3.59
  -1 -11   3    4.23    0.28
   1 -11  -3    4.27    0.31
  -1 -11   3    4.13    0.35
   1  11  -3    4.20    0.29
  -1  11   3    4.34    0.53
   1  11  -3    4.18    0.60
   0 -11   3   19.49    0.95
   0 -11  -3   19.42    0.88
   0 -11  -3   19.26    0.85
   0 -11   3   20.02    0.82
   0  11  -3   18.89    1.24
   0  11   3   21.50    1.10
  -1 -11  -3   57.03    2.22
   1 -11   3   61.11    2.19
   1 -11   3   61.33    2.40
  -1 -11  -3   57.97    2.28
  -1  11  -3   57.41    2.40
  -1  11  -3   61.21    2.87
   1  11   3   60.18    2.51
   2 -11   3  150.24    5.33
  -2 -11  -3  132.95    5.16
   2 -11   3  146.23    5.03
  -2 -11  -3  134.82    5.10
  -2  11  -3  145.67    6.21
  -2  11  -3  143.56    5.49
   2  11   3  138.74    5.51
  -3 -11  -3    7.43    0.39
   3 -11   3    6.75    0.32
  -3  11  -3    7.56    0.51
   3  11   3    6.88    0.47
  -3  11  -3    6.57    0.64
  -5 -11  -3   26.54    1.22
  -5 -11  -3   26.53    1.11
  -5  11  -3   28.65    1.36
  -5  11  -3   26.98    1.50
  -6 -11  -3   86.42    3.27
  -6 -11  -3   88.50    3.39
  -6  11  -3   91.08    3.68
  -6  11  -3   86.13    3.99
  -7 -11  -3    0.38    0.18
  -7  11  -3    0.18    0.21
  -7  11  -3    0.19    0.27
  -8 -11  -3   42.71    1.88
  -8  11  -3   44.58    2.11
  -9 -11  -3   20.21    1.09
  -9  11  -3   21.67    1.28
 -10 -11  -3   24.40    1.27
 -10  11  -3   25.65    1.49
 -11 -11  -3    0.85    0.29
 -11  11  -3    0.80    0.37
 -11 -12   3   31.60    1.61
 -11 -12   3   34.61    1.68
 -11  12   3   34.70    1.99
 -10 -12   3    0.29    0.26
 -10 -12   3    0.82    0.27
 -10  12   3    0.38    0.37
  -9 -12   3   26.44    1.32
  -9 -12   3   26.14    1.33
   9 -12  -3   26.81    1.32
  -9  12   3   26.92    1.60
  -8 -12   3    0.86    0.25
  -8 -12   3    0.65    0.25
   8 -12  -3    0.62    0.23
  -8  12   3    1.41    0.41
  -7 -12   3   50.03    2.10
   7 -12  -3   51.19    2.06
  -7 -12   3   48.00    2.08
  -7  12   3   49.42    2.42
  -6 -12   3    7.80    0.54
  -6 -12   3    8.22    0.58
   6 -12  -3    7.90    0.52
  -6  12   3    8.81    0.79
   6  12  -3    6.00    1.13
  -5 -12   3  117.67    4.41
   5 -12  -3  113.91    4.35
  -5 -12   3  118.41    4.45
   5  12  -3  121.95    5.90
  -5  12   3  117.71    4.91
  -4 -12   3    6.09    0.43
  -4 -12   3    6.34    0.48
   4 -12  -3    6.14    0.42
   4  12  -3    6.21    0.97
  -4  12   3    7.41    0.76
  -3 -12   3   27.26    1.17
  -3 -12   3   29.04    1.25
   3 -12  -3   27.46    1.16
  -3  12   3   25.47    1.45
   3  12  -3   23.90    1.73
  -2 -12   3    0.85    0.21
  -2 -12   3    0.93    0.17
   2 -12  -3    0.61    0.16
   2  12  -3    1.14    0.17
  -2  12   3    1.43    0.37
  -1 -12   3  138.96    4.96
   1 -12  -3  137.63    5.01
  -1 -12   3  142.05    5.12
  -1  12   3  136.70    5.54
   1  12  -3  144.77    6.23
   1  12  -3  124.77    5.24
   0 -12  -3    1.54    0.22
   0 -12  -3    1.94    0.23
   0 -12   3    2.15    0.22
   0 -12   3    2.14    0.31
   0  12  -3    2.83    0.50
   0  12  -3    2.44    0.27
   0  12   3    2.52    0.39
  -1 -12  -3   17.16    0.78
   1 -12   3   17.65    0.92
  -1 -12  -3   16.73    0.82
  -1  12  -3   16.93    0.85
   1  12   3   18.34    0.97
  -1  12  -3   19.21    1.19
   2 -12   3    0.78    0.12
   2 -12   3    0.83    0.24
  -2 -12  -3    0.62    0.14
  -2 -12  -3    0.72    0.17
  -2  12  -3    0.59    0.30
   2  12   3    0.97    0.22
  -2  12  -3    0.80    0.20
   3 -12   3  103.42    3.94
  -3 -12  -3   98.49    3.69
   3  12   3   96.18    3.98
  -3  12  -3  102.63    4.04
  -3  12  -3  105.00    4.57
  -4 -12  -3    0.61    0.17
  -4 -12  -3    0.75    0.15
   4 -12   3    0.43    0.20
  -4  12  -3    0.45    0.27
  -4  12  -3    0.70    0.22
   4  12   3    0.60    0.17
  -5 -12  -3    2.46    0.33
  -5 -12  -3    3.10    0.29
  -5  12  -3    2.86    0.46
  -5  12  -3    3.12    0.41
  -6 -12  -3    1.21    0.25
  -6  12  -3    1.13    0.37
  -6  12  -3    1.03    0.28
  -7 -12  -3   51.62    2.14
  -7  12  -3   49.22    2.51
  -7  12  -3   52.07    2.36
  -8 -12  -3    8.00    0.62
  -8  12  -3    8.97    0.74
  -9 -12  -3    2.81    0.41
  -9  12  -3    2.87    0.50
 -10 -12  -3   -0.12    0.18
 -10  12  -3    0.28    0.30
 -11 -12  -3   50.06    2.23
 -11  12  -3   49.88    2.53
 -11 -13   3    0.36    0.24
 -11 -13   3    0.50    0.30
 -11  13   3    0.10    0.39
 -10 -13   3   52.41    2.25
 -10 -13   3   50.49    2.28
 -10  13   3   50.81    2.64
  -9 -13   3    0.90    0.27
  -9 -13   3    0.40    0.25
   9 -13  -3    1.08    0.30
  -9  13   3    0.49    0.34
   8 -13  -3    5.35    0.47
  -8 -13   3    4.45    0.50
  -8 -13   3    3.97    0.48
  -8  13   3    3.68    0.62
   7 -13  -3    3.27    0.39
  -7 -13   3    2.76    0.38
  -7 -13   3    2.63    0.39
  -7  13   3    2.83    0.55
  -6 -13   3  108.28    4.15
  -6 -13   3  107.95    4.17
   6 -13  -3  109.11    4.09
  -6  13   3  108.94    4.64
   6  13  -3  110.00    5.69
   5 -13  -3    0.79    0.20
  -5 -13   3    0.55    0.23
  -5 -13   3    0.82    0.20
  -5  13   3    0.58    0.31
   5  13  -3    0.41    0.50
  -4 -13   3    9.59    0.57
   4 -13  -3    9.16    0.54
  -4 -13   3    8.22    0.58
  -4  13   3    9.86    0.81
   4  13  -3    9.23    1.24
   3 -13  -3    0.93    0.20
  -3 -13   3    1.07    0.23
  -3 -13   3    1.16    0.21
   3  13  -3    0.83    0.44
  -3  13   3    1.08    0.36
   2 -13  -3  166.38    6.06
  -2 -13   3  169.06    6.17
  -2 -13   3  163.08    6.04
  -2  13   3  169.55    6.72
   1 -13  -3    0.18    0.12
  -1 -13   3    0.19    0.11
  -1 -13   3    0.11    0.16
  -1  13   3    0.61    0.29
   1  13  -3    0.68    0.39
   1  13  -3    0.16    0.12
   0 -13   3   44.82    1.84
   0 -13  -3   41.87    1.71
   0 -13  -3   41.87    1.73
   0 -13   3   44.46    1.66
   0  13   3   44.16    2.01
   0  13  -3   38.84    1.79
   0  13  -3   45.62    2.35
  -1 -13  -3    0.56    0.15
  -1 -13  -3    0.55    0.16
   1 -13   3    0.25    0.18
   1 -13   3    0.85    0.14
  -1  13  -3    1.00    0.21
  -1  13  -3    0.98    0.36
   1  13   3    0.55    0.21
  -2 -13  -3   98.40    3.74
   2 -13   3  107.55    3.97
  -2 -13  -3  100.90    3.81
  -2  13  -3  104.75    4.67
   2  13   3  100.61    4.07
  -2  13  -3   99.21    4.04
   3 -13   3    0.02    0.14
  -3 -13  -3    0.02    0.11
  -3 -13  -3    0.18    0.12
  -3  13  -3    0.04    0.14
   3  13   3    0.01    0.12
  -3  13  -3    0.28    0.27
  -4 -13  -3   26.61    1.18
  -4 -13  -3   25.49    1.07
   4 -13   3   26.53    1.31
  -4  13  -3   25.41    1.27
  -4  13  -3   25.92    1.48
   4  13   3   22.40    1.16
  -5 -13  -3    1.50    0.27
  -5  13  -3    0.77    0.25
  -5  13  -3    1.30    0.37
  -6 -13  -3   34.35    1.53
  -6  13  -3   33.93    1.68
  -6  13  -3   33.71    1.83
  -7 -13  -3    0.11    0.17
  -7  13  -3    0.14    0.22
  -7  13  -3   -0.23    0.25
  -8 -13  -3   51.93    2.18
  -8  13  -3   49.11    2.39
  -9 -13  -3    0.03    0.20
  -9  13  -3   -0.15    0.23
 -10 -13  -3   18.58    1.08
 -10  13  -3   19.27    1.28
 -11 -13  -3    0.18    0.24
 -11  13  -3    0.27    0.32
 -11 -14   3   26.99    1.47
 -11 -14   3   27.49    1.45
 -11  14   3   28.45    1.82
 -10 -14   3   -0.04    0.27
 -10 -14   3    0.17    0.22
 -10  14   3    0.14    0.35
  -9 -14   3   14.77    0.92
  -9 -14   3   14.91    0.92
  -9  14   3   14.80    1.17
  -8 -14   3   10.45    0.72
  -8 -14   3   10.08    0.71
   8 -14  -3   11.14    0.70
  -8  14   3   10.04    0.93
  -7 -14   3   37.51    1.71
   7 -14  -3   40.51    1.68
  -7 -14   3   37.68    1.72
  -7  14   3   36.99    2.03
   6 -14  -3    4.78    0.40
  -6 -14   3    4.17    0.46
  -6 -14   3    4.21    0.47
  -6  14   3    4.02    0.65
   6  14  -3    4.91    1.13
  -5 -14   3   56.76    2.36
  -5 -14   3   56.56    2.32
   5 -14  -3   56.01    2.27
  -5  14   3   58.50    2.73
   5  14  -3   60.72    3.53
  -4 -14   3    2.94    0.34
   4 -14  -3    2.91    0.33
  -4 -14   3    2.53    0.36
   4  14  -3    2.56    0.75
  -4  14   3    2.36    0.49
  -3 -14   3   56.70    2.29
   3 -14  -3   54.49    2.19
  -3 -14   3   53.88    2.20
   3  14  -3   56.83    3.20
  -3  14   3   57.51    2.63
  -2 -14   3    3.11    0.38
  -2 -14   3    3.11    0.32
   2 -14  -3    2.83    0.33
  -2  14   3    3.64    0.54
   2  14  -3    3.11    0.71
  -1 -14   3  154.25    5.50
  -1 -14   3  153.91    5.68
   1 -14  -3  144.95    5.54
   1  14  -3  153.73    6.94
  -1  14   3  152.36    6.14
   0 -14  -3    1.21    0.21
   0 -14  -3    1.80    0.24
   0 -14   3    0.87    0.17
   0 -14   3    0.90    0.27
   0  14  -3    0.86    0.40
   0  14  -3    0.58    0.19
   0  14   3    1.03    0.30
   1 -14   3   20.58    1.06
  -1 -14  -3   21.35    0.93
  -1 -14  -3   19.37    0.95
   1 -14   3   21.20    0.88
   1  14   3   20.12    1.10
  -1  14  -3   19.52    1.01
  -1  14  -3   21.68    1.40
   2 -14   3    0.14    0.19
  -2 -14  -3    0.44    0.17
  -2 -14  -3    0.26    0.13
  -2  14  -3    0.75    0.37
  -2  14  -3    0.35    0.18
   2  14   3    0.43    0.19
  -3 -14  -3   60.29    2.45
  -3 -14  -3   60.00    2.37
   3 -14   3   66.10    2.63
  -3  14  -3   60.73    2.62
  -3  14  -3   62.77    3.05
   3  14   3   63.16    2.58
   4 -14   3    9.17    0.68
  -4 -14  -3    8.50    0.55
  -4  14  -3    6.98    0.74
  -4  14  -3    8.01    0.62
  -5 -14  -3    0.10    0.15
  -5  14  -3    0.00    0.25
  -5  14  -3    0.05    0.18
  -6 -14  -3    5.64    0.49
  -6  14  -3    6.33    0.67
  -6  14  -3    5.15    0.67
  -7 -14  -3   88.90    3.49
  -7  14  -3   84.69    4.08
  -7  14  -3   90.67    3.80
  -8 -14  -3    2.49    0.39
  -8  14  -3    2.83    0.51
  -9 -14  -3    1.38    0.32
  -9  14  -3    1.87    0.47
 -10 -14  -3    2.46    0.42
 -10  14  -3    2.96    0.56
 -10 -15   3   59.90    2.58
 -10 -15   3   57.40    2.52
 -10  15   3   57.43    2.98
  -9 -15   3   19.38    1.12
  -9 -15   3   18.98    1.09
  -9  15   3   18.78    1.37
   8 -15  -3    0.99    0.27
  -8 -15   3    0.56    0.26
  -8 -15   3    0.68    0.25
  -8  15   3    0.41    0.35
   7 -15  -3   10.36    0.65
  -7 -15   3    9.79    0.68
  -7 -15   3    9.12    0.67
  -7  15   3    7.92    0.91
  -6 -15   3   67.93    2.73
   6 -15  -3   66.13    2.64
  -6 -15   3   64.41    2.69
  -6  15   3   68.30    3.14
  -5 -15   3    4.90    0.42
  -5 -15   3    4.61    0.50
   5 -15  -3    5.31    0.42
  -5  15   3    5.58    0.72
   5  15  -3    4.05    0.99
  -4 -15   3    0.71    0.19
   4 -15  -3    0.59    0.18
  -4 -15   3    0.41    0.22
  -4  15   3    0.97    0.36
   4  15  -3    1.17    0.63
   3 -15  -3   23.72    1.11
  -3 -15   3   24.93    1.12
  -3 -15   3   25.06    1.21
   3  15  -3   25.42    1.90
  -3  15   3   24.36    1.46
  -2 -15   3  107.74    4.13
  -2 -15   3  110.15    4.27
   2 -15  -3  109.21    4.15
   2  15  -3  118.56    5.52
  -2  15   3  113.95    4.72
   1 -15  -3   16.54    0.84
  -1 -15   3   16.98    0.94
  -1 -15   3   16.93    0.81
  -1  15   3   17.28    1.12
   1  15  -3   18.83    1.45
   0 -15  -3    8.68    0.53
   0 -15  -3    8.55    0.53
   0 -15   3    8.03    0.62
   0 -15   3    8.63    0.48
   0  15  -3    9.32    0.99
   0  15   3    9.58    0.74
   0  15  -3    7.07    0.56
  -1 -15  -3   39.35    1.62
  -1 -15  -3   37.20    1.56
   1 -15   3   39.28    1.51
   1 -15   3   38.31    1.73
  -1  15  -3   37.29    1.71
   1  15   3   38.18    1.81
  -1  15  -3   38.66    2.20
  -2 -15  -3   58.46    2.27
   2 -15   3   59.03    2.47
  -2 -15  -3   57.43    2.32
  -2  15  -3   57.41    2.48
  -2  15  -3   60.53    2.99
   2  15   3   56.57    2.48
  -3 -15  -3    1.46    0.26
   3 -15   3    2.35    0.39
  -3  15  -3    1.27    0.29
  -3  15  -3    1.66    0.46
   3  15   3    1.77    0.29
   4 -15   3    2.64    0.42
  -4 -15  -3    2.58    0.35
  -4  15  -3    2.90    0.42
  -4  15  -3    2.42    0.49
  -5 -15  -3   32.06    1.43
  -5  15  -3   29.36    1.75
  -5  15  -3   30.10    1.55
  -6 -15  -3   62.10    2.57
  -6  15  -3   59.22    3.05
  -6  15  -3   65.73    2.82
  -7 -15  -3    1.63    0.33
  -7  15  -3    2.01    0.44
  -8 -15  -3   25.51    1.32
  -8  15  -3   25.97    1.50
  -9 -15  -3   19.09    1.06
  -9  15  -3   16.10    1.18
 -10 -15  -3   21.00    1.22
 -10  15  -3   24.70    1.51
 -10 -16   3    5.76    0.65
 -10 -16   3    4.34    0.57
 -10  16   3    3.47    0.71
  -9 -16   3   14.29    0.92
  -9 -16   3   12.20    0.87
  -9  16   3   13.07    1.14
  -8 -16   3   35.20    1.71
  -8 -16   3   38.30    1.73
  -8  16   3   34.86    2.04
   7 -16  -3   14.09    0.81
  -7 -16   3   13.20    0.84
  -7 -16   3   14.90    0.89
  -7  16   3   14.28    1.13
  -6 -16   3    0.11    0.21
  -6 -16   3   -0.03    0.16
   6 -16  -3   -0.11    0.14
  -6  16   3    0.05    0.30
  -5 -16   3   28.47    1.39
  -5 -16   3   29.13    1.36
   5 -16  -3   29.09    1.31
   5  16  -3   27.62    2.33
  -5  16   3   31.03    1.72
  -4 -16   3   39.05    1.77
   4 -16  -3   39.54    1.68
  -4 -16   3   39.19    1.70
   4  16  -3   41.68    2.80
  -4  16   3   41.14    2.10
  -3 -16   3    6.42    0.47
   3 -16  -3    6.75    0.48
  -3 -16   3    7.86    0.58
  -3  16   3    6.87    0.82
   3  16  -3    6.98    1.09
  -2 -16   3    6.10    0.42
   2 -16  -3    5.16    0.42
  -2 -16   3    6.27    0.51
  -2  16   3    4.77    0.67
   2  16  -3    5.72    0.96
  -1 -16   3   32.94    1.56
   1 -16  -3   32.78    1.45
  -1 -16   3   32.60    1.40
  -1  16   3   36.08    1.81
   1  16  -3   36.98    2.26
   0 -16   3  178.76    6.56
   0 -16  -3  180.51    6.41
   0 -16  -3  169.50    6.38
   0 -16   3  172.83    6.30
   0  16  -3  177.95    7.95
   0  16   3  167.98    6.96
  -1 -16  -3   10.05    0.58
  -1 -16  -3    9.67    0.60
   1 -16   3    8.98    0.71
  -1  16  -3    8.80    0.64
   1  16   3   10.64    0.74
  -1  16  -3   10.53    1.03
  -2 -16  -3    4.72    0.40
   2 -16   3    4.96    0.56
  -2  16  -3    4.25    0.49
  -2  16  -3    3.70    0.68
   2  16   3    4.60    0.44
  -3 -16  -3   24.95    1.19
   3 -16   3   23.65    1.30
  -3  16  -3   24.73    1.60
  -3  16  -3   26.32    1.31
  -4 -16  -3   36.04    1.61
   4 -16   3   37.69    1.78
  -4  16  -3   35.62    1.74
  -4  16  -3   35.47    2.04
  -5 -16  -3    6.45    0.52
  -5  16  -3    6.18    0.60
  -5  16  -3    6.93    0.83
  -6 -16  -3   17.07    0.96
  -6  16  -3   16.67    1.24
  -6  16  -3   18.00    1.10
  -7 -16  -3   22.66    1.19
  -7  16  -3   22.69    1.36
  -8 -16  -3   17.19    1.01
  -8  16  -3   16.41    1.15
  -9 -16  -3    0.78    0.29
  -9  16  -3    1.10    0.43
  -9 -17   3   24.19    1.34
  -9 -17   3   25.78    1.37
  -9  17   3   24.64    1.67
  -8 -17   3   -0.18    0.22
  -8 -17   3   -0.16    0.17
  -8  17   3    0.14    0.35
  -7 -17   3   23.03    1.19
  -7 -17   3   20.09    1.14
  -7  17   3   21.71    1.47
  -6 -17   3    8.07    0.65
   6 -17  -3    8.28    0.57
  -6 -17   3    8.02    0.61
  -6  17   3    8.15    0.93
   5 -17  -3   24.27    1.14
  -5 -17   3   24.02    1.23
  -5 -17   3   23.59    1.18
   5  17  -3   25.04    2.20
  -5  17   3   23.91    1.52
  -4 -17   3    1.63    0.30
   4 -17  -3    1.86    0.29
  -4 -17   3    1.78    0.35
   4  17  -3    1.61    0.71
  -4  17   3    1.78    0.47
   3 -17  -3   32.24    1.40
  -3 -17   3   31.43    1.40
  -3 -17   3   32.03    1.50
   3  17  -3   32.39    2.37
  -3  17   3   29.65    1.76
  -2 -17   3    8.31    0.53
   2 -17  -3    7.52    0.53
  -2 -17   3    7.93    0.62
   2  17  -3    8.86    1.21
  -2  17   3    8.68    0.81
   1 -17  -3   22.78    1.07
  -1 -17   3   21.83    1.01
  -1 -17   3   21.99    1.17
   1  17  -3   23.75    1.78
  -1  17   3   22.65    1.36
   0 -17  -3    0.54    0.19
   0 -17   3    0.40    0.16
   0 -17  -3    0.29    0.21
   0 -17   3    0.71    0.27
   0  17  -3    0.95    0.52
   0  17   3    0.86    0.30
  -1 -17  -3   85.13    3.37
   1 -17   3   85.58    3.53
  -1  17  -3   90.85    4.39
   1  17   3   89.49    3.69
   2 -17   3   14.27    0.94
  -2 -17  -3   16.08    0.86
  -2  17  -3   16.76    0.96
  -2  17  -3   15.93    1.30
   3 -17   3    9.81    0.73
  -3 -17  -3    8.21    0.59
  -3  17  -3    9.99    0.98
  -3  17  -3    8.18    0.67
   4 -17   3    2.46    0.45
  -4 -17  -3    2.00    0.34
  -4  17  -3    1.64    0.50
  -4  17  -3    1.76    0.38
  -5 -17  -3   51.76    2.16
  -5  17  -3   49.92    2.34
  -5  17  -3   48.36    2.65
  -6 -17  -3    6.39    0.54
  -6  17  -3    7.16    0.76
  -6  17  -3    5.29    0.76
  -7 -17  -3    2.51    0.41
  -7  17  -3    3.29    0.56
  -8 -17  -3    3.08    0.48
  -8  17  -3    3.57    0.61
  -9 -17  -3   25.81    1.40
  -9  17  -3   26.62    1.63
  -9 -18   3    0.73    0.31
  -8 -18   3   50.73    2.29
  -8 -18   3   51.64    2.30
  -8  18   3   51.72    2.73
  -7 -18   3    2.16    0.39
  -7 -18   3    1.55    0.37
  -7  18   3    1.22    0.48
  -6 -18   3    0.69    0.23
  -6 -18   3    0.50    0.26
   6 -18  -3    0.82    0.24
  -6  18   3    0.25    0.34
  -5 -18   3    0.19    0.19
  -5 -18   3   -0.01    0.20
   5 -18  -3   -0.02    0.15
  -5  18   3    0.11    0.33
   5  18  -3   -0.44    0.61
  -4 -18   3   49.66    2.18
   4 -18  -3   50.12    2.06
  -4 -18   3   46.85    2.07
   4  18  -3   55.30    3.45
  -4  18   3   50.38    2.54
  -3 -18   3    0.26    0.21
   3 -18  -3    0.31    0.18
  -3 -18   3    0.34    0.18
   3  18  -3    0.13    0.52
  -3  18   3    0.31    0.33
  -2 -18   3    0.19    0.14
   2 -18  -3    0.05    0.14
  -2 -18   3    0.41    0.24
  -2  18   3    0.62    0.34
   2  18  -3    0.74    0.56
   1 -18  -3    2.34    0.32
  -1 -18   3    2.39    0.41
  -1 -18   3    2.80    0.32
  -1  18   3    3.41    0.56
   1  18  -3    3.34    0.80
   0 -18   3   51.18    2.21
   0 -18  -3   47.10    2.03
   0  18  -3   48.43    2.92
   0  18   3   51.28    2.37
   1 -18   3    0.08    0.24
  -1 -18  -3    0.44    0.18
  -1  18  -3   -0.23    0.38
   2 -18   3   10.62    0.79
  -2 -18  -3   11.81    0.70
  -2  18  -3   10.70    0.78
  -2  18  -3   11.31    1.14
   3 -18   3    3.93    0.56
  -3 -18  -3    4.45    0.48
  -3  18  -3    4.88    0.58
  -3  18  -3    4.79    0.79
  -4 -18  -3   60.58    2.47
   4 -18   3   57.03    2.63
  -4  18  -3   59.61    3.14
  -4  18  -3   59.66    2.68
  -5 -18  -3    0.17    0.18
  -5  18  -3   -0.15    0.21
  -5  18  -3   -0.10    0.34
  -6 -18  -3   12.70    0.83
  -6  18  -3   13.52    0.99
  -7 -18  -3    0.09    0.21
  -7  18  -3    0.33    0.32
  -8 -18  -3   24.21    1.30
  -8  18  -3   22.78    1.48
  -8 -19   3    0.22    0.30
  -8 -19   3    0.48    0.27
  -8  19   3    0.08    0.38
  -7 -19   3   18.88    1.12
  -7 -19   3   18.86    1.09
  -7  19   3   20.21    1.44
  -6 -19   3    0.35    0.21
  -6 -19   3    0.01    0.23
  -6  19   3   -0.07    0.30
  -5 -19   3   17.99    1.04
  -5 -19   3   17.47    0.98
   5 -19  -3   19.03    0.95
   5  19  -3   15.81    2.03
  -5  19   3   14.46    1.22
   4 -19  -3    0.27    0.19
  -4 -19   3    0.41    0.20
  -4 -19   3    0.08    0.23
  -4  19   3    0.51    0.38
   4  19  -3    0.73    0.68
   3 -19  -3   30.70    1.38
  -3 -19   3   29.67    1.37
  -3 -19   3   28.83    1.48
  -3  19   3   30.42    1.78
   3  19  -3   32.08    2.49
   2 -19  -3    0.16    0.17
  -2 -19   3   -0.16    0.22
  -2 -19   3    0.47    0.19
  -2  19   3    0.51    0.35
   2  19  -3    0.62    0.58
   1 -19  -3   22.73    1.09
  -1 -19   3   21.18    1.03
  -1 -19   3   21.87    1.21
   1  19  -3   23.22    1.90
  -1  19   3   21.89    1.37
   0 -19   3   -0.40    0.16
   0 -19  -3    0.08    0.16
   0  19  -3   -0.16    0.41
   0  19   3    0.23    0.22
   1 -19   3   50.98    2.30
  -1 -19  -3   51.05    2.15
  -1  19  -3   52.86    3.03
  -2 -19  -3    0.66    0.23
   2 -19   3    0.77    0.31
  -2  19  -3    0.96    0.50
  -3 -19  -3    6.73    0.54
   3 -19   3    6.92    0.73
  -3  19  -3    6.90    0.66
  -3  19  -3    6.80    0.97
  -4 -19  -3    0.28    0.22
   4 -19   3    0.22    0.28
  -4  19  -3   -0.09    0.39
  -4  19  -3    0.41    0.29
  -5 -19  -3   69.51    2.84
  -5  19  -3   68.49    3.57
  -5  19  -3   67.10    3.08
  -6 -19  -3    0.09    0.21
  -6  19  -3   -0.07    0.26
  -7 -19  -3    4.35    0.55
  -7  19  -3    4.15    0.64
  -7 -20   3    2.61    0.44
  -7 -20   3    2.61    0.48
  -7  20   3    3.24    0.68
  -6 -20   3   -0.11    0.24
  -6 -20   3    0.43    0.22
  -6  20   3    0.46    0.39
  -5 -20   3    1.91    0.40
  -5 -20   3    1.97    0.36
  -5  20   3    0.92    0.47
  -4 -20   3   41.53    1.95
  -4 -20   3   40.68    1.84
   4 -20  -3   42.53    1.83
  -4  20   3   42.40    2.31
   4  20  -3   47.12    3.26
  -3 -20   3    3.35    0.49
  -3 -20   3    3.82    0.43
   3 -20  -3    3.97    0.43
   3  20  -3    4.08    1.06
  -3  20   3    3.16    0.64
   2 -20  -3    5.95    0.48
  -2 -20   3    5.23    0.44
  -2 -20   3    5.08    0.60
  -2  20   3    5.33    0.74
   2  20  -3    5.79    1.12
   1 -20  -3    3.95    0.44
  -1 -20   3    4.78    0.58
   1  20  -3    5.55    1.05
  -1  20   3    4.68    0.67
   0 -20   3   55.03    2.47
   0 -20  -3   53.53    2.29
   0  20  -3   60.60    3.43
   1 -20   3    0.86    0.35
  -1 -20  -3    0.54    0.22
  -1  20  -3    0.91    0.57
  -2 -20  -3    9.39    0.64
   2 -20   3    8.72    0.74
  -2  20  -3    9.45    1.21
   3 -20   3    1.26    0.40
  -3 -20  -3    2.27    0.37
  -3  20  -3    1.67    0.60
  -4 -20  -3   58.69    2.52
   4 -20   3   61.28    2.72
  -4  20  -3   59.51    3.30
  -4  20  -3   59.43    2.76
  -5 -20  -3    0.72    0.26
  -5  20  -3    0.75    0.38
  -5  20  -3    0.58    0.50
  -6 -20  -3   12.37    0.83
  -6  20  -3   10.77    0.94
  -7 -20  -3    6.27    0.67
  -7  20  -3    6.83    0.86
  -6 -21   3   14.14    0.98
  -6 -21   3   13.81    0.89
  -6  21   3   13.34    1.20
  -5 -21   3   14.27    0.95
  -5 -21   3   13.41    0.85
  -5  21   3   13.41    1.19
   4 -21  -3   -0.22    0.16
  -4 -21   3    0.03    0.17
  -4 -21   3    0.19    0.27
  -4  21   3   -0.15    0.33
   4  21  -3    0.09    0.62
   3 -21  -3   32.71    1.51
  -3 -21   3   32.64    1.65
  -3 -21   3   32.07    1.50
  -3  21   3   33.20    1.94
   3  21  -3   38.98    2.88
   2 -21  -3   17.72    0.95
  -2 -21   3   17.98    1.10
   2  21  -3   17.11    1.85
  -2  21   3   17.29    1.26
   1 -21  -3    5.60    0.49
  -1 -21   3    5.52    0.64
   1  21  -3    6.58    1.19
   0 -21   3    6.57    0.72
   0 -21  -3    6.58    0.53
   0  21  -3    6.99    1.17
  -1 -21  -3   30.36    1.45
   1 -21   3   29.25    1.60
  -1  21  -3   35.17    2.37
   2 -21   3   11.26    0.87
  -2 -21  -3   10.08    0.71
  -2  21  -3   10.78    1.35
   3 -21   3    4.24    0.61
  -3 -21  -3    4.23    0.50
  -3  21  -3    3.63    0.83
   4 -21   3    1.18    0.40
  -4 -21  -3    1.11    0.30
  -4  21  -3    1.20    0.60
  -5 -21  -3   29.35    1.51
  -5  21  -3   32.13    1.75
  -6 -21  -3    7.07    0.72
  -6  21  -3    7.98    0.89
  -5 -22   3   18.93    1.07
  -5 -22   3   17.74    1.13
  -5  22   3   19.53    1.45
  -4 -22   3   21.48    1.24
  -4 -22   3   19.79    1.10
  -4  22   3   21.94    1.52
   4  22  -3   20.29    2.43
  -3 -22   3    6.92    0.75
   3 -22  -3    8.57    0.61
  -3  22   3    7.83    0.95
   3  22  -3    7.29    1.41
   2 -22  -3    5.80    0.50
  -2 -22   3    4.85    0.62
   2  22  -3    4.63    1.13
   1 -22  -3   18.81    1.03
  -1 -22   3   19.79    1.21
   1  22  -3   21.49    2.02
   0 -22  -3   23.75    1.25
   0 -22   3   25.58    1.44
   0  22  -3   31.48    2.32
  -1 -22  -3    2.08    0.36
   1 -22   3    1.55    0.42
  -1  22  -3    1.81    0.70
   2 -22   3    1.18    0.41
  -2 -22  -3    1.25    0.31
  -2  22  -3    2.33    0.79
  -3 -22  -3   21.20    1.16
   3 -22   3   22.11    1.36
  -3  22  -3   21.49    1.85
   4 -22   3   14.82    1.08
  -4 -22  -3   13.86    0.91
  -4  22  -3   15.68    1.51
  -5 -22  -3    0.07    0.22
  -3 -23   3   10.89    0.88
   3  23  -3   12.33    1.85
  -2 -23   3   24.21    1.40
   2 -23  -3   24.45    1.24
   2  23  -3   27.33    2.44
  -1 -23   3    2.89    0.54
   1 -23  -3    4.16    0.48
   0 -23  -3    3.11    0.42
   0 -23   3    2.76    0.53
   0  23  -3    2.62    0.90
   1 -23   3    9.16    0.84
  -1 -23  -3    9.66    0.69
  -1  23  -3   10.04    1.47
  -2 -23  -3   26.22    1.37
   2 -23   3   28.51    1.60
  -2  23  -3   29.03    2.27
  -3 -23  -3    1.14    0.32
   3 -23   3    1.28    0.45
  -3  23  -3    1.66    0.71
 -13   0   4   -0.15    0.25
 -12   0   4    5.09    0.54
 -11   0   4   -0.09    0.19
 -11   0   4   -0.12    0.23
 -10   0   4   53.18    2.47
 -10   0   4   56.58    2.29
  -9   0   4    0.00    0.19
  -9   0   4   -0.22    0.14
  -8   0   4   30.05    1.33
  -8   0   4   30.44    1.48
  -7   0   4    0.00    0.04
  -7   0   4   -0.02    0.15
  -6   0   4  140.15    5.57
  -6   0   4  144.21    5.21
  -5   0   4   -0.24    0.09
  -5   0   4    0.25    0.17
  -4   0   4   35.62    1.37
   4   0  -4   34.99    1.40
  -4   0   4   39.04    1.55
   4   0  -4   29.67    1.55
  -3   0   4   -0.08    0.10
   3   0  -4   -0.14    0.06
  -3   0   4   -0.05    0.06
   2   0  -4  273.74   11.19
   2   0  -4  269.30    9.54
  -2   0   4  269.28   10.19
  -2   0   4  268.32    9.59
  -1   0   4   -0.29    0.05
  -1   0   4   -0.24    0.05
   1   0  -4   -0.16    0.05
   0   0  -4   21.04    1.08
   0   0   4   22.48    0.84
   0   0  -4   21.63    0.82
   0   0   4   19.82    0.93
  -1   0  -4   -0.40    0.05
  -1   0  -4   -0.26    0.04
   1   0   4   -0.26    0.05
  -2   0  -4  225.32    9.84
   2   0   4  222.96    8.30
  -2   0  -4  251.96    8.22
  -3   0  -4    0.11    0.06
  -4   0  -4   33.64    1.76
  -4   0  -4   33.80    1.28
  -5   0  -4    0.04    0.21
  -5   0  -4    0.04    0.06
  -6   0  -4   53.91    2.01
  -6   0  -4   52.34    2.66
  -7   0  -4    0.01    0.09
  -7   0  -4   -0.51    0.22
  -8   0  -4  151.14    6.79
  -8   0  -4  154.16    5.48
  -8   0  -4  147.83    5.97
  -9   0  -4    0.00    0.12
  -9   0  -4   -0.46    0.25
  -9   0  -4    0.28    0.22
 -10   0  -4    4.35    0.72
 -10   0  -4    4.57    0.56
 -11   0  -4   -0.05    0.21
 -11   0  -4   -0.05    0.38
 -11   0  -4   -0.21    0.20
 -12   0  -4   66.63    2.97
 -12   0  -4   63.75    2.70
 -13  -1   4   33.24    1.60
 -13   1   4   31.10    1.58
 -12  -1   4    1.29    0.32
 -12   1   4    1.80    0.36
 -11  -1   4    7.78    0.60
 -11   1   4    7.18    0.70
 -11   1   4    6.94    0.58
 -10  -1   4    0.62    0.25
 -10  -1   4    0.92    0.31
 -10   1   4    0.88    0.33
 -10   1   4    0.65    0.27
  -9  -1   4   67.50    2.72
  -9  -1   4   68.67    2.92
  -9   1   4   67.25    2.95
  -9   1   4   69.81    2.73
  -8  -1   4    5.63    0.43
  -8  -1   4    5.51    0.50
  -8   1   4    5.47    0.52
  -8   1   4    4.69    0.41
  -7  -1   4    1.55    0.28
  -7   1   4    0.93    0.19
  -7   1   4    1.38    0.29
  -6  -1   4    3.77    0.31
  -6  -1   4    3.76    0.40
  -6   1   4    3.86    0.32
  -6   1   4    3.76    0.43
  -5  -1   4  218.51    7.66
  -5  -1   4  219.42    8.14
   5  -1  -4  210.14    7.65
  -5   1   4  221.27    8.19
  -5   1   4  222.44    7.66
   5   1  -4  184.55    8.94
  -4  -1   4   13.98    0.70
  -4  -1   4   13.14    0.61
   4  -1  -4   11.73    0.64
  -4   1   4   13.04    0.60
   4   1  -4   12.29    0.72
  -4   1   4   13.79    0.74
   3  -1  -4   27.84    1.11
  -3  -1   4   27.70    1.11
   3  -1  -4   26.09    1.25
  -3  -1   4   28.14    1.22
   3   1  -4   27.49    1.30
  -3   1   4   27.65    1.26
   3   1  -4   28.47    1.13
   2  -1  -4    0.31    0.08
  -2  -1   4    0.48    0.10
  -2  -1   4    0.40    0.11
  -2   1   4    0.56    0.15
  -2   1   4    0.34    0.08
   2   1  -4    0.21    0.08
  -1  -1   4  170.02    6.66
   1  -1  -4  175.71    6.23
   1  -1  -4  179.14    7.37
  -1  -1   4  179.95    6.28
   1   1  -4  173.30    6.23
   1   1  -4  184.65    7.39
  -1   1   4  172.46    6.25
  -1   1   4  171.51    6.70
   0  -1  -4   57.31    2.51
   0  -1  -4   57.68    2.04
   0  -1   4   54.04    2.22
   0  -1   4   56.96    2.07
   0   1  -4   54.89    2.02
   0   1  -4   57.83    2.51
   0   1   4   54.09    2.23
   0   1   4   55.09    2.03
   1  -1   4    1.73    0.16
  -2  -1  -4    2.84    0.17
   2  -1   4    2.74    0.20
  -2   1  -4    2.67    0.15
  -2   1  -4    2.74    0.37
  -3  -1  -4  408.30   15.02
  -3  -1  -4  437.89   17.63
  -3   1  -4  417.95   17.58
  -3   1  -4  423.49   14.94
  -4  -1  -4    0.22    0.08
  -4  -1  -4   -0.14    0.22
  -4   1  -4   -0.11    0.17
  -4   1  -4    0.26    0.07
  -5  -1  -4   25.73    1.48
  -5  -1  -4   24.83    1.01
  -5   1  -4   25.40    0.98
  -5   1  -4   24.22    1.41
  -6  -1  -4    7.59    0.77
  -6  -1  -4    8.92    0.45
  -6   1  -4    7.04    0.72
  -6   1  -4    8.24    0.42
  -7  -1  -4   56.42    2.12
  -7  -1  -4   55.91    2.83
  -7   1  -4   54.79    2.09
  -7   1  -4   53.77    2.76
  -8  -1  -4    6.26    0.90
  -8  -1  -4    7.67    0.47
  -8   1  -4    7.94    0.62
  -8   1  -4    6.16    0.83
  -8   1  -4    8.42    0.46
  -9  -1  -4   20.28    0.91
  -9  -1  -4   18.00    1.36
  -9  -1  -4   16.78    1.04
  -9   1  -4   19.12    1.34
  -9   1  -4   18.80    0.87
  -9   1  -4   17.83    1.07
 -10  -1  -4    1.02    0.47
 -10  -1  -4    0.92    0.25
 -10  -1  -4    1.99    0.38
 -10  -1  -4    1.23    0.24
 -10   1  -4    1.48    0.34
 -10   1  -4    1.04    0.43
 -11  -1  -4   35.17    1.58
 -11  -1  -4   34.01    1.74
 -11  -1  -4   33.80    2.15
 -11   1  -4   35.63    1.78
 -12  -1  -4    0.51    0.29
 -12  -1  -4    0.76    0.35
 -12   1  -4    0.77    0.34
 -12   1  -4    0.69    0.29
 -13  -2   4    0.67    0.32
 -13   2   4    0.38    0.30
 -12  -2   4    2.75    0.43
 -12   2   4    3.36    0.46
 -12   2   4    3.47    0.58
 -11  -2   4   15.50    0.90
 -11   2   4   15.88    0.90
 -11   2   4   14.29    1.03
 -10  -2   4   68.19    2.74
 -10   2   4   66.16    2.99
 -10   2   4   68.53    2.75
  -9  -2   4    0.95    0.27
  -9  -2   4    0.75    0.23
  -9   2   4    0.63    0.22
  -9   2   4    1.44    0.34
  -8  -2   4   32.64    1.42
  -8  -2   4   31.04    1.51
  -8   2   4   33.38    1.61
  -8   2   4   33.03    1.42
  -7  -2   4   24.19    1.16
  -7   2   4   22.19    1.21
  -7   2   4   24.33    1.08
   6  -2  -4   52.51    2.10
  -6  -2   4   51.83    2.19
  -6   2   4   53.82    2.28
  -6   2   4   51.22    2.05
  -5  -2   4   -0.04    0.09
  -5  -2   4    0.38    0.16
   5  -2  -4    0.23    0.11
   5   2  -4    0.29    0.20
  -5   2   4    0.18    0.17
  -5   2   4    0.06    0.10
  -4  -2   4   60.51    2.22
  -4  -2   4   58.27    2.35
  -4   2   4   60.00    2.20
  -4   2   4   62.46    2.47
   4   2  -4   50.35    2.60
  -3  -2   4   20.91    0.82
   3  -2  -4   18.49    0.87
   3  -2  -4   17.79    0.80
  -3  -2   4   17.61    0.85
   3   2  -4   18.41    0.97
  -3   2   4   20.48    0.97
   2  -2  -4   53.50    2.26
  -2  -2   4   49.93    2.05
   2  -2  -4   49.87    1.93
  -2   2   4   51.98    1.91
   2   2  -4   52.39    1.94
   2   2  -4   52.73    2.31
  -2   2   4   52.37    2.16
   1  -2  -4   18.94    0.91
  -1  -2   4   16.60    0.77
  -1  -2   4   18.05    0.74
   1  -2  -4   16.31    0.70
   1   2  -4   17.27    0.70
  -1   2   4   16.53    0.68
  -1   2   4   17.50    0.84
   1   2  -4   19.04    0.93
   0  -2   4  245.24    8.50
   0  -2  -4  245.09    8.42
   0  -2  -4  252.27   10.00
   0   2   4  223.69    9.02
   0   2   4  237.12    8.43
   0   2  -4  230.09    8.47
  -1  -2  -4    4.97    0.24
   1  -2   4    4.00    0.25
   1   2   4    3.48    0.18
  -1   2  -4    3.94    0.19
   2  -2   4   60.81    2.33
  -2  -2  -4   64.03    2.27
  -2   2  -4   63.66    2.83
  -2   2  -4   60.62    2.21
  -3  -2  -4    1.51    0.36
  -3  -2  -4    2.27    0.18
  -3   2  -4    2.47    0.14
  -4  -2  -4  225.01    8.09
  -4  -2  -4  233.47    9.78
  -4   2  -4  228.13    8.03
  -4   2  -4  226.83    9.69
  -5  -2  -4   49.89    1.96
  -5  -2  -4   52.88    2.61
  -5   2  -4   54.10    2.54
  -5   2  -4   52.34    1.91
  -6  -2  -4   11.89    0.98
  -6  -2  -4   11.63    0.58
  -6   2  -4   11.93    0.53
  -6   2  -4   12.46    0.92
  -7  -2  -4    2.30    0.53
  -7  -2  -4    2.25    0.26
  -7   2  -4    1.06    0.37
  -7   2  -4    2.38    0.36
  -7   2  -4    2.46    0.21
  -8  -2  -4  117.26    4.35
  -8  -2  -4  118.12    5.49
  -8   2  -4  121.80    4.30
  -8   2  -4  117.36    4.77
  -8   2  -4  114.31    5.36
  -9  -2  -4   13.71    0.71
  -9  -2  -4   13.18    0.73
  -9  -2  -4   12.52    1.18
  -9  -2  -4   12.72    0.85
  -9   2  -4   13.50    1.10
  -9   2  -4   14.32    0.90
 -10  -2  -4    1.67    0.55
 -10  -2  -4    1.72    0.30
 -10  -2  -4    1.83    0.38
 -10  -2  -4    1.62    0.28
 -10   2  -4    2.26    0.42
 -10   2  -4    2.20    0.53
 -11  -2  -4    6.86    0.56
 -11  -2  -4    6.36    0.67
 -11  -2  -4    5.67    0.94
 -11   2  -4    6.54    0.72
 -12  -2  -4   52.38    2.41
 -12  -2  -4   51.61    2.20
 -12   2  -4   48.98    2.43
 -13  -3   4   22.52    1.24
 -13   3   4   22.10    1.23
 -13   3   4   22.42    1.44
 -12  -3   4   19.06    1.09
 -12   3   4   19.84    1.11
 -12   3   4   21.04    1.31
 -11  -3   4    8.18    0.65
 -11   3   4    9.74    0.69
 -11   3   4    9.13    0.80
 -10  -3   4   17.87    0.97
 -10   3   4   18.57    0.98
 -10   3   4   17.30    1.12
  -9  -3   4   65.60    2.67
  -9  -3   4   64.73    2.80
  -9   3   4   67.75    2.94
  -9   3   4   68.48    2.68
  -8  -3   4   26.40    1.21
  -8  -3   4   26.83    1.28
  -8   3   4   25.75    1.20
  -8   3   4   26.48    1.39
  -7  -3   4    1.83    0.29
  -7   3   4    1.69    0.34
  -7   3   4    1.53    0.23
   6  -3  -4   26.19    1.16
  -6  -3   4   26.05    1.19
  -6   3   4   25.47    1.30
  -6   3   4   25.32    1.11
   5  -3  -4  183.37    7.05
  -5  -3   4  192.48    7.45
  -5   3   4  203.19    7.06
  -5   3   4  204.68    7.61
  -4  -3   4  108.63    4.13
  -4  -3   4  107.85    4.34
   4  -3  -4  111.64    4.12
  -4   3   4  118.48    4.12
  -4   3   4  118.27    4.52
   3  -3  -4   15.07    0.73
  -3  -3   4   15.60    0.69
  -3  -3   4   15.35    0.70
   3   3  -4   15.71    0.87
  -3   3   4   15.29    0.84
   2  -3  -4   41.32    1.59
  -2  -3   4   40.57    1.67
   2  -3  -4   43.33    1.87
   2   3  -4   41.97    1.93
  -2   3   4   42.40    1.56
  -2   3   4   42.32    1.82
   1  -3  -4  401.38   14.81
   1  -3  -4  443.19   17.22
  -1   3   4  403.10   14.75
  -1   3   4  417.71   15.66
   0  -3  -4    2.27    0.31
   0  -3   4    2.86    0.20
   0  -3  -4    2.13    0.16
   0   3   4    2.25    0.12
   0   3  -4    1.93    0.14
  -2  -3  -4   38.94    1.47
   2   3   4   37.27    1.63
  -2   3  -4   38.53    1.39
  -2   3  -4   42.11    1.89
  -3  -3  -4  474.47   17.23
   3  -3   4  468.48   17.27
  -3   3  -4  504.92   20.23
  -3   3  -4  499.80   17.08
  -4  -3  -4   61.49    2.26
  -4  -3  -4   61.66    2.92
  -4   3  -4   59.88    2.16
  -4   3  -4   59.02    2.82
  -5  -3  -4    9.07    0.80
  -5  -3  -4    9.00    0.47
  -5   3  -4    9.63    0.40
  -5   3  -4    7.74    0.70
  -6  -3  -4   66.46    2.54
  -6  -3  -4   68.28    3.32
  -6   3  -4   69.26    2.46
  -6   3  -4   65.68    3.18
  -7  -3  -4   46.15    1.84
  -7  -3  -4   47.05    1.85
  -7  -3  -4   45.95    2.51
  -7   3  -4   47.27    2.39
  -7   3  -4   46.70    2.09
  -7   3  -4   47.48    1.77
  -8  -3  -4    6.95    0.45
  -8  -3  -4    5.33    0.82
  -8  -3  -4    6.28    0.43
  -8   3  -4    5.42    0.53
  -8   3  -4    5.35    0.72
  -9  -3  -4   25.45    1.81
  -9  -3  -4   28.62    1.41
  -9  -3  -4   28.53    1.25
  -9  -3  -4   28.89    1.25
  -9   3  -4   27.06    1.43
  -9   3  -4   26.09    1.66
 -10  -3  -4   39.79    1.87
 -10  -3  -4   38.60    2.36
 -10  -3  -4   40.25    1.68
 -10  -3  -4   38.14    1.66
 -10   3  -4   38.16    1.90
 -10   3  -4   39.00    2.19
 -11  -3  -4   34.62    1.56
 -11  -3  -4   36.80    1.60
 -11  -3  -4   32.90    2.22
 -11  -3  -4   35.16    1.75
 -11   3  -4   35.47    1.82
 -12  -3  -4    0.49    0.30
 -12   3  -4    0.45    0.31
 -13  -4   4    5.53    0.62
 -13   4   4    6.46    0.81
 -13   4   4    5.96    0.63
 -12  -4   4    1.19    0.32
 -12   4   4    0.78    0.37
 -12   4   4    0.82    0.31
 -11  -4   4   46.32    2.01
 -11   4   4   46.90    2.28
 -11   4   4   44.13    1.99
 -10  -4   4   21.43    1.13
 -10   4   4   22.89    1.13
 -10   4   4   22.57    1.32
  -9  -4   4    2.70    0.35
  -9   4   4    2.76    0.37
  -9   4   4    2.10    0.43
  -8  -4   4   32.03    1.42
  -8  -4   4   32.37    1.47
  -8   4   4   32.08    1.42
  -8   4   4   32.79    1.64
  -7  -4   4   93.12    3.56
  -7  -4   4   85.89    3.39
   7  -4  -4   84.35    3.42
  -7   4   4   89.56    3.73
  -7   4   4   92.62    3.39
  -6  -4   4  102.91    4.16
   6  -4  -4  117.27    4.20
  -6  -4   4  115.99    4.38
  -6   4   4  117.69    4.17
  -6   4   4  112.89    4.55
   6   4  -4  106.67    5.12
  -5  -4   4    1.24    0.19
   5  -4  -4    1.65    0.22
  -5   4   4    1.57    0.31
   5   4  -4    0.99    0.32
   4  -4  -4   18.91    0.83
  -4  -4   4   17.74    0.80
  -4   4   4   20.32    1.02
   4   4  -4   17.06    1.06
   3  -4  -4  376.86   15.17
  -3  -4   4  396.29   13.11
  -3  -4   4  357.89   13.75
   3  -4  -4  317.49   12.98
  -3   4   4  395.50   14.00
  -2  -4   4   76.39    2.80
   2  -4  -4   74.79    3.23
  -2  -4   4   72.87    2.88
  -2   4   4   75.37    3.07
  -2   4   4   76.14    2.73
   1   4  -4    9.78    0.62
  -1  -4  -4  245.24    8.52
  -1   4  -4  252.49   10.12
   1   4   4  224.99    9.12
   2  -4   4   50.57    1.98
  -2  -4  -4   53.27    1.91
  -2   4  -4   51.39    2.36
   2   4   4   48.25    2.08
   3  -4   4   11.93    0.63
  -3  -4  -4   12.95    0.57
  -3  -4  -4   12.83    0.50
  -3   4  -4   11.70    0.79
  -4  -4  -4   29.04    1.10
  -4  -4  -4   28.83    1.16
  -4   4  -4   28.75    1.04
  -4   4  -4   28.35    1.50
  -5  -4  -4   79.56    3.01
  -5  -4  -4   81.67    2.97
  -5   4  -4   81.08    3.70
  -5   4  -4   82.57    2.90
  -6  -4  -4   11.23    0.59
  -6  -4  -4   11.68    0.56
  -6   4  -4   12.17    0.74
  -6   4  -4   11.71    0.50
  -6   4  -4   10.69    0.85
  -7  -4  -4   12.09    1.10
  -7  -4  -4   14.08    0.68
  -7  -4  -4   14.95    0.71
  -7   4  -4   12.79    0.83
  -7   4  -4   14.46    1.00
  -8  -4  -4   67.87    2.61
  -8  -4  -4   68.24    3.48
  -8  -4  -4   66.48    2.63
  -8   4  -4   68.05    2.93
  -8   4  -4   68.54    3.28
  -9  -4  -4   42.32    1.73
  -9  -4  -4   41.32    1.74
  -9  -4  -4   40.05    2.43
  -9   4  -4   42.06    2.24
  -9   4  -4   41.81    1.98
 -10  -4  -4    1.02    0.31
 -10  -4  -4    0.71    0.52
 -10  -4  -4    1.17    0.26
 -10  -4  -4    1.46    0.27
 -10   4  -4    1.14    0.44
 -10   4  -4    1.53    0.37
 -11  -4  -4   21.46    1.70
 -11  -4  -4   21.55    1.10
 -11  -4  -4   22.46    1.25
 -11  -4  -4   22.05    1.09
 -11   4  -4   20.73    1.28
 -12  -4  -4   13.42    1.38
 -12   4  -4   13.77    1.03
 -13  -5   4    4.83    0.58
 -13   5   4    5.44    0.79
 -13   5   4    4.70    0.58
 -12  -5   4   41.22    1.86
 -12   5   4   37.68    2.09
 -12   5   4   40.52    1.85
 -11  -5   4   -0.12    0.22
 -11   5   4    0.26    0.23
 -11   5   4   -0.09    0.27
 -10  -5   4   22.43    1.13
 -10   5   4   21.34    1.11
 -10   5   4   22.16    1.33
  -9  -5   4    3.25    0.38
  -9   5   4    3.18    0.51
  -9   5   4    3.31    0.38
  -8  -5   4  148.94    5.53
  -8   5   4  147.38    6.00
  -8   5   4  149.91    5.52
  -7  -5   4    4.08    0.37
  -7  -5   4    4.17    0.38
   7  -5  -4    4.41    0.40
  -7   5   4    4.41    0.55
  -6  -5   4   72.77    2.66
  -6  -5   4   68.75    2.71
   6  -5  -4   65.83    2.65
  -6   5   4   71.85    2.96
   6   5  -4   61.95    3.36
  -5  -5   4   17.98    0.80
   5  -5  -4   17.81    0.84
  -5  -5   4   18.71    0.86
  -5   5   4   20.05    1.06
   5   5  -4   15.61    1.16
   4  -5  -4   27.48    1.12
  -4  -5   4   25.13    1.08
   4   5  -4   26.56    1.49
  -4   5   4   28.69    1.36
   3  -5  -4    4.90    0.31
   3  -5  -4    4.99    0.33
  -3  -5   4    4.64    0.27
  -3   5   4    5.12    0.48
   3   5  -4    4.99    0.51
  -2  -5   4  361.87   12.12
  -2   5   4  293.40   12.88
   2   5  -4  364.56   14.21
  -1  -5   4   46.28    1.78
   1  -5  -4   43.55    1.72
   1   5  -4   47.07    2.14
   0  -5   4  119.09    4.09
   0  -5  -4  112.79    4.01
   0   5   4  114.58    4.37
   0   5   4   99.79    3.93
  -1  -5  -4    9.14    0.43
   1  -5   4    7.80    0.46
   1   5   4    8.10    0.50
  -1   5  -4    8.98    0.62
  -2  -5  -4  278.85    9.52
   2  -5   4  261.59    9.64
   2   5   4  257.21   10.17
  -2   5  -4  277.71   11.29
   3  -5   4   65.04    2.60
  -3  -5  -4   68.37    2.51
  -3  -5  -4   68.92    2.41
  -3   5  -4   66.45    3.06
  -4  -5  -4   12.28    0.58
   4  -5   4   10.23    0.64
  -4  -5  -4   12.00    0.50
  -4   5  -4   13.11    0.83
  -5  -5  -4    1.52    0.21
  -5  -5  -4    2.08    0.18
  -5   5  -4    1.92    0.37
  -5   5  -4    1.81    0.12
  -6  -5  -4  103.69    3.88
  -6  -5  -4  106.32    3.83
  -6   5  -4  104.78    4.71
  -7  -5  -4   13.26    0.70
  -7  -5  -4   14.15    0.67
  -7   5  -4   13.36    0.97
  -7   5  -4   14.09    0.85
  -8  -5  -4    4.38    0.39
  -8  -5  -4    4.57    0.78
  -8  -5  -4    4.95    0.38
  -8   5  -4    4.64    0.62
  -8   5  -4    5.08    0.55
  -9  -5  -4   13.19    0.73
  -9  -5  -4   12.63    0.70
  -9  -5  -4   11.03    1.17
  -9   5  -4   13.14    0.88
  -9   5  -4   12.98    1.02
 -10  -5  -4   99.82    5.02
 -10  -5  -4  105.22    4.20
 -10  -5  -4   99.11    3.89
 -10  -5  -4  101.78    3.87
 -10   5  -4  102.10    4.29
 -11  -5  -4    4.81    0.90
 -11  -5  -4    4.79    0.51
 -11  -5  -4    4.93    0.59
 -11   5  -4    5.63    0.68
 -12  -5  -4    0.59    0.25
 -12  -5  -4    0.64    0.51
 -12   5  -4    0.32    0.31
 -13  -6   4    8.28    0.71
 -13   6   4    7.54    0.93
 -13   6   4    8.47    0.70
 -12  -6   4   -0.18    0.23
 -12   6   4   -0.12    0.32
 -12   6   4   -0.13    0.23
 -11  -6   4   68.85    2.87
 -11   6   4   68.98    2.86
 -11   6   4   72.05    3.25
 -10  -6   4    3.32    0.44
 -10   6   4    4.18    0.61
 -10   6   4    5.12    0.50
  -9  -6   4    3.75    0.42
  -9   6   4    3.14    0.53
  -9   6   4    3.71    0.41
  -8  -6   4    0.24    0.19
   8  -6  -4   -0.07    0.15
  -8   6   4    0.38    0.28
  -7  -6   4  297.08   10.52
   7  -6  -4  281.38   10.48
  -7   6   4  295.99   11.29
  -6  -6   4    0.03    0.14
  -6  -6   4    0.08    0.09
   6  -6  -4    0.39    0.16
   6   6  -4    0.47    0.33
  -6   6   4    0.06    0.20
  -5  -6   4    0.32    0.15
  -5  -6   4    0.02    0.06
   5  -6  -4    0.07    0.10
   5   6  -4    0.10    0.25
  -5   6   4   -0.06    0.17
   4  -6  -4    0.55    0.14
  -4  -6   4    0.53    0.08
  -4  -6   4    0.60    0.15
   4   6  -4    0.57    0.27
  -4   6   4    0.24    0.20
   3  -6  -4  156.50    5.65
  -3   6   4  158.24    6.20
   3   6  -4  156.15    6.79
   2  -6  -4    0.38    0.10
  -2   6   4    0.23    0.13
   2   6  -4    0.26    0.19
  -1  -6   4   20.97    0.94
  -1   6   4   22.26    1.10
   1   6  -4   21.03    1.17
   0  -6   4    7.85    0.45
   0  -6  -4    8.85    0.43
   0   6   4    7.84    0.53
  -1  -6  -4  210.03    7.67
   1  -6   4  219.23    7.79
  -1   6  -4  226.68    9.13
   1   6   4  207.40    8.23
   2  -6   4    7.17    0.44
  -2  -6  -4    6.81    0.38
   2   6   4    6.03    0.42
  -2   6  -4    6.88    0.57
   3  -6   4   83.19    3.25
  -3  -6  -4   87.63    3.15
  -3  -6  -4   83.15    3.04
  -3   6  -4   87.08    3.81
   4  -6   4    1.56    0.26
  -4  -6  -4    1.73    0.15
  -4  -6  -4    1.52    0.20
  -4   6  -4    1.76    0.33
  -5  -6  -4  246.17    8.82
  -5  -6  -4  253.39    8.77
  -5   6  -4  240.36   10.46
  -6  -6  -4   24.79    1.08
  -6  -6  -4   23.24    0.99
  -6   6  -4   24.96    1.40
  -7  -6  -4   16.70    0.77
  -7  -6  -4   16.52    0.83
  -7   6  -4   16.44    0.97
  -7   6  -4   18.06    1.13
  -8  -6  -4    4.63    0.41
  -8  -6  -4    5.46    0.40
  -8   6  -4    5.29    0.57
  -8   6  -4    4.99    0.64
  -9  -6  -4   77.72    3.11
  -9  -6  -4   81.37    3.07
  -9   6  -4   80.95    3.45
  -9   6  -4   80.50    3.79
 -10  -6  -4    0.48    0.26
 -10  -6  -4    0.02    0.44
 -10  -6  -4    0.55    0.22
 -10   6  -4    0.32    0.26
 -11  -6  -4   32.41    2.19
 -11  -6  -4   31.17    1.47
 -11   6  -4   31.34    1.72
 -12  -6  -4    1.77    0.69
 -12  -6  -4    1.81    0.35
 -12   6  -4    1.87    0.48
 -12  -7   4   52.98    2.30
 -12   7   4   50.90    2.28
 -12   7   4   52.70    2.65
 -11  -7   4    3.13    0.45
 -11   7   4    4.11    0.66
 -11   7   4    2.71    0.42
 -10  -7   4   33.60    1.55
 -10   7   4   32.97    1.53
 -10   7   4   34.21    1.83
  -9  -7   4    4.94    0.51
  -9   7   4    6.02    0.70
  -8  -7   4   92.45    3.70
   8  -7  -4  100.65    3.75
  -8   7   4   96.59    4.12
  -7  -7   4   -0.13    0.14
   7  -7  -4    0.01    0.16
  -7   7   4    0.06    0.23
   6  -7  -4   53.12    2.12
  -6  -7   4   55.94    2.15
  -6   7   4   55.94    2.45
   6   7  -4   46.41    2.84
  -5  -7   4    6.10    0.43
   5  -7  -4    6.63    0.42
   5   7  -4    5.67    0.76
  -5   7   4    6.25    0.59
  -4  -7   4   77.63    2.94
   4  -7  -4   74.70    2.88
  -4   7   4   78.59    3.28
   4   7  -4   77.66    3.67
  -3  -7   4    1.02    0.19
   3  -7  -4    1.42    0.19
   3   7  -4    1.71    0.37
   2  -7  -4  191.86    6.96
  -2   7   4  192.09    7.59
   2   7  -4  200.58    8.35
   1  -7  -4   25.21    1.20
   1   7  -4   34.46    1.61
  -1   7   4   34.33    1.49
   0  -7   4   47.87    1.91
   0  -7  -4   48.95    1.85
   0   7   4   48.37    2.08
  -1  -7  -4    0.33    0.11
   1  -7   4    0.19    0.12
   1  -7   4    0.24    0.06
  -1   7  -4    0.09    0.17
   1   7   4    0.06    0.10
  -2  -7  -4   91.38    3.26
   2  -7   4   83.91    3.35
  -2   7  -4   92.91    3.95
   2   7   4   85.15    3.51
  -3  -7  -4    0.26    0.07
   3  -7   4    0.36    0.15
  -3  -7  -4    1.02    0.17
   3   7   4    0.22    0.12
  -3   7  -4    0.19    0.14
  -3   7  -4    0.21    0.19
   4  -7   4   32.99    1.50
  -4  -7  -4   34.67    1.41
  -4  -7  -4   34.79    1.29
  -4   7  -4   35.07    1.77
  -4   7  -4   34.46    1.56
  -5  -7  -4   21.49    0.94
  -5  -7  -4   19.41    0.82
  -5   7  -4   20.18    1.05
  -5   7  -4   19.73    1.19
  -6  -7  -4  155.06    5.70
  -6  -7  -4  154.66    5.61
  -6   7  -4  158.18    6.79
  -7  -7  -4    0.46    0.17
  -7  -7  -4    0.41    0.15
  -7   7  -4    0.20    0.25
  -7   7  -4    0.47    0.21
  -8  -7  -4   18.76    0.86
  -8  -7  -4   17.99    0.92
  -8   7  -4   18.04    1.20
  -8   7  -4   18.66    1.09
  -9  -7  -4    3.61    0.41
  -9   7  -4    2.27    0.50
  -9   7  -4    3.04    0.47
 -10  -7  -4   84.20    4.35
 -10  -7  -4   83.87    3.29
 -10   7  -4   82.48    3.64
 -11  -7  -4   -0.32    0.40
 -11  -7  -4   -0.04    0.18
 -11   7  -4    0.18    0.27
 -12  -7  -4    2.31    0.77
 -12  -7  -4    2.17    0.38
 -12   7  -4    2.76    0.54
 -12  -8   4    0.42    0.30
 -12   8   4    0.96    0.46
 -12   8   4    0.94    0.29
 -11  -8   4   41.24    1.85
 -11   8   4   38.73    2.15
 -11   8   4   40.90    1.84
 -10  -8   4   10.69    0.72
 -10   8   4   10.13    0.90
  -9  -8   4    0.43    0.22
   9  -8  -4    0.21    0.20
  -9   8   4    0.36    0.30
  -8  -8   4    2.66    0.36
   8  -8  -4    2.90    0.39
  -8   8   4    2.47    0.48
   7  -8  -4   97.43    3.75
  -7  -8   4   95.50    3.75
  -7   8   4  102.21    4.19
  -6  -8   4    8.08    0.53
   6  -8  -4    8.11    0.51
  -6   8   4    7.65    0.70
   6   8  -4    8.86    1.09
   5  -8  -4   -0.12    0.08
  -5  -8   4    0.06    0.14
  -5   8   4    0.09    0.19
   5   8  -4    0.22    0.33
   4  -8  -4   24.83    1.07
  -4  -8   4   24.92    1.11
   4   8  -4   24.30    1.54
  -3  -8   4  184.17    6.81
   3  -8  -4  182.73    6.72
   3   8  -4  187.19    8.14
  -3   8   4  195.55    7.39
  -2  -8   4   73.49    2.88
   2  -8  -4   77.07    2.82
  -2   8   4   73.98    3.19
   2   8  -4   77.69    3.52
   1  -8  -4    1.36    0.19
   1   8  -4    1.61    0.33
  -1   8   4    1.36    0.29
   0  -8   4   29.50    1.09
   0   8  -4   26.76    1.49
   0   8   4   28.82    1.36
   1  -8   4   75.57    2.66
  -1  -8  -4   72.44    2.78
   1  -8   4   75.06    2.88
   1   8   4   73.91    3.04
  -1   8  -4   75.35    3.39
  -1   8  -4   75.05    2.95
   2  -8   4   16.57    0.82
  -2  -8  -4   16.15    0.73
  -2  -8  -4   14.48    0.60
   2   8   4   16.06    0.82
  -2   8  -4   15.57    0.97
  -2   8  -4   15.84    0.79
  -3  -8  -4   26.74    1.01
   3  -8   4   26.89    1.23
  -3  -8  -4   26.85    1.13
  -3   8  -4   29.02    1.26
   3   8   4   24.43    1.22
  -3   8  -4   26.87    1.44
  -4  -8  -4   76.74    2.76
   4  -8   4   76.37    3.02
  -4  -8  -4   77.15    2.89
  -4   8  -4   74.35    3.48
  -4   8  -4   76.55    3.12
  -5  -8  -4  122.87    4.60
  -5  -8  -4  123.69    4.49
  -5   8  -4  124.95    5.50
  -5   8  -4  128.05    4.97
  -6  -8  -4    1.65    0.25
  -6  -8  -4    0.93    0.16
  -6   8  -4    1.34    0.36
  -6   8  -4    1.87    0.34
  -7  -8  -4    9.95    0.59
  -7  -8  -4    9.22    0.49
  -7   8  -4    7.97    0.76
  -7   8  -4    7.64    0.64
  -8  -8  -4   26.33    1.21
  -8   8  -4   25.10    1.50
  -8   8  -4   25.32    1.37
  -9  -8  -4   27.62    1.35
  -9   8  -4   32.06    1.72
  -9   8  -4   28.82    1.55
 -10  -8  -4    1.23    0.28
 -10   8  -4    1.76    0.41
 -11  -8  -4   10.43    0.72
 -11  -8  -4    9.03    1.26
 -11   8  -4   12.31    0.95
 -12  -8  -4   14.41    1.53
 -12  -8  -4   15.47    0.94
 -12   8  -4   15.30    1.13
 -12  -9   4   21.70    1.17
 -12   9   4   20.35    1.43
 -12   9   4   17.80    1.09
 -11  -9   4    5.11    0.57
 -11   9   4    5.20    0.75
 -10  -9   4   13.94    0.85
 -10   9   4   11.99    1.01
  -9  -9   4   33.95    1.58
   9  -9  -4   38.16    1.66
  -9   9   4   32.59    1.86
  -8  -9   4   22.83    1.13
   8  -9  -4   23.06    1.14
  -8   9   4   22.22    1.37
  -7  -9   4    0.24    0.19
   7  -9  -4    0.37    0.17
  -7   9   4    0.38    0.28
   7   9  -4    0.40    0.43
  -6  -9   4   45.94    1.90
   6  -9  -4   44.77    1.87
   6   9  -4   42.19    2.68
  -6   9   4   49.51    2.24
  -5  -9   4   88.02    3.34
   5  -9  -4   86.54    3.28
   5   9  -4   86.48    4.32
   4  -9  -4   14.80    0.74
  -4  -9   4   16.27    0.81
   4   9  -4   16.34    1.23
  -3  -9   4    6.63    0.46
   3  -9  -4    7.31    0.43
  -3   9   4    7.70    0.65
   3   9  -4    7.46    0.77
   2  -9  -4   24.68    1.04
  -2  -9   4   24.74    1.10
   2   9  -4   25.94    1.46
   2   9  -4   22.70    0.98
  -2   9   4   25.12    1.31
   1  -9  -4   32.16    1.29
  -1  -9   4   33.06    1.37
   1   9  -4   32.06    1.29
  -1   9   4   33.63    1.57
   1   9  -4   27.24    1.64
   0  -9  -4   20.32    0.95
   0  -9   4   24.13    0.90
   0   9   4   23.34    1.16
   0   9  -4   22.36    1.29
   1  -9   4    3.90    0.20
  -1   9  -4    3.52    0.47
   1   9   4    3.28    0.38
  -1   9  -4    3.44    0.29
   2  -9   4   77.92    3.09
  -2  -9  -4   74.44    2.86
   2  -9   4   82.24    2.81
  -2  -9  -4   77.48    2.97
  -2   9  -4   82.90    3.63
   2   9   4   80.15    3.21
  -2   9  -4   82.00    3.18
  -3  -9  -4   64.81    2.40
  -3  -9  -4   59.42    2.25
   3  -9   4   62.57    2.51
  -3   9  -4   63.88    2.57
  -3   9  -4   63.25    2.92
   3   9   4   59.40    2.55
  -4  -9  -4    8.53    0.41
  -4  -9  -4    8.06    0.50
   4  -9   4    9.11    0.61
  -4   9  -4    9.29    0.60
  -4   9  -4    8.67    0.73
  -5  -9  -4   18.28    0.79
  -5  -9  -4   19.93    0.92
  -5   9  -4   19.69    1.03
  -5   9  -4   17.91    1.17
  -6  -9  -4   41.88    1.81
  -6   9  -4   45.38    2.02
  -6   9  -4   45.45    2.24
  -7  -9  -4  117.33    4.45
  -7   9  -4  118.26    4.83
  -7   9  -4  120.10    5.31
  -8  -9  -4    6.00    0.48
  -8   9  -4    5.02    0.59
  -8   9  -4    5.72    0.68
  -9  -9  -4    5.55    0.49
  -9   9  -4    5.03    0.64
 -10  -9  -4   26.45    1.30
 -10   9  -4   26.21    1.51
 -11  -9  -4   19.78    1.10
 -11   9  -4   20.09    1.30
 -12  -9  -4    2.42    0.42
 -12 -10   4    5.29    0.63
 -12  10   4    6.88    0.91
 -12  10   4    6.14    0.65
 -11 -10   4   24.86    1.30
 -11  10   4   23.70    1.57
 -10 -10   4   41.67    1.84
 -10  10   4   37.92    2.13
  -9 -10   4    0.22    0.22
   9 -10  -4    0.24    0.20
  -9  10   4    0.24    0.31
  -8 -10   4   14.09    0.80
   8 -10  -4   13.55    0.80
  -8  10   4   11.50    0.97
  -7 -10   4   37.13    1.59
   7 -10  -4   32.65    1.53
   7  10  -4   36.50    2.43
  -7  10   4   36.13    1.87
   6 -10  -4   50.64    2.01
  -6 -10   4   49.51    2.05
  -6  10   4   47.99    2.35
   6  10  -4   47.62    2.92
   5 -10  -4    0.06    0.11
  -5 -10   4   -0.05    0.15
   5  10  -4    0.17    0.38
  -5  10   4    0.00    0.10
   4 -10  -4   33.80    1.39
  -4 -10   4   32.27    1.45
   4  10  -4   34.63    2.06
   3 -10  -4   38.38    1.55
  -3 -10   4   37.52    1.61
   3  10  -4   41.54    2.20
  -3  10   4   36.84    1.88
   2 -10  -4   37.44    1.48
  -2 -10   4   37.52    1.55
   2  10  -4   40.58    2.04
   2  10  -4   32.97    1.43
  -2  10   4   35.73    1.78
   1 -10  -4    0.80    0.16
  -1 -10   4    0.73    0.19
  -1 -10   4    0.77    0.13
   1  10  -4    0.91    0.14
  -1  10   4    1.05    0.29
   0 -10  -4   62.52    2.34
   0 -10   4   58.12    2.24
   0 -10   4   60.01    2.41
   0  10  -4   61.26    2.91
   0  10   4   63.33    2.63
  -1 -10  -4   67.20    2.64
   1 -10   4   75.40    2.63
   1  10   4   73.58    3.02
  -1  10  -4   76.10    3.39
  -1  10  -4   72.13    2.89
  -2 -10  -4   28.34    1.25
   2 -10   4   30.82    1.10
  -2 -10  -4   27.81    1.14
  -2  10  -4   30.78    1.34
   2  10   4   31.11    1.39
  -2  10  -4   31.20    1.62
  -3 -10  -4    7.95    0.49
  -3 -10  -4    8.07    0.39
  -3  10  -4    8.58    0.72
  -3  10  -4    9.54    0.57
   3  10   4    7.77    0.54
  -4 -10  -4   88.79    3.32
  -4 -10  -4   93.79    3.46
  -4  10  -4   94.81    3.72
  -4  10  -4   89.79    4.15
  -5 -10  -4   46.05    1.97
  -5  10  -4   50.82    2.43
  -5  10  -4   50.46    2.17
  -6 -10  -4    0.50    0.18
  -6  10  -4    0.59    0.23
  -6  10  -4    0.39    0.29
  -7 -10  -4    0.59    0.21
  -7  10  -4    0.19    0.30
  -7  10  -4    0.61    0.26
  -8 -10  -4   34.07    1.56
  -8  10  -4   35.91    1.78
  -8  10  -4   35.07    1.90
  -9 -10  -4   11.16    0.73
  -9  10  -4   11.46    0.87
 -10 -10  -4    1.06    0.29
 -10  10  -4    1.37    0.39
 -11 -10  -4    3.53    0.47
 -11  10  -4    3.18    0.56
 -11 -11   4    6.28    0.64
 -11  11   4    6.94    0.92
 -10 -11   4    1.43    0.34
  10 -11  -4    0.81    0.30
 -10  11   4    1.41    0.48
  -9 -11   4   31.14    1.52
   9 -11  -4   33.82    1.56
  -9  11   4   32.78    1.85
  -8 -11   4    5.39    0.49
   8 -11  -4    5.40    0.48
  -8  11   4    5.94    0.75
  -7 -11   4    1.80    0.32
   7 -11  -4    2.88    0.37
  -7  11   4    1.17    0.38
   7  11  -4    2.14    0.69
  -6 -11   4   27.30    1.24
   6 -11  -4   24.23    1.16
   6  11  -4   23.86    1.92
  -6  11   4   27.15    1.51
  -5 -11   4  103.81    4.09
   5 -11  -4  107.89    4.03
  -5  11   4  108.47    4.56
   5  11  -4  111.53    5.36
   4 -11  -4   41.20    1.68
  -4 -11   4   39.87    1.74
   4  11  -4   43.71    2.47
  -4  11   4   41.09    2.04
  -3 -11   4    4.96    0.41
   3 -11  -4    5.22    0.36
  -3 -11   4    5.06    0.36
  -3  11   4    4.18    0.58
   3  11  -4    5.95    0.81
  -2 -11   4    5.22    0.34
   2 -11  -4    5.34    0.37
  -2 -11   4    4.83    0.41
   2  11  -4    4.79    0.29
  -2  11   4    5.06    0.60
  -1 -11   4   96.31    3.36
  -1 -11   4   87.35    3.49
   1 -11  -4   92.51    3.41
   1  11  -4   87.29    3.52
  -1  11   4   93.94    3.85
   0 -11  -4    1.69    0.23
   0 -11   4    1.71    0.28
   0  11  -4    2.36    0.45
   0  11   4    2.55    0.40
   0  11  -4    2.13    0.24
  -1 -11  -4    0.57    0.11
   1 -11   4    0.58    0.10
   1 -11   4    0.36    0.15
  -1  11  -4    0.65    0.28
  -1  11  -4    0.82    0.17
   1  11   4    0.51    0.19
   2 -11   4   27.22    1.00
  -2 -11  -4   24.06    1.04
   2  11   4   27.15    1.28
  -2  11  -4   28.15    1.24
  -2  11  -4   27.11    1.51
  -3 -11  -4   62.43    2.40
  -3  11  -4   67.24    2.71
  -3  11  -4   68.76    3.12
   3  11   4   63.63    2.69
  -4 -11  -4    3.06    0.34
   4 -11   4    1.38    0.28
  -4  11  -4    2.29    0.43
  -4  11  -4    2.76    0.36
  -5 -11  -4    8.55    0.55
  -5  11  -4    7.70    0.74
  -5  11  -4    8.69    0.63
  -6 -11  -4   37.44    1.63
  -6  11  -4   36.64    1.97
  -6  11  -4   39.00    1.81
  -7 -11  -4   77.27    3.14
  -7  11  -4   81.57    3.44
  -7  11  -4   81.54    3.75
  -8 -11  -4    3.70    0.44
  -8  11  -4    3.91    0.54
  -8  11  -4    3.81    0.59
  -9 -11  -4   14.48    0.86
  -9  11  -4   14.78    1.03
 -10 -11  -4    4.71    0.54
 -10  11  -4    5.58    0.72
 -11 -11  -4   13.77    0.89
 -11  11  -4   13.48    1.06
 -11 -12   4    3.27    0.51
 -11  12   4    5.95    0.84
 -10 -12   4   32.55    1.59
  10 -12  -4   35.65    1.65
 -10  12   4   29.26    1.86
   9 -12  -4    0.01    0.19
  -9 -12   4    0.02    0.22
  -9  12   4    0.21    0.34
   8 -12  -4   10.93    0.70
  -8 -12   4   10.20    0.71
  -8  12   4   10.27    0.91
  -7 -12   4    9.29    0.66
   7 -12  -4   10.09    0.64
  -7  12   4    9.80    0.87
   7  12  -4    9.28    1.39
   6 -12  -4   62.64    2.50
  -6 -12   4   61.94    2.55
   6  12  -4   64.06    3.69
  -6  12   4   63.16    2.93
   5 -12  -4    2.78    0.33
  -5 -12   4    2.97    0.38
   5  12  -4    2.74    0.75
  -5  12   4    2.66    0.51
   4 -12  -4   64.29    2.61
  -4 -12   4   69.35    2.64
  -4 -12   4   65.11    2.69
  -4  12   4   68.72    3.08
   4  12  -4   72.95    3.68
  -3 -12   4    5.17    0.44
   3 -12  -4    4.68    0.36
  -3 -12   4    5.21    0.37
   3  12  -4    4.79    0.76
  -3  12   4    5.18    0.65
  -2 -12   4  112.26    4.19
   2 -12  -4  106.80    4.08
  -2 -12   4  108.91    4.04
  -2  12   4  113.15    4.61
  -1 -12   4    3.23    0.25
   1 -12  -4    2.76    0.30
  -1 -12   4    3.11    0.37
   1  12  -4    2.54    0.26
  -1  12   4    3.32    0.49
   0 -12  -4   90.35    3.46
   0 -12   4   96.57    3.37
   0 -12   4   90.53    3.57
   0  12   4   97.23    3.87
   0  12  -4   94.72    4.31
   0  12  -4   86.50    3.61
  -1 -12  -4    9.27    0.50
   1 -12   4   10.28    0.48
   1 -12   4   10.36    0.67
  -1  12  -4   11.34    0.61
   1  12   4   11.06    0.71
  -1  12  -4   11.95    0.90
  -2 -12  -4   49.84    1.96
  -2  12  -4   54.48    2.61
   2  12   4   53.61    2.26
  -2  12  -4   52.18    2.20
  -3  12  -4    4.86    0.42
   3  12   4    4.38    0.40
  -3  12  -4    4.86    0.61
   4 -12   4  106.17    4.04
  -4 -12  -4  103.65    3.85
  -4  12  -4  102.19    4.12
   4  12   4   95.54    4.05
  -4  12  -4  102.08    4.62
   5 -12   4    5.17    0.59
  -5 -12  -4    4.68    0.41
  -5  12  -4    5.94    0.68
  -5  12  -4    5.29    0.50
  -6 -12  -4   20.07    1.02
  -6  12  -4   20.80    1.16
  -6  12  -4   20.84    1.29
  -7 -12  -4    3.28    0.41
  -7  12  -4    2.77    0.51
  -7  12  -4    3.09    0.48
  -8 -12  -4   71.34    2.84
  -8  12  -4   69.12    3.35
  -8  12  -4   68.56    3.11
  -9 -12  -4    0.59    0.24
  -9  12  -4    0.54    0.30
 -10 -12  -4    1.71    0.36
 -10  12  -4    1.74    0.43
 -11 -12  -4    1.28    0.33
 -11  12  -4    0.70    0.36
 -11 -13   4    3.96    0.55
 -11 -13   4    3.21    0.50
 -11  13   4    4.95    0.81
 -10 -13   4    0.89    0.33
 -10 -13   4    0.81    0.30
  10 -13  -4    0.71    0.31
 -10  13   4    0.56    0.39
  -9 -13   4   55.38    2.40
  -9 -13   4   51.90    2.36
   9 -13  -4   59.83    2.41
  -9  13   4   54.14    2.77
  -8 -13   4    0.04    0.18
   8 -13  -4    0.16    0.17
  -8 -13   4    0.00    0.21
  -8  13   4   -0.03    0.26
  -7 -13   4    6.59    0.56
  -7 -13   4    7.20    0.55
   7 -13  -4    7.99    0.56
  -7  13   4    4.81    0.71
   7  13  -4    6.41    1.19
   6 -13  -4    5.77    0.46
  -6 -13   4    5.87    0.48
  -6 -13   4    6.19    0.52
   6  13  -4    5.08    1.03
  -6  13   4    6.90    0.82
   5 -13  -4  138.03    5.14
  -5 -13   4  135.85    5.24
  -5 -13   4  138.75    5.18
  -5  13   4  140.43    5.79
   5  13  -4  143.17    6.82
  -4 -13   4    0.26    0.21
   4 -13  -4    0.67    0.18
  -4 -13   4    0.75    0.20
  -4  13   4    0.53    0.33
   4  13  -4    0.67    0.49
  -3 -13   4    0.79    0.18
   3 -13  -4    0.80    0.19
  -3 -13   4    0.48    0.21
  -3  13   4    0.60    0.33
   3  13  -4    0.74    0.43
  -2 -13   4   14.96    0.72
  -2 -13   4   14.85    0.83
   2 -13  -4   14.61    0.75
  -2  13   4   14.47    1.01
  -1 -13   4  210.88    7.62
   1 -13  -4  208.74    7.47
  -1 -13   4  209.29    7.40
  -1  13   4  207.75    8.19
   1  13  -4  197.47    9.08
   0 -13   4    7.22    0.57
   0 -13   4    7.49    0.41
   0 -13  -4    7.66    0.49
   0  13  -4    6.91    0.46
   0  13  -4    9.24    0.85
   0  13   4    7.52    0.64
   1 -13   4    5.31    0.48
  -1 -13  -4    4.70    0.32
  -1 -13  -4    5.05    0.38
   1  13   4    5.33    0.49
  -1  13  -4    5.22    0.40
  -1  13  -4    4.18    0.62
  -2 -13  -4    1.84    0.26
   2 -13   4    1.44    0.31
  -2  13  -4    1.83    0.42
   2  13   4    1.63    0.29
  -2  13  -4    1.65    0.28
  -3 -13  -4  104.90    3.95
   3 -13   4  105.53    4.11
  -3  13  -4  106.29    4.78
  -3  13  -4  104.16    4.20
   3  13   4  103.35    4.20
  -4 -13  -4    3.30    0.37
   4 -13   4    3.21    0.45
   4  13   4    3.03    0.39
  -4  13  -4    3.12    0.41
  -4  13  -4    2.71    0.49
   5 -13   4   18.74    1.08
  -5 -13  -4   17.13    0.91
  -5  13  -4   18.30    1.04
  -5  13  -4   17.84    1.19
  -6 -13  -4    0.40    0.19
  -6  13  -4    0.04    0.19
  -6  13  -4    0.14    0.28
  -7 -13  -4   94.89    3.64
  -7  13  -4   93.20    3.94
  -7  13  -4   89.79    4.29
  -8 -13  -4    2.06    0.37
  -8  13  -4    3.52    0.54
  -9 -13  -4   26.88    1.31
  -9  13  -4   22.55    1.43
 -10 -13  -4   -0.13    0.19
 -10  13  -4   -0.26    0.22
 -10 -14   4   49.39    2.19
 -10 -14   4   48.26    2.15
 -10  14   4   42.96    2.50
  -9 -14   4    0.13    0.23
  -9 -14   4    0.35    0.24
   9 -14  -4    0.60    0.27
  -9  14   4    0.30    0.36
   8 -14  -4    8.03    0.62
  -8 -14   4    7.83    0.63
  -8 -14   4    9.74    0.70
  -8  14   4    9.48    0.91
  -7 -14   4   11.14    0.74
   7 -14  -4   12.84    0.74
  -7 -14   4   11.24    0.76
  -7  14   4   11.12    0.99
  -6 -14   4   78.76    3.06
   6 -14  -4   72.23    2.95
  -6 -14   4   75.17    3.01
   6  14  -4   77.11    4.38
  -6  14   4   74.70    3.46
   5 -14  -4    0.37    0.18
  -5 -14   4    0.29    0.21
  -5 -14   4    0.33    0.18
   5  14  -4   -0.20    0.44
  -5  14   4    0.35    0.32
   4 -14  -4   39.04    1.66
  -4 -14   4   39.36    1.67
  -4 -14   4   37.79    1.74
   4  14  -4   41.97    2.63
  -4  14   4   41.32    2.09
  -3 -14   4    9.90    0.65
  -3 -14   4   10.10    0.58
   3 -14  -4    9.98    0.59
   3  14  -4   10.46    1.23
  -3  14   4    9.35    0.85
  -2 -14   4   43.82    1.92
  -2 -14   4   44.40    1.79
   2 -14  -4   43.56    1.83
  -2  14   4   45.19    2.23
   2  14  -4   49.31    2.64
  -1 -14   4    2.43    0.36
  -1 -14   4    2.49    0.27
   1 -14  -4    2.40    0.31
   1  14  -4    1.59    0.56
  -1  14   4    2.08    0.43
   0 -14  -4  145.53    5.61
   0 -14   4  157.97    5.78
   0 -14   4  156.76    5.52
   0  14  -4  159.14    6.93
   0  14  -4  146.29    5.90
   0  14   4  156.05    6.17
   1 -14   4    5.06    0.54
  -1 -14  -4    5.62    0.40
  -1  14  -4    4.14    0.39
  -1  14  -4    4.46    0.67
   1  14   4    5.28    0.50
  -2 -14  -4   49.59    2.08
   2 -14   4   53.33    2.25
  -2  14  -4   51.71    2.21
   2  14   4   52.94    2.28
  -2  14  -4   50.99    2.65
  -3 -14  -4    0.52    0.18
   3 -14   4    0.29    0.22
  -3  14  -4    0.55    0.33
   3  14   4    0.44    0.19
  -3  14  -4    0.44    0.20
   4 -14   4   60.47    2.56
  -4 -14  -4   57.27    2.36
  -4  14  -4   57.18    2.90
  -4  14  -4   60.78    2.55
   4  14   4   57.07    2.48
   5 -14   4   23.48    1.24
  -5 -14  -4   20.86    1.04
  -5  14  -4   18.29    1.28
  -5  14  -4   19.43    1.12
  -6 -14  -4    1.44    0.30
  -6  14  -4    1.52    0.36
  -6  14  -4    0.69    0.35
  -7 -14  -4    7.52    0.58
  -7  14  -4    5.20    0.71
  -7  14  -4    6.59    0.64
  -8 -14  -4   69.34    2.89
  -8  14  -4   71.49    3.19
  -9 -14  -4    3.56    0.49
  -9  14  -4    2.75    0.53
 -10 -14  -4    1.30    0.34
 -10  14  -4    0.44    0.35
 -10 -15   4    7.31    0.65
 -10 -15   4    6.46    0.69
 -10  15   4    7.67    1.00
  -9 -15   4   53.66    2.32
   9 -15  -4   52.64    2.30
  -9 -15   4   53.04    2.33
  -9  15   4   49.31    2.70
   8 -15  -4   33.82    1.55
  -8 -15   4   32.70    1.58
  -8 -15   4   33.57    1.60
  -8  15   4   31.16    1.91
   7 -15  -4    4.17    0.46
  -7 -15   4    3.51    0.46
  -7 -15   4    3.35    0.45
  -7  15   4    2.98    0.60
  -6 -15   4    9.29    0.68
   6 -15  -4    9.81    0.63
  -6 -15   4    9.06    0.64
  -6  15   4   10.14    0.92
   6  15  -4    9.88    1.46
  -5 -15   4   68.49    2.84
   5 -15  -4   68.66    2.74
  -5 -15   4   68.14    2.77
  -5  15   4   71.32    3.26
   5  15  -4   72.12    4.10
   4 -15  -4    7.89    0.54
  -4 -15   4    8.48    0.62
  -4 -15   4    8.63    0.56
   4  15  -4    8.42    1.24
  -4  15   4    8.30    0.91
  -3 -15   4    1.97    0.34
  -3 -15   4    1.88    0.28
   3 -15  -4    1.47    0.26
  -3  15   4    2.14    0.49
   3  15  -4    1.59    0.59
   2 -15  -4   32.86    1.44
  -2 -15   4   32.13    1.53
  -2 -15   4   33.72    1.40
  -2  15   4   34.81    1.82
   2  15  -4   32.79    2.13
  -1 -15   4   46.58    1.81
  -1 -15   4   44.56    1.99
   1 -15  -4   42.25    1.86
   1  15  -4   49.29    2.67
  -1  15   4   48.90    2.27
   0 -15   4   22.34    1.18
   0 -15   4   23.10    0.98
   0 -15  -4   22.35    1.06
   0  15   4   22.95    1.30
   0  15  -4   23.42    1.60
   1 -15   4    2.81    0.41
  -1 -15  -4    2.88    0.35
   1  15   4    2.61    0.43
  -1  15  -4    2.87    0.59
  -1  15  -4    2.31    0.34
  -2 -15  -4   29.24    1.31
   2 -15   4   28.32    1.44
  -2  15  -4   28.17    1.37
   2  15   4   30.62    1.45
  -2  15  -4   28.52    1.75
  -3 -15  -4   48.26    1.96
   3 -15   4   45.72    2.10
  -3  15  -4   46.60    2.47
   3  15   4   44.79    2.06
  -3  15  -4   47.53    2.08
  -4 -15  -4    7.70    0.55
   4 -15   4    8.48    0.70
  -4  15  -4    6.89    0.59
  -4  15  -4    7.23    0.78
   5 -15   4    8.54    0.73
  -5 -15  -4    8.62    0.59
  -5  15  -4    7.46    0.79
  -5  15  -4    7.07    0.64
  -6 -15  -4   15.05    0.86
  -6  15  -4   13.45    1.09
  -6  15  -4   14.17    0.95
  -7 -15  -4   84.36    3.35
  -7  15  -4   81.55    3.97
  -7  15  -4   84.47    3.65
  -8 -15  -4    0.21    0.23
  -8  15  -4    0.28    0.27
  -9 -15  -4    6.69    0.60
  -9  15  -4    5.60    0.73
  -9 -16   4   10.97    0.83
  -9 -16   4   10.77    0.81
  -9  16   4   11.20    1.21
   8 -16  -4    9.12    0.69
  -8 -16   4   11.36    0.77
  -8 -16   4   10.52    0.77
  -8  16   4    8.81    1.04
  -7 -16   4   41.16    1.86
  -7 -16   4   41.85    1.89
   7 -16  -4   42.94    1.82
  -7  16   4   37.02    2.19
   6 -16  -4   12.93    0.74
  -6 -16   4   11.14    0.74
  -6 -16   4   11.41    0.77
  -6  16   4   11.05    1.00
   6  16  -4   12.04    1.69
  -5 -16   4    0.42    0.20
   5 -16  -4    0.40    0.19
  -5 -16   4    0.69    0.26
  -5  16   4    0.14    0.33
   5  16  -4   -0.03    0.53
  -4 -16   4   16.84    0.97
   4 -16  -4   17.04    0.88
  -4 -16   4   16.20    0.88
   4  16  -4   16.64    1.66
  -4  16   4   17.93    1.24
   3 -16  -4   65.20    2.57
  -3 -16   4   63.84    2.68
  -3 -16   4   64.63    2.55
  -3  16   4   60.94    3.02
   3  16  -4   70.70    3.75
  -2 -16   4   19.27    0.92
  -2 -16   4   18.86    1.05
   2 -16  -4   17.99    0.94
  -2  16   4   20.36    1.29
   2  16  -4   22.36    1.66
  -1 -16   4    1.33    0.31
   1 -16  -4    1.36    0.26
  -1 -16   4    1.11    0.21
   1  16  -4    0.68    0.44
  -1  16   4    1.37    0.37
   0 -16  -4   15.96    0.88
   0 -16   4   18.98    1.05
   0  16   4   18.91    1.14
   0  16  -4   20.08    1.47
   1 -16   4  101.13    3.92
  -1 -16  -4   95.19    3.73
  -1  16  -4   92.85    3.93
  -1  16  -4  100.97    4.73
   1  16   4  101.49    4.10
   2 -16   4   16.10    1.01
  -2 -16  -4   16.31    0.90
  -2  16  -4   17.77    0.97
   2  16   4   18.51    1.02
  -2  16  -4   19.25    1.35
  -3 -16  -4    2.65    0.36
   3 -16   4    1.65    0.39
  -3  16  -4    2.84    0.41
  -3  16  -4    1.81    0.48
   4 -16   4   29.23    1.53
  -4 -16  -4   29.16    1.36
  -4  16  -4   28.90    1.48
  -4  16  -4   28.25    1.75
   5 -16   4   14.21    0.96
  -5 -16  -4   12.21    0.77
  -5  16  -4   13.96    1.10
  -5  16  -4   12.48    0.87
  -6 -16  -4    5.32    0.56
  -6  16  -4    6.73    0.72
  -6  16  -4    5.42    0.75
  -7 -16  -4   13.37    0.83
  -7  16  -4   11.31    0.91
  -8 -16  -4   20.78    1.14
  -8  16  -4   19.62    1.30
  -9 -16  -4   28.10    1.43
  -9  16  -4   25.04    1.59
  -9 -17   4    4.46    0.57
  -9 -17   4    4.20    0.56
  -9  17   4    5.02    0.84
  -8 -17   4   32.46    1.63
  -8 -17   4   34.61    1.64
  -8  17   4   31.37    1.97
  -7 -17   4   -0.10    0.16
   7 -17  -4    0.22    0.20
  -7 -17   4    0.33    0.27
  -7  17   4    0.08    0.32
  -6 -17   4   18.17    1.04
   6 -17  -4   22.40    1.06
  -6 -17   4   17.55    1.08
   6  17  -4   21.75    2.10
  -6  17   4   18.09    1.35
  -5 -17   4    7.63    0.63
  -5 -17   4    8.02    0.59
   5 -17  -4    7.91    0.56
  -5  17   4    8.97    0.98
   5  17  -4    8.64    1.44
  -4 -17   4   25.55    1.31
  -4 -17   4   25.28    1.22
   4 -17  -4   26.08    1.22
   4  17  -4   27.83    2.22
  -4  17   4   26.29    1.62
  -3 -17   4    0.34    0.17
  -3 -17   4    0.75    0.28
   3 -17  -4    0.71    0.21
  -3  17   4    0.49    0.35
   3  17  -4    0.46    0.51
  -2 -17   4   28.41    1.27
   2 -17  -4   29.13    1.32
  -2 -17   4   29.07    1.43
  -2  17   4   29.00    1.67
   2  17  -4   29.30    2.10
   1 -17  -4   25.61    1.19
  -1 -17   4   24.83    1.11
  -1 -17   4   22.44    1.26
  -1  17   4   27.03    1.50
   1  17  -4   27.16    1.89
   0 -17   4   39.93    1.81
   0 -17  -4   36.97    1.65
   0  17   4   38.91    1.94
   0  17  -4   38.03    2.36
   1 -17   4   -0.18    0.21
  -1 -17  -4    0.21    0.17
   1  17   4    0.11    0.20
  -1  17  -4   -0.16    0.36
   2 -17   4   67.01    2.84
  -2 -17  -4   65.57    2.66
  -2  17  -4   66.15    2.84
  -2  17  -4   64.41    3.42
   2  17   4   69.38    2.89
   3 -17   4   15.89    1.03
  -3 -17  -4   15.69    0.88
  -3  17  -4   17.51    0.99
  -3  17  -4   15.69    1.26
   4 -17   4    5.50    0.66
  -4 -17  -4    5.78    0.49
  -4  17  -4    4.89    0.59
  -4  17  -4    6.14    0.81
  -5 -17  -4    0.49    0.22
   5 -17   4    0.19    0.28
  -5  17  -4   -0.13    0.31
  -5  17  -4   -0.03    0.23
  -6 -17  -4   34.76    1.64
  -6  17  -4   36.61    1.84
  -6  17  -4   34.67    2.06
  -7 -17  -4    4.86    0.55
  -7  17  -4    6.02    0.72
  -8 -17  -4    1.93    0.37
  -8  17  -4    2.30    0.50
  -8 -18   4    0.48    0.26
  -8 -18   4    0.70    0.32
  -8  18   4    0.90    0.47
   7 -18  -4   37.83    1.68
  -7 -18   4   36.62    1.77
  -7 -18   4   36.25    1.73
  -7  18   4   35.44    2.11
   6 -18  -4    1.96    0.34
  -6 -18   4    1.66    0.34
  -6 -18   4    1.20    0.34
   6  18  -4    2.45    0.94
  -6  18   4    2.35    0.57
  -5 -18   4    0.52    0.29
   5 -18  -4    1.32    0.27
  -5 -18   4    1.22    0.28
   5  18  -4    1.81    0.84
  -5  18   4    0.20    0.35
   4 -18  -4    0.38    0.20
  -4 -18   4    0.59    0.27
  -4 -18   4    0.28    0.19
  -4  18   4    0.35    0.38
   4  18  -4   -0.17    0.55
  -3 -18   4   57.32    2.30
   3 -18  -4   55.74    2.32
  -3 -18   4   57.05    2.45
  -3  18   4   54.86    2.78
   3  18  -4   60.32    3.56
  -2 -18   4    1.66    0.27
   2 -18  -4    1.59    0.29
  -2 -18   4    1.22    0.34
  -2  18   4    1.34    0.44
   2  18  -4    1.06    0.60
  -1 -18   4    0.82    0.29
   1 -18  -4    0.56    0.20
   1  18  -4    1.02    0.56
  -1  18   4    0.72    0.33
   0 -18   4    2.32    0.42
   0 -18  -4    1.94    0.31
   0  18  -4    2.25    0.64
   0  18   4    2.85    0.48
  -1 -18  -4   50.74    2.16
   1 -18   4   53.01    2.35
  -1  18  -4   53.07    2.97
   1  18   4   52.65    2.42
  -2 -18  -4    0.96    0.24
   2 -18   4    0.45    0.27
  -2  18  -4    1.12    0.52
   3 -18   4    7.73    0.71
  -3 -18  -4    9.32    0.62
  -3  18  -4    7.31    0.96
  -3  18  -4    7.42    0.66
   4 -18   4    1.98    0.44
  -4 -18  -4    2.64    0.38
  -4  18  -4    2.81    0.46
  -4  18  -4    2.16    0.58
  -5 -18  -4   53.49    2.31
   5 -18   4   54.10    2.52
  -5  18  -4   55.30    2.52
  -5  18  -4   52.88    2.89
  -6 -18  -4    0.69    0.26
  -6  18  -4    0.62    0.32
  -6  18  -4    0.60    0.46
  -7 -18  -4    5.85    0.62
  -7  18  -4    5.35    0.71
  -8 -18  -4   -0.03    0.20
  -8  18  -4    0.11    0.32
  -8 -19   4   28.39    1.49
  -7 -19   4   -0.13    0.23
  -7 -19   4   -0.21    0.17
  -7  19   4    0.08    0.39
  -6 -19   4   20.94    1.20
  -6 -19   4   19.75    1.11
   6 -19  -4   22.29    1.11
   6  19  -4   20.75    2.18
  -6  19   4   19.60    1.47
  -5 -19   4    0.32    0.22
   5 -19  -4    0.49    0.23
  -5 -19   4    0.47    0.27
  -5  19   4   -0.10    0.34
   5  19  -4    0.67    0.78
  -4 -19   4   18.31    0.97
  -4 -19   4   20.06    1.10
   4 -19  -4   17.56    0.96
  -4  19   4   16.02    1.28
   4  19  -4   17.87    1.90
   3 -19  -4    0.28    0.20
  -3 -19   4    0.01    0.21
  -3 -19   4    0.37    0.19
  -3  19   4    0.40    0.38
   3  19  -4   -0.31    0.46
  -2 -19   4   54.92    2.43
   2 -19  -4   54.02    2.28
   2  19  -4   54.72    3.41
  -2  19   4   58.68    2.77
  -1 -19   4    0.85    0.32
   1 -19  -4    1.41    0.28
  -1  19   4    1.13    0.38
   1  19  -4    1.15    0.59
   0 -19   4   35.05    1.71
   0 -19  -4   32.70    1.54
   0  19   4   35.30    1.83
   0  19  -4   35.91    2.35
   1 -19   4    0.08    0.28
  -1 -19  -4    0.31    0.20
  -1  19  -4    0.03    0.44
  -2 -19  -4   39.86    1.81
   2 -19   4   40.72    1.98
  -2  19  -4   44.55    2.56
  -3 -19  -4    0.28    0.20
   3 -19   4    0.52    0.30
  -3  19  -4    0.12    0.39
   4 -19   4   14.27    1.01
  -4 -19  -4   12.45    0.81
  -4  19  -4   12.85    1.22
  -4  19  -4   12.45    0.91
  -5 -19  -4    0.37    0.23
  -5  19  -4    0.34    0.30
  -5  19  -4    0.30    0.44
  -6 -19  -4   35.20    1.72
  -6  19  -4   37.33    1.93
  -7 -19  -4   -0.03    0.19
  -7  19  -4   -0.10    0.29
  -7 -20   4   45.41    2.06
  -7 -20   4   45.80    2.12
  -7  20   4   43.15    2.51
  -6 -20   4    2.11    0.43
  -6 -20   4    3.27    0.46
  -6  20   4    3.35    0.70
  -5 -20   4   -0.08    0.25
  -5 -20   4    0.03    0.18
   5 -20  -4    0.01    0.19
   5  20  -4    0.04    0.65
  -5  20   4    0.36    0.39
   4 -20  -4    3.26    0.42
  -4 -20   4    3.12    0.49
  -4 -20   4    2.60    0.38
  -4  20   4    2.95    0.64
   4  20  -4    2.85    1.01
   3 -20  -4   66.54    2.65
  -3 -20   4   62.22    2.60
  -3 -20   4   66.47    2.81
  -3  20   4   64.74    3.17
   3  20  -4   65.96    4.06
   2 -20  -4    1.43    0.29
  -2 -20   4    1.58    0.39
   2  20  -4    0.66    0.62
  -2  20   4    1.32    0.42
  -1 -20   4    0.19    0.26
   1 -20  -4   -0.05    0.14
   1  20  -4    0.63    0.56
  -1  20   4    0.14    0.27
   0 -20  -4    3.99    0.45
   0 -20   4    4.02    0.57
   0  20  -4    3.68    0.86
   1 -20   4   36.14    1.81
  -1 -20  -4   36.84    1.65
  -1  20  -4   36.05    2.41
  -2 -20  -4    0.61    0.24
   2 -20   4    0.54    0.32
  -2  20  -4    0.41    0.48
  -3 -20  -4    3.94    0.48
   3 -20   4    4.52    0.62
  -3  20  -4    2.42    0.70
  -4 -20  -4    0.84    0.26
   4 -20   4    0.69    0.33
  -4  20  -4    0.32    0.30
  -4  20  -4    0.51    0.48
  -5 -20  -4   39.61    1.79
  -5  20  -4   37.12    1.95
  -5  20  -4   36.36    2.34
  -6 -20  -4    0.00    0.22
  -6  20  -4   -0.10    0.27
  -6 -21   4    8.63    0.77
  -6 -21   4    8.68    0.69
  -6  21   4    9.98    1.15
  -5 -21   4   14.59    1.01
   5 -21  -4   15.11    0.90
  -5 -21   4   15.41    0.92
   5  21  -4   19.14    2.29
  -5  21   4   15.21    1.27
   4 -21  -4   13.66    0.83
  -4 -21   4   13.19    0.82
  -4 -21   4   14.95    0.97
   4  21  -4   13.12    1.88
  -4  21   4   12.73    1.15
   3 -21  -4    0.01    0.18
  -3 -21   4   -0.05    0.26
   3  21  -4    0.50    0.67
  -3  21   4    0.45    0.37
  -2 -21   4   30.28    1.59
   2 -21  -4   29.57    1.43
  -2  21   4   31.40    1.82
   2  21  -4   32.30    2.53
  -1 -21   4   11.47    0.87
   1 -21  -4   10.88    0.72
   1  21  -4   10.83    1.48
   0 -21  -4   12.43    0.79
   0 -21   4   13.98    0.98
   0  21  -4   16.15    1.58
  -1 -21  -4    1.25    0.30
   1 -21   4    0.45    0.33
  -1  21  -4    1.32    0.63
   2 -21   4   16.82    1.14
  -2 -21  -4   17.39    0.99
  -2  21  -4   18.30    1.61
  -3 -21  -4   10.98    0.74
   3 -21   4   12.19    0.95
  -3  21  -4    8.69    1.20
  -4 -21  -4    8.25    0.65
   4 -21   4    8.80    0.91
  -4  21  -4    8.63    1.15
  -5 -21  -4    1.42    0.34
  -5  21  -4    0.73    0.36
  -5  21  -4    0.93    0.57
  -4 -22   4   11.11    0.87
   4 -22  -4   10.31    0.71
   4  22  -4   10.59    1.71
  -4  22   4    9.85    1.13
  -3 -22   4   31.38    1.67
   3 -22  -4   32.26    1.52
  -3  22   4   32.28    1.94
   3  22  -4   35.44    2.83
  -2 -22   4   10.30    0.85
   2 -22  -4   10.22    0.70
  -2  22   4   11.93    1.02
   2  22  -4    9.83    1.54
  -1 -22   4    1.69    0.45
   1 -22  -4    1.62    0.33
   1  22  -4    2.17    0.84
   0 -22  -4   17.78    0.99
   0 -22   4   19.38    1.21
   0  22  -4   17.60    1.77
   1 -22   4   20.66    1.30
  -1 -22  -4   21.46    1.14
  -1  22  -4   23.51    1.96
   2 -22   4    5.10    0.68
  -2 -22  -4    4.92    0.55
  -2  22  -4    4.77    0.98
  -3 -22  -4    0.32    0.24
   3 -22   4    0.62    0.38
  -3  22  -4    0.83    0.58
   4 -22   4   14.88    1.12
  -4 -22  -4   15.80    0.98
  -4  22  -4   18.30    1.61
  -2 -23   4   15.01    1.06
   2 -23  -4   15.41    0.91
   2  23  -4   14.80    1.97
  -1 -23   4   28.84    1.58
   1 -23  -4   26.94    1.36
   1  23  -4   28.38    2.44
   0 -23  -4    5.60    0.58
   0 -23   4    6.17    0.76
   0  23  -4    8.33    1.36
   1 -23   4    1.73    0.48
  -1 -23  -4    2.80    0.42
  -1  23  -4    1.98    0.79
  -2 -23  -4   10.34    0.76
   2 -23   4   11.34    0.95
  -2  23  -4   12.77    1.56
 -13   0   5   41.31    1.93
 -12   0   5   -0.46    0.18
 -11   0   5    9.43    0.67
 -10   0   5   -0.03    0.24
 -10   0   5   -0.06    0.18
  -9   0   5   62.71    2.45
  -9   0   5   57.42    2.64
  -8   0   5   -0.09    0.19
  -8   0   5    0.03    0.17
  -7   0   5   30.96    1.49
  -7   0   5   30.04    1.32
  -6   0   5    0.07    0.11
  -6   0   5    0.05    0.16
   6   0  -5    0.14    0.15
   5   0  -5  126.88    6.27
   5   0  -5  149.36    5.45
  -5   0   5  157.28    5.83
  -5   0   5  162.81    5.44
  -4   0   5    0.00    0.13
  -4   0   5   -0.28    0.08
   4   0  -5   -0.28    0.15
   4   0  -5    0.03    0.10
  -3   0   5   13.01    0.61
   3   0  -5   13.82    0.64
  -3   0   5   13.41    0.72
   3   0  -5   14.05    0.74
  -2   0   5    0.00    0.10
   2   0  -5    0.08    0.08
   1   0  -5   55.94    2.11
  -1   0   5   59.63    2.13
  -1   0   5   56.39    2.31
   0   0  -5    0.36    0.18
   0   0   5    0.02    0.06
   0   0   5    0.01    0.08
   0   0  -5    0.09    0.06
   1   0   5  104.38    3.84
  -1   0  -5  106.07    3.79
  -1   0  -5  108.63    4.65
   2   0   5    0.00    0.07
  -2   0  -5   -0.18    0.06
  -2   0  -5    0.27    0.08
  -3   0  -5  207.70    7.37
  -3   0  -5  210.07    8.94
  -4   0  -5   -0.24    0.24
  -4   0  -5   -0.03    0.06
  -5   0  -5  130.48    4.67
  -5   0  -5  130.25    5.84
  -6   0  -5   -0.04    0.24
  -6   0  -5    0.12    0.09
  -7   0  -5   50.37    1.94
  -7   0  -5   51.40    2.68
  -8   0  -5   -0.72    0.37
  -8   0  -5    0.22    0.13
  -9   0  -5   41.46    1.94
  -9   0  -5   38.63    2.32
 -10   0  -5   -0.18    0.20
 -10   0  -5    0.00    0.36
 -11   0  -5   18.92    1.49
 -11   0  -5   18.58    1.16
 -12   0  -5    0.02    0.25
 -12   0  -5    0.40    0.31
 -13  -1   5   -0.39    0.24
 -13   1   5   -0.09    0.26
 -12  -1   5   45.05    2.04
 -12   1   5   45.99    2.04
 -11  -1   5    2.32    0.37
 -11   1   5    1.88    0.44
 -11   1   5    2.88    0.42
 -10  -1   5   18.38    1.09
 -10  -1   5   18.11    0.98
 -10   1   5   17.94    1.12
 -10   1   5   18.34    0.98
  -9  -1   5   -0.06    0.20
  -9  -1   5    0.40    0.26
  -9   1   5   -0.17    0.20
  -9   1   5    0.66    0.28
  -8  -1   5   70.97    2.98
  -8  -1   5   68.76    2.77
  -8   1   5   72.16    3.04
  -8   1   5   70.27    2.77
  -7  -1   5    1.82    0.26
  -7  -1   5    2.22    0.36
  -7   1   5    2.31    0.28
  -7   1   5    2.59    0.41
  -6  -1   5    1.71    0.29
  -6  -1   5    1.22    0.20
   6   1  -5    1.42    0.30
  -6   1   5    1.27    0.30
  -6   1   5    1.08    0.20
  -5  -1   5    1.22    0.20
  -5  -1   5    1.64    0.26
   5  -1  -5    0.60    0.15
   5  -1  -5    0.86    0.20
   5   1  -5    0.70    0.24
  -5   1   5    1.15    0.19
  -5   1   5    1.55    0.30
   4  -1  -5  172.32    7.57
  -4  -1   5  184.40    6.98
  -4  -1   5  187.14    6.56
   4  -1  -5  182.40    6.55
   4   1  -5  179.86    6.56
   4   1  -5  174.73    7.63
  -4   1   5  186.26    6.54
  -4   1   5  186.04    7.04
   3  -1  -5    0.11    0.12
  -3  -1   5    0.14    0.10
  -3  -1   5    0.24    0.09
   3  -1  -5    0.15    0.08
  -3   1   5    0.21    0.13
   3   1  -5    0.74    0.18
  -3   1   5    0.37    0.11
   3   1  -5    0.38    0.11
   2  -1  -5   51.67    2.35
  -2  -1   5   53.13    2.15
   2  -1  -5   53.35    1.98
  -2   1   5   51.61    2.19
  -2   1   5   51.63    1.97
   2   1  -5   56.55    2.39
   2   1  -5   51.17    1.98
   1  -1  -5    0.18    0.07
  -1  -1   5    0.56    0.11
  -1  -1   5    0.15    0.08
   1   1  -5    0.17    0.07
  -1   1   5    0.38    0.08
  -1   1   5    0.15    0.10
   0  -1   5  349.71   13.35
   0  -1  -5  347.50   12.54
   0  -1   5  354.55   12.59
   0   1   5  348.24   12.55
   0   1  -5  377.08   14.81
   0   1  -5  355.92   12.68
   1  -1   5    0.84    0.12
  -1  -1  -5    0.48    0.23
  -1  -1  -5    0.76    0.10
   1   1   5    0.71    0.15
   1   1   5    0.61    0.09
  -1   1  -5    0.67    0.09
  -1   1  -5    0.88    0.25
  -2  -1  -5   46.18    1.66
   2  -1   5   46.30    1.72
  -2   1  -5   44.71    1.63
   2   1   5   41.48    1.66
  -3  -1  -5    4.13    0.55
  -3  -1  -5    4.73    0.26
  -3   1  -5    4.42    0.23
  -3   1  -5    3.92    0.54
  -4  -1  -5  169.28    7.26
  -4  -1  -5  164.49    5.89
  -4   1  -5  163.94    7.20
  -4   1  -5  165.06    5.86
  -5  -1  -5   33.00    1.28
  -5  -1  -5   31.42    1.82
  -5   1  -5   30.74    1.78
  -5   1  -5   33.98    1.25
  -6  -1  -5   21.37    1.45
  -6  -1  -5   22.93    0.96
  -6   1  -5   23.97    0.93
  -6   1  -5   22.21    1.42
  -7  -1  -5    0.88    0.17
  -7  -1  -5    0.24    0.34
  -7   1  -5    0.73    0.14
  -7   1  -5    0.55    0.35
  -8  -1  -5  123.57    5.84
  -8  -1  -5  126.86    4.61
  -8   1  -5  126.91    5.80
  -9  -1  -5   -0.97    0.34
  -9  -1  -5    0.04    0.13
  -9   1  -5   -0.39    0.30
  -9   1  -5    0.37    0.24
 -10  -1  -5   10.94    0.80
 -10  -1  -5    8.98    1.11
 -10   1  -5    9.88    1.02
 -10   1  -5   10.24    0.79
 -11  -1  -5    3.27    0.74
 -11  -1  -5    3.74    0.54
 -11  -1  -5    3.55    0.44
 -11   1  -5    3.11    0.52
 -11   1  -5    3.71    0.74
 -12  -1  -5   52.38    2.47
 -12   1  -5   50.93    2.48
 -13  -2   5   30.93    1.54
 -13   2   5   29.53    1.52
 -12  -2   5    3.54    0.48
 -12   2   5    3.14    0.56
 -12   2   5    3.29    0.47
 -11  -2   5    8.11    0.64
 -11   2   5    8.99    0.79
 -11   2   5    7.83    0.61
 -10  -2   5   21.46    1.09
 -10   2   5   20.46    1.06
 -10   2   5   20.54    1.25
  -9  -2   5  134.77    5.38
  -9  -2   5  137.16    5.08
  -9   2   5  133.91    5.06
  -9   2   5  133.16    5.47
  -8  -2   5   -0.05    0.16
  -8  -2   5    0.25    0.22
  -8   2   5   -0.19    0.15
  -8   2   5   -0.06    0.22
  -7  -2   5   33.26    1.51
  -7   2   5   31.64    1.38
  -7   2   5   31.09    1.57
  -6  -2   5   12.95    0.67
  -6  -2   5   13.16    0.74
   6  -2  -5   11.58    0.67
  -6   2   5   13.40    0.84
  -6   2   5   12.52    0.65
  -5  -2   5  123.13    4.51
  -5  -2   5  119.64    4.77
  -5   2   5  122.35    4.89
  -5   2   5  124.11    4.49
  -4  -2   5    1.42    0.21
   4  -2  -5    0.62    0.17
   4  -2  -5    1.34    0.20
  -4  -2   5    1.27    0.19
   4   2  -5    1.05    0.24
  -4   2   5    1.79    0.31
  -4   2   5    1.26    0.17
   3  -2  -5   75.45    3.19
  -3  -2   5   72.73    2.94
   3  -2  -5   70.60    2.75
  -3  -2   5   76.95    2.78
   3   2  -5   71.80    2.77
  -3   2   5   78.24    3.06
  -3   2   5   74.72    2.74
   2  -2  -5   41.10    1.54
  -2  -2   5   38.12    1.64
  -2  -2   5   41.31    1.57
   2  -2  -5   40.49    1.83
   2   2  -5   38.78    1.54
  -2   2   5   41.00    1.52
  -2   2   5   39.19    1.74
   1  -2  -5  133.47    4.63
  -1  -2   5  117.58    4.93
   1  -2  -5  136.04    5.52
   1   2  -5  131.78    4.62
  -1   2   5  130.18    5.02
  -1   2   5  125.33    4.61
   0  -2  -5    3.53    0.22
   0  -2   5    3.66    0.24
   0   2   5    3.26    0.19
   0   2  -5    3.37    0.20
   0   2  -5    3.63    0.41
   0   2   5    4.06    0.32
  -1  -2  -5  179.28    6.06
   1  -2   5  165.47    6.13
  -1  -2  -5  175.16    7.31
  -1   2  -5  170.21    6.01
  -1   2  -5  174.96    7.28
   1   2   5  159.39    6.05
  -2  -2  -5   17.37    0.70
  -2  -2  -5   17.20    1.04
  -2   2  -5   16.53    0.65
  -2   2  -5   17.22    1.01
   3  -2   5   62.38    2.43
  -3  -2  -5   65.16    2.35
  -3  -2  -5   65.94    3.05
  -3   2  -5   64.07    2.99
  -3   2  -5   62.48    2.28
  -4  -2  -5    0.12    0.08
  -4  -2  -5   -0.24    0.21
  -4   2  -5    0.09    0.05
  -4   2  -5    0.66    0.28
  -5  -2  -5   70.48    3.45
  -5  -2  -5   71.34    2.63
  -5   2  -5   70.03    3.36
  -5   2  -5   71.96    2.57
  -6  -2  -5   41.24    2.30
  -6  -2  -5   43.06    1.66
  -6   2  -5   41.63    2.22
  -6   2  -5   42.96    1.59
  -7  -2  -5   32.47    1.95
  -7  -2  -5   31.26    1.32
  -7   2  -5   32.25    1.26
  -7   2  -5   32.50    1.86
  -8  -2  -5    0.33    0.47
  -8  -2  -5    1.27    0.22
  -8   2  -5    1.17    0.31
  -8   2  -5    0.35    0.43
  -9  -2  -5   83.99    4.32
  -9  -2  -5   88.65    3.34
  -9  -2  -5   87.31    3.30
  -9   2  -5   91.92    3.72
  -9   2  -5   82.71    4.19
 -10  -2  -5    9.87    0.76
 -10  -2  -5    7.94    1.10
 -10  -2  -5   10.39    0.63
 -10   2  -5    9.50    0.99
 -10   2  -5    8.89    0.75
 -11  -2  -5    4.91    0.61
 -11  -2  -5    3.76    0.79
 -11   2  -5    4.06    0.58
 -11   2  -5    3.65    0.71
 -12  -2  -5    3.30    0.55
 -12   2  -5    3.85    0.60
 -13  -3   5    0.41    0.28
 -13   3   5    0.23    0.25
 -12  -3   5   21.39    1.18
 -12   3   5   21.26    1.17
 -12   3   5   21.61    1.37
 -11  -3   5   28.44    1.39
 -11   3   5   28.96    1.61
 -11   3   5   26.93    1.36
 -10  -3   5    2.44    0.38
 -10   3   5    2.84    0.39
 -10   3   5    2.50    0.48
  -9  -3   5    5.81    0.49
  -9   3   5    5.38    0.63
  -9   3   5    4.71    0.44
  -8  -3   5  114.02    4.50
  -8  -3   5  111.83    4.26
  -8   3   5  111.51    4.64
  -8   3   5  112.71    4.25
  -7  -3   5   54.29    2.35
   7  -3  -5   55.56    2.29
  -7   3   5   56.13    2.50
  -7   3   5   57.86    2.23
   6  -3  -5    3.21    0.34
  -6  -3   5    2.85    0.34
  -6   3   5    2.25    0.38
  -6   3   5    2.28    0.28
   6   3  -5    2.52    0.45
  -5  -3   5   14.54    0.74
  -5  -3   5   14.81    0.72
   5  -3  -5   14.60    0.72
   5   3  -5   10.95    0.87
  -5   3   5   15.34    0.70
  -5   3   5   15.15    0.89
  -4  -3   5  158.63    5.64
  -4  -3   5  150.96    5.91
   4  -3  -5  145.46    6.43
  -4   3   5  162.55    6.10
  -4   3   5  157.89    5.60
  -3  -3   5  150.22    5.44
   3  -3  -5  155.30    6.27
   3  -3  -5  157.47    5.40
  -3  -3   5  149.17    5.71
   3   3  -5  127.05    6.35
  -3   3   5  151.40    5.38
  -3   3   5  157.45    5.89
   2  -3  -5   34.14    1.61
  -2  -3   5   34.45    1.43
  -2  -3   5   35.48    1.39
   2  -3  -5   33.71    1.35
   2   3  -5   36.38    1.67
  -2   3   5   33.74    1.31
  -2   3   5   33.89    1.55
  -1  -3   5  107.75    3.93
   1  -3  -5  107.09    3.88
   1  -3  -5  108.81    4.63
   1   3  -5  110.52    4.66
   1   3  -5  105.55    3.86
  -1   3   5  110.77    4.25
  -1   3   5  101.89    3.84
   0  -3  -5   85.79    3.09
   0   3  -5   89.60    3.76
   0   3   5   81.09    3.04
   0   3  -5   84.68    3.06
  -1  -3  -5   22.49    1.18
  -1  -3  -5   21.29    0.83
   1   3   5   18.41    0.75
   1   3   5   19.33    0.96
  -1   3  -5   21.47    0.78
  -2  -3  -5   23.43    1.28
   2  -3   5   22.71    0.96
  -2  -3  -5   21.80    0.88
  -2   3  -5   19.79    0.80
  -2   3  -5   22.18    1.21
  -3  -3  -5   52.34    1.92
   3  -3   5   50.74    2.01
  -3   3  -5   49.90    1.82
  -3   3  -5   51.91    2.46
  -4  -3  -5  141.97    5.10
  -4  -3  -5  143.82    6.32
  -4   3  -5  142.62    5.00
  -4   3  -5  139.69    6.21
  -5  -3  -5   23.72    1.00
  -5  -3  -5   25.05    1.52
  -5   3  -5   23.41    0.90
  -5   3  -5   23.68    1.40
  -6  -3  -5    7.45    0.44
  -6  -3  -5    7.17    0.86
  -6   3  -5    7.59    0.75
  -6   3  -5    8.53    0.38
  -7  -3  -5   61.32    2.35
  -7  -3  -5   59.93    3.16
  -7   3  -5   61.37    3.03
  -8  -3  -5   98.40    3.60
  -8  -3  -5   97.54    3.60
  -8  -3  -5   92.27    4.65
  -8   3  -5   96.29    4.00
  -8   3  -5   93.69    4.50
  -9  -3  -5    9.08    0.55
  -9  -3  -5    8.27    0.55
  -9  -3  -5    7.69    1.05
  -9   3  -5    9.28    0.94
  -9   3  -5    8.67    0.71
 -10  -3  -5   10.94    1.29
 -10  -3  -5   11.27    0.66
 -10  -3  -5   11.42    0.67
 -10  -3  -5   11.53    0.82
 -10   3  -5    9.87    1.02
 -10   3  -5    9.57    0.80
 -11  -3  -5   20.54    1.20
 -11  -3  -5   18.45    1.60
 -11   3  -5   19.14    1.22
 -12  -3  -5   29.23    1.56
 -12  -3  -5   25.52    1.98
 -12   3  -5   27.55    1.59
 -13  -4   5   12.16    0.86
 -13   4   5   11.16    1.02
 -13   4   5   12.64    0.86
 -12  -4   5    7.00    0.62
 -12   4   5    7.39    0.62
 -12   4   5    7.16    0.85
 -11  -4   5    3.99    0.49
 -11   4   5    3.69    0.47
 -11   4   5    4.42    0.65
 -10  -4   5   45.05    1.92
 -10   4   5   43.08    2.17
 -10   4   5   42.97    1.89
  -9  -4   5   19.35    0.99
  -9   4   5   18.55    0.96
  -9   4   5   18.35    1.16
  -8  -4   5   51.40    2.10
  -8   4   5   49.99    2.36
  -8   4   5   51.12    2.08
  -7  -4   5    9.78    0.62
   7  -4  -5    9.55    0.62
  -7   4   5   10.13    0.60
   7   4  -5   10.68    0.97
  -7   4   5   10.39    0.77
   6  -4  -5  122.27    4.56
  -6  -4   5  122.88    4.76
   6   4  -5  106.76    5.47
  -6   4   5  128.55    4.99
  -6   4   5  131.16    4.54
  -5  -4   5   75.29    3.09
   5  -4  -5   77.45    2.98
  -5  -4   5   80.32    3.00
  -5   4   5   82.11    3.34
  -5   4   5   83.13    2.97
   5   4  -5   74.31    3.62
  -4  -4   5   20.25    0.91
   4  -4  -5   18.92    0.88
  -4  -4   5   19.80    0.89
   4  -4  -5   18.54    0.91
  -4   4   5   21.97    1.11
   4   4  -5   21.61    1.17
  -4   4   5   20.62    0.87
   3  -4  -5   33.32    1.39
  -3  -4   5   35.71    1.43
   3  -4  -5   35.58    1.60
  -3  -4   5   34.50    1.44
  -3   4   5   34.68    1.36
   3   4  -5   36.71    1.74
  -3   4   5   35.97    1.64
   2  -4  -5  317.03   11.22
  -2  -4   5  299.81   11.89
   2  -4  -5  317.64   13.17
  -2  -4   5  318.68   11.32
  -2   4   5  315.39   11.23
  -2   4   5  324.52   12.08
   2   4  -5  328.20   13.26
   1  -4  -5    5.26    0.47
   1  -4  -5    7.39    0.38
  -1  -4   5    7.62    0.42
  -1   4   5    6.58    0.32
  -1   4   5    7.84    0.51
   1   4  -5    8.10    0.57
   0  -4   5   24.74    1.05
   0  -4  -5   26.37    1.01
   0  -4  -5   25.81    1.32
   0   4   5   23.20    0.91
   0   4  -5   24.55    1.29
   1  -4   5   53.74    2.06
  -1  -4  -5   53.46    1.99
  -1  -4  -5   56.06    2.55
  -1   4  -5   51.41    1.92
   1   4   5   52.68    2.22
   2  -4   5  238.21    8.82
  -2  -4  -5  263.69   10.48
  -2  -4  -5  240.86    8.70
   2   4   5  233.44    9.34
  -2   4  -5  259.36   10.39
  -2   4  -5  239.56    8.59
  -3  -4  -5   54.72    1.85
  -3  -4  -5   50.50    1.93
   3  -4   5   46.98    2.01
  -3   4  -5   51.14    2.45
  -4  -4  -5    0.78    0.15
  -4  -4  -5    1.12    0.12
   4  -4   5    0.83    0.19
  -4  -4  -5    0.78    0.32
  -4   4  -5    1.08    0.07
  -4   4  -5    0.90    0.28
  -5  -4  -5   34.35    2.01
  -5  -4  -5   35.84    1.44
  -5  -4  -5   37.45    1.39
  -5   4  -5   36.79    1.31
  -5   4  -5   34.95    1.89
  -6  -4  -5   81.04    3.98
  -6  -4  -5   82.45    3.06
  -6  -4  -5   80.31    3.01
  -6   4  -5   83.14    3.83
  -7  -4  -5    5.71    0.83
  -7  -4  -5    7.11    0.42
  -7  -4  -5    7.11    0.45
  -7   4  -5    5.75    0.74
  -7   4  -5    7.19    0.59
  -8  -4  -5   15.93    0.78
  -8  -4  -5   16.14    1.35
  -8  -4  -5   15.98    0.81
  -8   4  -5   17.58    1.02
  -8   4  -5   14.70    1.16
  -9  -4  -5   30.49    1.29
  -9  -4  -5   29.58    1.30
  -9  -4  -5   27.50    1.94
  -9   4  -5   28.56    1.75
  -9   4  -5   27.77    1.52
 -10  -4  -5   44.73    1.87
 -10  -4  -5   41.79    2.65
 -10  -4  -5   46.35    2.11
 -10   4  -5   43.56    2.15
 -10   4  -5   44.73    2.45
 -11  -4  -5    8.65    1.21
 -11  -4  -5    9.93    0.80
 -11   4  -5    9.28    0.81
 -12  -4  -5    9.29    1.26
 -12   4  -5    8.04    0.87
 -12  -5   5    7.10    0.63
 -12   5   5    6.96    0.62
 -12   5   5    5.47    0.76
 -11  -5   5   36.29    1.66
 -11   5   5   33.97    1.89
 -11   5   5   34.79    1.62
 -10  -5   5    1.09    0.30
 -10   5   5    0.73    0.35
 -10   5   5    0.54    0.25
  -9  -5   5   25.09    1.25
  -9   5   5   25.84    1.23
  -9   5   5   27.85    1.51
   8  -5  -5    3.16    0.41
  -8  -5   5    3.66    0.41
  -8   5   5    3.17    0.36
  -8   5   5    3.95    0.56
  -7  -5   5  190.33    7.05
   7  -5  -5  196.18    7.07
  -7   5   5  189.50    7.63
  -7   5   5  199.69    7.03
   7   5  -5  186.41    8.56
   6  -5  -5    0.12    0.13
  -6  -5   5    0.26    0.12
   6   5  -5    0.31    0.32
  -6   5   5    0.27    0.24
  -6   5   5    0.53    0.17
  -5  -5   5   23.30    1.06
   5  -5  -5   23.32    1.08
   5   5  -5   22.56    1.44
  -5   5   5   27.98    1.08
  -5   5   5   27.61    1.36
   4  -5  -5   18.82    0.89
  -4  -5   5   19.21    0.87
   4  -5  -5   20.11    0.93
  -4  -5   5   21.48    0.94
  -4   5   5   20.93    0.87
  -4   5   5   21.43    1.14
   4   5  -5   20.13    1.20
   3  -5  -5   76.47    3.35
  -3  -5   5   78.33    2.95
  -3  -5   5   74.44    3.00
  -3   5   5   82.05    3.28
   3   5  -5   77.47    3.52
  -3   5   5   79.10    2.86
  -2  -5   5   -0.06    0.09
   2  -5  -5   -0.03    0.07
   2  -5  -5    0.08    0.13
  -2   5   5    0.00    0.14
   2   5  -5    0.02    0.16
  -2   5   5    0.05    0.07
  -1  -5   5  222.56    7.73
   1  -5  -5  215.26    7.63
   1   5  -5  218.95    9.07
  -1   5   5  201.58    7.58
   0  -5  -5   87.35    3.11
   0  -5   5   86.43    3.18
   0   5   5   86.62    3.42
   0   5   5   77.19    3.00
   0   5  -5   87.12    3.78
   1  -5   5   45.76    1.81
  -1  -5  -5   46.39    1.74
   1   5   5   43.98    1.93
   2  -5   5    0.14    0.12
  -2  -5  -5    0.27    0.10
  -2   5  -5    0.19    0.20
   2   5   5    0.15    0.12
   3  -5   5  207.06    7.88
  -3  -5  -5  219.69    7.76
  -3  -5  -5  225.81    7.67
  -3   5  -5  216.91    9.26
  -4  -5  -5   19.50    0.73
  -4  -5  -5   18.18    0.82
   4  -5   5   17.14    0.90
  -4   5  -5   18.26    1.13
  -5  -5  -5   19.13    0.77
  -5  -5  -5   18.36    0.85
  -5   5  -5   19.24    1.18
  -6  -5  -5    2.14    0.55
  -6  -5  -5    2.79    0.30
  -6  -5  -5    2.27    0.22
  -6   5  -5    2.70    0.48
  -7  -5  -5   61.23    3.26
  -7  -5  -5   64.51    2.43
  -7  -5  -5   64.10    2.37
  -7   5  -5   60.86    2.71
  -7   5  -5   59.70    3.03
  -8  -5  -5    2.61    0.32
  -8  -5  -5    1.85    0.55
  -8   5  -5    2.77    0.43
  -8   5  -5    2.78    0.53
  -9  -5  -5    3.31    0.39
  -9  -5  -5    3.89    0.76
  -9   5  -5    3.56    0.52
  -9   5  -5    3.21    0.58
 -10  -5  -5    7.94    0.56
 -10  -5  -5    6.97    1.08
 -10   5  -5    7.07    0.88
 -10   5  -5    8.31    0.73
 -11  -5  -5   79.94    3.13
 -11  -5  -5   79.56    3.42
 -11  -5  -5   78.38    4.21
 -11   5  -5   76.89    3.50
 -12  -5  -5   11.30    1.41
 -12   5  -5   11.19    0.95
 -12  -6   5   17.86    1.02
 -12   6   5   14.54    1.18
 -12   6   5   15.56    0.96
 -11  -6   5    0.09    0.23
 -11   6   5   -0.12    0.28
 -11   6   5    0.36    0.25
 -10  -6   5   61.77    2.52
 -10   6   5   59.98    2.49
 -10   6   5   58.52    2.83
  -9  -6   5    0.33    0.21
  -9   6   5    0.59    0.21
  -9   6   5    0.48    0.30
  -8  -6   5    2.94    0.37
   8  -6  -5    3.40    0.42
  -8   6   5    1.89    0.44
  -8   6   5    2.78    0.34
   7  -6  -5    0.07    0.17
  -7  -6   5   -0.15    0.16
  -7   6   5    0.26    0.28
  -7   6   5   -0.30    0.14
   7   6  -5   -0.18    0.35
   6  -6  -5  167.34    6.17
  -6   6   5  175.02    6.76
   6   6  -5  152.48    7.50
  -6   6   5  178.54    6.16
  -5  -6   5    2.96    0.22
   5  -6  -5    3.05    0.32
   5   6  -5    3.17    0.55
  -5   6   5    2.75    0.45
   4  -6  -5    0.23    0.12
  -4  -6   5    0.33    0.09
  -4  -6   5    0.27    0.13
   4  -6  -5    0.25    0.11
  -4   6   5    0.43    0.24
   4   6  -5    0.00    0.22
  -3  -6   5    5.06    0.36
   3  -6  -5    4.64    0.32
   3  -6  -5    4.15    0.36
  -3   6   5    4.71    0.54
   3   6  -5    4.96    0.57
  -2  -6   5  199.52    7.02
  -2   6   5  188.74    6.89
   2   6  -5  192.44    8.26
  -1  -6   5    5.22    0.38
   1  -6  -5    6.21    0.35
   1   6  -5    7.28    0.57
  -1   6   5    5.70    0.48
  -1   6   5    5.44    0.27
   0  -6  -5    0.56    0.13
   0  -6   5    0.72    0.17
   0   6   5    0.49    0.06
   0   6  -5    0.29    0.20
   0   6   5    0.53    0.18
  -1  -6  -5    0.92    0.15
   1  -6   5    1.07    0.19
  -1   6  -5    1.15    0.26
   1   6   5    1.01    0.20
  -2  -6  -5  184.09    6.53
   2  -6   5  181.93    6.66
  -2   6  -5  182.90    7.81
   2   6   5  180.56    7.03
   3  -6   5    8.01    0.53
  -3  -6  -5    8.05    0.45
  -3   6  -5    8.99    0.70
  -4  -6  -5   25.95    1.09
  -4  -6  -5   25.59    0.97
   4  -6   5   26.33    1.21
  -4   6  -5   24.79    1.42
  -5  -6  -5    0.14    0.11
  -5  -6  -5    0.31    0.09
  -5   6  -5    0.05    0.21
  -6  -6  -5  103.28    3.80
  -6  -6  -5  106.82    3.71
  -6   6  -5   93.40    4.13
  -6   6  -5  103.07    4.64
  -7  -6  -5    2.60    0.31
  -7   6  -5    2.49    0.50
  -7   6  -5    2.91    0.43
  -8  -6  -5   25.57    1.12
  -8  -6  -5   21.23    1.66
  -8   6  -5   23.49    1.30
  -8   6  -5   22.61    1.45
  -9  -6  -5    0.11    0.38
  -9  -6  -5    0.04    0.15
  -9   6  -5   -0.17    0.25
  -9   6  -5    0.21    0.22
 -10  -6  -5   67.59    2.68
 -10  -6  -5   66.47    3.66
 -10   6  -5   66.22    3.01
 -10   6  -5   64.99    3.31
 -11  -6  -5    0.13    0.52
 -11  -6  -5    0.18    0.19
 -11   6  -5    0.65    0.33
 -12  -6  -5   10.49    1.41
 -12   6  -5   11.00    0.95
 -12  -7   5    1.22    0.35
 -12   7   5    1.26    0.33
 -12   7   5    1.08    0.45
 -11  -7   5   55.88    2.41
 -11   7   5   57.27    2.39
 -11   7   5   54.53    2.75
 -10  -7   5    5.39    0.56
 -10   7   5    5.63    0.49
 -10   7   5    6.13    0.77
   9  -7  -5   15.55    0.96
  -9  -7   5   17.82    0.94
  -9   7   5   16.32    1.15
  -9   7   5   17.42    0.91
  -8  -7   5    2.11    0.32
   8  -7  -5    2.50    0.36
  -8   7   5    2.18    0.30
  -8   7   5    1.78    0.43
  -7  -7   5  178.09    6.45
   7  -7  -5  177.39    6.44
  -7   7   5  172.07    7.01
   7   7  -5  169.41    7.97
  -6  -7   5    0.30    0.19
   6  -7  -5    0.54    0.18
   6   7  -5    0.38    0.34
  -6   7   5    0.46    0.28
   5  -7  -5   10.81    0.61
   5   7  -5   11.17    0.99
  -5   7   5   12.49    0.87
   4  -7  -5   13.37    0.73
   4  -7  -5   15.65    0.72
  -4   7   5   15.34    0.96
   4   7  -5   13.72    1.03
   3  -7  -5   19.48    0.86
  -3  -7   5   17.88    0.88
   3   7  -5   19.72    1.20
  -2  -7   5    7.06    0.46
   2   7  -5    6.09    0.61
  -2   7   5    7.33    0.59
   1  -7  -5  198.63    7.21
  -1  -7   5  204.20    7.31
  -1   7   5  198.91    7.83
   1   7  -5  204.39    8.61
   0  -7  -5   15.17    0.65
   0  -7   5   13.98    0.71
   0   7   5   11.97    0.51
   0   7   5   14.45    0.80
  -1  -7  -5  140.13    5.02
   1  -7   5  131.28    5.11
  -1   7  -5  143.36    6.04
   1   7   5  139.76    5.44
   2  -7   5   15.70    0.79
  -2  -7  -5   14.44    0.69
   2   7   5   14.37    0.79
  -2   7  -5   13.91    0.94
   3  -7   5  135.89    5.20
  -3  -7  -5  140.80    5.07
  -3   7  -5  146.78    6.11
   3   7   5  134.61    5.45
  -4  -7  -5    4.17    0.33
  -4  -7  -5    4.43    0.23
   4  -7   5    5.04    0.43
  -4   7  -5    4.36    0.56
  -5  -7  -5   81.48    3.03
  -5   7  -5   80.18    3.32
  -5   7  -5   78.17    3.69
  -6  -7  -5   16.39    0.80
  -6   7  -5   14.49    1.07
  -6   7  -5   16.53    0.95
  -7  -7  -5   64.72    2.49
  -7   7  -5   63.88    2.77
  -7   7  -5   60.39    3.05
  -8  -7  -5    0.84    0.22
  -8   7  -5    0.56    0.31
  -8   7  -5    0.54    0.25
  -9  -7  -5    6.95    1.01
  -9  -7  -5    6.40    0.50
  -9   7  -5    6.46    0.63
  -9   7  -5    6.36    0.77
 -10  -7  -5    0.88    0.25
 -10  -7  -5    0.43    0.50
 -10   7  -5    0.74    0.32
 -11  -7  -5   34.27    2.47
 -11  -7  -5   38.50    1.72
 -11   7  -5   40.25    2.03
 -12  -7  -5    4.02    0.51
 -12  -7  -5    3.78    0.90
 -12   7  -5    3.50    0.63
 -12  -8   5   15.77    0.99
 -12   8   5   15.33    0.94
 -12   8   5   14.22    1.19
 -11  -8   5    0.01    0.23
 -11   8   5   -0.02    0.22
 -11   8   5   -0.04    0.31
 -10  -8   5   48.66    2.12
 -10   8   5   49.00    2.46
 -10   8   5   48.16    2.08
   9  -8  -5   25.33    1.28
  -9  -8   5   23.40    1.21
  -9   8   5   24.14    1.48
  -9   8   5   25.40    1.20
  -8  -8   5    8.30    0.60
   8  -8  -5    9.69    0.64
  -8   8   5    7.77    0.76
   7  -8  -5    6.15    0.49
  -7  -8   5    6.10    0.50
  -7   8   5    7.73    0.73
   7   8  -5    6.38    0.97
  -6  -8   5  109.88    4.13
   6  -8  -5  108.11    4.09
   6   8  -5  103.67    5.21
  -6   8   5  112.81    4.59
   5  -8  -5    8.83    0.53
  -5   8   5    9.03    0.76
   5   8  -5    8.42    0.91
   4  -8  -5    3.08    0.32
   4   8  -5    2.67    0.52
  -3   8   5    5.26    0.51
  -2  -8   5  163.75    6.46
   2  -8  -5  174.92    6.37
  -2   8   5  184.55    7.01
   2   8  -5  185.89    7.68
  -1  -8   5   74.68    2.97
  -1   8   5   79.02    3.27
   1   8  -5   79.96    3.58
   0  -8   5    0.00    0.12
   0  -8  -5    0.20    0.10
   0   8   5    0.23    0.15
   1  -8   5   10.66    0.44
  -1  -8  -5   11.40    0.56
   1  -8   5   10.08    0.62
  -1   8  -5   11.17    0.80
   1   8   5   11.48    0.69
   2  -8   5  147.07    5.42
  -2  -8  -5  143.66    5.28
   2   8   5  142.67    5.69
  -2   8  -5  148.65    6.35
   3  -8   5   13.51    0.73
  -3  -8  -5   11.87    0.62
  -3   8  -5   12.47    0.88
   3   8   5   11.52    0.71
   4  -8   5    3.66    0.43
  -4  -8  -5    4.18    0.33
  -4   8  -5    4.67    0.43
  -4   8  -5    3.91    0.53
  -5  -8  -5   44.71    1.82
  -5   8  -5   45.40    2.02
  -5   8  -5   45.01    2.28
  -6  -8  -5   85.63    3.34
  -6   8  -5   90.37    3.67
  -6   8  -5   87.81    4.06
  -7  -8  -5    0.04    0.13
  -7   8  -5    0.14    0.27
  -7   8  -5    0.17    0.20
  -8  -8  -5   11.31    0.68
  -8   8  -5   11.59    0.82
  -8   8  -5    9.27    0.89
  -9  -8  -5   10.54    0.67
  -9   8  -5   10.51    0.82
  -9   8  -5   10.58    0.95
 -10  -8  -5   39.25    1.75
 -10  -8  -5   38.82    2.54
 -10   8  -5   39.33    2.01
 -11  -8  -5    0.30    0.22
 -11  -8  -5    0.44    0.54
 -11   8  -5    0.71    0.35
 -12  -9   5   17.17    1.06
 -12   9   5   17.43    1.03
 -12   9   5   15.68    1.28
 -11  -9   5   28.27    1.41
 -11   9   5   26.97    1.70
 -11   9   5   26.85    1.36
 -10  -9   5   10.79    0.77
 -10   9   5   10.48    0.95
 -10   9   5   10.83    0.73
   9  -9  -5   10.43    0.72
  -9  -9   5    9.71    0.69
  -9   9   5    9.27    0.88
  -8  -9   5   23.92    1.20
   8  -9  -5   24.77    1.24
  -8   9   5   25.64    1.50
   7  -9  -5   35.39    1.54
  -7  -9   5   34.95    1.55
   7   9  -5   33.82    2.28
  -7   9   5   32.67    1.81
   6  -9  -5    1.27    0.24
  -6  -9   5    0.58    0.23
  -6   9   5    0.95    0.37
   6   9  -5    0.76    0.48
  -5  -9   5   14.17    0.78
   5  -9  -5   12.86    0.72
   5   9  -5   15.98    1.24
  -4  -9   5   19.60    0.95
   3  -9  -5   48.53    1.95
  -3   9   5   51.18    2.32
   3   9  -5   50.00    2.56
   2  -9  -5    3.92    0.31
  -2   9   5    4.66    0.58
   2   9  -5    4.43    0.60
  -1  -9   5   51.33    2.27
   1  -9  -5   58.89    2.22
   1   9  -5   59.23    2.79
  -1   9   5   61.13    2.56
   0  -9   5   64.28    2.27
   0  -9   5   60.17    2.45
   0  -9  -5   58.09    2.36
   0   9   5   65.30    2.68
  -1  -9  -5   14.33    0.70
   1  -9   5   14.12    0.78
   1  -9   5   14.68    0.58
   1   9   5   14.85    0.84
  -1   9  -5   14.11    0.96
  -2  -9  -5    2.71    0.28
   2  -9   5    2.66    0.35
  -2   9  -5    2.64    0.43
   2   9   5    2.79    0.35
  -2   9  -5    2.67    0.32
   3  -9   5   72.71    2.88
  -3  -9  -5   72.13    2.74
  -3   9  -5   72.56    3.36
  -3   9  -5   72.41    2.95
   3   9   5   68.83    2.95
  -4  -9  -5   89.92    3.42
   4  -9   5   93.23    3.60
  -4   9  -5   91.94    4.16
  -4   9  -5   89.19    3.69
   5  -9   5   10.35    0.73
  -5  -9  -5   11.13    0.62
  -5   9  -5   10.45    0.71
  -5   9  -5   10.90    0.87
  -6  -9  -5    0.80    0.21
  -6   9  -5    0.86    0.25
  -6   9  -5    0.16    0.29
  -7  -9  -5   29.60    1.35
  -7   9  -5   30.49    1.54
  -7   9  -5   30.07    1.72
  -8  -9  -5   20.36    1.01
  -8   9  -5   17.53    1.26
  -8   9  -5   19.26    1.15
  -9  -9  -5    4.04    0.46
  -9   9  -5    3.74    0.55
  -9   9  -5    3.76    0.63
 -10  -9  -5    0.83    0.26
 -10   9  -5    1.31    0.38
 -11  -9  -5   26.71    1.33
 -11  -9  -5   24.33    2.00
 -11   9  -5   26.82    1.59
 -11 -10   5    2.68    0.45
 -11  10   5    3.16    0.64
 -11  10   5    2.26    0.39
  10 -10  -5   13.92    0.92
 -10 -10   5   12.74    0.84
 -10  10   5   13.98    1.12
  -9 -10   5   16.84    0.97
   9 -10  -5   16.54    0.98
  -9  10   5   16.68    1.21
   8 -10  -5    3.70    0.45
  -8 -10   5    2.87    0.40
  -8  10   5    2.90    0.56
   7 -10  -5   15.80    0.84
  -7 -10   5   14.37    0.84
   7  10  -5   14.81    1.47
  -7  10   5   15.54    1.10
   6 -10  -5   21.94    1.06
  -6 -10   5   21.79    1.09
   6  10  -5   22.01    1.72
  -6  10   5   22.74    1.36
  -5 -10   5   20.55    1.05
   5 -10  -5   22.04    1.01
   5  10  -5   19.60    1.56
  -5  10   5   21.67    1.31
   4 -10  -5    2.75    0.31
  -4 -10   5    2.57    0.33
   4  10  -5    2.79    0.60
   3 -10  -5   33.53    1.42
   3  10  -5   33.28    1.96
  -3  10   5   36.13    1.78
   2 -10  -5   45.53    1.78
   2  10  -5   42.06    1.76
   2  10  -5   46.81    2.35
  -2  10   5   45.16    2.13
   1 -10  -5   53.29    2.24
  -1 -10   5   61.32    2.20
  -1  10   5   61.28    2.62
   0 -10  -5    0.01    0.04
   0 -10   5    0.13    0.07
   0 -10   5    0.02    0.05
   0  10  -5    0.04    0.13
   0  10  -5    0.15    0.10
   0  10   5   -0.11    0.13
   1 -10   5   18.02    0.69
  -1  10  -5   16.83    1.11
  -1  10  -5   16.52    0.85
   1  10   5   18.38    0.98
  -2 -10  -5   60.37    2.32
   2 -10   5   57.80    2.43
  -2  10  -5   59.50    2.46
   2  10   5   59.89    2.53
  -2  10  -5   59.88    2.86
  -3 -10  -5   32.38    1.41
   3 -10   5   36.59    1.57
  -3  10  -5   34.13    1.81
  -3  10  -5   34.22    1.54
   3  10   5   31.76    1.54
   4 -10   5   -0.07    0.16
  -4 -10  -5   -0.06    0.11
  -4  10  -5    0.10    0.14
  -4  10  -5    0.17    0.26
  -5 -10  -5   44.91    1.87
   5 -10   5   46.94    2.03
  -5  10  -5   43.15    2.30
  -5  10  -5   46.73    2.06
  -6 -10  -5   27.47    1.27
  -6  10  -5   29.34    1.63
  -6  10  -5   27.43    1.43
  -7 -10  -5   16.76    0.90
  -7  10  -5   15.84    1.01
  -7  10  -5   18.04    1.19
  -8 -10  -5    5.24    0.46
  -8  10  -5    5.33    0.70
  -8  10  -5    6.33    0.70
  -9 -10  -5   39.07    1.78
  -9  10  -5   40.34    2.03
  -9  10  -5   40.70    2.20
 -10 -10  -5   13.19    0.84
 -10  10  -5   14.01    1.03
 -11 -10  -5    4.28    0.97
 -11 -10  -5    3.39    0.48
 -11  10  -5    5.10    0.69
 -11 -11   5   10.94    0.81
 -11  11   5   10.79    1.04
 -11  11   5   10.81    0.76
  10 -11  -5    7.50    0.66
 -10 -11   5    7.50    0.65
 -10  11   5    6.70    0.88
  -9 -11   5    1.51    0.35
   9 -11  -5    1.81    0.36
  -9  11   5    1.46    0.47
   8 -11  -5   42.93    1.84
  -8 -11   5   39.71    1.83
  -8  11   5   40.87    2.17
   7 -11  -5   25.70    1.24
  -7 -11   5   26.18    1.26
  -7  11   5   24.25    1.52
   7  11  -5   27.13    2.08
   6 -11  -5    6.39    0.47
  -6 -11   5    6.34    0.51
   6  11  -5    7.37    1.10
  -6  11   5    5.56    0.71
   5 -11  -5    7.53    0.50
  -5 -11   5    7.50    0.56
   5  11  -5    7.17    1.00
  -5  11   5    7.27    0.80
   4 -11  -5  128.32    4.94
  -4 -11   5  135.41    5.05
  -4  11   5  133.13    5.56
   4  11  -5  141.40    6.29
   3 -11  -5   12.14    0.65
  -3 -11   5   11.83    0.71
  -3  11   5   12.78    0.93
   3  11  -5   11.64    1.06
  -2 -11   5    0.46    0.17
   2 -11  -5    0.70    0.17
  -2  11   5    0.55    0.29
   2  11  -5    1.05    0.39
   1 -11   5   22.36    0.86
  -1  11  -5   21.66    1.33
  -1  11  -5   20.83    1.02
   1  11   5   22.33    1.16
  -2 -11  -5    1.25    0.21
  -2  11  -5    1.47    0.25
  -2  11  -5    1.80    0.41
   2  11   5    1.85    0.31
   3 -11   5   25.01    1.28
  -3 -11  -5   26.10    1.16
   3  11   5   25.02    1.26
  -3  11  -5   25.80    1.49
  -3  11  -5   26.43    1.25
  -4 -11  -5   86.39    3.38
   4 -11   5   92.64    3.59
  -4  11  -5   88.32    4.10
  -4  11  -5   88.89    3.64
   5 -11   5    4.92    0.55
  -5 -11  -5    5.10    0.42
  -5  11  -5    4.72    0.61
  -5  11  -5    4.41    0.51
  -6 -11  -5    2.55    0.34
  -6  11  -5    1.78    0.43
  -6  11  -5    2.31    0.40
  -7 -11  -5   10.40    0.67
  -7  11  -5   10.32    0.91
  -7  11  -5   10.95    0.81
  -8 -11  -5   90.38    3.43
  -8  11  -5   83.86    4.08
  -8  11  -5   85.12    3.73
  -9 -11  -5    3.18    0.43
  -9  11  -5    3.25    0.54
 -10 -11  -5    6.63    0.58
 -10  11  -5    5.88    0.73
 -11 -11  -5    2.50    0.43
 -11  11  -5    2.39    0.53
 -11 -12   5    4.94    0.60
 -11  12   5    4.35    0.75
  10 -12  -5   13.01    0.90
 -10 -12   5   12.55    0.87
 -10  12   5   14.78    1.18
  -9 -12   5   64.33    2.84
   9 -12  -5   77.52    2.93
  -9  12   5   65.15    3.27
   8 -12  -5    0.25    0.19
  -8 -12   5   -0.09    0.20
  -8  12   5    0.08    0.30
   7 -12  -5   12.41    0.74
  -7 -12   5   11.25    0.76
   7  12  -5    9.87    1.42
  -7  12   5   12.58    1.01
  -6 -12   5    6.36    0.53
   6 -12  -5    5.99    0.48
  -6  12   5    8.43    0.79
   6  12  -5    6.56    1.06
  -5 -12   5   94.14    3.75
   5 -12  -5   97.72    3.68
  -5  12   5   99.17    4.23
   5  12  -5   95.17    4.91
  -4 -12   5    0.59    0.23
   4 -12  -5    0.78    0.20
   4  12  -5    0.99    0.49
  -4  12   5    0.79    0.37
   3 -12  -5   21.86    1.03
  -3 -12   5   21.59    1.12
  -3 -12   5   22.45    1.02
   3  12  -5   23.44    1.60
  -3  12   5   24.85    1.40
   2 -12  -5    0.59    0.18
  -2 -12   5    0.31    0.18
  -2 -12   5    0.41    0.14
  -2  12   5    0.74    0.30
   2  12  -5    1.12    0.41
  -1 -12   5  116.25    4.29
   1 -12  -5  117.91    4.38
  -1 -12   5  118.37    4.50
  -1  12   5  120.78    4.90
   0 -12   5   -0.01    0.06
   0 -12  -5    0.04    0.09
   0  12  -5    0.27    0.30
   0  12   5    0.53    0.25
   0  12  -5    0.24    0.12
   2 -12   5   16.64    1.03
  -2 -12  -5   20.17    0.96
  -2  12  -5   21.89    1.03
  -2  12  -5   20.85    1.30
   2  12   5   21.86    1.11
  -3 -12  -5   65.73    2.65
   3 -12   5   69.04    2.82
  -3  12  -5   68.99    3.28
   3  12   5   66.48    2.86
  -3  12  -5   69.92    2.84
  -4 -12  -5    0.25    0.15
   4 -12   5    0.24    0.19
  -4  12  -5    0.43    0.20
  -4  12  -5    0.01    0.24
   4  12   5    0.10    0.16
  -5 -12  -5   72.36    2.88
   5 -12   5   78.29    3.10
  -5  12  -5   73.45    3.12
  -5  12  -5   69.46    3.47
  -6 -12  -5    1.45    0.28
  -6  12  -5    0.73    0.27
  -6  12  -5    0.70    0.35
  -7 -12  -5   30.53    1.48
  -7  12  -5   33.81    1.88
  -7  12  -5   34.68    1.71
  -8 -12  -5    1.05    0.28
  -8  12  -5    1.37    0.37
  -8  12  -5    1.50    0.47
  -9 -12  -5   66.88    2.78
  -9  12  -5   67.28    3.09
 -10 -12  -5    2.64    0.42
 -10  12  -5    2.14    0.49
 -10 -13   5   19.45    1.14
  10 -13  -5   20.99    1.18
 -10  13   5   17.50    1.38
   9 -13  -5   -0.16    0.18
  -9 -13   5   -0.15    0.24
  -9  13   5   -0.25    0.30
  -8 -13   5   55.64    2.40
   8 -13  -5   58.19    2.38
  -8  13   5   52.85    2.76
   7 -13  -5    1.96    0.34
  -7 -13   5    2.13    0.37
  -7  13   5    1.01    0.41
   7  13  -5    1.46    0.72
   6 -13  -5   16.82    0.88
  -6 -13   5   15.96    0.93
  -6  13   5   14.97    1.16
   6  13  -5   18.88    1.71
  -5 -13   5    0.14    0.15
   5 -13  -5    0.24    0.15
  -5 -13   5    0.03    0.17
   5  13  -5    0.12    0.44
  -5  13   5   -0.17    0.26
   4 -13  -5  126.04    4.82
  -4 -13   5  128.57    4.93
  -4 -13   5  129.29    4.82
   4  13  -5  133.83    6.24
  -4  13   5  132.19    5.47
   3 -13  -5   11.25    0.65
  -3 -13   5   11.50    0.73
  -3 -13   5   12.27    0.65
   3  13  -5   12.83    1.18
  -3  13   5   11.37    0.94
  -2 -13   5    1.85    0.32
   2 -13  -5    1.53    0.25
  -2 -13   5    1.78    0.24
   2  13  -5    1.30    0.47
  -2  13   5    1.17    0.37
  -1 -13   5    2.10    0.37
  -1 -13   5    1.95    0.23
   1 -13  -5    2.05    0.28
   1  13  -5    1.88    0.54
  -1  13   5    2.01    0.42
   0 -13   5  227.14    7.82
   0 -13   5  212.96    8.09
   0 -13  -5  216.09    7.94
   0  13  -5  207.79    8.35
   0  13  -5  224.83    9.59
   0  13   5  231.12    8.65
  -1 -13  -5    0.46    0.16
   1 -13   5    0.51    0.24
  -1  13  -5    0.46    0.17
   1  13   5    0.46    0.24
  -1  13  -5    0.70    0.34
   2 -13   5    0.36    0.20
  -2 -13  -5    0.44    0.16
   2  13   5    0.56    0.23
  -2  13  -5    0.06    0.26
  -2  13  -5    0.32    0.18
   3 -13   5   -0.17    0.19
  -3 -13  -5   -0.02    0.13
   3  13   5    0.03    0.15
  -3  13  -5    0.03    0.26
  -3  13  -5    0.06    0.16
   4 -13   5   77.99    3.25
  -4 -13  -5   78.18    3.07
   4  13   5   76.31    3.26
  -4  13  -5   80.99    3.29
  -4  13  -5   79.83    3.75
  -5 -13  -5    0.83    0.23
   5 -13   5    0.57    0.27
  -5  13  -5    0.68    0.35
  -5  13  -5    0.89    0.27
  -6 -13  -5    2.49    0.36
  -6  13  -5    1.66    0.44
  -6  13  -5    1.97    0.40
  -7 -13  -5    2.01    0.34
  -7  13  -5    1.57    0.38
  -7  13  -5    1.72    0.47
  -8 -13  -5   67.53    2.82
  -8  13  -5   69.14    3.13
  -8  13  -5   70.22    3.40
  -9 -13  -5    0.28    0.22
  -9  13  -5    0.09    0.27
 -10 -13  -5    7.90    0.65
 -10  13  -5    6.49    0.80
 -10 -14   5   11.80    0.86
  10 -14  -5   14.28    0.93
 -10 -14   5   13.19    0.90
 -10  14   5   10.91    1.21
  -9 -14   5   31.85    1.63
  -9 -14   5   32.99    1.64
   9 -14  -5   37.47    1.69
  -9  14   5   33.28    2.00
  -8 -14   5    1.08    0.29
   8 -14  -5    1.12    0.30
  -8 -14   5    0.52    0.28
  -8  14   5    0.57    0.39
   7 -14  -5   11.19    0.74
  -7 -14   5   11.96    0.79
  -7 -14   5   12.19    0.78
   7  14  -5   12.16    1.65
  -7  14   5   13.73    1.09
  -6 -14   5   17.99    1.04
   6 -14  -5   19.45    0.99
  -6 -14   5   18.52    1.00
   6  14  -5   20.48    1.86
  -6  14   5   18.95    1.33
   5 -14  -5   63.71    2.63
  -5 -14   5   65.83    2.65
  -5 -14   5   67.09    2.74
   5  14  -5   68.24    3.84
  -5  14   5   67.75    3.16
  -4 -14   5    2.90    0.35
  -4 -14   5    2.42    0.38
   4 -14  -5    2.83    0.35
   4  14  -5    2.14    0.69
  -4  14   5    3.12    0.58
  -3 -14   5   37.37    1.70
   3 -14  -5   36.57    1.59
  -3 -14   5   36.86    1.56
  -3  14   5   38.78    2.01
   3  14  -5   38.69    2.36
   2 -14  -5   20.80    0.98
  -2 -14   5   20.62    0.93
  -2 -14   5   19.35    1.07
  -2  14   5   20.34    1.29
   2  14  -5   20.80    1.53
   1 -14  -5   37.61    1.60
  -1 -14   5   35.77    1.69
  -1 -14   5   37.84    1.52
  -1  14   5   40.21    1.96
   1  14  -5   40.03    2.23
   0 -14  -5    0.98    0.22
   0 -14   5    0.97    0.27
   0  14   5    1.14    0.32
   0  14  -5    0.53    0.41
   0  14  -5    1.05    0.21
   1 -14   5   74.73    3.14
  -1 -14  -5   77.23    3.00
  -1  14  -5   76.50    3.14
  -1  14  -5   78.95    3.78
   1  14   5   81.14    3.34
  -2 -14  -5    7.14    0.49
   2 -14   5    5.71    0.62
  -2  14  -5    6.30    0.77
   2  14   5    6.92    0.58
  -2  14  -5    6.37    0.50
   3 -14   5   59.01    2.51
  -3 -14  -5   58.23    2.34
   3  14   5   57.74    2.51
  -3  14  -5   56.79    2.91
  -3  14  -5   57.51    2.49
  -4 -14  -5    4.35    0.45
   4 -14   5    4.20    0.55
  -4  14  -5    3.14    0.57
   4  14   5    4.20    0.48
  -4  14  -5    4.07    0.49
  -5 -14  -5   43.07    1.82
   5 -14   5   41.26    1.98
  -5  14  -5   41.05    1.96
  -5  14  -5   40.19    2.22
  -6 -14  -5   21.94    1.11
  -6  14  -5   21.89    1.24
  -6  14  -5   19.98    1.39
  -7 -14  -5    9.05    0.66
  -7  14  -5   10.10    0.93
  -7  14  -5    8.69    0.76
  -8 -14  -5    0.87    0.28
  -8  14  -5    0.45    0.30
  -9 -14  -5   37.41    1.74
  -9  14  -5   35.50    1.94
 -10 -14  -5    3.67    0.52
 -10 -15   5    0.59    0.29
 -10 -15   5    0.35    0.31
 -10  15   5    0.25    0.42
  -9 -15   5    1.04    0.36
  -9 -15   5    1.63    0.37
   9 -15  -5    2.19    0.40
  -9  15   5    1.03    0.49
  -8 -15   5   37.23    1.76
  -8 -15   5   38.19    1.78
   8 -15  -5   37.52    1.72
  -8  15   5   34.80    2.09
   7 -15  -5   17.83    0.97
  -7 -15   5   17.85    0.99
  -7 -15   5   16.18    1.00
  -7  15   5   16.57    1.27
   7  15  -5   14.47    1.90
  -6 -15   5    5.24    0.48
   6 -15  -5    4.66    0.49
  -6 -15   5    4.94    0.55
  -6  15   5    6.43    0.85
   6  15  -5    4.15    1.01
  -5 -15   5   11.22    0.79
   5 -15  -5   13.24    0.75
  -5 -15   5   11.98    0.73
  -5  15   5   13.03    1.07
   5  15  -5   12.18    1.54
   4 -15  -5   59.63    2.42
  -4 -15   5   59.54    2.41
  -4 -15   5   56.28    2.50
   4  15  -5   67.12    3.57
  -4  15   5   60.94    2.91
  -3 -15   5   29.46    1.31
   3 -15  -5   30.02    1.34
  -3 -15   5   29.39    1.43
   3  15  -5   30.31    2.08
  -3  15   5   30.55    1.73
   2 -15  -5    0.71    0.21
  -2 -15   5    0.85    0.26
  -2 -15   5    0.76    0.19
  -2  15   5    1.06    0.37
   2  15  -5    0.70    0.44
  -1 -15   5    2.36    0.27
  -1 -15   5    1.49    0.33
   1 -15  -5    1.90    0.29
  -1  15   5    2.48    0.46
   1  15  -5    1.76    0.53
   0 -15  -5   41.58    1.77
   0 -15   5   40.75    1.89
   0  15  -5   43.75    2.41
   0  15   5   43.23    2.07
  -1 -15  -5   23.10    1.11
   1 -15   5   23.79    1.26
  -1  15  -5   23.35    1.15
  -1  15  -5   25.27    1.60
   1  15   5   24.10    1.31
  -2 -15  -5    0.26    0.16
   2 -15   5    0.41    0.24
  -2  15  -5    0.20    0.18
  -2  15  -5    0.10    0.31
   2  15   5    0.32    0.22
   3 -15   5   20.52    1.15
  -3 -15  -5   19.42    0.98
   3  15   5   19.34    1.08
  -3  15  -5   18.86    1.33
  -3  15  -5   18.99    1.05
   4 -15   5   73.32    3.10
  -4 -15  -5   72.64    2.89
  -4  15  -5   71.85    3.09
  -4  15  -5   72.63    3.56
   4  15   5   72.40    3.07
  -5 -15  -5    6.82    0.55
   5 -15   5    8.47    0.72
  -5  15  -5    8.63    0.67
  -5  15  -5    6.62    0.81
  -6 -15  -5    0.43    0.22
  -6  15  -5    0.56    0.29
  -6  15  -5    0.65    0.37
  -7 -15  -5   27.49    1.33
  -7  15  -5   26.46    1.48
  -7  15  -5   23.98    1.61
  -8 -15  -5   38.85    1.76
  -8  15  -5   36.35    1.95
  -9 -15  -5    0.92    0.30
  -9  15  -5    0.81    0.38
  -9 -16   5   19.40    1.15
  -9 -16   5   18.43    1.12
   9 -16  -5   20.08    1.12
  -9  16   5   17.17    1.41
  -8 -16   5   13.52    0.89
  -8 -16   5   13.43    0.91
   8 -16  -5   15.39    0.90
  -8  16   5   11.92    1.13
  -7 -16   5    8.11    0.62
  -7 -16   5    6.07    0.65
   7 -16  -5    7.22    0.58
   7  16  -5    7.00    1.38
  -7  16   5    7.91    0.97
  -6 -16   5   39.24    1.79
  -6 -16   5   37.88    1.84
   6 -16  -5   42.24    1.79
   6  16  -5   43.99    3.03
  -6  16   5   39.52    2.22
  -5 -16   5   11.89    0.82
   5 -16  -5   12.78    0.76
  -5 -16   5   11.72    0.74
  -5  16   5   14.40    1.13
   5  16  -5   15.85    1.62
  -4 -16   5    0.24    0.23
   4 -16  -5    0.05    0.16
  -4 -16   5    0.56    0.20
   4  16  -5    0.08    0.50
  -4  16   5    0.25    0.35
  -3 -16   5    7.81    0.66
   3 -16  -5    8.80    0.59
  -3 -16   5    9.10    0.57
   3  16  -5    9.14    1.24
  -3  16   5   10.17    0.90
  -2 -16   5   51.55    2.31
  -2 -16   5   55.90    2.15
   2 -16  -5   54.26    2.21
  -2  16   5   53.24    2.63
   2  16  -5   55.19    3.10
  -1 -16   5   23.83    1.23
   1 -16  -5   21.70    1.08
  -1  16   5   23.14    1.38
   1  16  -5   22.26    1.67
   0 -16   5   -0.12    0.17
   0 -16  -5    0.06    0.14
   0  16   5    0.09    0.20
   0  16  -5    0.05    0.38
  -1 -16  -5   14.41    0.77
   1 -16   5   13.17    0.87
   1  16   5   13.10    0.90
  -1  16  -5   12.94    1.15
   2 -16   5   71.38    3.02
  -2 -16  -5   73.56    2.86
   2  16   5   72.97    3.10
  -2  16  -5   68.29    2.98
  -2  16  -5   72.97    3.61
  -3 -16  -5   17.32    0.93
   3 -16   5   17.67    1.07
   3  16   5   17.06    1.01
  -3  16  -5   17.15    0.99
  -3  16  -5   17.46    1.30
  -4 -16  -5    6.64    0.52
   4 -16   5    6.16    0.70
  -4  16  -5    5.53    0.78
  -4  16  -5    6.76    0.59
   5 -16   5   20.31    1.22
  -5 -16  -5   17.78    1.01
  -5  16  -5   19.12    1.36
  -5  16  -5   20.21    1.16
  -6 -16  -5   25.55    1.27
  -6  16  -5   24.49    1.39
  -6  16  -5   23.56    1.58
  -7 -16  -5   12.31    0.82
  -7  16  -5   13.57    0.97
  -7  16  -5   11.63    1.07
  -8 -16  -5    2.57    0.44
  -8  16  -5    1.59    0.44
  -9 -16  -5   18.48    1.10
  -9 -17   5    3.00    0.49
  -9 -17   5    3.11    0.51
  -9  17   5    3.42    0.73
  -8 -17   5    8.76    0.70
   8 -17  -5    9.35    0.71
  -8 -17   5   10.50    0.80
  -8  17   5   10.16    1.13
   7 -17  -5   29.74    1.42
  -7 -17   5   28.35    1.49
  -7 -17   5   28.66    1.44
   7  17  -5   31.50    2.63
  -7  17   5   27.03    1.80
   6 -17  -5    0.13    0.19
  -6 -17   5    0.17    0.20
  -6 -17   5    0.05    0.22
  -6  17   5    0.01    0.33
   6  17  -5    0.61    0.65
   5 -17  -5   36.94    1.65
  -5 -17   5   37.78    1.76
  -5 -17   5   36.61    1.66
   5  17  -5   40.49    2.84
  -5  17   5   34.28    2.05
   4 -17  -5   17.67    0.92
  -4 -17   5   16.84    1.01
  -4 -17   5   15.20    0.87
   4  17  -5   19.38    1.79
  -4  17   5   16.20    1.23
  -3 -17   5   52.71    2.14
   3 -17  -5   49.69    2.16
  -3 -17   5   52.36    2.30
  -3  17   5   51.74    2.64
   3  17  -5   60.82    3.32
   2 -17  -5    0.12    0.17
  -2 -17   5    0.22    0.15
  -2 -17   5   -0.01    0.20
   2  17  -5    0.15    0.41
  -2  17   5    0.68    0.33
  -1 -17   5   34.77    1.67
   1 -17  -5   33.97    1.52
   1  17  -5   33.96    2.23
  -1  17   5   34.93    1.86
   0 -17   5   13.21    0.89
   0 -17  -5   12.82    0.76
   0  17  -5   11.96    1.21
   0  17   5   15.75    1.01
   1 -17   5   37.58    1.82
  -1 -17  -5   36.59    1.65
  -1  17  -5   37.70    2.27
   1  17   5   39.90    1.90
   2 -17   5    0.36    0.27
  -2 -17  -5    0.78    0.23
   2  17   5    0.68    0.27
  -2  17  -5    0.28    0.39
  -2  17  -5    0.72    0.25
   3 -17   5   49.87    2.27
  -3 -17  -5   49.01    2.07
  -3  17  -5   48.74    2.20
  -3  17  -5   46.74    2.65
   4 -17   5    7.71    0.79
  -4 -17  -5    6.79    0.54
  -4  17  -5    6.51    0.60
  -4  17  -5    4.94    0.80
   5 -17   5    2.45    0.50
  -5 -17  -5    2.56    0.40
  -5  17  -5    4.09    0.54
  -5  17  -5    3.45    0.66
  -6 -17  -5    0.42    0.22
  -6  17  -5    0.29    0.38
  -6  17  -5    0.59    0.30
  -7 -17  -5   35.33    1.67
  -7  17  -5   34.92    1.86
  -7  17  -5   34.30    2.08
  -8 -17  -5   10.26    0.77
  -8  17  -5   11.57    0.95
  -8 -18   5    4.65    0.57
  -8 -18   5    4.28    0.59
   8 -18  -5    4.53    0.56
  -8  18   5    3.77    0.76
  -7 -18   5    1.25    0.31
   7 -18  -5    1.41    0.33
  -7 -18   5    1.27    0.38
  -7  18   5    1.61    0.57
   7  18  -5    1.45    0.85
  -6 -18   5   55.35    2.32
   6 -18  -5   53.39    2.28
  -6 -18   5   51.67    2.37
  -6  18   5   50.86    2.77
   6  18  -5   59.85    3.84
  -5 -18   5    1.00    0.33
  -5 -18   5    0.73    0.25
   5 -18  -5    1.28    0.29
   5  18  -5    1.44    0.77
  -5  18   5    0.70    0.42
  -4 -18   5    0.46    0.27
   4 -18  -5    0.07    0.18
  -4 -18   5    0.35    0.18
  -4  18   5    0.20    0.35
   4  18  -5    0.22    0.58
   3 -18  -5    1.04    0.26
  -3 -18   5    1.40    0.35
  -3 -18   5    1.18    0.25
   3  18  -5    1.20    0.70
  -3  18   5    1.82    0.50
  -2 -18   5   74.19    3.19
   2 -18  -5   76.65    3.05
  -2  18   5   79.11    3.57
   2  18  -5   79.93    4.24
   1 -18  -5    4.34    0.46
  -1 -18   5    4.26    0.54
  -1  18   5    4.49    0.65
   1  18  -5    4.13    0.83
   0 -18   5    1.74    0.40
   0 -18  -5    2.11    0.32
   0  18   5    2.29    0.45
   0  18  -5    1.69    0.57
  -1 -18  -5    0.05    0.16
   1 -18   5    0.00    0.24
   1  18   5    0.06    0.20
  -1  18  -5   -0.11    0.36
   2 -18   5   48.65    2.17
  -2 -18  -5   44.50    1.95
  -2  18  -5   42.98    2.58
  -3 -18  -5    1.88    0.33
   3 -18   5    1.27    0.37
  -3  18  -5    1.47    0.34
  -3  18  -5    1.55    0.53
  -4 -18  -5    8.77    0.64
   4 -18   5    8.98    0.81
  -4  18  -5    8.09    0.70
  -4  18  -5    7.60    0.96
  -5 -18  -5    1.76    0.35
   5 -18   5    2.31    0.51
  -5  18  -5    1.93    0.56
  -5  18  -5    2.27    0.46
  -6 -18  -5   55.11    2.34
  -6  18  -5   52.48    2.88
  -6  18  -5   52.16    2.53
  -7 -18  -5    1.19    0.34
  -7  18  -5    1.51    0.42
  -7 -19   5   29.66    1.55
   7 -19  -5   29.24    1.45
  -7 -19   5   30.87    1.51
  -7  19   5   27.17    1.87
  -6 -19   5    0.00    0.25
  -6 -19   5    0.32    0.23
   6 -19  -5    0.09    0.20
   6  19  -5    0.91    0.79
  -6  19   5   -0.31    0.34
  -5 -19   5   19.34    1.18
   5 -19  -5   20.83    1.09
  -5 -19   5   19.65    1.07
  -5  19   5   21.11    1.48
   5  19  -5   22.00    2.15
   4 -19  -5    0.06    0.19
  -4 -19   5    0.36    0.27
  -4 -19   5    0.03    0.17
   4  19  -5    0.02    0.62
  -4  19   5    0.01    0.31
  -3 -19   5   44.45    2.10
   3 -19  -5   45.28    1.97
   3  19  -5   49.82    3.14
  -3  19   5   45.16    2.42
   2 -19  -5    0.06    0.17
  -2 -19   5    0.09    0.26
   2  19  -5   -0.02    0.48
  -2  19   5    0.41    0.31
  -1 -19   5    9.32    0.77
   1 -19  -5    9.84    0.66
  -1  19   5   11.37    0.92
   1  19  -5    8.26    1.20
   0 -19  -5    0.38    0.20
   0 -19   5   -0.17    0.23
   0  19  -5   -0.11    0.39
   0  19   5    0.23    0.24
  -1 -19  -5   22.35    1.16
   1 -19   5   25.48    1.38
  -1  19  -5   22.91    1.76
   2 -19   5   -0.12    0.22
  -2 -19  -5   -0.20    0.15
  -2  19  -5   -0.19    0.39
   3 -19   5   26.28    1.50
  -3 -19  -5   26.21    1.32
  -3  19  -5   27.57    1.86
  -4 -19  -5    2.18    0.39
   4 -19   5    1.85    0.45
  -4  19  -5    2.43    0.45
  -4  19  -5    1.53    0.56
  -5 -19  -5   10.70    0.76
   5 -19   5   11.95    0.97
  -5  19  -5   11.32    1.14
  -5  19  -5   11.27    0.88
  -6 -19  -5    0.53    0.26
  -6  19  -5    0.39    0.31
  -6  19  -5   -0.26    0.38
  -7 -19  -5   34.39    1.70
   6 -20  -5   43.67    1.88
  -6 -20   5   40.63    1.87
  -6 -20   5   39.36    1.96
  -6  20   5   37.58    2.30
   6  20  -5   43.07    3.33
   5 -20  -5    6.83    0.56
  -5 -20   5    6.41    0.55
  -5 -20   5    5.93    0.68
   5  20  -5    7.75    1.46
  -5  20   5    5.88    0.87
   4 -20  -5    1.45    0.30
  -4 -20   5    0.73    0.33
   4  20  -5    0.73    0.72
  -4  20   5    1.16    0.48
  -3 -20   5    0.14    0.29
   3 -20  -5    0.11    0.19
  -3  20   5   -0.03    0.32
   3  20  -5    0.47    0.63
   2 -20  -5   55.00    2.29
  -2 -20   5   53.91    2.46
   2  20  -5   55.51    3.44
  -2  20   5   53.64    2.73
   1 -20  -5    0.17    0.17
  -1 -20   5   -0.04    0.24
  -1  20   5    0.03    0.24
   1  20  -5    0.78    0.57
   0 -20   5   -0.06    0.26
   0 -20  -5    0.26    0.19
   0  20   5    0.25    0.25
   0  20  -5   -0.12    0.43
  -1 -20  -5    4.03    0.47
   1 -20   5    3.22    0.55
  -1  20  -5    3.68    0.80
  -2 -20  -5   29.84    1.49
   2 -20   5   31.45    1.68
  -2  20  -5   35.29    2.23
   3 -20   5    0.85    0.37
  -3 -20  -5    0.92    0.27
  -3  20  -5    0.31    0.45
   4 -20   5    4.91    0.70
  -4 -20  -5    5.41    0.58
  -4  20  -5    4.36    0.84
  -5 -20  -5    1.04    0.30
   5 -20   5    0.94    0.43
  -5  20  -5    1.65    0.44
  -5  20  -5    0.48    0.48
  -6 -20  -5   41.96    1.93
  -6  20  -5   39.10    2.09
  -5 -21   5   11.82    0.92
  -5 -21   5   11.83    0.79
   5 -21  -5   12.39    0.80
  -5  21   5   12.20    1.15
   5  21  -5   13.99    1.98
  -4 -21   5   11.95    0.94
   4 -21  -5   14.82    0.87
  -4  21   5   15.01    1.23
   4  21  -5   14.33    1.93
  -3 -21   5   31.37    1.68
   3 -21  -5   32.55    1.54
   3  21  -5   34.61    2.67
  -3  21   5   33.91    1.97
  -2 -21   5    0.48    0.33
   2 -21  -5    0.97    0.28
   2  21  -5    0.72    0.63
  -2  21   5    1.12    0.42
   1 -21  -5   21.11    1.17
  -1 -21   5   24.17    1.37
  -1  21   5   24.69    1.50
   1  21  -5   25.45    2.08
   0 -21   5    8.77    0.87
   0 -21  -5    7.69    0.61
   0  21  -5    8.97    1.28
   1 -21   5   22.83    1.34
  -1 -21  -5   19.91    1.11
  -1  21  -5   22.62    1.83
   2 -21   5    0.07    0.30
  -2 -21  -5    0.29    0.21
  -2  21  -5   -0.15    0.46
   3 -21   5   17.68    1.19
  -3 -21  -5   16.27    0.97
  -3  21  -5   14.37    1.45
   4 -21   5   10.88    0.93
  -4 -21  -5   10.43    0.76
  -4  21  -5    9.23    1.22
  -5 -21  -5    5.90    0.63
   4 -22  -5    1.70    0.34
   3 -22  -5   10.05    0.71
  -3 -22   5    9.13    0.84
   3  22  -5    9.69    1.63
  -3  22   5   10.66    1.01
   2 -22  -5   40.46    1.83
  -2 -22   5   40.03    2.02
   2  22  -5   39.26    2.96
  -2  22   5   42.70    2.26
   1 -22  -5   12.02    0.78
  -1 -22   5   11.28    0.93
   1  22  -5   12.38    1.61
   0 -22  -5    0.00    0.20
   0 -22   5   -0.42    0.28
   0  22  -5    0.13    0.55
   1 -22   5   12.64    1.01
  -1 -22  -5   14.88    0.89
  -1  22  -5   11.66    1.51
   2 -22   5   22.35    1.40
  -2 -22  -5   22.64    1.21
  -2  22  -5   22.73    1.89
  -3 -22  -5    4.48    0.55
   3 -22   5    4.68    0.69
  -3  22  -5    4.76    0.95
   0 -23  -5   28.51    1.42
 -13   0   6   -0.13    0.24
 -12   0   6   62.77    2.67
 -11   0   6   -0.23    0.20
 -10   0   6    1.25    0.29
 -10   0   6    1.81    0.41
  -9   0   6   -0.01    0.23
  -9   0   6   -0.22    0.17
  -8   0   6   75.57    2.94
  -8   0   6   73.96    3.19
  -7   0   6   -0.09    0.15
  -7   0   6    0.11    0.23
  -6   0   6   26.06    1.10
  -6   0   6   25.55    1.25
   6   0  -6   21.16    1.23
   5   0  -6    0.02    0.10
  -5   0   6    0.09    0.10
   5   0  -6    0.05    0.14
  -5   0   6    0.17    0.16
   4   0  -6  202.26    8.79
  -4   0   6  214.48    7.57
  -4   0   6  213.42    8.08
   4   0  -6  210.36    7.56
  -3   0   6    0.02    0.11
   3   0  -6   -0.34    0.08
   3   0  -6    0.25    0.11
  -3   0   6    0.13    0.12
  -2   0   6   66.22    2.61
  -2   0   6   64.23    2.39
   2   0  -6   60.79    2.37
   1   0  -6    0.07    0.14
  -1   0   6   -0.11    0.08
  -1   0   6    0.12    0.09
   1   0  -6    0.02    0.07
   0   0  -6  218.78    7.76
   0   0   6  217.10    8.36
   0   0  -6  226.57    9.29
   0   0   6  214.88    7.82
  -1   0  -6    0.08    0.07
   1   0   6    0.06    0.09
  -2   0  -6  109.21    3.78
   2   0   6   97.76    3.84
  -2   0  -6  110.13    4.74
  -3   0  -6   -0.05    0.06
  -3   0  -6    0.02    0.18
  -4   0  -6   78.67    2.89
  -4   0  -6   81.31    3.78
  -5   0  -6    0.11    0.08
  -5   0  -6   -0.53    0.23
  -6   0  -6  102.21    4.92
  -6   0  -6  108.37    3.84
  -7   0  -6    0.13    0.11
  -7   0  -6    0.07    0.33
  -8   0  -6   50.79    2.78
  -9   0  -6   -0.86    0.38
 -10   0  -6   38.16    1.93
 -10   0  -6   39.52    2.39
 -11   0  -6    0.03    0.24
 -11   0  -6   -0.13    0.40
 -12   0  -6   21.26    1.34
 -12  -1   6   -0.27    0.21
 -12   1   6   -0.25    0.24
 -11  -1   6   57.45    2.45
 -11   1   6   56.20    2.68
 -11   1   6   58.73    2.44
 -10  -1   6   26.24    1.28
 -10   1   6   25.50    1.45
 -10   1   6   26.52    1.28
  -9  -1   6   43.72    1.86
  -9  -1   6   44.28    2.03
  -9   1   6   41.34    2.06
  -9   1   6   42.78    1.84
  -8  -1   6    0.56    0.22
  -8  -1   6    0.67    0.28
  -8   1   6    0.70    0.30
  -8   1   6    0.43    0.23
  -7  -1   6  164.73    6.60
  -7  -1   6  167.38    6.20
  -7   1   6  172.33    6.67
  -7   1   6  169.58    6.18
  -6  -1   6    5.57    0.48
  -6  -1   6    5.45    0.40
  -6   1   6    5.67    0.58
  -6   1   6    5.36    0.39
   6   1  -6    4.61    0.52
  -5  -1   6    2.57    0.34
   5  -1  -6    2.15    0.27
   5  -1  -6    3.34    0.29
  -5  -1   6    2.71    0.29
  -5   1   6    2.60    0.28
  -5   1   6    2.95    0.41
   5   1  -6    1.93    0.30
  -4  -1   6    4.16    0.37
   4  -1  -6    4.50    0.34
  -4  -1   6    4.28    0.33
   4  -1  -6    3.52    0.38
   4   1  -6    3.39    0.31
  -4   1   6    4.01    0.31
  -4   1   6    4.42    0.41
  -3  -1   6  191.75    7.43
   3  -1  -6  198.20    8.14
   3  -1  -6  193.88    6.96
  -3  -1   6  192.85    6.99
  -3   1   6  194.38    7.48
  -3   1   6  190.86    6.96
   3   1  -6  195.84    6.97
  -2  -1   6  108.08    3.98
  -2  -1   6  106.14    4.25
   2  -1  -6  108.37    3.95
   2   1  -6  114.75    4.72
  -2   1   6  109.82    4.30
   2   1  -6  105.78    3.95
   1  -1  -6    0.21    0.09
  -1  -1   6    0.30    0.12
   1  -1  -6    0.34    0.19
   1   1  -6    0.17    0.09
  -1   1   6    0.02    0.08
  -1   1   6    0.18    0.12
   1   1  -6    0.15    0.16
   0  -1   6    3.50    0.26
   0  -1  -6    4.51    0.26
   0  -1   6    3.98    0.34
   0   1  -6    5.27    0.50
   0   1   6    4.36    0.36
   0   1  -6    3.83    0.24
   0   1   6    4.15    0.25
  -1  -1  -6  304.55   10.47
   1  -1   6  292.77   10.57
  -1  -1  -6  301.91   12.51
  -1   1  -6  306.23   12.50
   1   1   6  292.96   11.26
   1   1   6  285.16   10.52
  -1   1  -6  294.91   10.44
  -2  -1  -6   17.39    0.70
  -2  -1  -6   18.32    1.11
   2   1   6   16.67    0.71
  -2   1  -6   17.04    0.68
  -2   1  -6   15.51    1.03
  -3  -1  -6    2.92    0.21
  -3   1  -6    3.04    0.47
  -3   1  -6    2.88    0.19
  -4  -1  -6    0.87    0.13
  -4  -1  -6    0.42    0.32
  -4   1  -6    0.46    0.33
  -4   1  -6    0.77    0.11
  -5  -1  -6   77.03    2.83
  -5  -1  -6   74.31    3.71
  -5   1  -6   80.19    3.71
  -5   1  -6   76.52    2.79
  -6  -1  -6   16.46    1.28
  -6  -1  -6   16.70    0.74
  -6   1  -6   17.40    0.71
  -6   1  -6   14.61    1.19
  -7  -1  -6    6.74    0.92
  -7  -1  -6    9.50    0.48
  -7   1  -6    6.95    0.88
  -8  -1  -6    5.86    0.39
  -8  -1  -6    4.75    0.82
  -8   1  -6    4.53    0.78
  -9  -1  -6  109.57    5.36
  -9   1  -6  112.55    5.32
 -10  -1  -6    2.40    0.71
 -10  -1  -6    2.96    0.49
 -10   1  -6    2.65    0.48
 -10   1  -6    2.94    0.70
 -11  -1  -6    1.06    0.54
 -11  -1  -6    1.70    0.43
 -11   1  -6    0.96    0.48
 -11   1  -6    1.31    0.39
 -12  -1  -6    6.34    0.77
 -12  -1  -6    6.53    1.07
 -12   1  -6    6.38    0.78
 -12  -2   6   40.49    1.93
 -12   2   6   43.87    1.94
 -11  -2   6    1.21    0.33
 -11   2   6    1.68    0.45
 -11   2   6    1.02    0.33
 -10  -2   6    8.22    0.61
 -10   2   6    9.09    0.79
 -10   2   6    7.61    0.60
  -9  -2   6   24.87    1.22
  -9   2   6   24.60    1.41
  -9   2   6   25.84    1.22
  -8  -2   6  134.52    4.91
  -8  -2   6  125.48    5.19
  -8   2   6  132.46    4.89
  -8   2   6  129.22    5.32
  -7  -2   6    9.14    0.59
   7  -2  -6    9.75    0.63
  -7  -2   6    9.36    0.65
  -7   2   6    9.63    0.74
  -7   2   6    8.27    0.56
  -6  -2   6   14.79    0.85
  -6  -2   6   16.21    0.80
  -6   2   6   16.96    0.98
  -6   2   6   15.86    0.78
  -5  -2   6   23.85    1.09
   5  -2  -6   19.96    1.01
   5  -2  -6   20.23    1.06
  -5  -2   6   23.69    1.02
  -5   2   6   24.17    1.00
  -5   2   6   24.19    1.20
  -4  -2   6  103.48    3.78
   4  -2  -6   99.51    4.33
  -4  -2   6  102.01    4.01
   4  -2  -6  102.49    3.77
  -4   2   6  103.05    4.12
   4   2  -6   98.67    4.43
  -4   2   6  103.09    3.75
  -3  -2   6   38.53    1.69
  -3  -2   6   38.34    1.59
   3  -2  -6   37.70    1.84
   3  -2  -6   42.44    1.60
  -3   2   6   39.53    1.55
   3   2  -6   42.44    1.61
   3   2  -6   40.58    1.91
  -3   2   6   40.71    1.79
   2  -2  -6  102.74    3.80
  -2  -2   6  103.30    4.07
  -2  -2   6  102.38    3.83
   2   2  -6  106.06    4.54
  -2   2   6  108.21    4.17
   2   2  -6  102.80    3.80
   1  -2  -6   55.95    2.48
   1  -2  -6   55.06    2.01
  -1  -2   6   53.68    2.05
  -1  -2   6   50.45    2.19
   1   2  -6   53.17    2.00
   1   2  -6   55.15    2.49
  -1   2   6   50.90    1.99
  -1   2   6   54.79    2.26
   0  -2  -6   80.90    2.98
   0  -2  -6   82.63    3.67
   0   2  -6   78.56    2.95
   0   2  -6   86.57    3.67
   0   2   6   80.93    3.29
   0   2   6   81.05    2.96
   1  -2   6    0.02    0.06
  -1  -2  -6    0.18    0.08
  -1   2  -6    0.22    0.19
   1   2   6    0.06    0.10
   1   2   6    0.12    0.07
  -1   2  -6    0.20    0.07
  -2  -2  -6  103.27    3.61
  -2  -2  -6  104.60    4.54
   2  -2   6   99.71    3.70
   2   2   6   91.98    3.58
  -2   2  -6  100.56    3.55
  -3  -2  -6   18.59    0.77
   3  -2   6   17.35    0.84
  -3   2  -6   18.72    1.15
  -3   2  -6   18.56    0.71
  -4  -2  -6   92.71    4.16
  -4  -2  -6   87.10    3.21
  -4   2  -6   87.11    4.07
  -4   2  -6   85.67    3.14
  -5  -2  -6    0.57    0.13
  -5  -2  -6    0.29    0.36
  -5   2  -6    0.76    0.11
  -5   2  -6   -0.06    0.27
  -6  -2  -6   72.06    3.63
  -6  -2  -6   75.37    2.72
  -6   2  -6   69.84    3.52
  -7  -2  -6   66.18    3.53
  -7  -2  -6   70.43    2.63
  -7   2  -6   70.99    3.46
  -8  -2  -6   22.39    1.63
  -8  -2  -6   22.07    1.00
  -8   2  -6   22.39    1.54
  -9  -2  -6    0.02    0.48
  -9   2  -6    0.07    0.46
  -9   2  -6    1.09    0.34
 -10  -2  -6   33.02    2.25
 -10  -2  -6   35.70    1.80
 -10   2  -6   36.52    2.20
 -10   2  -6   35.91    1.83
 -11  -2  -6    7.90    1.15
 -11  -2  -6    8.77    0.77
 -11   2  -6    8.76    0.78
 -11   2  -6    8.49    1.08
 -12  -2  -6    8.43    1.22
 -12  -2  -6   11.24    0.90
 -12   2  -6    9.84    0.89
 -12  -3   6   -0.02    0.25
 -12   3   6   -0.36    0.23
 -12   3   6    0.18    0.33
 -11  -3   6   24.63    1.26
 -11   3   6   23.78    1.47
 -11   3   6   25.17    1.26
 -10  -3   6   13.83    0.82
 -10   3   6   14.03    1.01
 -10   3   6   13.58    0.82
  -9  -3   6   17.27    0.92
  -9   3   6   15.26    0.86
  -9   3   6   16.60    1.09
  -8  -3   6    0.67    0.24
  -8  -3   6    0.39    0.22
  -8   3   6    0.22    0.17
  -8   3   6    0.19    0.28
   7  -3  -6  105.70    4.09
  -7  -3   6  112.77    4.07
  -7  -3   6  105.61    4.25
   7   3  -6  101.24    4.89
  -7   3   6  108.94    4.45
  -7   3   6  106.90    4.02
  -6  -3   6   34.42    1.52
  -6  -3   6   35.73    1.47
   6   3  -6   30.91    1.79
  -6   3   6   34.98    1.69
  -6   3   6   34.91    1.43
  -5  -3   6   12.75    0.69
  -5  -3   6   14.29    0.69
   5  -3  -6   10.74    0.64
   5   3  -6   11.84    0.85
  -5   3   6   13.98    0.65
  -5   3   6   14.71    0.87
  -4  -3   6   10.96    0.59
   4  -3  -6   10.13    0.61
   4  -3  -6    9.42    0.55
  -4  -3   6   10.43    0.59
  -4   3   6   11.80    0.55
   4   3  -6   11.50    0.76
  -4   3   6   11.93    0.75
  -3  -3   6   19.98    0.93
   3  -3  -6   20.71    1.03
  -3  -3   6   20.17    0.91
   3  -3  -6   19.41    0.88
  -3   3   6   20.21    1.06
  -3   3   6   19.90    0.85
   3   3  -6   21.00    1.12
  -2  -3   6   62.34    2.33
   2  -3  -6   59.15    2.28
  -2  -3   6   60.74    2.44
  -2   3   6   61.32    2.56
  -2   3   6   56.41    2.24
   2   3  -6   62.81    2.78
   2   3  -6   62.32    2.30
   1  -3  -6    9.43    0.47
   1  -3  -6    8.58    0.66
  -1  -3   6    9.64    0.51
   1   3  -6   10.21    0.69
  -1   3   6    8.92    0.43
  -1   3   6   10.52    0.62
   1   3  -6    9.91    0.47
   0  -3   6   29.59    1.24
   0  -3  -6   30.07    1.57
   0  -3  -6   30.50    1.20
   0   3  -6   31.32    1.17
   0   3   6   28.62    1.14
   0   3  -6   32.55    1.57
   0   3   6   29.96    1.39
  -1  -3  -6  115.03    4.89
   1  -3   6  108.00    4.04
  -1  -3  -6  115.48    3.97
  -1   3  -6  113.58    4.85
  -1   3  -6  109.58    3.90
   1   3   6   98.13    3.90
  -2  -3  -6   25.31    1.00
  -2  -3  -6   26.10    1.45
   2  -3   6   24.56    1.07
  -2   3  -6   23.71    0.92
  -3  -3  -6    2.20    0.43
  -3  -3  -6    2.31    0.20
   3  -3   6    2.61    0.28
  -3   3  -6    2.08    0.13
  -3   3  -6    2.33    0.41
  -4  -3  -6   32.63    1.26
  -4  -3  -6   31.50    1.82
   4  -3   6   29.97    1.35
  -4   3  -6   31.93    1.16
  -4   3  -6   31.34    1.73
  -5  -3  -6  107.42    3.96
  -5  -3  -6  109.26    5.07
  -5   3  -6  109.03    4.95
  -6  -3  -6   14.47    0.69
  -6  -3  -6   13.95    1.18
  -6   3  -6   14.04    1.09
  -7  -3  -6    4.34    0.78
  -7  -3  -6    4.69    0.35
  -7   3  -6    3.39    0.61
  -8  -3  -6   40.90    1.63
  -8  -3  -6   38.10    2.37
  -8   3  -6   38.90    2.24
  -9  -3  -6   56.55    2.25
  -9  -3  -6   55.45    3.15
  -9   3  -6   57.30    2.60
  -9   3  -6   56.39    3.00
 -10  -3  -6    2.54    0.75
 -10   3  -6    2.71    0.65
 -10   3  -6    3.84    0.56
 -11  -3  -6   -0.17    0.45
 -11  -3  -6    0.19    0.28
 -11   3  -6    0.07    0.27
 -11   3  -6    0.63    0.47
 -12  -3  -6   21.26    1.30
 -12  -3  -6   18.52    1.70
 -12   3  -6   19.45    1.31
 -12  -4   6   19.03    1.11
 -12   4   6   20.00    1.09
 -12   4   6   17.81    1.28
 -11  -4   6   18.75    1.06
 -11   4   6   18.16    1.24
 -11   4   6   18.71    1.04
 -10  -4   6    1.60    0.32
 -10   4   6    1.30    0.42
 -10   4   6    1.80    0.32
  -9  -4   6   38.31    1.66
  -9   4   6   35.47    1.88
  -9   4   6   36.03    1.61
  -8  -4   6   17.71    0.92
   8  -4  -6   17.02    0.96
  -8   4   6   16.67    0.88
  -8   4   6   18.07    1.13
   7  -4  -6   40.57    1.67
  -7  -4   6   35.47    1.63
  -7  -4   6   37.29    1.61
   7   4  -6   35.91    2.09
  -7   4   6   38.03    1.58
  -7   4   6   36.57    1.86
   6  -4  -6    0.41    0.15
  -6  -4   6    0.48    0.19
  -6  -4   6    0.88    0.18
  -6   4   6    0.59    0.18
  -6   4   6    0.79    0.31
   6   4  -6    0.54    0.31
  -5  -4   6   64.88    2.70
  -5  -4   6   71.76    2.65
  -5   4   6   70.40    2.95
  -5   4   6   69.25    2.58
   5   4  -6   62.35    3.14
   4  -4  -6   35.02    1.39
   4  -4  -6   32.86    1.51
  -4  -4   6   31.29    1.40
  -4  -4   6   32.40    1.39
  -4   4   6   34.85    1.63
  -4   4   6   33.73    1.33
   4   4  -6   32.68    1.70
  -3  -4   6    1.43    0.20
   3  -4  -6    1.73    0.25
  -3  -4   6    2.06    0.26
   3  -4  -6    1.47    0.21
  -3   4   6    1.62    0.30
  -3   4   6    1.66    0.18
   3   4  -6    1.53    0.31
  -2  -4   6   81.85    2.97
   2  -4  -6   76.17    2.90
  -2  -4   6   75.85    3.08
  -2   4   6   78.91    3.24
   2   4  -6   81.00    3.53
  -2   4   6   76.57    2.86
   1  -4  -6  220.73    8.98
   1  -4  -6  211.57    7.55
  -1  -4   6  206.05    7.64
  -1   4   6  198.24    7.52
  -1   4   6  217.85    8.18
   1   4  -6  218.61    9.00
   0  -4   6   66.90    2.55
   0  -4  -6   68.32    3.10
   0  -4  -6   68.58    2.49
   0   4  -6   65.47    2.44
   0   4  -6   71.95    3.09
   0   4   6   61.63    2.40
  -1  -4  -6    6.04    0.58
  -1  -4  -6    5.09    0.32
   1  -4   6    5.38    0.38
  -1   4  -6    6.04    0.28
  -1   4  -6    5.54    0.54
   1   4   6    5.46    0.43
  -2  -4  -6   25.90    1.02
  -2  -4  -6   24.46    1.44
   2  -4   6   24.43    1.09
  -2   4  -6   24.74    0.92
   2   4   6   24.10    1.19
  -2   4  -6   24.79    1.38
  -3  -4  -6  145.11    6.28
   3  -4   6  136.82    5.17
  -3  -4  -6  140.88    5.05
  -3   4  -6  136.10    4.92
  -3   4  -6  142.96    6.16
  -4  -4  -6   44.82    1.71
   4  -4   6   42.50    1.81
  -4   4  -6   44.04    2.24
  -5  -4  -6    1.20    0.42
  -5  -4  -6    1.06    0.18
  -5   4  -6    1.37    0.38
  -6  -4  -6   33.23    1.30
  -6  -4  -6   32.74    1.35
  -6  -4  -6   31.67    1.99
  -6   4  -6   32.70    1.86
  -7  -4  -6   51.58    2.87
  -7  -4  -6   52.63    2.06
  -7   4  -6   51.65    2.70
  -8  -4  -6    2.27    0.65
  -8  -4  -6    4.18    0.35
  -8   4  -6    3.27    0.62
  -8   4  -6    2.84    0.45
  -9  -4  -6    2.69    0.34
  -9  -4  -6    2.56    0.69
  -9   4  -6    2.27    0.58
  -9   4  -6    2.27    0.44
 -10  -4  -6   16.25    1.51
 -10   4  -6   16.65    1.11
 -10   4  -6   17.62    1.35
 -11  -4  -6   45.56    2.18
 -11  -4  -6   41.70    2.75
 -11   4  -6   44.52    2.22
 -12  -4  -6   10.82    1.41
 -12  -4  -6   10.81    0.91
 -12   4  -6   11.52    0.97
 -12  -5   6    0.74    0.29
 -12   5   6    0.15    0.34
 -12   5   6    0.30    0.25
 -11  -5   6    5.42    0.57
 -11   5   6    5.18    0.55
 -11   5   6    4.66    0.70
 -10  -5   6   52.97    2.21
 -10   5   6   50.23    2.17
 -10   5   6   50.81    2.51
  -9  -5   6   -0.15    0.18
  -9   5   6    0.16    0.27
  -9   5   6   -0.02    0.17
  -8  -5   6    3.64    0.41
   8  -5  -6    3.27    0.43
  -8   5   6    3.80    0.39
  -8   5   6    4.00    0.58
  -7  -5   6   38.49    1.65
   7  -5  -6   38.61    1.68
  -7   5   6   38.34    1.61
  -7   5   6   40.00    1.95
   7   5  -6   36.16    2.20
  -6  -5   6  142.57    5.57
   6  -5  -6  148.14    5.38
   6   5  -6  138.27    6.46
  -6   5   6  149.38    5.33
  -6   5   6  146.73    5.88
  -5  -5   6    4.05    0.37
  -5  -5   6    3.69    0.30
  -5   5   6    4.32    0.32
   5   5  -6    4.15    0.58
  -5   5   6    3.76    0.51
  -4  -5   6    9.34    0.56
  -4  -5   6    8.88    0.49
   4  -5  -6    9.46    0.54
   4   5  -6    9.90    0.77
  -4   5   6    9.07    0.70
  -4   5   6    9.14    0.48
  -3  -5   6   45.39    1.93
   3  -5  -6   47.53    2.17
   3  -5  -6   48.20    1.87
  -3  -5   6   47.12    1.91
  -3   5   6   48.53    1.82
   3   5  -6   49.75    2.32
  -3   5   6   48.34    2.16
  -2  -5   6  213.06    7.89
   2  -5  -6  217.69    7.80
   2   5  -6  227.79    9.28
  -2   5   6  222.17    8.47
  -2   5   6  211.67    7.76
   1  -5  -6   14.24    0.87
  -1  -5   6   13.76    0.70
   1  -5  -6   13.88    0.64
  -1   5   6   12.51    0.55
   1   5  -6   14.27    0.89
   0  -5   6   73.51    2.79
   0  -5  -6   73.45    3.36
   0  -5  -6   76.44    2.72
   0   5   6   67.42    2.60
   0   5  -6   75.66    3.35
  -1  -5  -6   16.63    1.05
   1  -5   6   14.69    0.77
  -1  -5  -6   16.26    0.72
   1   5   6   16.78    0.88
  -2  -5  -6  133.09    4.86
  -2  -5  -6  144.26    6.03
   2  -5   6  130.54    4.98
  -2   5  -6  134.35    5.89
   2   5   6  132.29    5.30
  -3  -5  -6    5.62    0.35
  -3  -5  -6    5.81    0.71
   3  -5   6    6.06    0.44
  -3   5  -6    5.28    0.61
   4  -5   6   93.36    3.75
  -4  -5  -6   98.66    3.62
  -4  -5  -6  104.53    3.51
  -4   5  -6   95.08    4.46
  -5  -5  -6    7.23    0.88
  -5  -5  -6    6.62    0.42
  -5   5  -6    7.06    0.70
  -6  -5  -6  106.84    3.99
  -6  -5  -6  111.56    5.17
  -6   5  -6  105.83    4.94
  -7  -5  -6    0.49    0.42
  -7  -5  -6    0.57    0.18
  -7   5  -6    0.28    0.33
  -8  -5  -6   55.75    3.14
  -8  -5  -6   57.27    2.26
  -8   5  -6   56.40    2.92
  -8   5  -6   57.23    2.59
  -9  -5  -6    9.20    0.59
  -9  -5  -6    8.75    1.15
  -9   5  -6    9.35    0.93
  -9   5  -6    8.56    0.74
 -10  -5  -6   13.90    0.79
 -10  -5  -6   11.83    1.44
 -10   5  -6   14.27    0.99
 -10   5  -6   13.89    1.17
 -11  -5  -6    0.13    0.27
 -11  -5  -6    0.03    0.50
 -11   5  -6    0.29    0.29
 -12  -6   6    0.17    0.27
 -12   6   6    0.04    0.33
 -12   6   6    0.03    0.22
 -11  -6   6   10.32    0.74
 -11   6   6    9.12    0.68
 -11   6   6    9.83    0.92
 -10  -6   6    2.33    0.39
 -10   6   6    0.92    0.40
 -10   6   6    1.89    0.34
   9  -6  -6   54.26    2.38
  -9  -6   6   56.04    2.32
  -9   6   6   53.37    2.62
  -9   6   6   55.98    2.28
   8  -6  -6    0.19    0.17
  -8  -6   6    0.15    0.18
   8   6  -6    0.21    0.36
  -8   6   6    0.07    0.15
  -8   6   6    0.35    0.30
   7  -6  -6   33.51    1.46
  -7  -6   6   29.52    1.40
   7   6  -6   31.08    1.97
  -7   6   6   32.86    1.71
  -7   6   6   30.94    1.37
  -6  -6   6    3.55    0.40
   6  -6  -6    3.80    0.39
  -6   6   6    3.26    0.51
  -6   6   6    3.40    0.34
   6   6  -6    2.82    0.58
  -5  -6   6  100.79    4.15
   5  -6  -6  100.09    4.03
  -5   6   6  114.20    4.02
   5   6  -6  115.34    4.99
  -5   6   6  113.97    4.53
  -4  -6   6    0.25    0.16
  -4  -6   6    0.30    0.10
   4  -6  -6    0.71    0.16
  -4   6   6    0.41    0.24
  -4   6   6    0.39    0.12
   4   6  -6    0.37    0.26
  -3  -6   6   35.46    1.46
   3  -6  -6   32.23    1.62
  -3   6   6   32.92    1.33
   3   6  -6   35.64    1.80
  -3   6   6   35.56    1.68
  -2  -6   6   21.98    1.02
   2  -6  -6   21.94    0.96
   2   6  -6   22.66    1.27
  -2   6   6   21.02    0.87
  -2   6   6   23.13    1.18
   1  -6  -6  149.96    5.32
   1  -6  -6  149.22    6.36
  -1  -6   6  152.76    5.42
  -1   6   6  134.16    5.23
  -1   6   6  146.73    5.82
   1   6  -6  151.25    6.39
   0  -6  -6    6.40    0.38
   0  -6   6    6.04    0.44
   0  -6  -6    6.87    0.62
   0   6  -6    6.09    0.58
   0   6   6    6.77    0.51
  -1  -6  -6    6.77    0.40
   1  -6   6    6.72    0.45
   1   6   6    6.48    0.50
   2  -6   6    0.40    0.16
  -2  -6  -6    0.40    0.12
   2   6   6    0.40    0.17
  -2   6  -6    0.53    0.25
  -3  -6  -6  155.21    5.60
   3  -6   6  154.17    5.75
  -3   6  -6  155.36    6.76
   4  -6   6    1.77    0.28
  -4  -6  -6    1.58    0.22
  -4   6  -6    1.43    0.37
  -5  -6  -6    1.31    0.21
  -5  -6  -6    1.67    0.46
  -5   6  -6    0.86    0.33
  -6  -6  -6    1.76    0.25
  -6  -6  -6    1.15    0.48
  -6   6  -6    0.86    0.36
  -7  -6  -6  138.95    6.46
  -7  -6  -6  139.91    5.07
  -7   6  -6  137.63    5.55
  -7   6  -6  132.61    6.17
  -8  -6  -6    1.05    0.54
  -8  -6  -6    2.98    0.35
  -8   6  -6    1.67    0.47
  -8   6  -6    2.07    0.39
  -9  -6  -6   13.24    0.76
  -9  -6  -6   10.70    1.33
  -9   6  -6   13.95    0.95
  -9   6  -6   14.49    1.14
 -10  -6  -6    0.72    0.54
 -10  -6  -6    0.38    0.21
 -10   6  -6    0.42    0.30
 -10   6  -6    0.27    0.38
 -11  -6  -6   48.17    2.99
 -11   6  -6   46.45    2.35
 -12  -7   6    1.05    0.34
 -12   7   6    0.59    0.41
 -12   7   6    0.83    0.31
 -11  -7   6    1.14    0.33
 -11   7   6    0.71    0.42
 -11   7   6    1.08    0.30
 -10  -7   6   50.34    2.18
 -10   7   6   51.48    2.15
 -10   7   6   48.05    2.49
  -9  -7   6    2.13    0.37
   9  -7  -6    3.82    0.50
  -9   7   6    3.05    0.55
  -9   7   6    2.95    0.38
   8  -7  -6    7.18    0.59
  -8  -7   6    8.25    0.60
  -8   7   6    8.96    0.80
   8   7  -6    6.29    1.01
  -8   7   6    8.85    0.56
   7  -7  -6   -0.14    0.12
  -7  -7   6    0.08    0.17
  -7   7   6    0.24    0.30
   7   7  -6    0.04    0.36
  -7   7   6    0.06    0.13
   6  -7  -6  109.72    4.12
  -6  -7   6  107.59    4.14
  -6   7   6  112.43    4.61
   6   7  -6  104.61    5.12
  -6   7   6  110.53    4.07
  -5  -7   6    0.02    0.05
   5  -7  -6    0.19    0.13
  -5   7   6    0.10    0.24
  -5   7   6    0.14    0.12
   5   7  -6   -0.16    0.25
   4  -7  -6   12.80    0.72
  -4   7   6   13.25    0.92
  -4   7   6   13.09    0.62
   4   7  -6   13.97    1.00
  -3  -7   6   21.06    0.96
   3  -7  -6   16.32    1.01
  -3   7   6   20.81    1.15
  -3   7   6   20.37    0.83
   3   7  -6   21.42    1.25
   2  -7  -6   58.93    2.77
  -2  -7   6   60.18    2.39
   2  -7  -6   61.09    2.32
  -2   7   6   58.86    2.23
   2   7  -6   63.83    2.90
   1  -7  -6    2.71    0.25
  -1  -7   6    1.96    0.28
  -1   7   6    2.57    0.38
   1   7  -6    2.13    0.39
  -1   7   6    1.86    0.15
   0  -7   6   32.40    1.49
   0  -7  -6   36.31    1.44
   0   7   6   36.47    1.67
   0   7  -6   38.46    1.87
  -1  -7  -6   14.69    0.68
   1  -7   6   15.46    0.78
  -1   7  -6   11.60    0.88
   1   7   6   14.65    0.83
  -2  -7  -6   92.82    3.45
   2  -7   6   92.40    3.58
  -2   7  -6   94.03    4.24
   2   7   6   93.97    3.79
  -3  -7  -6    0.87    0.17
   3  -7   6    1.17    0.25
   3   7   6    1.04    0.23
  -3   7  -6    0.85    0.31
   4  -7   6   66.35    2.70
  -4  -7  -6   68.01    2.55
  -4   7  -6   64.57    3.15
  -5  -7  -6   13.11    0.66
  -5   7  -6   11.06    0.93
  -6  -7  -6   15.63    0.81
  -6   7  -6   16.89    1.16
  -6   7  -6   17.35    1.00
  -7  -7  -6    0.46    0.18
  -7  -7  -6    0.01    0.37
  -7   7  -6    0.17    0.30
  -7   7  -6    0.56    0.24
  -8  -7  -6   51.65    3.06
  -8  -7  -6   56.37    2.22
  -8   7  -6   54.32    2.50
  -8   7  -6   53.18    2.78
  -9  -7  -6    0.35    0.46
  -9  -7  -6    0.34    0.19
  -9   7  -6    0.14    0.34
  -9   7  -6    0.29    0.26
 -10  -7  -6   11.70    0.74
 -10  -7  -6   11.69    1.42
 -10   7  -6   11.12    0.90
 -10   7  -6   12.39    1.09
 -11  -7  -6    0.39    0.22
 -11  -7  -6    0.11    0.49
 -11   7  -6    0.67    0.33
 -12  -8   6    4.65    0.58
 -12   8   6    5.60    0.83
 -12   8   6    4.54    0.55
 -11  -8   6   22.07    1.23
 -11   8   6   23.82    1.21
 -11   8   6   21.84    1.48
 -10  -8   6    0.00    0.21
 -10   8   6    0.06    0.19
 -10   8   6    0.35    0.35
  -9  -8   6   42.17    1.90
   9  -8  -6   42.19    1.93
  -9   8   6   43.86    2.23
  -9   8   6   41.90    1.82
  -8  -8   6   13.79    0.81
   8  -8  -6   13.80    0.83
  -8   8   6   12.70    0.75
   8   8  -6   14.81    1.39
  -8   8   6   12.81    1.01
   7  -8  -6   18.92    0.97
  -7  -8   6   17.22    0.95
  -7   8   6   18.24    0.90
   7   8  -6   18.55    1.50
  -7   8   6   18.03    1.20
  -6  -8   6   11.52    0.72
   6  -8  -6   12.48    0.71
   6   8  -6   13.64    1.19
  -6   8   6   12.21    0.66
  -6   8   6   12.00    0.94
   5  -8  -6   71.30    2.80
  -5   8   6   74.95    3.24
   5   8  -6   70.97    3.59
   4   8  -6    9.15    0.85
  -3  -8   6    0.33    0.12
   3  -8  -6    0.03    0.09
   3   8  -6    1.57    0.39
  -3   8   6    0.01    0.06
  -2  -8   6    2.66    0.32
  -2   8   6    1.95    0.17
   2   8  -6    2.76    0.46
  -2   8   6    2.05    0.36
  -1  -8   6  165.74    6.25
   1  -8  -6  172.72    6.14
  -1   8   6  158.89    6.03
  -1   8   6  178.25    6.74
   1   8  -6  176.34    7.39
   0  -8   6   27.57    1.27
   0  -8  -6   28.63    1.19
   0   8   6   30.04    1.43
   0   8  -6   27.26    1.53
  -1  -8  -6   19.02    0.84
   1  -8   6   19.32    0.93
  -1   8  -6   14.87    1.07
   1   8   6   19.21    1.00
   2  -8   6    5.28    0.43
  -2  -8  -6    5.29    0.37
   2   8   6    5.60    0.47
  -2   8  -6    4.40    0.58
  -3  -8  -6   93.49    3.42
   3  -8   6   91.56    3.57
   3   8   6   89.96    3.73
  -3   8  -6   90.09    4.18
  -4  -8  -6    3.59    0.31
   4  -8   6    3.61    0.43
  -4   8  -6    3.73    0.53
   5  -8   6    0.14    0.20
  -5  -8  -6    0.24    0.15
  -5   8  -6    0.35    0.20
  -5   8  -6    0.57    0.30
  -6  -8  -6    2.89    0.33
  -6   8  -6    2.51    0.49
  -6   8  -6    2.79    0.42
  -7  -8  -6   61.39    2.48
  -7   8  -6   62.15    2.77
  -7   8  -6   63.66    3.11
  -8  -8  -6    0.92    0.52
  -8  -8  -6    1.11    0.25
  -8   8  -6    0.79    0.29
  -8   8  -6    1.23    0.43
  -9  -8  -6    2.52    0.36
  -9  -8  -6    1.29    0.59
  -9   8  -6    2.21    0.44
  -9   8  -6    2.92    0.58
 -10  -8  -6    4.80    0.94
 -10  -8  -6    5.47    0.55
 -10   8  -6    5.01    0.67
 -11  -8  -6   36.56    2.62
 -11  -8  -6   40.44    1.80
 -11   8  -6   40.43    2.10
 -11  -9   6   14.57    0.95
 -11   9   6   15.01    0.91
 -11   9   6   13.17    1.15
  10  -9  -6   39.17    1.85
 -10  -9   6   37.72    1.77
 -10   9   6   37.44    1.70
 -10   9   6   37.11    2.09
  -9  -9   6    8.46    0.66
   9  -9  -6    9.73    0.71
  -9   9   6    8.83    0.62
  -9   9   6    8.75    0.95
   8  -9  -6    1.13    0.30
  -8  -9   6    1.49    0.31
   8   9  -6    1.33    0.63
  -8   9   6    1.66    0.45
  -8   9   6    0.91    0.24
  -7  -9   6   13.02    0.79
   7  -9  -6   13.28    0.78
  -7   9   6   13.31    1.02
   7   9  -6   13.52    1.33
   6  -9  -6   26.36    1.22
  -6  -9   6   25.08    1.24
   6   9  -6   26.61    1.82
  -6   9   6   25.54    1.51
   5  -9  -6    0.97    0.22
  -5  -9   6    0.81    0.24
  -5   9   6    0.81    0.36
   5   9  -6    0.94    0.44
   2   9  -6  157.22    6.85
  -2   9   6  153.72    6.25
  -1  -9   6   10.40    0.63
   1   9  -6   10.71    0.85
  -1   9   6   10.81    0.76
   0  -9  -6   21.51    0.94
   0  -9   6   19.63    1.00
   0   9   6   20.42    1.13
  -1  -9  -6   27.56    1.21
   1  -9   6   29.04    1.07
   1  -9   6   27.48    1.31
   1   9   6   30.51    1.43
  -2  -9  -6   71.60    2.76
   2  -9   6   72.65    2.91
   2   9   6   73.00    3.06
  -2   9  -6   73.70    3.43
  -3  -9  -6    1.16    0.21
   3  -9   6    0.61    0.22
   3   9   6    1.03    0.25
  -3   9  -6    0.65    0.29
  -4  -9  -6   45.10    1.84
   4  -9   6   44.01    1.98
  -4   9  -6   47.63    2.35
  -4   9  -6   44.58    2.03
  -5  -9  -6   23.76    1.12
   5  -9   6   25.98    1.29
  -5   9  -6   24.68    1.28
  -5   9  -6   23.74    1.47
  -6  -9  -6   48.56    1.98
  -6   9  -6   47.18    2.20
  -6   9  -6   48.18    2.49
  -7  -9  -6    4.54    0.45
  -7   9  -6    3.38    0.60
  -7   9  -6    4.11    0.54
  -8  -9  -6   41.57    1.77
  -8   9  -6   39.08    2.23
  -8   9  -6   41.78    2.02
  -9  -9  -6   15.49    1.47
  -9  -9  -6   15.57    0.88
  -9   9  -6   14.94    1.05
  -9   9  -6   15.77    1.21
 -10  -9  -6    7.97    0.62
 -10  -9  -6    7.84    1.18
 -10   9  -6    8.32    0.78
 -11  -9  -6    2.26    0.73
 -11  -9  -6    2.67    0.42
 -11   9  -6    2.57    0.53
 -11 -10   6    9.84    0.78
 -11  10   6    8.29    1.01
 -11  10   6   11.46    0.75
 -10 -10   6    0.36    0.27
  10 -10  -6    0.47    0.27
 -10  10   6    0.52    0.25
 -10  10   6    0.19    0.35
  -9 -10   6   26.90    1.36
   9 -10  -6   27.71    1.39
  -9  10   6   24.96    1.61
  -9  10   6   26.27    1.27
   8 -10  -6   68.35    2.82
  -8 -10   6   67.95    2.83
   8  10  -6   70.52    3.95
  -8  10   6   68.71    3.24
   7 -10  -6    5.73    0.49
  -7 -10   6    5.57    0.51
  -7  10   6    4.40    0.67
   7  10  -6    5.92    1.02
  -6 -10   6   28.24    1.32
   6 -10  -6   25.98    1.25
   6  10  -6   28.04    1.93
  -6  10   6   26.19    1.57
  -5 -10   6   23.36    1.16
   5 -10  -6   24.16    1.12
   5  10  -6   24.57    1.69
  -5  10   6   23.16    1.42
   4 -10  -6   67.00    2.65
  -4 -10   6   66.98    2.73
   4  10  -6   68.66    3.46
  -4  10   6   70.59    3.12
   3 -10  -6    4.77    0.37
  -3  10   6    4.95    0.64
   3  10  -6    4.55    0.67
   0 -10   6   31.15    1.39
   0 -10   6   27.75    1.16
   0  10   6   33.86    1.56
  -1 -10  -6   12.47    0.64
   1 -10   6   12.39    0.74
  -1  10  -6   11.67    0.92
   1  10   6   11.53    0.77
  -2 -10  -6   32.50    1.35
   2 -10   6   31.31    1.46
  -2  10  -6   31.69    1.74
  -2  10  -6   31.38    1.44
   2  10   6   29.88    1.51
   3 -10   6   39.16    1.80
  -3 -10  -6   40.40    1.65
  -3  10  -6   41.17    2.12
   3  10   6   38.53    1.83
  -3  10  -6   40.94    1.81
   4 -10   6   27.23    1.34
  -4 -10  -6   25.78    1.18
  -4  10  -6   25.66    1.55
  -4  10  -6   26.57    1.32
   5 -10   6    0.58    0.26
  -5 -10  -6    0.43    0.18
  -5  10  -6    0.49    0.31
  -5  10  -6    0.72    0.24
  -6 -10  -6   48.23    1.98
  -6  10  -6   50.33    2.22
  -6  10  -6   43.90    2.44
  -7 -10  -6   36.79    1.63
  -7  10  -6   37.85    2.08
  -7  10  -6   37.31    1.85
  -8 -10  -6   16.26    0.89
  -8  10  -6   15.52    1.04
  -8  10  -6   15.22    1.19
  -9 -10  -6    1.36    0.30
  -9  10  -6    1.33    0.46
  -9  10  -6    1.28    0.39
 -10 -10  -6   25.42    2.02
 -10 -10  -6   26.61    1.32
 -10  10  -6   25.22    1.52
 -11 -11   6   36.12    1.83
 -11  11   6   36.98    1.77
 -11  11   6   44.37    2.31
 -10 -11   6   25.41    1.37
  10 -11  -6   27.47    1.43
 -10  11   6   27.37    1.70
 -10  11   6   24.80    1.29
   9 -11  -6   30.00    1.45
  -9 -11   6   27.75    1.42
  -9  11   6   25.78    1.69
   8 -11  -6    1.14    0.28
  -8 -11   6    0.61    0.28
  -8  11   6    1.07    0.44
   8  11  -6    1.26    0.70
  -7 -11   6   44.86    1.97
   7 -11  -6   46.04    1.95
  -7  11   6   45.09    2.33
   7  11  -6   42.72    2.86
   6 -11  -6    5.23    0.44
  -6 -11   6    5.34    0.48
   6  11  -6    4.07    0.82
  -6  11   6    6.17    0.78
  -5 -11   6   12.48    0.76
   5 -11  -6   11.28    0.68
  -5  11   6   12.23    0.97
   5  11  -6   12.30    1.22
  -4 -11   6    3.78    0.43
   4 -11  -6    3.42    0.37
  -4  11   6    3.80    0.61
   4  11  -6    3.59    0.68
   3 -11  -6  127.96    4.79
  -3 -11   6  128.52    4.91
  -3  11   6  131.01    5.39
   3  11  -6  130.71    5.94
   2 -11  -6    6.96    0.46
  -2  11   6    7.18    0.68
   2  11  -6    6.77    0.81
   0 -11   6    0.80    0.20
   0  11  -6    0.15    0.16
   1 -11   6  137.17    5.14
  -1 -11  -6  131.89    4.97
  -1  11  -6  132.83    5.26
   1  11   6  138.31    5.44
  -1  11  -6  135.83    6.03
   2 -11   6   37.04    1.72
  -2 -11  -6   36.88    1.58
  -2  11  -6   37.72    2.04
   2  11   6   38.43    1.79
  -2  11  -6   39.43    1.71
  -3 -11  -6    0.46    0.17
   3 -11   6    0.31    0.22
  -3  11  -6    0.22    0.28
  -3  11  -6    1.02    0.25
   3  11   6    0.24    0.19
   4 -11   6    2.36    0.40
  -4 -11  -6    3.02    0.35
  -4  11  -6    2.67    0.49
  -4  11  -6    2.45    0.37
   5 -11   6  126.99    4.92
  -5 -11  -6  125.51    4.70
  -5  11  -6  124.86    5.67
  -5  11  -6  124.75    5.07
  -6 -11  -6    0.88    0.24
  -6  11  -6    1.54    0.34
  -6  11  -6    0.17    0.31
  -7 -11  -6    0.00    0.15
  -7  11  -6    0.64    0.29
  -7  11  -6   -0.02    0.29
  -8 -11  -6    6.32    0.53
  -8  11  -6    7.30    0.69
  -8  11  -6    6.37    0.82
  -9 -11  -6   54.72    2.29
  -9  11  -6   51.56    2.79
  -9  11  -6   53.96    2.57
 -10 -11  -6    4.55    0.53
 -10 -11  -6    3.83    0.90
 -10  11  -6    3.84    0.62
 -11 -12   6    0.60    0.31
 -11  12   6    0.17    0.40
 -11  12   6    0.33    0.28
 -10 -12   6    0.38    0.27
  10 -12  -6    0.01    0.21
 -10  12   6    0.45    0.41
 -10  12   6    0.26    0.23
  -9 -12   6    0.87    0.30
   9 -12  -6    1.23    0.35
  -9  12   6    1.36    0.50
  -8 -12   6   49.38    2.24
   8 -12  -6   54.69    2.25
  -8  12   6   48.41    2.60
   8  12  -6   53.47    3.37
  -7 -12   6    1.18    0.32
   7 -12  -6    1.31    0.29
   7  12  -6    1.42    0.66
  -7  12   6    1.59    0.47
   6 -12  -6   22.75    1.15
  -6 -12   6   23.51    1.21
   6  12  -6   24.41    1.90
  -6  12   6   24.20    1.50
  -5 -12   6    1.49    0.30
   5 -12  -6    1.30    0.26
   5  12  -6    1.89    0.61
  -5  12   6    1.31    0.43
   4 -12  -6   97.00    3.71
  -4 -12   6   98.65    3.82
   4  12  -6   99.01    4.80
  -4  12   6   95.03    4.24
   3 -12  -6    0.56    0.18
  -3 -12   6    0.74    0.22
  -3  12   6    0.54    0.32
   3  12  -6    0.44    0.40
  -2 -12   6   24.37    1.23
   2 -12  -6   25.16    1.15
  -2 -12   6   26.31    1.10
   2  12  -6   24.55    1.61
  -2  12   6   26.14    1.47
   1 -12  -6    0.16    0.13
  -1 -12   6   -0.27    0.15
  -1 -12   6    0.17    0.10
   1  12  -6    0.11    0.31
   1  12  -6    0.35    0.13
  -1  12   6    0.00    0.19
   0 -12   6  109.89    4.18
   0 -12  -6  105.19    4.02
   0  12  -6  102.09    4.20
   0  12  -6  110.50    4.97
   0  12   6  112.01    4.49
  -1 -12  -6    3.01    0.33
   1 -12   6    3.50    0.45
  -1  12  -6    2.84    0.35
  -1  12  -6    2.49    0.50
   1  12   6    2.99    0.45
   2 -12   6   46.38    2.15
  -2 -12  -6   50.12    2.02
   2  12   6   51.20    2.26
  -2  12  -6   49.74    2.56
  -2  12  -6   51.52    2.16
  -3 -12  -6    2.53    0.33
   3 -12   6    2.61    0.41
  -3  12  -6    3.25    0.41
  -3  12  -6    2.48    0.49
   3  12   6    2.80    0.41
   4 -12   6   50.23    2.18
  -4 -12  -6   46.80    1.98
  -4  12  -6   50.35    2.51
  -4  12  -6   45.58    2.13
   5 -12   6    0.13    0.22
  -5 -12  -6    0.26    0.18
  -5  12  -6    0.28    0.20
  -5  12  -6   -0.02    0.30
  -6 -12  -6   28.55    1.33
  -6  12  -6   28.12    1.69
  -6  12  -6   27.80    1.48
  -7 -12  -6    3.91    0.45
  -7  12  -6    3.81    0.63
  -7  12  -6    3.40    0.54
  -8 -12  -6   25.47    1.29
  -8  12  -6   27.13    1.50
  -8  12  -6   26.66    1.67
  -9 -12  -6    0.06    0.17
  -9  12  -6    0.18    0.28
 -10 -12  -6   38.64    1.79
 -10  12  -6   37.38    2.05
  10 -13  -6    2.30    0.45
 -10 -13   6    2.80    0.48
 -10  13   6    2.50    0.63
   9 -13  -6   15.38    0.95
  -9 -13   6   12.67    0.90
  -9  13   6   13.23    1.16
   8 -13  -6    0.38    0.23
  -8 -13   6    0.35    0.27
  -8  13   6    0.77    0.44
   8  13  -6    0.24    0.62
  -7 -13   6   34.74    1.69
   7 -13  -6   36.39    1.67
   7  13  -6   38.49    2.70
  -7  13   6   37.52    2.07
   6 -13  -6   15.24    0.84
  -6 -13   6   14.53    0.88
  -6  13   6   12.38    1.07
   6  13  -6   14.66    1.51
   5 -13  -6   20.57    1.03
  -5 -13   6   20.09    1.08
  -5  13   6   19.07    1.32
   5  13  -6   20.65    1.70
  -4 -13   6    2.78    0.40
   4 -13  -6    2.64    0.34
  -4  13   6    3.68    0.62
   4  13  -6    3.25    0.73
   3 -13  -6  119.92    4.49
  -3 -13   6  122.85    4.62
  -3 -13   6  117.09    4.44
  -3  13   6  120.76    5.10
   3  13  -6  119.27    5.68
  -2 -13   6    0.28    0.13
  -2 -13   6    0.16    0.18
   2 -13  -6   -0.05    0.12
  -2  13   6    0.45    0.28
   2  13  -6    0.16    0.32
   1 -13  -6    0.45    0.17
  -1 -13   6    0.44    0.13
  -1 -13   6    0.36    0.21
   1  13  -6   -0.07    0.28
  -1  13   6    0.40    0.26
   0 -13   6    2.59    0.39
   0 -13  -6    2.56    0.32
   0  13   6    2.29    0.42
   0  13  -6    1.99    0.27
   0  13  -6    1.73    0.48
   1 -13   6  139.47    5.49
  -1 -13  -6  138.11    5.31
   1  13   6  153.28    5.84
  -1  13  -6  145.88    5.62
  -1  13  -6  144.77    6.48
   2 -13   6    0.55    0.27
  -2 -13  -6    0.94    0.21
  -2  13  -6    0.73    0.35
   2  13   6    0.68    0.25
  -2  13  -6    1.07    0.25
   3 -13   6   -0.13    0.16
  -3 -13  -6    0.03    0.14
   3  13   6    0.11    0.17
  -3  13  -6    0.22    0.18
  -3  13  -6    0.39    0.32
   4 -13   6    2.43    0.43
  -4 -13  -6    2.22    0.32
   4  13   6    2.76    0.42
  -4  13  -6    2.46    0.51
  -4  13  -6    2.93    0.42
   5 -13   6   45.69    2.10
  -5 -13  -6   42.52    1.87
  -5  13  -6   46.75    2.08
  -5  13  -6   42.15    2.35
  -6 -13  -6    4.17    0.46
  -6  13  -6    4.10    0.54
  -6  13  -6    3.51    0.62
  -7 -13  -6    0.21    0.20
  -7  13  -6    0.69    0.38
  -7  13  -6    0.25    0.27
  -8 -13  -6    0.33    0.23
  -8  13  -6   -0.26    0.32
  -8  13  -6    0.08    0.25
  -9 -13  -6   38.94    1.80
  -9  13  -6   38.95    2.05
  10 -14  -6    1.68    0.41
 -10 -14   6    2.58    0.48
 -10  14   6    3.33    0.73
  -9 -14   6    2.60    0.47
   9 -14  -6    3.29    0.49
  -9  14   6    2.61    0.63
   8 -14  -6   53.45    2.30
  -8 -14   6   51.76    2.33
  -8  14   6   51.82    2.73
   8  14  -6   53.95    3.56
  -7 -14   6    3.95    0.51
   7 -14  -6    3.44    0.45
  -7  14   6    4.83    0.76
   7  14  -6    4.38    1.04
  -6 -14   6   17.48    1.02
   6 -14  -6   17.69    0.96
  -6  14   6   17.04    1.26
   6  14  -6   16.74    1.68
  -5 -14   6    7.37    0.54
   5 -14  -6    7.37    0.55
  -5 -14   6    7.29    0.60
  -5  14   6    7.24    0.87
   5  14  -6    8.05    1.17
   4 -14  -6  121.17    4.65
  -4 -14   6  124.33    4.62
  -4 -14   6  120.35    4.76
   4  14  -6  128.96    6.05
  -4  14   6  123.96    5.29
  -3 -14   6    7.68    0.50
  -3 -14   6    7.84    0.62
   3 -14  -6    8.31    0.54
   3  14  -6    6.64    0.99
  -3  14   6    7.49    0.87
  -2 -14   6   10.03    0.58
   2 -14  -6   11.61    0.67
  -2 -14   6   11.43    0.76
  -2  14   6   11.52    0.91
   2  14  -6   10.37    1.06
  -1 -14   6    6.72    0.59
   1 -14  -6    7.84    0.52
  -1  14   6    8.64    0.74
   1  14  -6    7.43    0.90
   0 -14   6   18.68    1.10
   0 -14  -6   20.86    1.00
   0  14   6   21.93    1.25
   0  14  -6   20.70    1.43
   1 -14   6   -0.10    0.17
  -1 -14  -6    0.42    0.18
  -1  14  -6    0.33    0.17
   1  14   6    0.04    0.17
  -1  14  -6   -0.31    0.25
  -2 -14  -6   50.47    2.16
   2 -14   6   51.70    2.33
   2  14   6   56.04    2.42
  -2  14  -6   53.55    2.29
  -2  14  -6   53.95    2.76
  -3 -14  -6   22.94    1.13
   3 -14   6   24.52    1.31
  -3  14  -6   23.03    1.50
   3  14   6   24.34    1.28
  -3  14  -6   23.42    1.22
  -4 -14  -6   38.05    1.67
   4 -14   6   39.50    1.88
  -4  14  -6   38.09    2.13
  -4  14  -6   37.75    1.80
   4  14   6   37.42    1.82
  -5 -14  -6    0.32    0.20
   5 -14   6   -0.03    0.23
  -5  14  -6    0.13    0.32
  -5  14  -6    0.38    0.23
  -6 -14  -6   28.99    1.38
  -6  14  -6   27.03    1.73
  -6  14  -6   29.16    1.53
  -7 -14  -6   19.67    1.07
  -7  14  -6   21.10    1.25
  -7  14  -6   17.68    1.36
  -8 -14  -6   19.43    1.07
  -8  14  -6   19.17    1.38
  -8  14  -6   17.37    1.20
  -9 -14  -6    1.08    0.31
  -9  14  -6    0.96    0.38
  -9 -15   6    4.80    0.59
   9 -15  -6    5.63    0.63
  -9 -15   6    5.63    0.66
  -9  15   6    4.59    0.80
  -8 -15   6    2.23    0.41
   8 -15  -6    2.97    0.45
  -8 -15   6    2.32    0.45
  -8  15   6    3.11    0.66
   8  15  -6    2.56    0.95
  -7 -15   6   33.79    1.64
   7 -15  -6   34.50    1.58
  -7 -15   6   31.76    1.55
   7  15  -6   35.43    2.69
  -7  15   6   30.36    1.93
  -6 -15   6   29.42    1.40
  -6 -15   6   29.04    1.48
   6 -15  -6   29.44    1.40
  -6  15   6   28.49    1.78
   6  15  -6   30.40    2.36
   5 -15  -6    9.24    0.63
  -5 -15   6    8.90    0.62
  -5 -15   6    9.46    0.71
  -5  15   6    9.67    0.93
   5  15  -6   11.39    1.43
   4 -15  -6    1.32    0.28
  -4 -15   6    1.64    0.28
  -4 -15   6    1.09    0.29
   4  15  -6    0.98    0.56
  -4  15   6    1.05    0.42
   3 -15  -6   80.31    3.16
  -3 -15   6   80.61    3.11
  -3 -15   6   77.65    3.28
   3  15  -6   81.66    4.24
  -3  15   6   87.35    3.74
  -2 -15   6   22.96    1.26
  -2 -15   6   25.75    1.10
   2 -15  -6   24.08    1.16
  -2  15   6   25.43    1.51
   2  15  -6   24.53    1.75
  -1 -15   6    2.14    0.39
   1 -15  -6    2.59    0.34
   1  15  -6    2.34    0.57
  -1  15   6    2.45    0.48
   0 -15  -6    4.22    0.38
   0 -15   6    4.18    0.52
   0  15   6    4.51    0.58
   0  15  -6    3.44    0.65
  -1 -15  -6   54.62    2.28
   1 -15   6   55.56    2.46
   1  15   6   57.89    2.59
  -1  15  -6   60.56    3.00
  -1  15  -6   54.58    2.37
   2 -15   6   15.91    1.00
  -2 -15  -6   15.35    0.84
   2  15   6   16.32    0.99
  -2  15  -6   15.04    1.20
  -2  15  -6   15.35    0.89
  -3 -15  -6    1.20    0.26
   3 -15   6    1.25    0.34
  -3  15  -6    1.01    0.28
  -3  15  -6    0.93    0.41
   3  15   6    1.38    0.32
   4 -15   6   32.82    1.64
  -4 -15  -6   31.14    1.43
  -4  15  -6   28.65    1.82
  -4  15  -6   30.74    1.55
   4  15   6   31.31    1.57
  -5 -15  -6   53.15    2.20
   5 -15   6   49.69    2.38
  -5  15  -6   51.10    2.37
  -5  15  -6   51.78    2.73
  -6 -15  -6   18.66    1.02
  -6  15  -6   18.51    1.34
  -6  15  -6   17.22    1.12
  -7 -15  -6    1.65    0.35
  -7  15  -6    1.47    0.39
  -7  15  -6    0.91    0.44
  -8 -15  -6   11.56    0.79
  -8  15  -6   10.88    0.90
  -9 -15  -6   34.59    1.68
   9 -16  -6   24.70    1.31
  -9 -16   6   21.99    1.28
  -9 -16   6   23.52    1.33
  -9  16   6   22.73    1.66
  -8 -16   6   20.37    1.19
  -8 -16   6   21.61    1.25
   8 -16  -6   23.35    1.21
   8  16  -6   25.48    2.34
  -8  16   6   19.20    1.51
  -7 -16   6   10.57    0.77
  -7 -16   6   11.15    0.84
   7 -16  -6   12.60    0.80
  -7  16   6   13.06    1.13
   7  16  -6   12.28    1.74
   6 -16  -6   13.19    0.82
  -6 -16   6   13.30    0.90
  -6 -16   6   12.53    0.81
   6  16  -6   17.13    1.75
  -6  16   6   13.48    1.15
  -5 -16   6   29.45    1.56
   5 -16  -6   33.15    1.51
  -5 -16   6   33.61    1.50
  -5  16   6   31.39    1.90
   5  16  -6   36.58    2.52
   4 -16  -6   21.56    1.09
  -4 -16   6   20.21    1.17
  -4 -16   6   21.39    1.05
  -4  16   6   22.55    1.47
   4  16  -6   22.04    1.84
  -3 -16   6    2.97    0.35
   3 -16  -6    3.30    0.39
  -3 -16   6    2.69    0.43
  -3  16   6    2.70    0.57
   3  16  -6    2.99    0.74
  -2 -16   6   12.83    0.86
   2 -16  -6   13.63    0.78
   2  16  -6   14.44    1.33
  -2  16   6   13.26    1.04
  -1 -16   6   50.20    2.25
   1 -16  -6   48.63    2.10
  -1  16   6   53.61    2.51
   1  16  -6   51.90    2.87
   0 -16  -6   10.28    0.66
   0 -16   6    9.93    0.76
   0  16  -6   10.14    1.05
   0  16   6   12.91    0.91
   1 -16   6    0.74    0.31
  -1 -16  -6    0.86    0.23
  -1  16  -6    0.71    0.41
   1  16   6    1.02    0.31
  -2 -16  -6   15.38    0.85
   2 -16   6   15.31    1.01
  -2  16  -6   16.22    0.91
  -2  16  -6   15.76    1.25
   2  16   6   14.93    0.98
  -3 -16  -6   57.07    2.42
   3 -16   6   61.95    2.65
   3  16   6   59.14    2.64
  -3  16  -6   57.49    2.57
  -3  16  -6   60.84    3.10
   4 -16   6   14.65    1.05
  -4 -16  -6   16.61    0.92
  -4  16  -6   15.23    1.24
  -4  16  -6   18.30    1.03
  -5 -16  -6    0.06    0.19
   5 -16   6    0.21    0.29
  -5  16  -6    0.23    0.23
  -5  16  -6   -0.30    0.30
  -6 -16  -6   12.09    0.80
  -6  16  -6   12.89    1.10
  -6  16  -6   11.69    0.89
  -7 -16  -6   22.39    1.18
  -7  16  -6   19.97    1.48
  -7  16  -6   22.10    1.33
  -8 -16  -6    5.71    0.62
  -8  16  -6    6.67    0.79
  -8 -17   6    5.50    0.66
   8 -17  -6    4.74    0.57
  -8 -17   6    5.53    0.62
  -8  17   6    4.34    0.79
   7 -17  -6    8.55    0.65
  -7 -17   6    8.59    0.67
  -7 -17   6    7.89    0.72
   7  17  -6    8.47    1.52
  -7  17   6    7.58    0.99
   6 -17  -6   61.29    2.55
  -6 -17   6   61.68    2.55
  -6 -17   6   58.12    2.63
   6  17  -6   64.75    3.99
  -6  17   6   59.78    3.06
  -5 -17   6    0.14    0.17
  -5 -17   6    0.22    0.26
   5 -17  -6   -0.08    0.17
   5  17  -6    0.37    0.56
  -5  17   6   -0.15    0.28
  -4 -17   6   15.48    0.97
   4 -17  -6   16.89    0.90
  -4 -17   6   14.66    0.83
   4  17  -6   12.65    1.60
  -4  17   6   14.84    1.19
  -3 -17   6   12.29    0.69
  -3 -17   6   10.94    0.81
   3 -17  -6   11.81    0.73
   3  17  -6   12.80    1.49
  -3  17   6   13.18    1.06
  -2 -17   6   36.06    1.76
   2 -17  -6   36.56    1.63
  -2  17   6   36.20    2.00
   2  17  -6   38.37    2.43
   1 -17  -6    0.18    0.18
  -1 -17   6   -0.15    0.18
   1  17  -6    0.04    0.38
  -1  17   6    0.37    0.29
   0 -17   6   10.67    0.82
   0 -17  -6   11.97    0.72
   0  17  -6   12.39    1.18
   0  17   6   13.35    0.95
  -1 -17  -6    9.59    0.63
   1 -17   6    9.02    0.74
   1  17   6    9.45    0.77
  -1  17  -6    8.82    1.05
  -2 -17  -6   30.85    1.45
   2 -17   6   32.84    1.65
  -2  17  -6   30.95    1.97
   2  17   6   30.62    1.61
  -3 -17  -6    1.12    0.26
   3 -17   6    1.30    0.38
  -3  17  -6    1.16    0.30
  -3  17  -6    1.02    0.46
  -4 -17  -6   32.01    1.51
   4 -17   6   32.40    1.72
  -4  17  -6   32.58    1.99
  -4  17  -6   31.59    1.62
   5 -17   6    9.70    0.84
  -5 -17  -6   10.78    0.73
  -5  17  -6    9.60    1.00
  -5  17  -6   10.05    0.79
  -6 -17  -6    8.06    0.63
  -6  17  -6    7.30    0.94
  -6  17  -6    7.46    0.71
  -7 -17  -6    0.52    0.26
  -7  17  -6    0.38    0.42
  -7  17  -6    0.27    0.30
   7 -18  -6    9.70    0.72
  -7 -18   6   10.90    0.76
  -7 -18   6    8.95    0.79
  -7  18   6    8.77    1.11
   7  18  -6   10.81    1.74
   6 -18  -6    0.63    0.27
  -6 -18   6    0.69    0.30
  -6 -18   6    1.10    0.30
   6  18  -6    0.90    0.78
   5 -18  -6   40.78    1.82
  -5 -18   6   39.76    1.94
  -5 -18   6   39.28    1.79
   5  18  -6   42.30    2.99
  -5  18   6   43.07    2.33
  -4 -18   6    1.58    0.38
  -4 -18   6    1.22    0.27
   4 -18  -6    1.60    0.32
  -4  18   6    2.10    0.54
   4  18  -6    0.65    0.63
  -3 -18   6    3.02    0.47
   3 -18  -6    3.34    0.42
   3  18  -6    3.12    0.82
  -3  18   6    3.27    0.62
   2 -18  -6    1.28    0.27
  -2 -18   6    0.57    0.32
  -2  18   6    0.65    0.33
   2  18  -6    1.16    0.60
   1 -18  -6   38.00    1.69
  -1 -18   6   36.42    1.83
   1  18  -6   39.01    2.46
  -1  18   6   37.82    2.02
   0 -18  -6    6.54    0.52
   0 -18   6    7.54    0.67
   0  18  -6    5.40    0.90
   0  18   6    8.09    0.74
   1 -18   6    2.15    0.46
  -1 -18  -6    1.90    0.33
   1  18   6    2.20    0.44
  -1  18  -6    2.30    0.63
  -2 -18  -6    0.17    0.17
   2 -18   6    0.05    0.26
   2  18   6    0.12    0.22
  -2  18  -6    0.25    0.40
   3 -18   6   68.00    3.01
  -3 -18  -6   68.56    2.79
  -3  18  -6   67.17    3.54
  -4 -18  -6    1.08    0.29
   4 -18   6    0.85    0.36
  -4  18  -6    1.11    0.33
  -4  18  -6    1.10    0.47
   5 -18   6    4.88    0.68
  -5 -18  -6    4.53    0.53
  -5  18  -6    4.48    0.77
  -5  18  -6    4.02    0.57
  -6 -18  -6    0.32    0.23
  -6  18  -6    0.62    0.45
  -6  18  -6    0.86    0.35
  -7 -18  -6   37.71    1.77
  -7  18  -6   36.40    1.95
  -7  18  -6   34.62    2.19
   7 -19  -6    0.06    0.21
  -7 -19   6   -0.05    0.20
   7  19  -6   -0.06    0.74
  -7  19   6   -0.15    0.39
  -6 -19   6   37.29    1.76
  -6 -19   6   37.88    1.89
   6 -19  -6   38.07    1.77
  -6  19   6   38.27    2.25
   6  19  -6   41.56    3.14
   5 -19  -6    0.79    0.27
  -5 -19   6    0.32    0.29
  -5 -19   6    0.34    0.22
  -5  19   6    1.05    0.48
   5  19  -6    0.63    0.70
  -4 -19   6    5.16    0.64
   4 -19  -6    5.39    0.55
  -4  19   6    5.31    0.81
   4  19  -6    4.66    1.11
   3 -19  -6    0.40    0.22
  -3 -19   6    0.21    0.29
   3  19  -6    0.33    0.61
  -3  19   6    0.54    0.35
  -2 -19   6   30.54    1.64
   2 -19  -6   33.37    1.52
  -2  19   6   33.77    1.89
   2  19  -6   31.47    2.32
   1 -19  -6    1.28    0.28
  -1 -19   6    1.20    0.36
  -1  19   6    1.57    0.42
   1  19  -6    0.70    0.57
   0 -19  -6   13.27    0.79
   0 -19   6   12.16    0.92
   0  19   6   13.41    1.01
   0  19  -6   13.63    1.35
   1 -19   6   -0.26    0.21
  -1 -19  -6    0.46    0.21
  -1  19  -6    0.10    0.41
   1  19   6    0.38    0.25
   2 -19   6   24.71    1.43
  -2 -19  -6   23.43    1.23
  -2  19  -6   26.19    1.82
   3 -19   6    0.04    0.26
  -3 -19  -6   -0.05    0.19
  -3  19  -6   -0.31    0.37
  -4 -19  -6   39.93    1.83
   4 -19   6   40.56    2.07
  -4  19  -6   38.93    2.40
  -5 -19  -6    0.94    0.30
   5 -19   6    0.61    0.38
  -5  19  -6    1.07    0.36
  -5  19  -6    1.45    0.55
  -6 -19  -6   29.34    1.50
  -6  19  -6   29.74    1.97
  -6  19  -6   29.55    1.66
   6 -20  -6    0.08    0.22
  -6 -20   6    0.03    0.20
  -6  20   6    0.00    0.39
   5 -20  -6   24.72    1.29
  -5 -20   6   25.54    1.43
  -5  20   6   25.22    1.71
   5  20  -6   27.19    2.47
  -4 -20   6    5.87    0.69
   4 -20  -6    5.93    0.53
   4  20  -6    5.35    1.21
  -4  20   6    6.80    0.90
  -3 -20   6    5.61    0.67
   3 -20  -6    5.98    0.51
  -3  20   6    5.59    0.82
   3  20  -6    5.68    1.13
  -2 -20   6    0.79    0.34
   2 -20  -6    0.64    0.26
  -2  20   6    0.82    0.37
   2  20  -6    0.25    0.54
  -1 -20   6   64.10    2.91
   1 -20  -6   65.53    2.72
   1  20  -6   66.39    3.81
  -1  20   6   69.77    3.18
   0 -20  -6    1.85    0.34
   0 -20   6    1.00    0.41
   0  20   6    1.88    0.46
   0  20  -6    1.65    0.67
   1 -20   6    0.94    0.39
  -1 -20  -6    0.93    0.27
  -1  20  -6    0.96    0.56
   2 -20   6    1.12    0.40
  -2 -20  -6    0.75    0.26
  -2  20  -6    0.98    0.55
  -3 -20  -6   42.17    1.97
   3 -20   6   47.37    2.25
  -3  20  -6   43.57    2.67
   4 -20   6    0.67    0.37
  -4 -20  -6    0.38    0.23
  -4  20  -6    0.81    0.52
   5 -20   6    0.20    0.37
  -5 -20  -6    0.20    0.22
  -5  20  -6    0.59    0.50
  -4 -21   6    1.93    0.46
   4 -21  -6    2.50    0.41
  -4  21   6    4.11    0.73
   4  21  -6    2.04    0.93
   3 -21  -6   18.95    1.06
  -3 -21   6   19.55    1.22
  -3  21   6   18.56    1.39
   3  21  -6   20.21    2.00
  -2 -21   6   32.78    1.76
   2 -21  -6   34.08    1.60
   2  21  -6   33.08    2.55
  -2  21   6   35.03    1.98
  -1 -21   6    0.78    0.37
   1 -21  -6    0.75    0.26
   1  21  -6    1.19    0.65
  -1  21   6    1.13    0.39
   0 -21   6   10.85    0.89
   0 -21  -6    9.32    0.68
   0  21  -6    8.85    1.27
  -1 -21  -6   13.44    0.85
   1 -21   6   14.77    1.07
  -1  21  -6   14.03    1.45
   2 -21   6   19.65    1.27
  -2 -21  -6   18.43    1.05
  -2  21  -6   18.35    1.63
   3 -21   6   -0.16    0.31
  -3 -21  -6   -0.08    0.20
  -3  21  -6   -0.42    0.43
  -4 -21  -6   15.40    0.96
   2 -22  -6    5.82    0.60
  -2 -22   6    6.15    0.75
   2  22  -6    3.70    1.04
  -2  22   6    5.35    0.79
  -1 -22   6   17.65    1.21
   1 -22  -6   18.70    1.04
   1  22  -6   16.69    1.79
   0 -22  -6   10.95    0.76
   0 -22   6   11.77    0.97
   0  22  -6    9.93    1.42
   1 -22   6    0.57    0.37
  -1 -22  -6    0.68    0.27
  -1  22  -6    0.07    0.53
  -2 -22  -6   13.95    0.89
 -12   0   7   -0.22    0.23
 -11   0   7   89.10    3.57
 -10   0   7   -0.05    0.21
  -9   0   7    3.02    0.39
  -9   0   7    3.57    0.50
  -8   0   7    0.02    0.21
  -8   0   7   -0.46    0.15
  -7   0   7   86.73    3.29
  -7   0   7   83.79    3.55
  -6   0   7    0.26    0.19
   6   0  -7    0.10    0.14
  -6   0   7   -0.10    0.14
  -5   0   7   77.30    3.11
   5   0  -7   72.78    2.88
  -5   0   7   73.46    2.84
  -4   0   7   -0.01    0.11
   4   0  -7    0.22    0.12
   4   0  -7    0.14    0.16
  -4   0   7    0.10    0.11
  -3   0   7  351.42   13.63
   3   0  -7  364.53   15.00
  -3   0   7  358.74   12.82
   3   0  -7  365.44   12.77
   2   0  -7    0.19    0.10
  -2   0   7   -0.10    0.10
  -2   0   7   -0.24    0.10
   2   0  -7   -0.64    0.19
   1   0  -7   40.29    1.94
  -1   0   7   40.40    1.73
   1   0  -7   40.37    1.53
  -1   0   7   36.49    1.53
   0   0   7    0.18    0.13
   0   0  -7   -0.04    0.06
   0   0  -7    0.10    0.18
   0   0   7    0.06    0.06
  -1   0  -7  261.50   11.26
   1   0   7  263.75    9.47
  -1   0  -7  271.03    9.38
  -2   0  -7    3.87    0.58
  -4   0  -7    0.06    0.07
  -4   0  -7   -0.09    0.20
  -5   0  -7   35.82    2.08
  -5   0  -7   37.11    1.41
  -6   0  -7    0.22    0.10
  -6   0  -7   -0.98    0.30
  -7   0  -7   86.82    4.29
  -8   0  -7    0.17    0.37
  -9   0  -7   35.96    2.27
 -10   0  -7   -0.51    0.43
 -10   0  -7    0.05    0.24
 -11   0  -7   12.66    1.00
 -11   0  -7   15.67    1.41
 -12  -1   7   15.11    0.97
 -12   1   7   16.96    1.01
 -11  -1   7   -0.71    0.21
 -11   1   7   -0.72    0.18
 -10  -1   7   51.42    2.21
 -10   1   7   50.64    2.42
 -10   1   7   52.33    2.20
  -9  -1   7   26.50    1.36
  -9  -1   7   24.74    1.21
  -9   1   7   25.18    1.21
  -9   1   7   23.79    1.37
  -8  -1   7  125.99    5.06
  -8  -1   7  127.30    4.74
  -8   1   7  124.15    4.72
  -8   1   7  124.32    5.12
  -7  -1   7   -0.10    0.17
  -7  -1   7   -0.24    0.14
  -7   1   7   -0.13    0.20
  -7   1   7   -0.29    0.14
  -6  -1   7   87.57    3.61
   6  -1  -7   85.64    3.41
  -6  -1   7   93.47    3.39
  -6   1   7   84.65    3.66
  -6   1   7   90.34    3.36
   5  -1  -7    1.23    0.23
  -5  -1   7    1.96    0.31
  -5  -1   7    1.44    0.24
   5  -1  -7    1.18    0.24
  -5   1   7    1.43    0.22
  -5   1   7    1.36    0.29
   5   1  -7    1.83    0.27
   4  -1  -7    6.45    0.42
  -4  -1   7    6.22    0.41
  -4  -1   7    6.05    0.46
  -4   1   7    5.65    0.39
  -4   1   7    6.34    0.50
   4   1  -7    6.10    0.53
   4   1  -7    6.64    0.43
   3  -1  -7   -0.56    0.18
  -3  -1   7   -0.15    0.12
   3  -1  -7    0.29    0.13
  -3  -1   7    0.23    0.15
   3   1  -7    0.75    0.17
  -3   1   7    0.22    0.13
   3   1  -7   -0.35    0.18
  -3   1   7    0.29    0.16
  -2  -1   7  181.21    6.93
   2  -1  -7  180.37    6.45
   2  -1  -7  184.15    7.65
  -2  -1   7  175.46    6.49
  -2   1   7  177.53    6.46
   2   1  -7  180.03    7.65
   2   1  -7  179.06    6.44
  -2   1   7  179.17    6.96
   1  -1  -7    2.14    0.22
  -1  -1   7    1.92    0.23
   1  -1  -7    1.53    0.32
  -1  -1   7    2.12    0.28
   1   1  -7    2.24    0.37
  -1   1   7    1.83    0.28
   1   1  -7    2.35    0.20
   0  -1  -7   13.93    0.61
   0  -1  -7   13.78    0.90
   0  -1   7   13.00    0.63
   0   1   7   13.93    0.77
   0   1  -7   13.66    0.90
   0   1  -7   13.08    0.59
   0   1   7   12.91    0.60
  -1  -1  -7    2.16    0.18
  -1   1  -7    2.18    0.18
   1   1   7    1.89    0.20
  -1   1  -7    2.34    0.41
  -2  -1  -7  276.28   11.36
  -2  -1  -7  261.62    9.39
  -2   1  -7  270.05    9.37
   2   1   7  250.61    9.45
  -2   1  -7  271.64   11.33
   3  -1   7    0.84    0.17
  -3  -1  -7    1.12    0.15
  -3   1  -7    1.16    0.13
  -4  -1  -7    0.00    0.13
  -4  -1  -7    0.18    0.09
  -4   1  -7    0.38    0.29
  -4   1  -7    0.34    0.09
  -5  -1  -7    2.50    0.22
  -5  -1  -7    1.41    0.49
  -5   1  -7    1.76    0.51
  -5   1  -7    2.06    0.18
  -6  -1  -7  128.24    6.02
  -6  -1  -7  135.18    4.71
  -6   1  -7  124.86    5.96
  -7  -1  -7   27.06    1.10
  -7  -1  -7   24.81    1.77
  -7   1  -7   24.51    1.72
  -8  -1  -7    1.79    0.58
  -8   1  -7    2.43    0.63
  -9  -1  -7    1.41    0.61
  -9   1  -7    1.58    0.59
 -10  -1  -7   56.75    3.21
 -10   1  -7   57.86    3.16
 -10   1  -7   53.94    2.62
 -11  -1  -7    0.55    0.33
 -11  -1  -7    0.96    0.56
 -11   1  -7    0.77    0.54
 -11   1  -7    0.41    0.31
 -12  -2   7    7.19    0.65
 -12   2   7    6.63    0.66
 -11  -2   7   67.66    2.79
 -11   2   7   68.10    3.09
 -11   2   7   65.07    2.76
 -10  -2   7   13.46    0.82
 -10   2   7   14.10    1.00
 -10   2   7   12.63    0.81
  -9  -2   7    0.75    0.25
  -9   2   7    0.65    0.32
  -9   2   7    0.53    0.23
  -8  -2   7   25.54    1.33
  -8  -2   7   26.63    1.26
  -8   2   7   26.46    1.23
  -8   2   7   26.40    1.44
   7  -2  -7   47.16    1.99
  -7  -2   7   45.45    1.91
  -7  -2   7   45.12    2.03
  -7   2   7   47.42    1.90
  -7   2   7   44.88    2.15
  -6  -2   7    9.93    0.61
   6  -2  -7   11.63    0.67
  -6  -2   7   10.32    0.66
  -6   2   7    9.55    0.74
   6   2  -7   10.34    0.80
  -6   2   7   10.49    0.60
  -5  -2   7   14.39    0.79
  -5  -2   7   15.20    0.75
   5  -2  -7   13.95    0.76
   5  -2  -7   14.07    0.80
  -5   2   7   14.30    0.71
  -5   2   7   15.02    0.90
   5   2  -7   12.94    0.89
  -4  -2   7   32.70    1.46
  -4  -2   7   32.69    1.38
   4  -2  -7   28.58    1.53
   4  -2  -7   32.25    1.37
   4   2  -7   32.88    1.65
   4   2  -7   35.12    1.41
  -4   2   7   34.11    1.34
  -4   2   7   33.37    1.56
   3  -2  -7   84.02    3.09
  -3  -2   7   86.26    3.13
   3  -2  -7   70.85    3.59
  -3  -2   7   82.92    3.31
   3   2  -7   83.62    3.10
  -3   2   7   83.76    3.40
  -3   2   7   83.15    3.06
   3   2  -7   85.62    3.70
   2  -2  -7    0.64    0.15
  -2  -2   7    0.79    0.19
   2  -2  -7    0.91    0.28
  -2  -2   7    0.95    0.20
   2   2  -7    1.01    0.17
   2   2  -7    0.70    0.26
  -2   2   7    0.80    0.21
  -2   2   7    0.96    0.16
  -1  -2   7   26.32    1.20
  -1  -2   7   24.76    1.09
   1  -2  -7   25.72    1.05
   1  -2  -7   24.88    1.36
   1   2  -7   24.99    1.04
  -1   2   7   23.67    1.02
  -1   2   7   26.26    1.24
   1   2  -7   28.22    1.40
   0  -2  -7   67.97    3.15
   0  -2   7   65.85    2.57
   0  -2  -7   69.66    2.52
   0   2  -7   67.91    3.14
   0   2  -7   68.82    2.49
   0   2   7   65.20    2.49
   0   2   7   68.72    2.82
   1  -2   7   65.88    2.55
  -1  -2  -7   68.47    2.48
  -1  -2  -7   70.31    3.19
   1   2   7   69.33    2.81
  -1   2  -7   66.65    3.13
   1   2   7   62.91    2.46
  -1   2  -7   67.00    2.44
   2  -2   7    0.26    0.13
  -2  -2  -7    0.61    0.28
  -2  -2  -7    0.19    0.09
   2   2   7    0.11    0.08
  -2   2  -7    0.21    0.24
  -2   2  -7    0.17    0.07
  -3  -2  -7   56.20    2.07
   3  -2   7   53.80    2.16
  -3   2  -7   55.19    2.01
  -4  -2  -7   32.32    1.26
  -4   2  -7   31.45    1.19
  -4   2  -7   31.05    1.79
  -5  -2  -7   88.16    4.22
  -5  -2  -7   87.07    3.19
  -5   2  -7   84.46    4.11
  -6  -2  -7    0.72    0.16
  -6  -2  -7   -0.21    0.37
  -6   2  -7   -0.44    0.34
  -7  -2  -7   46.43    2.62
  -7  -2  -7   45.64    1.78
  -7   2  -7   42.38    2.48
  -8  -2  -7   40.68    2.53
  -8   2  -7   44.69    2.48
  -9  -2  -7   27.49    1.97
  -9   2  -7   29.28    1.93
 -10  -2  -7   -0.57    0.42
 -10   2  -7   -0.06    0.45
 -10   2  -7    0.48    0.30
 -11  -2  -7   14.57    1.48
 -11  -2  -7   15.74    1.12
 -11   2  -7   17.69    1.48
 -11   2  -7   18.12    1.18
 -12  -3   7   12.22    0.84
 -12   3   7   10.43    0.78
 -11  -3   7    0.09    0.26
 -11   3   7    0.04    0.22
 -11   3   7   -0.05    0.29
 -10  -3   7   19.01    1.04
 -10   3   7   18.71    1.22
 -10   3   7   18.58    1.02
  -9  -3   7   23.17    1.17
  -9   3   7   24.34    1.40
  -9   3   7   23.98    1.17
   8  -3  -7   32.28    1.51
  -8  -3   7   30.10    1.42
  -8   3   7   31.22    1.39
  -8   3   7   30.81    1.64
  -7  -3   7    4.79    0.48
   7  -3  -7    3.91    0.45
  -7  -3   7    3.85    0.42
  -7   3   7    4.06    0.41
  -7   3   7    3.59    0.53
  -6  -3   7   28.42    1.35
  -6  -3   7   31.17    1.33
   6  -3  -7   27.61    1.33
  -6   3   7   32.41    1.56
  -6   3   7   31.37    1.29
   6   3  -7   26.65    1.60
  -5  -3   7   88.91    3.30
  -5  -3   7   82.28    3.44
  -5   3   7   91.39    3.25
  -5   3   7   86.38    3.62
   5   3  -7   82.06    3.88
   4  -3  -7   11.92    0.63
  -4  -3   7   11.55    0.65
  -4  -3   7   12.66    0.65
   4  -3  -7   11.45    0.70
  -4   3   7   11.71    0.59
   4   3  -7   11.44    0.81
  -4   3   7   11.72    0.77
  -3  -3   7   14.08    0.74
   3  -3  -7   13.93    0.69
  -3  -3   7   13.51    0.71
   3   3  -7   14.36    0.91
  -3   3   7   15.84    0.87
  -3   3   7   13.71    0.65
   2  -3  -7  131.12    5.64
  -2  -3   7  129.96    5.08
   2  -3  -7  129.39    4.75
  -2  -3   7  128.28    4.81
   2   3  -7  131.39    4.75
   2   3  -7  132.28    5.68
  -2   3   7  132.40    5.20
   1  -3  -7  145.23    5.23
   1  -3  -7  144.55    6.28
  -1  -3   7  147.97    5.32
   1   3  -7  148.88    5.22
  -1   3   7  142.45    5.71
  -1   3   7  137.76    5.20
   1   3  -7  149.48    6.29
   0  -3  -7    8.43    0.43
   0  -3   7    7.57    0.47
   0  -3  -7    7.94    0.68
   0   3  -7    9.06    0.70
   0   3   7    7.73    0.38
   0   3   7    8.90    0.59
   0   3  -7    8.37    0.41
  -1  -3  -7   24.61    0.97
   1  -3   7   23.33    1.04
  -1  -3  -7   23.84    1.38
  -1   3  -7   24.44    1.36
   1   3   7   20.64    0.90
  -1   3  -7   24.81    0.92
   2  -3   7   83.45    3.26
  -2  -3  -7   85.50    4.02
  -2  -3  -7   88.83    3.16
  -2   3  -7   86.37    3.09
   3  -3   7   66.16    2.55
  -3  -3  -7   52.96    3.13
  -3  -3  -7   70.21    2.45
  -3   3  -7   64.67    3.13
  -3   3  -7   69.26    2.35
   4  -3   7    0.18    0.13
  -4  -3  -7    0.08    0.10
  -4  -3  -7   -0.03    0.10
  -4   3  -7    0.02    0.21
  -5  -3  -7   24.22    1.62
  -5  -3  -7   24.94    1.02
  -5   3  -7   21.95    1.48
  -6  -3  -7   74.13    3.76
  -6  -3  -7   75.10    2.77
  -6   3  -7   70.50    3.60
  -7  -3  -7   24.74    1.77
  -7  -3  -7   25.41    1.10
  -7   3  -7   25.27    1.66
  -8  -3  -7   -0.31    0.39
  -8  -3  -7    0.29    0.16
  -8   3  -7    0.45    0.42
  -9  -3  -7   19.59    1.64
  -9   3  -7   21.11    1.26
  -9   3  -7   20.54    1.54
 -10  -3  -7   25.31    1.96
 -10   3  -7   27.81    1.88
 -10   3  -7   27.84    1.55
 -11  -3  -7   12.15    0.95
 -11  -3  -7    9.44    1.32
 -11   3  -7   13.42    1.27
 -11   3  -7   11.59    0.95
 -12  -4   7   10.56    0.78
 -12   4   7   12.09    0.81
 -12   4   7   11.03    1.00
 -11  -4   7   16.73    1.01
 -11   4   7   17.54    1.24
 -11   4   7   19.49    1.04
 -10  -4   7    6.90    0.58
 -10   4   7    7.24    0.58
 -10   4   7    6.14    0.77
  -9  -4   7    0.28    0.21
  -9   4   7   -0.13    0.26
  -9   4   7   -0.11    0.17
  -8  -4   7   31.34    1.42
   8  -4  -7   31.36    1.48
  -8   4   7   29.79    1.36
  -8   4   7   29.47    1.63
  -7  -4   7   16.51    0.90
   7  -4  -7   16.36    0.91
  -7   4   7   17.77    0.86
  -7   4   7   16.91    1.08
  -6  -4   7   38.96    1.62
   6  -4  -7   36.96    1.61
  -6  -4   7   35.53    1.61
   6   4  -7   35.36    1.98
  -6   4   7   38.17    1.55
  -6   4   7   37.86    1.85
  -5  -4   7    1.35    0.25
  -5  -4   7    1.59    0.24
   5   4  -7    1.05    0.34
  -5   4   7    1.32    0.21
  -5   4   7    2.18    0.39
   4  -4  -7   65.47    2.87
  -4  -4   7   64.29    2.63
   4  -4  -7   67.21    2.53
  -4  -4   7   63.91    2.55
  -4   4   7   64.82    2.83
   4   4  -7   65.13    3.04
  -4   4   7   65.12    2.46
  -3  -4   7   73.50    2.91
   3  -4  -7   76.08    2.88
  -3  -4   7   75.35    3.04
   3   4  -7   79.70    3.49
  -3   4   7   78.93    3.23
  -3   4   7   73.94    2.82
   2  -4  -7   79.19    2.91
   2  -4  -7   73.93    3.46
  -2  -4   7   78.24    2.97
  -2   4   7   77.68    3.24
   2   4  -7   78.50    3.54
  -1  -4   7   18.23    0.89
   1  -4  -7   18.19    1.11
   1  -4  -7   20.06    0.84
   1   4  -7   18.94    0.82
  -1   4   7   18.26    1.01
   1   4  -7   19.54    1.14
  -1   4   7   18.29    0.77
   0  -4  -7   90.28    3.26
   0  -4  -7   90.20    4.03
   0  -4   7   88.28    3.34
   0   4   7   86.11    3.61
   0   4  -7   89.21    3.99
   0   4   7   84.36    3.17
   0   4  -7   90.48    3.22
   1  -4   7   56.85    2.26
  -1  -4  -7   56.31    2.17
  -1  -4  -7   61.21    2.84
   1   4   7   58.11    2.47
  -1   4  -7   57.51    2.75
  -1   4  -7   56.50    2.11
  -2  -4  -7   13.43    1.00
   2  -4   7   13.97    0.71
  -2  -4  -7   13.25    0.62
  -2   4  -7   12.86    0.54
   2   4   7   13.08    0.79
   3  -4   7    7.51    0.52
  -3  -4  -7    9.32    0.47
  -3  -4  -7    8.61    0.84
  -3   4  -7    9.12    0.37
  -3   4  -7    8.15    0.74
  -4  -4  -7   58.14    2.16
   4  -4   7   55.43    2.28
  -4   4  -7   55.88    2.81
  -5  -4  -7   21.70    0.93
  -5  -4  -7   19.26    1.45
  -5   4  -7   20.44    1.35
  -6  -4  -7    6.08    0.41
  -6  -4  -7    6.70    0.94
  -6   4  -7    6.90    0.82
  -7  -4  -7    9.93    0.57
  -7  -4  -7    9.96    1.20
  -7   4  -7   10.69    0.99
  -8  -4  -7   62.29    3.47
  -8  -4  -7   63.38    2.48
  -8   4  -7   63.87    3.28
  -9  -4  -7    4.55    0.90
  -9   4  -7    6.68    0.73
  -9   4  -7    5.51    0.86
 -10  -4  -7   -0.09    0.44
 -10   4  -7   -0.15    0.36
 -10   4  -7   -0.01    0.24
 -11  -4  -7    1.36    0.42
 -11  -4  -7    1.06    0.63
 -11   4  -7    2.08    0.49
 -11   4  -7    0.99    0.52
 -12  -5   7    0.21    0.29
 -12   5   7    0.13    0.36
 -12   5   7    0.24    0.24
 -11  -5   7    0.62    0.29
 -11   5   7    0.86    0.28
 -11   5   7    0.84    0.42
 -10  -5   7    1.70    0.36
 -10   5   7    1.37    0.32
 -10   5   7    1.78    0.47
   9  -5  -7   41.22    1.97
  -9  -5   7   45.92    1.93
  -9   5   7   44.67    1.87
  -9   5   7   41.52    2.18
   8  -5  -7   15.19    0.89
  -8  -5   7   14.83    0.85
  -8   5   7   14.45    1.04
  -8   5   7   14.60    0.80
   7  -5  -7    2.19    0.34
  -7  -5   7    2.68    0.36
   7   5  -7    2.09    0.52
  -7   5   7    1.89    0.28
  -7   5   7    2.75    0.47
   6  -5  -7    3.83    0.42
  -6  -5   7    4.72    0.43
  -6  -5   7    4.39    0.35
   6   5  -7    3.60    0.61
  -6   5   7    4.71    0.37
  -6   5   7    4.27    0.58
  -5  -5   7  101.87    4.08
  -5  -5   7  104.53    3.97
   5   5  -7  105.29    4.74
  -5   5   7  108.56    3.88
  -5   5   7  102.17    4.35
   4  -5  -7    0.03    0.14
  -4  -5   7    0.18    0.11
  -4  -5   7    0.33    0.17
   4  -5  -7    0.05    0.06
  -4   5   7    0.21    0.22
  -4   5   7    0.21    0.11
   4   5  -7    0.22    0.24
  -3  -5   7    3.08    0.31
   3  -5  -7    2.49    0.28
  -3  -5   7    2.64    0.32
  -3   5   7    2.67    0.23
  -3   5   7    2.54    0.40
   3   5  -7    2.93    0.44
   2  -5  -7   25.36    1.08
  -2  -5   7   24.55    1.14
   2  -5  -7   25.20    1.35
   2   5  -7   26.88    1.42
  -2   5   7   24.86    1.30
   1  -5  -7  132.55    4.84
   1  -5  -7  137.24    5.83
  -1  -5   7  135.32    4.94
   1   5  -7  133.49    5.84
  -1   5   7  136.23    5.32
  -1   5   7  126.02    4.77
   0  -5  -7    5.60    0.34
   0  -5  -7    5.05    0.60
   0  -5   7    4.71    0.39
   0   5  -7    5.20    0.60
   0   5   7    4.56    0.23
   1  -5   7    8.32    0.54
  -1  -5  -7    9.86    0.50
  -1  -5  -7    9.40    0.78
  -1   5  -7    8.92    0.73
   1   5   7    9.13    0.63
   2  -5   7    4.20    0.37
  -2  -5  -7    4.42    0.31
  -2  -5  -7    3.86    0.59
   2   5   7    4.65    0.43
  -3  -5  -7   51.33    2.03
  -3  -5  -7   55.97    2.77
   3  -5   7   51.42    2.15
  -3   5  -7   53.75    2.63
  -4  -5  -7    0.26    0.12
   4  -5   7    0.09    0.14
  -4  -5  -7   -0.04    0.11
  -4   5  -7    0.01    0.22
  -5  -5  -7   26.17    1.11
  -5  -5  -7   26.30    1.71
  -5   5  -7   24.18    1.53
  -6  -5  -7   10.90    1.09
  -6  -5  -7   11.10    0.60
  -6   5  -7   10.48    0.94
  -7  -5  -7   53.41    3.06
  -7  -5  -7   56.06    2.17
  -7   5  -7   53.78    2.84
  -8  -5  -7    0.03    0.15
  -8  -5  -7    0.10    0.43
  -8   5  -7    0.11    0.22
  -8   5  -7   -0.46    0.31
  -9  -5  -7   28.19    2.06
  -9  -5  -7   30.70    1.33
  -9   5  -7   28.63    1.86
  -9   5  -7   27.72    1.58
 -10  -5  -7    4.98    0.94
 -10   5  -7    4.25    0.61
 -10   5  -7    3.76    0.71
 -11  -5  -7   15.50    1.58
 -11   5  -7   14.32    1.08
 -12  -6   7   23.37    1.29
 -12   6   7   24.09    1.27
 -12   6   7   23.32    1.56
 -11  -6   7    2.89    0.45
 -11   6   7    2.63    0.41
 -11   6   7    2.57    0.58
 -10  -6   7   24.69    1.29
 -10   6   7   24.28    1.54
 -10   6   7   26.08    1.26
  -9  -6   7    0.18    0.24
   9  -6  -7    0.23    0.23
  -9   6   7    0.28    0.33
  -9   6   7    0.12    0.21
  -8  -6   7   55.90    2.30
   8  -6  -7   51.66    2.31
  -8   6   7   55.51    2.62
  -8   6   7   55.22    2.23
  -7  -6   7    5.09    0.46
   7  -6  -7    4.87    0.45
   7   6  -7    5.44    0.79
  -7   6   7    4.94    0.65
  -7   6   7    5.09    0.41
   6  -6  -7   46.92    1.89
  -6  -6   7   44.93    1.89
   6   6  -7   42.52    2.39
  -6   6   7   44.14    2.18
  -6   6   7   44.06    1.80
  -5  -6   7    0.47    0.20
  -5  -6   7    0.21    0.12
   5  -6  -7    0.13    0.13
  -5   6   7    0.32    0.25
  -5   6   7    0.18    0.13
   5   6  -7    0.27    0.33
  -4  -6   7   82.60    3.24
   4  -6  -7   80.51    3.64
  -4   6   7   86.89    3.12
  -4   6   7   85.75    3.60
   4   6  -7   83.69    3.88
  -3  -6   7    0.76    0.20
   3  -6  -7    0.38    0.14
   3  -6  -7    0.50    0.19
  -3   6   7    0.56    0.12
   3   6  -7    0.60    0.26
  -3   6   7    0.33    0.20
  -2  -6   7   12.94    0.69
   2  -6  -7   12.00    0.62
   2  -6  -7   12.88    0.82
   2   6  -7   12.96    0.89
  -2   6   7   10.66    0.53
  -2   6   7   12.52    0.80
   1  -6  -7    9.10    0.47
   1  -6  -7    7.88    0.67
  -1  -6   7    7.45    0.51
  -1   6   7    6.81    0.36
   1   6  -7    8.63    0.71
   0  -6   7   96.13    3.85
   0  -6  -7  104.88    4.63
   0  -6  -7  103.32    3.77
   0   6   7  102.95    4.17
   0   6  -7  104.93    4.61
  -1  -6  -7    0.17    0.23
  -1  -6  -7    0.10    0.09
   1  -6   7    0.29    0.15
   1   6   7    0.40    0.17
  -1   6  -7   -0.03    0.08
  -2  -6  -7    7.45    0.76
   2  -6   7    8.12    0.54
  -2  -6  -7    8.13    0.46
   2   6   7    8.08    0.59
  -3  -6  -7    0.94    0.18
   3  -6   7    0.98    0.23
  -3  -6  -7    0.84    0.37
  -3   6  -7    0.99    0.32
  -4  -6  -7  122.14    6.36
  -4  -6  -7  146.79    5.13
   4  -6   7  146.59    5.32
  -4   6  -7  145.38    6.28
  -5  -6  -7    1.33    0.47
  -5  -6  -7    1.16    0.21
  -5   6  -7    0.85    0.37
  -6  -6  -7    1.06    0.22
  -6  -6  -7    0.93    0.44
  -6   6  -7    1.04    0.38
  -7  -6  -7    0.48    0.18
  -7  -6  -7    0.24    0.42
  -7   6  -7    0.08    0.31
  -8  -6  -7   79.42    3.08
  -8  -6  -7   81.50    4.22
  -8   6  -7   80.30    3.48
  -8   6  -7   77.64    3.90
  -9  -6  -7    1.44    0.28
  -9  -6  -7    0.87    0.55
  -9   6  -7    1.09    0.36
  -9   6  -7    0.84    0.46
 -10  -6  -7    1.61    0.62
 -10   6  -7    2.01    0.56
 -10   6  -7    2.24    0.46
 -11  -6  -7    0.19    0.53
 -11   6  -7    0.13    0.28
 -12   7   7    1.22    0.35
 -11  -7   7    0.13    0.23
 -11   7   7    0.09    0.22
 -11   7   7   -0.13    0.33
 -10  -7   7   -0.24    0.21
 -10   7   7   -0.25    0.18
 -10   7   7   -0.26    0.29
   9  -7  -7   54.33    2.34
  -9  -7   7   53.90    2.29
  -9   7   7   53.63    2.21
  -9   7   7   48.80    2.57
  -8  -7   7   -0.14    0.16
   8  -7  -7   -0.05    0.17
  -8   7   7   -0.13    0.25
  -8   7   7    0.09    0.17
   7  -7  -7   15.17    0.86
  -7  -7   7   15.32    0.86
  -7   7   7   15.21    0.79
  -7   7   7   15.65    1.08
   7   7  -7   14.56    1.27
   6  -7  -7    1.66    0.29
  -6  -7   7    1.89    0.32
   6   7  -7    0.88    0.44
  -6   7   7    1.92    0.26
  -6   7   7    1.49    0.39
   5  -7  -7  136.11    5.12
  -5  -7   7  142.13    5.19
  -5   7   7  135.41    5.05
  -5   7   7  140.09    5.68
   5   7  -7  137.38    6.21
  -4  -7   7    1.87    0.31
  -4   7   7    1.71    0.39
  -4   7   7    2.03    0.23
   4   7  -7    1.94    0.46
   3  -7  -7    6.87    0.57
  -3  -7   7    7.88    0.54
   3   7  -7    7.15    0.71
  -3   7   7    8.11    0.40
  -3   7   7    4.44    0.59
   2  -7  -7    0.40    0.22
  -2  -7   7    0.72    0.21
   2  -7  -7    1.03    0.19
  -2   7   7    0.66    0.12
   2   7  -7    0.71    0.30
   1  -7  -7   88.57    4.00
   1  -7  -7   91.10    3.29
  -1  -7   7   93.15    3.40
  -1   7   7   77.62    3.15
   1   7  -7   91.43    4.04
   0  -7  -7    0.52    0.14
   0  -7  -7    0.24    0.26
   0  -7   7    0.14    0.15
   0   7   7    0.39    0.19
   0   7  -7    0.33    0.24
   1  -7   7    4.58    0.42
  -1  -7  -7    5.57    0.37
  -1  -7  -7    6.47    0.75
   1   7   7    6.66    0.53
  -2  -7  -7    2.66    0.29
  -2  -7  -7    2.71    0.51
   2  -7   7    2.39    0.34
   2   7   7    2.68    0.39
   3  -7   7   85.90    3.49
  -3  -7  -7   93.66    4.32
  -3  -7  -7   90.44    3.35
  -3   7  -7   88.38    4.14
   4  -7   7   14.88    0.87
  -4  -7  -7   15.01    1.23
  -4  -7  -7   15.39    0.75
  -4   7  -7   14.24    1.07
  -5  -7  -7   38.53    2.36
  -5  -7  -7   40.77    1.66
   5  -7   7   41.44    1.83
  -5   7  -7   40.47    2.18
  -6  -7  -7    0.47    0.38
  -6  -7  -7    0.52    0.18
  -6   7  -7    0.43    0.34
  -7  -7  -7   88.35    3.30
  -7  -7  -7   88.57    4.43
  -7   7  -7   83.25    3.66
  -7   7  -7   82.77    4.10
  -8  -7  -7    1.20    0.26
  -8  -7  -7    1.46    0.59
  -8   7  -7    0.19    0.37
  -8   7  -7    1.80    0.39
  -9  -7  -7   32.36    1.44
  -9  -7  -7   32.60    2.25
  -9   7  -7   30.65    1.93
  -9   7  -7   30.81    1.69
 -10  -7  -7   -0.02    0.43
 -10  -7  -7    0.18    0.19
 -10   7  -7   -0.12    0.23
 -10   7  -7   -0.05    0.35
 -11  -7  -7   31.89    2.37
 -11   7  -7   31.93    1.81
 -11  -8   7    2.27    0.42
 -11   8   7    1.47    0.35
 -11   8   7    2.16    0.57
  10  -8  -7   30.79    1.56
 -10  -8   7   27.90    1.44
 -10   8   7   29.14    1.39
 -10   8   7   27.62    1.73
  -9  -8   7    0.02    0.23
   9  -8  -7    0.13    0.23
  -9   8   7    0.12    0.20
  -9   8   7    0.21    0.34
  -8  -8   7   48.21    2.16
   8  -8  -7   52.35    2.22
   8   8  -7   50.86    3.03
  -8   8   7   51.13    2.53
  -8   8   7   51.44    2.10
   7  -8  -7   22.30    1.10
  -7  -8   7   21.46    1.11
   7   8  -7   20.31    1.59
  -7   8   7   19.58    0.99
  -7   8   7   21.64    1.34
   6  -8  -7   31.35    1.40
  -6  -8   7   30.47    1.42
  -6   8   7   29.90    1.30
   6   8  -7   29.24    1.90
  -6   8   7   30.48    1.68
  -5  -8   7    0.34    0.20
   5  -8  -7    0.09    0.13
   5   8  -7   -0.02    0.35
  -5   8   7    0.39    0.29
  -5   8   7    0.43    0.16
  -4  -8   7   80.46    3.26
   4  -8  -7   82.63    3.19
   4   8  -7   84.10    3.97
  -4   8   7   84.89    3.64
  -4   8   7   85.91    3.12
   3  -8  -7   16.36    0.97
  -3  -8   7   16.97    0.89
  -3   8   7   15.47    0.71
   3   8  -7   17.76    1.16
   2  -8  -7   14.07    0.84
   2  -8  -7    8.41    0.55
   2   8  -7   12.88    0.92
  -2   8   7   10.31    0.48
   1  -8  -7    6.71    0.42
  -1  -8   7    5.49    0.45
   1  -8  -7    5.81    0.61
   1   8  -7    5.16    0.65
  -1   8   7    5.26    0.60
   0  -8  -7   94.88    3.55
   0  -8  -7   97.90    4.39
   0  -8   7   95.55    3.67
   0   8   7   92.73    3.94
   1  -8   7   15.65    0.84
  -1  -8  -7   14.81    0.73
   1   8   7   14.79    0.91
  -2  -8  -7   20.31    0.95
   2  -8   7   22.09    1.09
   2   8   7   21.05    1.14
  -2   8  -7   21.56    1.33
   3  -8   7    2.70    0.39
  -3  -8  -7    3.67    0.30
   3   8   7    2.37    0.39
  -3   8  -7    2.56    0.49
   4  -8   7   79.98    3.23
  -4  -8  -7   80.98    3.05
  -4   8  -7   79.59    3.79
   5  -8   7   10.91    0.77
  -5  -8  -7   11.07    0.63
  -5   8  -7   12.17    0.97
  -6  -8  -7    3.73    0.38
  -6  -8  -7    2.52    0.66
  -6   8  -7    3.22    0.58
  -6   8  -7    4.17    0.54
  -7  -8  -7   11.35    0.65
  -7  -8  -7    8.61    1.18
  -7   8  -7    8.67    0.92
  -7   8  -7   10.47    0.80
  -8  -8  -7   63.55    3.58
  -8  -8  -7   64.93    2.58
  -8   8  -7   65.49    3.27
  -8   8  -7   61.77    2.89
  -9  -8  -7   -0.06    0.41
  -9  -8  -7    0.36    0.20
  -9   8  -7   -0.10    0.33
  -9   8  -7    0.80    0.31
 -10  -8  -7   -0.52    0.40
 -10  -8  -7    0.07    0.19
 -10   8  -7   -0.14    0.22
 -10   8  -7    0.00    0.37
 -11  -9   7    1.25    0.37
 -11   9   7    1.50    0.53
 -11   9   7    1.41    0.34
 -10  -9   7   11.10    0.80
  10  -9  -7   10.87    0.84
 -10   9   7   10.66    1.01
 -10   9   7   11.67    0.75
  -9  -9   7   52.86    2.33
   9  -9  -7   54.47    2.38
  -9   9   7   51.53    2.69
  -9   9   7   56.37    2.27
   8  -9  -7    6.57    0.56
  -8  -9   7    5.46    0.57
  -8   9   7    5.43    0.76
  -8   9   7    5.72    0.49
   8   9  -7    4.63    0.97
   7  -9  -7    4.68    0.51
  -7  -9   7    4.13    0.48
   7   9  -7    3.91    0.80
  -7   9   7    3.97    0.62
  -7   9   7    3.41    0.38
   6  -9  -7   38.33    1.67
  -6  -9   7   38.13    1.70
  -6   9   7   37.15    1.98
   6   9  -7   34.96    2.25
  -6   9   7   39.24    1.58
  -5  -9   7   52.21    2.20
   5  -9  -7   51.09    2.13
  -5   9   7   52.39    2.05
   5   9  -7   52.49    2.81
  -5   9   7   52.95    2.52
  -4  -9   7   18.63    0.99
   4  -9  -7   19.66    0.94
  -4   9   7   18.05    0.84
  -4   9   7   20.41    1.23
   4   9  -7   19.78    1.36
   3  -9  -7   16.28    1.02
   3  -9  -7   14.64    0.82
  -3  -9   7   18.30    0.95
   3   9  -7   19.96    1.27
  -3   9   7   18.00    0.76
  -2  -9   7   55.14    2.23
   2  -9  -7   52.00    2.57
   2   9  -7   54.00    2.70
  -1  -9   7  162.16    6.11
   1  -9  -7  161.14    5.97
   1   9  -7  164.06    7.22
  -1   9   7  170.48    6.59
   0  -9  -7    2.81    0.30
   0  -9   7    2.77    0.37
   0   9   7    2.52    0.40
  -1  -9  -7    7.49    0.46
   1  -9   7    5.98    0.50
   1   9   7    7.18    0.58
   2  -9   7   59.93    2.50
  -2  -9  -7   59.60    2.36
  -2   9  -7   61.96    2.99
   2   9   7   61.34    2.65
   3  -9   7   32.37    1.53
  -3  -9  -7   33.04    1.39
   3   9   7   32.60    1.60
  -3   9  -7   32.44    1.83
   4  -9   7    0.00    0.18
  -4  -9  -7   -0.11    0.10
  -4   9  -7   -0.30    0.24
   5  -9   7   33.82    1.66
  -5  -9  -7   35.35    1.50
  -5   9  -7   34.41    1.97
  -5   9  -7   36.07    1.72
  -6  -9  -7   62.80    2.45
  -6   9  -7   59.65    2.72
  -6   9  -7   60.54    3.07
  -7  -9  -7   16.90    0.89
  -7  -9  -7   18.78    1.53
  -7   9  -7   17.41    1.27
  -7   9  -7   15.84    1.05
  -8  -9  -7    1.53    0.29
  -8  -9  -7    0.95    0.51
  -8   9  -7    1.72    0.41
  -8   9  -7    0.60    0.41
  -9  -9  -7   25.13    1.22
  -9  -9  -7   21.70    1.87
  -9   9  -7   24.82    1.44
  -9   9  -7   24.11    1.64
 -10  -9  -7   21.46    1.14
 -10  -9  -7   22.41    1.90
 -10   9  -7   21.81    1.38
 -11 -10   7   47.97    2.21
 -11  10   7   48.48    2.13
 -11  10   7   47.78    2.60
  10 -10  -7   15.59    0.97
 -10 -10   7   12.81    0.90
 -10  10   7   11.57    1.10
 -10  10   7   12.90    0.82
  -9 -10   7    0.15    0.24
   9 -10  -7   -0.09    0.22
  -9  10   7    0.23    0.36
  -9  10   7   -0.07    0.19
   8 -10  -7   19.38    1.11
  -8 -10   7   20.42    1.13
   8  10  -7   21.60    1.86
  -8  10   7   21.79    1.04
  -8  10   7   20.32    1.39
   7 -10  -7  121.37    4.61
  -7 -10   7  117.10    4.64
  -7  10   7  119.40    5.15
   7  10  -7  126.74    5.99
  -7  10   7  118.75    4.51
  -6 -10   7   10.04    0.68
   6 -10  -7    9.18    0.62
  -6  10   7    9.21    0.85
  -6  10   7    8.74    0.54
   6  10  -7    8.42    1.09
  -5 -10   7    4.04    0.46
   5 -10  -7    3.70    0.41
  -5  10   7    4.09    0.35
  -5  10   7    4.19    0.62
   5  10  -7    3.39    0.71
  -4 -10   7   22.99    1.19
   4 -10  -7   24.80    1.14
  -4  10   7   23.96    1.03
   4  10  -7   25.26    1.62
  -4  10   7   24.15    1.43
   3 -10  -7   30.46    1.31
   3 -10  -7   27.50    1.54
  -3 -10   7   30.38    1.40
  -3  10   7   28.91    1.61
  -3  10   7   29.28    1.18
   3  10  -7   30.09    1.78
   2 -10  -7   13.26    0.69
  -2 -10   7   12.92    0.78
  -2  10   7   13.27    0.93
   2  10  -7   11.45    0.98
   1 -10  -7   37.26    1.52
  -1 -10   7   33.78    1.60
  -1  10   7   35.57    1.80
   1  10  -7   37.97    2.01
   0 -10   7   61.16    2.51
   0 -10  -7   62.46    2.39
   0  10  -7   54.66    2.95
   0  10   7   65.24    2.74
   1 -10   7   97.35    3.74
  -1 -10  -7   93.83    3.57
   1  10   7   96.37    3.97
  -1  10  -7   93.59    4.40
   2 -10   7    8.60    0.63
  -2 -10  -7    8.54    0.53
   2  10   7    8.80    0.67
  -2  10  -7    9.05    0.83
  -3 -10  -7   40.42    1.67
   3 -10   7   39.01    1.81
  -3  10  -7   39.95    2.16
   3  10   7   40.35    1.90
   4 -10   7   28.24    1.39
  -4 -10  -7   26.77    1.21
  -4  10  -7   26.52    1.36
  -4  10  -7   25.65    1.60
   5 -10   7   33.70    1.64
  -5 -10  -7   33.95    1.46
  -5  10  -7   33.37    1.65
  -5  10  -7   31.13    1.88
  -6 -10  -7    1.50    0.28
  -6  10  -7    1.53    0.35
  -6  10  -7    1.91    0.50
  -7 -10  -7   27.37    1.28
  -7  10  -7   26.88    1.70
  -7  10  -7   26.99    1.48
  -8 -10  -7   37.50    1.63
  -8 -10  -7   34.11    2.37
  -8  10  -7   34.65    2.07
  -8  10  -7   35.52    1.85
  -9 -10  -7   15.03    0.86
  -9 -10  -7   12.64    1.54
  -9  10  -7   13.79    1.01
  -9  10  -7   13.13    1.17
 -10 -10  -7    0.31    0.23
 -10 -10  -7    0.12    0.46
 -10  10  -7    0.02    0.27
 -10 -11   7   27.46    1.48
  10 -11  -7   31.31    1.57
 -10  11   7   26.55    1.78
 -10  11   7   29.35    1.41
   9 -11  -7    9.70    0.75
  -9 -11   7    9.64    0.73
  -9  11   7   10.02    1.08
  -9  11   7    9.17    0.64
   8 -11  -7   21.56    1.13
  -8 -11   7   18.94    1.11
  -8  11   7   19.23    1.38
   8  11  -7   22.87    1.93
  -8  11   7   19.46    1.01
   7 -11  -7    3.13    0.43
  -7 -11   7    3.51    0.47
  -7  11   7    1.74    0.50
   7  11  -7    3.59    0.85
  -7  11   7    3.19    0.38
  -6 -11   7   63.41    2.63
   6 -11  -7   62.76    2.56
  -6  11   7   63.60    3.02
  -6  11   7   62.20    2.46
   6  11  -7   63.02    3.49
   5 -11  -7   10.49    0.67
  -5 -11   7   11.69    0.75
  -5  11   7   11.03    0.93
   5  11  -7   11.60    1.15
   4 -11  -7   24.54    1.15
  -4 -11   7   23.87    1.22
   4  11  -7   24.34    1.68
  -4  11   7   24.73    1.47
  -3 -11   7    0.38    0.21
   3 -11  -7    0.18    0.14
  -3  11   7    0.07    0.24
   3  11  -7    0.16    0.34
   2 -11  -7   82.30    3.23
  -2 -11   7   88.12    3.38
  -2  11   7   85.84    3.70
   2  11  -7   82.59    4.04
  -1 -11   7    3.59    0.45
   1 -11  -7    3.18    0.35
  -1  11   7    4.26    0.54
   1  11  -7    3.27    0.58
   0 -11  -7   12.97    0.69
   0 -11   7   12.49    0.79
   0  11  -7   11.84    0.99
   0  11   7   12.96    0.88
   1 -11   7    0.09    0.19
  -1 -11  -7    0.12    0.14
   1  11   7   -0.03    0.16
  -1  11  -7    0.22    0.29
   2 -11   7  100.25    3.96
  -2 -11  -7  101.37    3.79
   2  11   7  106.87    4.20
  -2  11  -7   95.61    4.63
  -2  11  -7   98.47    4.04
   3 -11   7   27.46    1.39
  -3 -11  -7   27.35    1.23
  -3  11  -7   29.07    1.37
  -3  11  -7   26.55    1.62
   3  11   7   26.11    1.41
  -4 -11  -7    0.25    0.16
   4 -11   7    0.27    0.24
  -4  11  -7    0.18    0.29
  -4  11  -7    0.44    0.23
   5 -11   7    1.22    0.32
  -5 -11  -7    0.80    0.22
  -5  11  -7    1.17    0.31
  -5  11  -7    0.22    0.34
  -6 -11  -7   37.54    1.66
  -6  11  -7   38.06    1.87
  -6  11  -7   38.10    2.14
  -7 -11  -7   14.33    0.84
  -7  11  -7   14.86    1.18
  -7  11  -7   14.43    0.98
  -8 -11  -7    0.25    0.20
  -8  11  -7    0.39    0.28
  -8  11  -7   -0.13    0.31
  -9 -11  -7    0.94    0.56
  -9 -11  -7    0.74    0.27
  -9  11  -7    0.68    0.44
  -9  11  -7    1.00    0.37
 -10 -11  -7   41.52    1.81
 -10 -11  -7   35.80    2.62
 -10  11  -7   36.67    2.04
 -10 -12   7   -0.28    0.26
  10 -12  -7    0.02    0.24
 -10  12   7   -0.13    0.36
 -10  12   7   -0.10    0.22
   9 -12  -7    0.34    0.25
  -9 -12   7    0.39    0.29
  -9  12   7   -0.17    0.19
  -9  12   7    0.25    0.38
   8 -12  -7    1.89    0.36
  -8 -12   7    1.24    0.34
  -8  12   7    1.70    0.31
  -8  12   7    1.87    0.53
   8  12  -7    1.30    0.75
  -7 -12   7   70.50    2.90
   7 -12  -7   67.36    2.83
  -7  12   7   66.84    3.29
   7  12  -7   74.08    4.04
   6 -12  -7    0.84    0.23
  -6 -12   7    0.28    0.26
   6  12  -7    0.71    0.52
  -6  12   7    0.96    0.39
  -5 -12   7    5.41    0.57
   5 -12  -7    4.51    0.48
  -5  12   7    4.88    0.69
   5  12  -7    5.62    0.93
  -4 -12   7    3.25    0.43
   4 -12  -7    3.47    0.40
   4  12  -7    2.98    0.65
  -4  12   7    4.75    0.68
   3 -12  -7  165.01    6.20
  -3 -12   7  170.91    6.35
  -3  12   7  167.20    6.90
   3  12  -7  172.61    7.63
  -2 -12   7    0.66    0.25
   2 -12  -7    0.59    0.18
  -2  12   7    0.28    0.26
   2  12  -7    0.58    0.35
  -1 -12   7   10.12    0.70
   1 -12  -7   11.11    0.63
  -1  12   7   11.25    0.84
   1  12  -7   10.66    0.96
   0 -12  -7    0.94    0.20
   0 -12   7    0.83    0.26
   0  12  -7    0.94    0.22
   0  12  -7    0.47    0.34
   0  12   7    0.64    0.26
  -1 -12  -7   85.53    3.39
   1 -12   7   93.59    3.59
  -1  12  -7   89.10    4.22
   1  12   7   91.21    3.80
  -1  12  -7   87.28    3.60
   2 -12   7    8.78    0.68
  -2 -12  -7    7.57    0.52
  -2  12  -7    8.21    0.59
   2  12   7    9.20    0.70
  -2  12  -7    7.35    0.80
  -3 -12  -7   34.47    1.53
   3 -12   7   37.05    1.72
   3  12   7   35.82    1.75
  -3  12  -7   34.28    1.98
  -3  12  -7   35.63    1.67
   4 -12   7    1.16    0.34
  -4 -12  -7    1.62    0.28
  -4  12  -7    2.03    0.48
  -4  12  -7    1.28    0.31
   5 -12   7   35.32    1.72
  -5 -12  -7   33.28    1.50
  -5  12  -7   30.96    1.91
  -5  12  -7   34.95    1.69
  -6 -12  -7    0.39    0.20
  -6  12  -7    0.90    0.30
  -6  12  -7    0.25    0.34
  -7 -12  -7   39.61    1.77
  -7  12  -7   39.10    2.25
  -7  12  -7   41.00    2.01
  -8 -12  -7    2.75    0.41
  -8  12  -7    2.13    0.46
  -8  12  -7    1.80    0.52
  -9 -12  -7   19.09    1.06
  -9  12  -7   19.48    1.27
  -9  12  -7   17.79    1.40
  10 -13  -7   23.31    1.30
 -10 -13   7   21.41    1.26
 -10  13   7   20.28    1.13
 -10  13   7   20.01    1.53
  -9 -13   7    0.78    0.33
   9 -13  -7    1.11    0.33
  -9  13   7    0.74    0.27
  -9  13   7    0.83    0.45
   8 -13  -7   14.61    0.93
  -8 -13   7   15.48    0.97
  -8  13   7   14.38    1.21
   8  13  -7   16.81    1.78
   7 -13  -7    0.08    0.18
  -7 -13   7   -0.18    0.19
   7  13  -7    0.06    0.53
  -7  13   7   -0.03    0.31
  -6 -13   7   52.19    2.26
   6 -13  -7   47.44    2.14
   6  13  -7   57.23    3.22
  -6  13   7   49.76    2.60
   5 -13  -7    2.23    0.34
  -5 -13   7    1.77    0.37
  -5  13   7    2.44    0.54
   5  13  -7    1.93    0.65
  -4 -13   7   47.19    2.03
   4 -13  -7   41.49    1.87
  -4  13   7   44.80    2.31
   4  13  -7   46.31    2.68
   3 -13  -7    0.04    0.15
  -3 -13   7    0.09    0.20
  -3  13   7    0.28    0.26
   3  13  -7   -0.66    0.31
  -2 -13   7   98.37    3.86
   2 -13  -7   96.43    3.71
  -2 -13   7   94.61    3.61
   2  13  -7   98.47    4.69
  -2  13   7   99.82    4.24
   1 -13  -7    0.74    0.20
  -1 -13   7    0.17    0.24
   1  13  -7    0.80    0.38
  -1  13   7    0.52    0.26
   0 -13   7    0.83    0.27
   0 -13  -7    0.56    0.18
   0  13  -7    0.84    0.20
   0  13  -7    0.25    0.33
   0  13   7    1.16    0.32
   1 -13   7    1.87    0.36
  -1 -13  -7    1.65    0.27
  -1  13  -7    1.15    0.25
  -1  13  -7    0.80    0.37
   1  13   7    1.58    0.36
  -2 -13  -7  140.11    5.26
   2 -13   7  142.55    5.48
  -2  13  -7  140.44    6.40
  -2  13  -7  138.24    5.58
   2  13   7  146.95    5.76
   3 -13   7    1.06    0.32
  -3 -13  -7    1.16    0.25
   3  13   7    1.19    0.32
  -3  13  -7    0.85    0.39
  -3  13  -7    1.69    0.33
  -4 -13  -7    4.80    0.44
   4 -13   7    5.48    0.64
  -4  13  -7    5.77    0.53
  -4  13  -7    5.15    0.72
   5 -13   7    0.21    0.27
  -5 -13  -7    0.66    0.23
  -5  13  -7    0.07    0.32
  -5  13  -7    0.78    0.28
  -6 -13  -7   65.74    2.64
  -6  13  -7   65.65    2.89
  -6  13  -7   61.00    3.23
  -7 -13  -7    1.88    0.35
  -7  13  -7    1.13    0.46
  -7  13  -7    1.79    0.41
  -8 -13  -7    0.92    0.28
  -8  13  -7    0.48    0.31
  -8  13  -7    0.46    0.39
  -9 -13  -7    0.26    0.24
  -9  13  -7    0.48    0.33
   9 -14  -7    0.29    0.26
  -9 -14   7   -0.05    0.26
  -9  14   7    0.02    0.38
  -9  14   7   -0.03    0.20
   8 -14  -7    7.02    0.60
  -8 -14   7    4.43    0.58
  -8  14   7    6.71    0.90
   8  14  -7    6.89    1.28
   7 -14  -7   55.09    2.39
  -7 -14   7   56.96    2.47
   7  14  -7   59.77    3.62
  -7  14   7   53.70    2.83
   6 -14  -7    2.00    0.35
  -6 -14   7    1.56    0.37
  -6  14   7    1.69    0.49
   6  14  -7    1.42    0.69
  -5 -14   7    4.21    0.54
   5 -14  -7    4.83    0.50
   5  14  -7    4.77    0.92
  -5  14   7    4.68    0.72
  -4 -14   7    8.23    0.53
   4 -14  -7    7.37    0.55
  -4 -14   7    6.42    0.59
   4  14  -7    5.19    0.92
  -4  14   7    7.96    0.92
  -3 -14   7   79.42    3.33
  -3 -14   7   84.10    3.14
   3 -14  -7   81.36    3.21
   3  14  -7   82.27    4.18
  -3  14   7   82.51    3.73
  -2 -14   7    1.40    0.34
   2 -14  -7    1.20    0.25
   2  14  -7    0.85    0.47
  -2  14   7    1.27    0.38
  -1 -14   7   16.92    1.03
   1 -14  -7   18.59    0.93
   1  14  -7   17.87    1.36
  -1  14   7   18.41    1.18
   0 -14  -7    5.17    0.44
   0 -14   7    6.47    0.65
   0  14  -7    4.80    0.73
   0  14   7    5.67    0.67
   1 -14   7   35.48    1.75
  -1 -14  -7   37.49    1.62
   1  14   7   36.72    1.87
  -1  14  -7   38.69    1.68
  -1  14  -7   37.62    2.14
   2 -14   7    0.70    0.30
  -2 -14  -7    0.57    0.20
   2  14   7    0.72    0.28
  -2  14  -7    0.87    0.25
  -2  14  -7    0.39    0.36
  -3 -14  -7   27.46    1.30
   3 -14   7   29.40    1.50
  -3  14  -7   27.12    1.39
   3  14   7   28.06    1.49
  -3  14  -7   27.99    1.73
  -4 -14  -7   22.73    1.11
   4 -14   7   22.84    1.29
   4  14   7   22.06    1.26
  -4  14  -7   19.67    1.44
  -4  14  -7   22.66    1.22
  -5 -14  -7   37.08    1.67
   5 -14   7   37.72    1.90
  -5  14  -7   37.63    2.16
  -5  14  -7   37.46    1.84
  -6 -14  -7    0.05    0.18
  -6  14  -7   -0.03    0.35
  -6  14  -7    0.05    0.22
  -7 -14  -7   18.77    1.05
  -7  14  -7   18.49    1.39
  -7  14  -7   19.57    1.22
  -8 -14  -7    5.30    0.57
  -8  14  -7    4.63    0.65
  -8  14  -7    4.71    0.77
   9 -15  -7   21.15    1.20
  -9 -15   7   19.46    1.20
  -9  15   7   19.73    1.51
  -8 -15   7    6.84    0.71
   8 -15  -7    6.52    0.59
   8  15  -7    8.05    1.45
  -8  15   7    6.35    0.93
  -7 -15   7   -0.08    0.19
  -7 -15   7    0.09    0.25
   7 -15  -7    0.27    0.24
  -7  15   7    0.00    0.37
   7  15  -7    0.12    0.58
  -6 -15   7   24.41    1.31
  -6 -15   7   23.55    1.20
   6 -15  -7   23.87    1.22
  -6  15   7   22.56    1.56
   6  15  -7   22.28    2.00
  -5 -15   7   13.86    0.93
  -5 -15   7   16.70    0.87
   5 -15  -7   14.81    0.86
   5  15  -7   14.31    1.50
  -5  15   7   14.07    1.16
   4 -15  -7   20.86    1.06
  -4 -15   7   19.46    1.00
  -4 -15   7   20.98    1.16
  -4  15   7   19.19    1.36
   4  15  -7   21.24    1.71
  -3 -15   7    2.08    0.29
   3 -15  -7    1.83    0.32
  -3 -15   7    1.68    0.35
   3  15  -7    1.44    0.60
  -3  15   7    1.85    0.47
  -2 -15   7   32.03    1.62
   2 -15  -7   31.61    1.49
   2  15  -7   37.14    2.19
  -2  15   7   34.93    1.87
  -1 -15   7   16.46    1.01
   1 -15  -7   17.24    0.90
  -1  15   7   16.52    1.14
   1  15  -7   17.01    1.33
   0 -15   7    1.56    0.36
   0 -15  -7    1.95    0.31
   0  15  -7    1.69    0.50
   0  15   7    1.71    0.40
  -1 -15  -7    6.21    0.47
   1 -15   7    6.09    0.65
  -1  15  -7    4.96    0.75
   1  15   7    5.88    0.68
   2 -15   7   38.14    1.87
  -2 -15  -7   37.50    1.68
  -2  15  -7   38.12    2.22
   2  15   7   41.24    1.95
  -2  15  -7   38.04    1.77
   3 -15   7   21.08    1.23
  -3 -15  -7   21.04    1.07
  -3  15  -7   21.02    1.15
   3  15   7   21.82    1.24
  -3  15  -7   19.93    1.44
  -4 -15  -7    0.14    0.17
   4 -15   7    0.36    0.30
  -4  15  -7    0.08    0.20
   4  15   7    0.34    0.24
  -4  15  -7    0.16    0.34
  -5 -15  -7   10.14    0.68
   5 -15   7   10.52    0.87
  -5  15  -7   10.66    0.79
  -5  15  -7    8.31    1.00
  -6 -15  -7   36.00    1.69
  -6  15  -7   37.86    2.19
  -6  15  -7   37.45    1.89
  -7 -15  -7    8.31    0.66
  -7  15  -7    8.68    0.77
  -7  15  -7    7.16    0.93
  -8 -15  -7    0.49    0.26
  -8  15  -7    0.40    0.41
  -8  15  -7    0.43    0.31
  -8 -16   7   18.14    1.10
  -8 -16   7   18.72    1.17
   8 -16  -7   20.77    1.15
   8  16  -7   16.33    2.11
  -8  16   7   20.40    1.50
  -7 -16   7   24.64    1.30
  -7 -16   7   24.79    1.38
   7 -16  -7   24.91    1.30
  -7  16   7   24.51    1.67
   7  16  -7   27.36    2.37
  -6 -16   7   11.28    0.74
   6 -16  -7    9.69    0.72
  -6 -16   7    9.69    0.77
  -6  16   7   10.43    1.14
   6  16  -7   10.15    1.50
  -5 -16   7    2.51    0.37
   5 -16  -7    2.49    0.37
  -5 -16   7    1.91    0.41
   5  16  -7    1.79    0.69
  -5  16   7    2.88    0.60
  -4 -16   7   16.77    1.07
  -4 -16   7   17.22    0.93
   4 -16  -7   20.12    1.02
  -4  16   7   18.47    1.33
   4  16  -7   19.23    1.68
  -3 -16   7   30.31    1.58
   3 -16  -7   32.22    1.48
  -3  16   7   33.46    1.89
   3  16  -7   33.51    2.24
   2 -16  -7    4.90    0.43
  -2 -16   7    4.47    0.56
   2  16  -7    4.01    0.79
  -2  16   7    3.91    0.63
  -1 -16   7    4.14    0.54
   1 -16  -7    4.02    0.44
  -1  16   7    3.92    0.60
   1  16  -7    4.25    0.76
   0 -16  -7   28.78    1.31
   0 -16   7   23.60    1.39
   0  16  -7   26.64    1.81
   0  16   7   30.74    1.61
   1 -16   7   15.32    0.99
  -1 -16  -7   13.98    0.81
  -1  16  -7   12.71    1.18
   1  16   7   14.97    1.01
  -2 -16  -7    3.33    0.41
   2 -16   7    3.95    0.55
   2  16   7    3.19    0.50
  -2  16  -7    2.39    0.58
   3 -16   7   12.13    0.91
  -3 -16  -7   12.09    0.76
  -3  16  -7   12.92    0.83
   3  16   7   12.02    0.88
  -3  16  -7   10.99    1.07
  -4 -16  -7   31.00    1.48
   4 -16   7   32.55    1.71
  -4  16  -7   30.10    1.92
   4  16   7   32.71    1.66
  -4  16  -7   31.39    1.60
   5 -16   7   20.72    1.30
  -5 -16  -7   20.79    1.11
  -5  16  -7   21.65    1.24
  -5  16  -7   19.61    1.47
  -6 -16  -7    1.95    0.36
  -6  16  -7    1.90    0.54
  -6  16  -7    2.28    0.45
  -7 -16  -7   10.27    0.74
  -7  16  -7    8.94    1.04
  -7  16  -7    9.44    0.83
   8 -17  -7    0.49    0.28
  -8 -17   7    0.47    0.26
   7 -17  -7   -0.15    0.20
  -7 -17   7    0.06    0.21
  -7 -17   7    0.04    0.29
   7  17  -7    0.01    0.64
  -7  17   7    0.01    0.36
  -6 -17   7    7.89    0.72
   6 -17  -7    9.50    0.68
  -6 -17   7    7.54    0.61
   6  17  -7    8.44    1.42
  -6  17   7    7.41    0.98
  -5 -17   7   41.32    1.82
  -5 -17   7   40.57    1.96
   5 -17  -7   41.03    1.85
   5  17  -7   47.08    3.00
  -5  17   7   38.79    2.28
  -4 -17   7   -0.07    0.20
   4 -17  -7    0.46    0.22
  -4  17   7    0.12    0.29
   4  17  -7    0.09    0.51
  -3 -17   7    5.44    0.64
   3 -17  -7    6.51    0.53
  -3  17   7    6.84    0.85
   3  17  -7    6.73    1.08
  -2 -17   7   26.32    1.44
   2 -17  -7   27.46    1.31
   2  17  -7   26.61    1.96
  -2  17   7   27.86    1.66
   1 -17  -7   25.93    1.29
  -1 -17   7   28.95    1.48
   1  17  -7   27.10    1.90
  -1  17   7   26.65    1.59
   0 -17  -7    0.91    0.25
   0 -17   7    0.55    0.32
   0  17  -7    1.04    0.50
   0  17   7    1.77    0.43
   1 -17   7   11.64    0.88
  -1 -17  -7   10.63    0.69
  -1  17  -7    9.76    1.06
   1  17   7   13.37    0.94
  -2 -17  -7    9.97    0.71
   2 -17   7   11.96    0.91
  -2  17  -7   12.61    1.14
   2  17   7   12.84    0.91
  -3 -17  -7   44.00    1.94
   3 -17   7   45.81    2.18
   3  17   7   47.14    2.19
  -3  17  -7   43.27    2.52
  -3  17  -7   42.25    2.05
   4 -17   7    0.01    0.25
  -4 -17  -7    0.07    0.20
  -4  17  -7    0.23    0.37
  -4  17  -7    0.05    0.21
  -5 -17  -7   13.77    0.86
   5 -17   7   15.29    1.10
  -5  17  -7   13.22    1.19
  -5  17  -7   13.14    0.95
  -6 -17  -7    8.01    0.64
  -6  17  -7    8.94    0.78
  -6  17  -7    6.87    0.94
  -7 -17  -7   10.91    0.79
  -7  17  -7   10.86    1.09
  -7  17  -7   10.83    0.91
   7 -18  -7    4.11    0.52
  -7 -18   7    4.26    0.53
  -7 -18   7    4.06    0.58
   7  18  -7    5.07    1.26
  -7  18   7    5.14    0.86
  -6 -18   7   11.78    0.90
   6 -18  -7   12.88    0.83
  -6 -18   7   13.04    0.82
  -6  18   7   11.48    1.12
   6  18  -7    9.86    1.63
  -5 -18   7    0.63    0.32
   5 -18  -7    1.04    0.30
   5  18  -7    0.90    0.67
  -5  18   7    0.41    0.39
   4 -18  -7   33.28    1.59
  -4 -18   7   32.40    1.72
   4  18  -7   34.50    2.53
  -4  18   7   37.57    2.07
   3 -18  -7    4.43    0.49
  -3 -18   7    3.80    0.55
   3  18  -7    3.79    0.91
  -3  18   7    3.37    0.63
  -2 -18   7    4.28    0.58
   2 -18  -7    4.75    0.50
   2  18  -7    4.27    0.89
  -2  18   7    4.60    0.71
  -1 -18   7    1.15    0.39
   1 -18  -7    1.12    0.27
   1  18  -7    1.05    0.55
  -1  18   7    0.99    0.39
   0 -18   7   49.47    2.36
   0 -18  -7   49.58    2.17
   0  18   7   55.19    2.56
   0  18  -7   51.08    2.95
   1 -18   7    5.57    0.69
  -1 -18  -7    6.29    0.51
  -1  18  -7    5.44    0.87
   1  18   7    5.27    0.70
   2 -18   7    3.82    0.58
  -2 -18  -7    3.37    0.43
   2  18   7    3.94    0.59
  -2  18  -7    3.83    0.76
   3 -18   7    0.67    0.35
  -3 -18  -7    0.52    0.23
  -3  18  -7    1.17    0.48
  -4 -18  -7   58.35    2.47
   4 -18   7   62.15    2.77
  -4  18  -7   55.00    2.61
  -4  18  -7   56.79    3.14
   5 -18   7    0.10    0.31
  -5 -18  -7    0.20    0.23
  -5  18  -7    0.34    0.41
  -5  18  -7    0.69    0.30
  -6 -18  -7    0.10    0.21
  -6  18  -7    0.24    0.40
  -6  18  -7   -0.13    0.25
  -6 -19   7   -0.02    0.19
   6 -19  -7    0.19    0.24
  -6 -19   7   -0.06    0.26
  -6  19   7   -0.10    0.36
   6  19  -7   -0.01    0.66
  -5 -19   7   32.64    1.72
   5 -19  -7   33.59    1.60
  -5  19   7   31.31    2.00
   5  19  -7   36.65    2.76
  -4 -19   7    0.14    0.28
   4 -19  -7    0.26    0.22
  -4  19   7    0.03    0.33
   4  19  -7   -0.42    0.51
  -3 -19   7    8.83    0.78
   3 -19  -7    9.02    0.66
   3  19  -7    7.77    1.24
  -3  19   7    8.64    1.02
  -2 -19   7   -0.33    0.28
   2 -19  -7    0.08    0.20
  -2  19   7    0.18    0.28
   2  19  -7    0.02    0.51
  -1 -19   7   39.30    1.99
   1 -19  -7   39.76    1.81
   1  19  -7   39.16    2.60
  -1  19   7   43.59    2.21
   0 -19  -7    1.76    0.33
   0 -19   7    2.04    0.47
   0  19   7    2.27    0.51
   0  19  -7    1.82    0.66
  -1 -19  -7   12.38    0.78
   1 -19   7   12.24    0.96
  -1  19  -7   11.14    1.21
   1  19   7   12.31    0.96
  -2 -19  -7   -0.11    0.16
   2 -19   7    0.18    0.31
  -2  19  -7    0.17    0.43
  -3 -19  -7   39.83    1.83
   3 -19   7   39.60    2.05
  -3  19  -7   40.21    2.45
  -4 -19  -7    0.82    0.27
   4 -19   7    0.63    0.35
  -4  19  -7    0.98    0.52
  -5 -19  -7   14.43    0.91
   5 -19   7   15.76    1.16
  -5  19  -7   12.71    1.28
  -5  19  -7   14.50    1.02
  -5 -20   7    0.14    0.27
   5 -20  -7    0.46    0.26
  -5  20   7    0.36    0.39
   5  20  -7    0.59    0.72
  -4 -20   7   25.59    1.45
   4 -20  -7   25.21    1.31
  -4  20   7   24.97    1.69
   4  20  -7   24.07    2.22
  -3 -20   7   16.19    1.09
   3 -20  -7   15.16    0.92
  -3  20   7   16.78    1.27
   3  20  -7   14.05    1.74
  -2 -20   7    7.34    0.79
   2 -20  -7    7.66    0.60
   2  20  -7    7.84    1.25
  -2  20   7    8.26    0.97
   1 -20  -7    0.29    0.22
  -1 -20   7    0.10    0.28
   1  20  -7    0.05    0.53
  -1  20   7    0.53    0.33
   0 -20   7   37.08    1.90
   0 -20  -7   34.55    1.67
   0  20  -7   35.55    2.46
   0  20   7   38.97    2.02
  -1 -20  -7    4.12    0.50
   1 -20   7    3.60    0.61
  -1  20  -7    4.11    0.85
  -2 -20  -7    4.60    0.54
   2 -20   7    4.80    0.69
  -2  20  -7    4.05    0.83
  -3 -20  -7    0.40    0.25
   3 -20   7    0.40    0.36
  -3  20  -7    0.60    0.51
  -4 -20  -7   31.64    1.60
   4 -20   7   35.31    1.91
  -4  20  -7   33.88    2.23
   3 -21  -7    1.05    0.31
  -3 -21   7    0.80    0.37
  -3  21   7    1.49    0.48
   3  21  -7    0.79    0.70
  -2 -21   7   15.08    1.09
   2 -21  -7   14.48    0.91
  -2  21   7   14.45    1.18
   2  21  -7   16.45    1.70
   1 -21  -7   26.86    1.35
  -1 -21   7   25.22    1.51
   1  21  -7   25.45    2.13
  -1  21   7   28.91    1.70
   0 -21   7    2.43    0.54
   0 -21  -7    2.57    0.41
   0  21  -7    1.50    0.72
  -1 -21  -7    5.65    0.60
   1 -21   7    6.64    0.80
  -1  21  -7    6.15    1.08
  -2 -21  -7   12.43    0.85
   2 -21   7   14.33    1.08
  -2  21  -7   12.98    1.38
 -12   0   8    1.94    0.39
 -11   0   8   -0.22    0.22
 -10   0   8   52.15    2.24
  -9   0   8    0.53    0.26
  -9   0   8   -0.15    0.17
  -8   0   8    6.10    0.58
  -8   0   8    5.89    0.48
  -7   0   8   -0.09    0.15
  -7   0   8   -0.11    0.15
  -6   0   8  118.20    4.32
   6   0  -8  113.57    4.37
  -6   0   8  112.58    4.63
  -5   0   8    0.05    0.16
   5   0  -8    0.07    0.13
  -5   0   8   -0.20    0.14
   5   0  -8   -0.03    0.21
   4   0  -8   33.54    1.49
  -4   0   8   36.36    1.49
   4   0  -8   36.30    1.77
  -4   0   8   36.40    1.65
   3   0  -8   -0.01    0.10
  -3   0   8   -0.05    0.13
   3   0  -8    0.00    0.19
  -3   0   8    0.25    0.15
   2   0  -8  160.09    6.81
   2   0  -8  157.24    5.71
  -2   0   8  158.98    6.18
  -2   0   8  155.20    5.74
  -1   0   8    0.03    0.13
   1   0  -8    0.33    0.11
   1   0  -8    0.22    0.25
  -1   0   8   -0.04    0.11
   0   0   8   13.85    0.70
   0   0   8   15.86    0.87
   0   0  -8   16.52    1.02
   0   0  -8   15.42    0.68
  -1   0  -8    0.00    0.22
   1   0   8    0.00    0.06
  -1   0  -8    0.18    0.09
  -2   0  -8  251.08   10.89
  -2   0  -8  256.01    8.98
   3   0   8    0.19    0.12
  -3   0  -8    0.36    0.10
  -3   0  -8   -0.05    0.09
  -4   0  -8   27.28    1.08
  -4   0  -8   27.28    1.69
  -5   0  -8    0.25    0.11
  -5   0  -8    0.00    0.30
  -6   0  -8   14.52    1.25
  -7   0  -8   -1.25    0.38
  -8   0  -8   45.33    2.67
  -9   0  -8    0.11    0.40
 -10   0  -8   30.83    2.14
 -11   0  -8    0.24    0.31
 -11   0  -8   -0.22    0.55
 -12  -1   8    2.48    0.42
 -12   1   8    2.23    0.42
 -11  -1   8   29.81    1.49
 -11   1   8   30.83    1.50
 -10  -1   8    3.04    0.45
 -10   1   8    3.58    0.55
 -10   1   8    3.10    0.44
  -9  -1   8   23.60    1.15
  -9   1   8   20.65    1.27
  -9   1   8   22.45    1.13
  -8  -1   8   15.98    0.97
  -8  -1   8   15.51    0.87
  -8   1   8   16.61    0.88
  -8   1   8   17.37    1.04
   7  -1  -8   47.75    2.05
  -7  -1   8   45.67    2.11
  -7  -1   8   48.25    1.97
  -7   1   8   46.83    1.94
  -7   1   8   46.48    2.17
   6  -1  -8    0.28    0.17
  -6  -1   8    0.19    0.17
  -6  -1   8   -0.10    0.15
  -6   1   8    0.25    0.19
  -6   1   8    0.28    0.22
  -5  -1   8   89.12    3.70
   5  -1  -8   90.62    3.48
  -5  -1   8   94.58    3.46
   5  -1  -8   89.71    3.98
  -5   1   8   92.19    3.43
   5   1  -8   88.05    4.03
  -5   1   8   91.65    3.75
   5   1  -8   90.84    3.49
  -4  -1   8    2.01    0.28
   4  -1  -8    2.18    0.28
  -4  -1   8    2.00    0.32
   4  -1  -8    1.78    0.32
  -4   1   8    2.49    0.37
  -4   1   8    2.22    0.27
   4   1  -8    2.23    0.29
   3  -1  -8   44.93    2.19
  -3  -1   8   44.64    1.84
  -3  -1   8   46.54    2.01
   3  -1  -8   48.82    1.85
   3   1  -8   48.03    2.23
   3   1  -8   45.41    1.84
  -3   1   8   44.23    1.81
  -3   1   8   45.78    2.05
  -2  -1   8    3.21    0.38
   2  -1  -8    3.64    0.29
   2  -1  -8    2.52    0.44
  -2  -1   8    2.52    0.30
   2   1  -8    3.32    0.28
   2   1  -8    2.65    0.44
  -2   1   8    3.34    0.40
  -2   1   8    2.38    0.27
   1  -1  -8   81.86    3.74
  -1  -1   8   79.33    3.09
  -1  -1   8   83.28    3.36
   1  -1  -8   84.90    3.05
   1   1  -8   85.44    3.76
  -1   1   8   79.00    3.05
  -1   1   8   83.06    3.38
   1   1  -8   81.07    3.04
   0  -1  -8    2.86    0.47
   0  -1   8    3.76    0.30
   0  -1  -8    3.86    0.27
   0   1   8    4.09    0.46
   0   1  -8    3.88    0.26
   0   1  -8    3.69    0.52
  -1  -1  -8   19.45    1.23
  -1  -1  -8   18.69    0.81
   1  -1   8   19.50    0.87
  -1   1  -8   18.28    1.19
   1   1   8   19.14    0.83
  -1   1  -8   19.55    0.80
  -2  -1  -8    4.67    0.29
   2  -1   8    3.84    0.33
  -2  -1  -8    5.80    0.72
  -2   1  -8    4.04    0.26
  -2   1  -8    5.41    0.70
   2   1   8    4.01    0.29
  -4  -1  -8   14.00    1.12
  -4  -1  -8   14.22    0.65
  -4   1  -8   14.91    0.62
  -4   1  -8   14.68    1.13
  -5  -1  -8    4.38    0.31
  -5  -1  -8    4.27    0.73
  -5   1  -8    4.30    0.70
  -6  -1  -8    0.94    0.53
  -6   1  -8    1.86    0.56
  -7  -1  -8  107.08    5.27
  -7   1  -8  110.33    5.24
  -8  -1  -8    1.31    0.61
  -8   1  -8    1.45    0.56
  -9  -1  -8   -0.15    0.38
  -9   1  -8    0.58    0.49
 -10  -1  -8    0.60    0.53
 -10   1  -8    0.27    0.50
 -11  -1  -8   60.16    3.42
 -11  -1  -8   53.11    2.72
 -11   1  -8   56.98    2.77
 -11   1  -8   60.31    3.36
 -12  -2   8    2.73    0.46
 -12   2   8    3.36    0.49
 -11  -2   8    4.73    0.56
 -11   2   8    4.96    0.56
 -10  -2   8   65.45    2.65
 -10   2   8   61.17    2.90
 -10   2   8   62.95    2.62
  -9  -2   8   12.65    0.78
  -9   2   8   12.77    0.77
  -9   2   8   12.10    0.92
  -8  -2   8    0.39    0.21
  -8  -2   8    0.51    0.22
  -8   2   8    0.11    0.19
  -8   2   8    0.70    0.29
   7  -2  -8   17.08    0.96
  -7  -2   8   17.25    0.96
  -7  -2   8   17.38    0.92
  -7   2   8   17.71    1.07
  -7   2   8   17.38    0.89
   6  -2  -8   73.05    2.91
  -6  -2   8   70.78    3.03
  -6  -2   8   75.23    2.88
  -6   2   8   74.20    3.16
  -6   2   8   73.44    2.84
  -5  -2   8    5.57    0.46
  -5  -2   8    5.20    0.46
   5  -2  -8    6.44    0.47
   5   2  -8    7.02    0.63
  -5   2   8    6.30    0.43
  -5   2   8    5.99    0.54
  -4  -2   8    1.83    0.29
  -4  -2   8    1.65    0.26
   4  -2  -8    1.25    0.22
   4  -2  -8    1.94    0.33
  -4   2   8    1.40    0.23
  -4   2   8    1.63    0.32
   4   2  -8    1.70    0.26
   4   2  -8    1.78    0.35
  -3  -2   8   47.12    2.03
  -3  -2   8   47.29    1.90
   3  -2  -8   48.62    2.24
   3  -2  -8   48.19    1.88
  -3   2   8   45.12    1.83
  -3   2   8   45.25    2.09
   3   2  -8   46.75    2.27
   3   2  -8   47.00    1.88
  -2  -2   8  117.46    4.77
   2  -2  -8  120.27    4.43
  -2  -2   8  119.81    4.48
   2  -2  -8  115.84    5.28
  -2   2   8  115.73    4.42
   2   2  -8  128.80    5.34
  -2   2   8  125.26    4.86
   2   2  -8  126.02    4.44
   1  -2  -8   22.03    0.97
  -1  -2   8   22.69    1.03
  -1  -2   8   22.69    1.13
   1  -2  -8   22.96    1.32
   1   2  -8   22.15    1.30
  -1   2   8   24.41    1.20
   1   2  -8   23.65    0.97
   0  -2   8    2.11    0.27
   0  -2  -8    2.09    0.42
   0  -2  -8    2.50    0.22
   0   2   8    2.30    0.22
   0   2  -8    2.65    0.44
   0   2   8    3.30    0.41
   0   2  -8    2.71    0.22
   1  -2   8   63.08    2.45
  -1  -2  -8   64.06    2.37
  -1  -2  -8   64.63    3.08
   1   2   8   58.89    2.35
  -1   2  -8   62.56    3.03
  -1   2  -8   66.15    2.34
   1   2   8   64.02    2.71
  -2  -2  -8  111.71    4.03
   2  -2   8  111.67    4.15
  -2  -2  -8  116.74    5.12
   2   2   8  101.40    4.02
  -2   2  -8  115.91    3.99
  -3  -2  -8    3.47    0.27
   3  -2   8    4.07    0.35
  -3  -2  -8    3.58    0.61
  -3   2  -8    4.30    0.24
  -4  -2  -8   20.23    0.88
  -4  -2  -8   19.98    1.42
  -4   2  -8   21.39    1.39
  -5  -2  -8   22.87    0.94
  -5  -2  -8   20.74    1.53
  -5   2  -8   21.13    1.47
  -6  -2  -8   87.88    3.16
  -6  -2  -8   84.40    4.26
  -6   2  -8   80.80    4.14
  -7  -2  -8   -0.19    0.47
  -7   2  -8   -0.27    0.44
  -8  -2  -8   25.10    1.84
  -8   2  -8   24.17    1.74
  -9  -2  -8   24.71    1.89
  -9   2  -8   27.28    1.87
 -10  -2  -8    8.01    1.17
 -10   2  -8    8.40    0.79
 -10   2  -8    7.24    1.06
 -11  -2  -8    0.03    0.32
 -11  -2  -8   -0.16    0.55
 -11   2  -8    0.10    0.31
 -11   2  -8   -0.86    0.44
 -12  -3   8   26.06    1.39
 -12   3   8   27.41    1.40
 -11  -3   8   16.03    1.01
 -11   3   8   18.78    1.25
 -11   3   8   20.05    1.06
 -10  -3   8    3.44    0.48
 -10   3   8    3.60    0.45
 -10   3   8    3.94    0.62
  -9  -3   8    3.17    0.43
  -9   3   8    3.39    0.55
  -9   3   8    3.01    0.40
  -8  -3   8   46.51    2.03
   8  -3  -8   48.20    2.12
  -8   3   8   50.69    2.02
  -8   3   8   45.39    2.27
  -7  -3   8   10.94    0.71
   7  -3  -8   13.24    0.77
  -7  -3   8   11.29    0.72
  -7   3   8   12.84    0.70
  -7   3   8   11.09    0.84
   6  -3  -8    0.01    0.13
  -6  -3   8    0.36    0.17
  -6  -3   8    0.22    0.18
   6   3  -8   -0.26    0.26
  -6   3   8    0.17    0.15
  -6   3   8    0.19    0.21
  -5  -3   8   21.87    1.12
  -5  -3   8   23.63    1.10
   5  -3  -8   21.31    1.07
  -5   3   8   24.23    1.05
  -5   3   8   23.61    1.27
   5   3  -8   24.46    1.35
   4  -3  -8  115.51    5.01
  -4  -3   8  118.22    4.37
   4  -3  -8  116.80    4.33
  -4  -3   8  113.44    4.58
  -4   3   8  114.58    4.28
  -4   3   8  115.63    4.72
   4   3  -8  119.47    5.14
  -3  -3   8   39.10    1.58
   3  -3  -8   37.45    1.53
   3  -3  -8   36.07    1.82
  -3  -3   8   37.75    1.66
   3   3  -8   38.80    1.56
   3   3  -8   37.53    1.90
  -3   3   8   37.39    1.77
  -3   3   8   34.77    1.48
  -2  -3   8    3.44    0.38
   2  -3  -8    3.40    0.29
   2  -3  -8    3.78    0.47
  -2  -3   8    3.00    0.34
  -2   3   8    4.01    0.46
   2   3  -8    3.26    0.28
  -2   3   8    3.39    0.27
  -1  -3   8   19.03    0.94
   1  -3  -8   22.23    1.23
   1  -3  -8   21.06    0.89
   1   3  -8   20.75    1.21
  -1   3   8   18.82    1.06
  -1   3   8   18.81    0.84
   1   3  -8   20.56    0.88
   0  -3  -8  118.41    5.36
   0  -3   8  119.25    4.46
   0  -3  -8  124.31    4.38
   0   3  -8  121.37    5.34
   0   3   8  122.68    4.83
   0   3  -8  122.62    4.35
   0   3   8  113.39    4.33
  -1  -3  -8   16.40    0.72
  -1  -3  -8   17.06    1.13
   1  -3   8   16.15    0.79
  -1   3  -8   16.26    0.68
  -1   3  -8   15.01    1.06
   1   3   8   14.45    0.65
  -2  -3  -8   23.07    1.49
  -2  -3  -8   25.12    1.01
   2  -3   8   23.67    1.09
  -2   3  -8   23.50    0.94
  -3  -3  -8   26.13    1.08
  -3  -3  -8   28.80    1.67
   3  -3   8   24.24    1.16
  -4  -3  -8   23.37    0.99
  -4  -3  -8   24.10    1.59
   4  -3   8   23.50    1.11
  -4   3  -8   23.01    1.48
  -5  -3  -8   25.90    1.76
  -5  -3  -8   26.59    1.10
  -5   3  -8   25.21    1.64
  -6  -3  -8   20.72    0.91
  -6  -3  -8   18.77    1.52
  -6   3  -8   19.32    1.43
  -7  -3  -8   74.24    3.94
  -7  -3  -8   78.26    2.85
  -7   3  -8   70.51    3.75
  -8  -3  -8   33.53    2.28
  -8   3  -8   36.15    2.18
  -9  -3  -8    0.81    0.55
  -9   3  -8    0.16    0.44
 -10  -3  -8    8.23    1.21
 -10   3  -8    7.42    1.06
 -10   3  -8    9.68    0.83
 -11  -3  -8   28.99    2.21
 -11   3  -8   29.57    1.70
 -11   3  -8   28.99    2.05
 -12  -4   8    1.40    0.39
 -12   4   8    1.10    0.34
 -11  -4   8   13.90    0.91
 -11   4   8   13.09    1.05
 -11   4   8   13.52    0.86
 -10  -4   8    5.53    0.59
 -10   4   8    6.39    0.77
 -10   4   8    6.31    0.54
  -9  -4   8   25.17    1.25
  -9   4   8   22.50    1.41
  -9   4   8   25.00    1.20
   8  -4  -8    1.67    0.34
  -8  -4   8    1.86    0.33
  -8   4   8    1.43    0.29
  -8   4   8    1.23    0.37
  -7  -4   8   33.53    1.49
   7  -4  -8   31.45    1.51
  -7   4   8   34.04    1.43
  -7   4   8   31.12    1.69
  -6  -4   8   29.01    1.31
   6  -4  -8   28.74    1.32
  -6  -4   8   27.68    1.30
  -6   4   8   27.95    1.50
  -6   4   8   28.83    1.24
   6   4  -8   26.30    1.60
  -5  -4   8   65.31    2.55
   5  -4  -8   66.69    2.54
  -5  -4   8   61.96    2.62
  -5   4   8   63.02    2.46
   5   4  -8   61.50    3.03
  -5   4   8   64.05    2.83
  -4  -4   8    1.17    0.24
   4  -4  -8    0.52    0.23
  -4  -4   8    1.63    0.26
   4  -4  -8    1.41    0.24
  -4   4   8    1.21    0.32
   4   4  -8    0.98    0.32
  -4   4   8    1.26    0.21
  -3  -4   8   76.59    2.92
  -3  -4   8   74.44    3.05
   3  -4  -8   72.73    3.37
   3  -4  -8   76.23    2.86
   3   4  -8   77.72    3.48
  -3   4   8   78.24    3.22
  -3   4   8   70.71    2.79
   2  -4  -8   10.64    0.76
   2  -4  -8   10.80    0.57
  -2  -4   8    9.64    0.61
  -2   4   8   12.06    0.76
   2   4  -8   10.61    0.81
  -1  -4   8   17.12    0.88
   1  -4  -8   18.45    0.82
   1  -4  -8   17.26    1.11
  -1   4   8   18.17    0.76
  -1   4   8   18.41    1.02
   1   4  -8   18.13    1.13
   1   4  -8   18.31    0.81
   0  -4  -8    3.57    0.54
   0  -4   8    3.37    0.36
   0  -4  -8    3.72    0.29
   0   4  -8    3.53    0.51
   0   4   8    3.32    0.22
   0   4  -8    3.92    0.27
  -1  -4  -8   61.70    2.99
  -1  -4  -8   59.49    2.28
   1  -4   8   59.66    2.38
  -1   4  -8   60.26    2.22
  -1   4  -8   59.85    2.91
  -2  -4  -8   31.99    1.28
  -2  -4  -8   31.97    1.83
   2  -4   8   30.92    1.38
  -2   4  -8   30.89    1.19
   3  -4   8    0.53    0.18
  -3  -4  -8    0.33    0.30
  -3  -4  -8    0.89    0.16
  -3   4  -8    0.26    0.21
   4  -4   8    4.74    0.43
  -4  -4  -8    5.43    0.36
  -4  -4  -8    4.33    0.72
  -4   4  -8    5.01    0.69
  -5  -4  -8   73.07    2.67
  -5  -4  -8   69.15    3.63
  -5   4  -8   67.45    3.46
  -6  -4  -8   15.73    1.35
  -6  -4  -8   16.24    0.77
  -6   4  -8   14.18    1.18
  -7  -4  -8    9.66    1.23
  -7  -4  -8   11.51    0.62
  -7   4  -8   10.15    1.03
  -8  -4  -8    3.10    0.79
  -8   4  -8    3.38    0.69
  -9  -4  -8   34.21    2.37
  -9   4  -8   34.38    1.83
  -9   4  -8   36.54    2.21
 -10  -4  -8    5.08    1.01
 -10   4  -8    7.44    0.82
 -10   4  -8    6.02    0.93
 -11  -4  -8    0.02    0.55
 -11   4  -8    0.06    0.29
 -11   4  -8    0.32    0.50
 -11  -5   8    5.18    0.59
 -11   5   8    5.02    0.55
 -11   5   8    5.07    0.73
 -10  -5   8   -0.06    0.19
 -10   5   8    0.03    0.20
 -10   5   8   -0.19    0.26
  -9  -5   8   -0.19    0.18
   9  -5  -8   -0.01    0.20
  -9   5   8   -0.10    0.18
  -9   5   8   -0.32    0.24
   8  -5  -8   53.92    2.35
  -8  -5   8   57.21    2.32
  -8   5   8   54.61    2.24
  -8   5   8   52.85    2.59
  -7  -5   8    0.26    0.22
   7  -5  -8    0.29    0.19
  -7   5   8    0.56    0.29
  -7   5   8    0.73    0.21
  -6  -5   8    0.13    0.17
   6  -5  -8    0.01    0.13
  -6   5   8    0.21    0.22
  -6   5   8    0.31    0.16
   6   5  -8   -0.01    0.30
  -5  -5   8    6.29    0.51
   5  -5  -8    6.43    0.49
  -5  -5   8    6.53    0.45
  -5   5   8    6.15    0.43
   5   5  -8    6.80    0.72
  -5   5   8    6.73    0.63
  -4  -5   8  113.73    4.49
   4  -5  -8  114.11    4.27
  -4  -5   8  120.21    4.35
   4   5  -8  115.96    5.13
  -4   5   8  111.73    4.21
  -4   5   8  111.20    4.70
   3  -5  -8    7.37    0.47
  -3  -5   8    7.56    0.52
   3  -5  -8    6.10    0.57
  -3   5   8    6.79    0.40
  -3   5   8    6.68    0.59
   3   5  -8    7.61    0.70
   2  -5  -8    5.32    0.53
  -2  -5   8    5.07    0.43
   2  -5  -8    5.39    0.37
  -2   5   8    4.30    0.51
   2   5  -8    4.60    0.58
   1  -5  -8   19.24    0.86
   1  -5  -8   20.07    1.19
  -1  -5   8   18.95    0.93
  -1   5   8   17.14    0.77
   1   5  -8   20.35    1.20
   0  -5  -8  101.20    4.57
   0  -5  -8   99.93    3.69
   0  -5   8   99.73    3.79
   0   5  -8   98.46    4.52
  -1  -5  -8    0.83    0.32
   1  -5   8    0.52    0.18
  -1  -5  -8    0.62    0.15
  -1   5  -8    0.64    0.29
  -2  -5  -8   10.20    0.54
  -2  -5  -8   10.07    0.91
   2  -5   8   10.52    0.64
   2   5   8   10.58    0.73
  -3  -5  -8    4.56    0.33
  -3  -5  -8    5.03    0.74
   3  -5   8    4.38    0.45
  -3   5  -8    4.67    0.63
  -4  -5  -8   56.83    2.21
  -4  -5  -8   58.22    3.07
   4  -5   8   58.49    2.38
  -4   5  -8   56.16    2.90
  -5  -5  -8    0.56    0.16
  -5  -5  -8   -0.24    0.35
  -5   5  -8    0.80    0.37
  -6  -5  -8   10.02    1.21
  -6  -5  -8   10.97    0.59
  -6   5  -8    9.37    0.94
  -7  -5  -8    8.02    0.51
  -7  -5  -8    7.32    1.07
  -7   5  -8    8.21    0.97
  -8  -5  -8   40.88    2.60
  -8  -5  -8   41.37    1.70
  -8   5  -8   38.72    2.34
  -9  -5  -8   -0.57    0.39
  -9   5  -8    0.30    0.27
  -9   5  -8   -0.08    0.39
 -10  -5  -8   12.11    1.49
 -10   5  -8   12.45    1.21
 -10   5  -8   11.34    0.94
 -11  -6   8   13.41    0.92
 -11   6   8   13.99    0.87
 -11   6   8   13.84    1.12
 -10  -6   8    0.19    0.25
 -10   6   8    0.32    0.23
 -10   6   8    0.18    0.31
  -9  -6   8   26.18    1.34
   9  -6  -8   28.57    1.44
  -9   6   8   26.10    1.58
  -9   6   8   26.98    1.28
   8  -6  -8    0.58    0.26
  -8  -6   8    0.76    0.26
  -8   6   8    0.62    0.35
  -8   6   8    0.71    0.25
  -7  -6   8   37.89    1.70
   7  -6  -8   37.97    1.72
   7   6  -8   39.41    2.23
  -7   6   8   40.84    1.63
  -7   6   8   33.32    1.91
  -6  -6   8    0.93    0.26
   6  -6  -8    0.96    0.25
  -6   6   8    0.89    0.20
   6   6  -8    1.19    0.42
  -6   6   8    0.87    0.31
  -5  -6   8   43.88    1.84
   5  -6  -8   41.92    1.79
   5   6  -8   43.26    2.26
  -5   6   8   41.03    2.06
  -5   6   8   41.82    1.70
  -4  -6   8    0.05    0.18
   4  -6  -8    0.06    0.12
  -4   6   8    0.01    0.20
  -4   6   8    0.03    0.12
   4   6  -8   -0.09    0.26
  -3  -6   8  104.71    3.88
   3  -6  -8  101.34    3.78
   3  -6  -8   98.14    4.44
   3   6  -8  102.96    4.60
  -3   6   8   98.38    3.70
  -3   6   8  100.98    4.21
   2  -6  -8   22.02    1.03
   2  -6  -8   24.03    1.33
  -2  -6   8   24.00    1.13
   2   6  -8   23.73    1.40
  -2   6   8   24.35    1.29
   1  -6  -8   66.95    3.21
   1  -6  -8   70.53    2.60
  -1  -6   8   66.66    2.68
   1   6  -8   66.94    3.22
   0  -6  -8   -0.01    0.25
   0  -6   8    0.10    0.16
   0  -6  -8    0.55    0.15
   0   6   8    0.01    0.06
   0   6  -8    0.46    0.28
  -1  -6  -8   67.51    2.59
  -1  -6  -8   70.52    3.36
   1  -6   8   65.88    2.70
   1   6   8   69.49    2.95
   2  -6   8    1.10    0.25
  -2  -6  -8    1.16    0.20
  -2  -6  -8    1.18    0.37
   2   6   8    0.98    0.26
   3  -6   8    3.99    0.44
  -3  -6  -8    3.43    0.29
  -3  -6  -8    3.45    0.64
  -3   6  -8    3.38    0.55
  -4  -6  -8    0.51    0.16
   4  -6   8    0.14    0.20
  -4  -6  -8    0.45    0.40
  -4   6  -8    0.27    0.30
  -5  -6  -8  117.24    4.40
  -5  -6  -8  119.29    5.70
  -5   6  -8  120.92    5.48
  -6  -6  -8    0.25    0.37
  -6  -6  -8    0.20    0.15
  -6   6  -8    0.03    0.29
  -7  -6  -8   11.33    0.68
  -7  -6  -8   14.23    1.32
  -7   6  -8   12.48    1.09
  -8  -6  -8   -0.01    0.41
  -8  -6  -8    0.23    0.17
  -8   6  -8    0.13    0.36
  -8   6  -8    0.26    0.24
  -9  -6  -8   53.52    3.21
  -9   6  -8   54.83    2.93
  -9   6  -8   49.99    2.51
 -10  -6  -8    1.17    0.63
 -10   6  -8    0.81    0.37
 -10   6  -8    1.34    0.53
 -11  -7   8    0.21    0.27
 -11   7   8    0.04    0.24
 -11   7   8    0.39    0.37
 -10  -7   8    2.60    0.43
 -10   7   8    2.07    0.52
 -10   7   8    2.62    0.39
   9  -7  -8    2.85    0.46
  -9  -7   8    2.14    0.39
  -9   7   8    2.39    0.37
  -9   7   8    3.56    0.62
   8  -7  -8  100.62    3.93
  -8  -7   8   97.45    3.89
  -8   7   8   94.01    4.30
  -8   7   8  103.31    3.81
  -7  -7   8    1.15    0.30
   7  -7  -8    1.44    0.31
  -7   7   8    1.83    0.44
  -7   7   8    1.01    0.24
   7   7  -8    1.12    0.45
   6  -7  -8    0.45    0.20
  -6  -7   8    0.17    0.20
   6   7  -8    0.42    0.36
  -6   7   8    0.36    0.18
  -6   7   8    0.60    0.31
  -5  -7   8    0.69    0.23
   5  -7  -8    0.49    0.18
  -5   7   8    0.30    0.25
   5   7  -8    0.36    0.34
  -5   7   8    0.08    0.13
   4  -7  -8  118.63    4.50
  -4  -7   8  123.41    4.59
  -4   7   8  119.05    4.41
  -4   7   8  116.86    4.98
   4   7  -8  124.71    5.47
   3  -7  -8    0.25    0.14
  -3  -7   8    0.10    0.18
   3  -7  -8   -0.04    0.19
  -3   7   8    0.05    0.10
  -3   7   8    0.01    0.19
   3   7  -8    0.24    0.28
  -2  -7   8    5.58    0.50
   2  -7  -8    6.04    0.61
   2  -7  -8    6.42    0.43
   2   7  -8    6.97    0.71
   1  -7  -8    0.15    0.26
  -1  -7   8    0.14    0.19
   1  -7  -8    0.35    0.14
   1   7  -8    0.42    0.29
  -1   7   8    0.03    0.07
   0  -7  -8  146.26    6.45
   0  -7   8  145.63    5.42
   0  -7  -8  143.17    5.28
   0   7  -8  144.21    6.40
   1  -7   8    0.00    0.14
  -1  -7  -8   -0.02    0.10
  -1  -7  -8    0.14    0.28
  -1   7  -8   -0.08    0.17
   1   7   8    0.10    0.17
  -2  -7  -8   14.56    0.73
   2  -7   8   14.34    0.84
  -2  -7  -8   14.78    1.17
  -2   7  -8   15.15    1.08
   2   7   8   16.08    0.95
  -3  -7  -8    5.51    0.81
  -3  -7  -8    5.42    0.38
   3  -7   8    5.52    0.49
  -3   7  -8    4.86    0.67
  -4  -7  -8  102.21    4.95
  -4  -7  -8  102.92    3.82
   4  -7   8   98.56    3.99
  -4   7  -8  104.97    4.76
  -5  -7  -8    0.21    0.15
  -5  -7  -8   -0.31    0.34
   5  -7   8    0.13    0.18
  -5   7  -8   -0.06    0.30
  -6  -7  -8   23.95    1.10
  -6  -7  -8   24.05    1.77
  -6   7  -8   23.21    1.55
  -7  -7  -8    0.94    0.50
  -7  -7  -8    0.94    0.23
  -7   7  -8    1.67    0.50
  -8  -7  -8   46.37    2.91
  -8  -7  -8   48.80    1.98
  -8   7  -8   45.24    2.28
  -8   7  -8   48.50    2.64
  -9  -7  -8    0.37    0.52
  -9  -7  -8    1.00    0.26
  -9   7  -8    1.01    0.34
  -9   7  -8    0.31    0.42
 -10  -7  -8   12.96    1.61
 -10   7  -8   13.46    1.05
 -10   7  -8   15.73    1.33
 -11  -8   8   18.93    1.13
 -11   8   8   16.41    1.31
 -11   8   8   18.83    1.06
  10  -8  -8    6.66    0.72
 -10  -8   8    5.90    0.62
 -10   8   8    6.36    0.84
 -10   8   8    6.66    0.55
   9  -8  -8   47.21    2.15
  -9  -8   8   47.85    2.11
  -9   8   8   47.56    2.01
  -9   8   8   45.39    2.41
  -8  -8   8    1.67    0.35
   8  -8  -8    3.20    0.47
  -8   8   8    1.63    0.31
  -8   8   8    1.19    0.43
   7  -8  -8   53.06    2.31
  -7  -8   8   55.26    2.33
   7   8  -8   55.08    3.06
  -7   8   8   55.32    2.21
  -7   8   8   55.19    2.66
   6  -8  -8   17.10    0.92
  -6  -8   8   17.54    0.95
  -6   8   8   16.35    1.13
  -6   8   8   16.50    0.82
   6   8  -8   14.20    1.26
  -5  -8   8   39.95    1.84
   5  -8  -8   41.68    1.79
  -5   8   8   41.42    2.12
  -5   8   8   44.14    1.70
   5   8  -8   43.71    2.34
  -4  -8   8    1.27    0.30
   4  -8  -8    1.45    0.26
  -4   8   8    1.53    0.38
  -4   8   8    1.45    0.21
   4   8  -8    1.53    0.45
   3  -8  -8   93.00    3.50
   3  -8  -8   89.74    4.11
  -3  -8   8   93.21    3.60
   3   8  -8   94.24    4.31
  -3   8   8   90.70    3.38
   2  -8  -8   32.88    1.36
   2  -8  -8   29.69    1.67
  -2  -8   8   32.66    1.45
  -2   8   8   29.86    1.61
   2   8  -8   31.38    1.78
   1  -8  -8   35.54    1.48
  -1  -8   8   36.13    1.58
   1  -8  -8   33.80    1.89
  -1   8   8   35.67    1.76
   1   8  -8   35.13    1.93
   0  -8   8    1.24    0.27
   0  -8  -8    1.19    0.40
   0  -8  -8    1.16    0.21
   0   8  -8    1.28    0.39
   0   8   8    1.47    0.34
  -1  -8  -8   73.61    3.69
  -1  -8  -8   74.88    2.90
   1  -8   8   76.08    3.04
  -1   8  -8   75.50    3.62
   1   8   8   80.76    3.30
   2  -8   8   15.38    0.88
  -2  -8  -8   15.59    1.21
  -2  -8  -8   14.94    0.74
   2   8   8   15.62    0.95
  -2   8  -8   14.07    1.07
   3  -8   8    7.44    0.59
  -3  -8  -8    7.67    0.95
  -3  -8  -8    7.67    0.48
   3   8   8    7.58    0.63
  -3   8  -8    5.96    0.75
  -4  -8  -8   -0.25    0.32
  -4  -8  -8    0.62    0.18
   4  -8   8   -0.10    0.19
  -4   8  -8    0.12    0.30
   5  -8   8  100.32    4.00
  -5  -8  -8  102.02    3.78
  -5  -8  -8   97.46    4.95
  -5   8  -8  100.67    4.71
  -6  -8  -8   16.52    0.85
  -6  -8  -8   15.86    1.43
  -6   8  -8   16.13    1.23
  -7  -8  -8    2.72    0.36
  -7  -8  -8    2.67    0.69
  -7   8  -8    2.69    0.58
  -7   8  -8    2.88    0.48
  -8  -8  -8    6.15    1.04
  -8  -8  -8    6.71    0.51
  -8   8  -8    5.37    0.66
  -8   8  -8    4.98    0.81
  -9  -8  -8   40.83    2.78
  -9  -8  -8   44.69    1.88
  -9   8  -8   44.48    2.50
  -9   8  -8   41.15    2.17
 -10  -8  -8    2.73    0.78
 -10   8  -8    1.83    0.59
 -10   8  -8    2.30    0.50
 -11  -9   8   20.19    1.19
 -11   9   8   18.33    1.41
 -11   9   8   20.14    1.11
  10  -9  -8    0.74    0.32
 -10  -9   8    0.68    0.32
 -10   9   8    1.09    0.47
 -10   9   8    0.79    0.27
   9  -9  -8   14.47    0.93
  -9  -9   8   13.68    0.91
  -9   9   8   11.84    1.07
  -9   9   8   14.14    0.82
  -8  -9   8   64.20    2.87
   8  -9  -8   72.18    2.93
  -8   9   8   67.89    3.28
  -8   9   8   74.26    2.80
   7  -9  -8   34.46    1.55
  -7  -9   8   32.73    1.55
   7   9  -8   30.85    2.13
  -7   9   8   30.92    1.41
  -7   9   8   31.94    1.82
   6  -9  -8    1.57    0.32
  -6  -9   8    1.61    0.33
   6   9  -8    2.20    0.57
  -6   9   8    1.12    0.23
  -6   9   8    1.48    0.42
  -5  -9   8   17.46    0.99
   5  -9  -8   18.87    0.95
  -5   9   8   18.07    0.85
  -5   9   8   18.45    1.20
   5   9  -8   17.29    1.33
  -4  -9   8   85.04    3.32
   4  -9  -8   82.65    3.22
   4   9  -8   86.80    4.04
  -4   9   8   80.45    3.10
  -4   9   8   81.87    3.66
  -3  -9   8   19.42    1.02
   3  -9  -8   17.59    1.12
   3  -9  -8   18.61    0.92
  -3   9   8   20.26    1.20
   3   9  -8   18.79    1.30
  -2  -9   8   23.41    1.17
   2  -9  -8   23.25    1.07
   2  -9  -8   21.66    1.35
   2   9  -8   24.93    1.49
  -2   9   8   22.44    1.32
  -1  -9   8   58.97    2.51
   1  -9  -8   62.79    2.40
   1  -9  -8   59.16    2.98
   1   9  -8   62.01    3.04
  -1   9   8   63.14    2.78
   0  -9   8  110.50    4.22
   0  -9  -8  107.68    5.01
   0  -9  -8  103.82    4.05
   0   9  -8  109.34    4.99
   0   9   8  114.76    4.55
  -1  -9  -8   18.89    0.87
   1  -9   8   17.66    0.99
  -1  -9  -8   17.89    1.30
   1   9   8   16.57    1.05
  -1   9  -8   17.05    1.20
  -2  -9  -8    8.08    0.99
  -2  -9  -8    9.31    0.56
   2  -9   8    9.88    0.69
  -2   9  -8    9.61    0.88
   2   9   8   11.61    0.79
  -3  -9  -8   60.45    2.37
  -3  -9  -8   58.43    3.17
   3  -9   8   61.57    2.55
   3   9   8   60.93    2.69
  -3   9  -8   58.66    3.00
  -4  -9  -8   24.31    1.13
   4  -9   8   25.18    1.31
  -4  -9  -8   24.53    1.73
  -4   9  -8   25.73    1.58
  -5  -9  -8    5.94    0.94
   5  -9   8    6.78    0.62
  -5  -9  -8    6.13    0.47
  -5   9  -8    6.62    0.83
  -6  -9  -8   20.22    0.99
  -6  -9  -8   18.46    1.60
  -6   9  -8   20.42    1.20
  -6   9  -8   19.81    1.40
  -7  -9  -8   15.18    1.43
  -7  -9  -8   15.47    0.84
  -7   9  -8   14.74    1.21
  -7   9  -8   14.37    1.00
  -8  -9  -8   17.85    1.62
  -8  -9  -8   18.91    0.97
  -8   9  -8   17.02    1.36
  -8   9  -8   17.58    1.16
  -9  -9  -8    0.24    0.47
  -9  -9  -8    0.30    0.21
  -9   9  -8   -0.31    0.34
  -9   9  -8    0.07    0.24
 -10  -9  -8    9.98    1.42
 -10  -9  -8   10.17    0.71
 -10   9  -8   10.13    0.89
 -10   9  -8    8.15    1.06
  10 -10  -8   44.56    2.03
 -10 -10   8   39.20    1.93
 -10  10   8   41.14    1.83
 -10  10   8   37.42    2.23
   9 -10  -8   18.43    1.09
  -9 -10   8   18.31    1.07
  -9  10   8   16.42    0.93
  -9  10   8   15.79    1.26
  -8 -10   8   -0.05    0.22
   8 -10  -8    0.31    0.24
   8  10  -8    0.57    0.56
  -8  10   8   -0.13    0.16
  -8  10   8    0.33    0.36
   7 -10  -8   15.99    0.96
  -7 -10   8   17.10    1.01
  -7  10   8   16.86    0.87
   7  10  -8   19.06    1.60
  -7  10   8   17.41    1.24
   6 -10  -8   72.62    2.81
  -6 -10   8   67.33    2.84
  -6  10   8   69.04    2.67
  -6  10   8   66.58    3.20
   6  10  -8   68.29    3.65
   5 -10  -8   17.40    0.90
  -5 -10   8   15.87    0.94
  -5  10   8   15.25    0.77
   5  10  -8   18.51    1.37
  -5  10   8   15.12    1.12
  -4 -10   8    0.43    0.22
   4 -10  -8    0.34    0.18
   4  10  -8   -0.27    0.31
  -4  10   8    0.26    0.26
  -3 -10   8   38.63    1.73
   3 -10  -8   35.38    1.59
  -3  10   8   37.37    1.93
   3  10  -8   39.37    2.15
  -2 -10   8   32.51    1.49
   2 -10  -8   28.82    1.68
   2 -10  -8   31.01    1.36
   2  10  -8   31.19    1.82
  -2  10   8   31.93    1.67
   1 -10  -8    2.64    0.32
  -1 -10   8    2.24    0.37
   1 -10  -8    1.90    0.48
  -1  10   8    1.95    0.41
   1  10  -8    2.25    0.50
   0 -10  -8   12.96    0.71
   0 -10  -8   12.20    1.08
   0 -10   8   13.53    0.82
   0  10  -8   14.42    1.08
   0  10   8   15.33    0.96
  -1 -10  -8   28.10    1.30
   1 -10   8   32.39    1.48
  -1  10  -8   28.35    1.74
   1  10   8   32.73    1.60
   2 -10   8   83.03    3.28
  -2 -10  -8   77.62    3.08
   2  10   8   82.71    3.47
  -2  10  -8   78.47    3.84
   3 -10   8    1.63    0.36
  -3 -10  -8    1.79    0.27
  -3  10  -8    1.37    0.44
   3  10   8    2.12    0.40
   4 -10   8   16.43    1.02
  -4 -10  -8   19.26    0.91
  -4  10  -8   16.31    1.23
  -5 -10  -8   37.90    1.62
   5 -10   8   38.60    1.84
  -5 -10  -8   38.04    2.39
  -5  10  -8   37.22    1.85
  -5  10  -8   37.33    2.14
  -6 -10  -8   40.51    1.70
  -6 -10  -8   38.38    2.47
  -6  10  -8   38.67    1.93
  -6  10  -8   37.29    2.20
  -7 -10  -8    1.23    0.61
  -7 -10  -8    1.43    0.30
  -7  10  -8    1.98    0.54
  -7  10  -8    1.89    0.42
  -8 -10  -8   25.22    1.20
  -8 -10  -8   20.89    1.83
  -8  10  -8   24.28    1.64
  -8  10  -8   22.01    1.38
  -9 -10  -8   16.05    0.91
  -9 -10  -8   14.26    1.51
  -9  10  -8   13.83    1.06
  -9  10  -8   16.13    1.31
  10 -11  -8   -0.08    0.23
 -10 -11   8   -0.60    0.21
 -10  11   8    0.20    0.39
 -10  11   8   -0.05    0.20
  -9 -11   8   21.27    1.22
   9 -11  -8   22.81    1.27
  -9  11   8   21.42    1.50
  -9  11   8   22.16    1.12
  -8 -11   8   18.12    1.12
   8 -11  -8   19.13    1.11
  -8  11   8   21.27    1.03
  -8  11   8   19.03    1.38
   8  11  -8   23.68    1.94
  -7 -11   8   32.69    1.62
   7 -11  -8   33.74    1.58
   7  11  -8   33.04    2.33
  -7  11   8   33.06    1.91
  -7  11   8   33.49    1.47
  -6 -11   8   -0.05    0.21
   6 -11  -8    0.13    0.18
  -6  11   8    0.03    0.16
   6  11  -8   -0.18    0.38
  -6  11   8    0.31    0.31
  -5 -11   8   46.58    2.08
   5 -11  -8   45.60    1.99
   5  11  -8   50.75    2.75
  -5  11   8   45.08    2.36
   4 -11  -8   11.07    0.68
  -4 -11   8   10.59    0.75
  -4  11   8   11.36    0.92
   4  11  -8   12.17    1.09
   3 -11  -8   18.43    0.93
  -3 -11   8   17.88    1.02
   3  11  -8   18.82    1.36
  -3  11   8   18.13    1.20
   2 -11  -8    0.93    0.34
   2 -11  -8    1.37    0.24
  -2 -11   8    1.46    0.32
  -2  11   8    0.59    0.29
   2  11  -8    0.94    0.39
   1 -11  -8   48.49    2.01
  -1 -11   8   50.00    2.15
  -1  11   8   51.05    2.38
   1  11  -8   47.97    2.58
   0 -11   8    3.08    0.44
   0 -11  -8    3.66    0.38
   0  11   8    3.29    0.50
   0  11  -8    3.29    0.58
  -1 -11  -8   19.05    0.93
   1 -11   8   19.11    1.07
  -1  11  -8   18.58    1.30
   1  11   8   19.15    1.15
   2 -11   8    3.27    0.46
  -2 -11  -8    2.22    0.31
  -2  11  -8    2.94    0.55
   2  11   8    3.09    0.47
  -3 -11  -8   91.18    3.48
   3 -11   8   88.67    3.68
   3  11   8   93.07    3.88
  -3  11  -8   90.98    4.32
  -4 -11  -8   28.55    1.31
   4 -11   8   28.32    1.49
  -4  11  -8   28.24    1.76
  -4  11  -8   30.13    1.50
   5 -11   8    1.11    0.34
  -5 -11  -8    1.27    0.26
  -5  11  -8    1.74    0.48
  -5  11  -8    1.41    0.35
  -6 -11  -8    2.56    0.36
  -6  11  -8    2.43    0.56
  -6  11  -8    2.46    0.45
  -7 -11  -8   54.34    3.28
  -7 -11  -8   59.19    2.36
  -7  11  -8   54.96    2.96
  -7  11  -8   55.15    2.62
  -8 -11  -8    9.26    1.31
  -8 -11  -8   11.33    0.74
  -8  11  -8   10.47    1.07
  -8  11  -8   11.92    0.92
  -9 -11  -8    0.32    0.50
  -9 -11  -8    0.13    0.23
  -9  11  -8    0.30    0.30
  -9  11  -8   -0.16    0.36
 -10 -12   8   49.27    2.32
  10 -12  -8   54.13    2.39
 -10  12   8   49.87    2.18
 -10  12   8   48.36    2.68
   9 -12  -8    0.50    0.29
  -9 -12   8    0.48    0.32
  -9  12   8    0.36    0.24
  -9  12   8    0.55    0.41
   8 -12  -8    3.79    0.51
  -8 -12   8    3.74    0.52
  -8  12   8    2.99    0.64
  -8  12   8    3.69    0.42
   8  12  -8    3.91    0.96
  -7 -12   8    0.54    0.29
   7 -12  -8    0.70    0.27
   7  12  -8    0.83    0.58
  -7  12   8    0.33    0.34
  -7  12   8    0.65    0.22
  -6 -12   8   62.00    2.74
   6 -12  -8   67.88    2.69
   6  12  -8   68.91    3.67
  -6  12   8   61.87    3.10
   5 -12  -8   -0.01    0.15
  -5 -12   8   -0.27    0.16
  -5  12   8    0.03    0.24
   5  12  -8    0.14    0.43
   4 -12  -8    0.47    0.22
  -4 -12   8    0.17    0.25
  -4  12   8    0.87    0.35
   4  12  -8    0.49    0.43
  -3 -12   8    0.19    0.22
   3 -12  -8    0.34    0.18
  -3  12   8    0.12    0.25
   3  12  -8    0.72    0.42
  -2 -12   8  110.72    4.26
   2 -12  -8  109.40    4.10
   2  12  -8  106.26    5.09
  -2  12   8  106.54    4.62
  -1 -12   8    3.37    0.48
   1 -12  -8    4.32    0.38
  -1  12   8    3.22    0.53
   1  12  -8    3.69    0.63
   0 -12   8    7.63    0.64
   0 -12  -8    9.81    0.59
   0  12  -8    9.58    0.88
   0  12   8    8.72    0.74
   1 -12   8   -0.12    0.16
  -1 -12  -8    0.10    0.14
  -1  12  -8    0.27    0.31
   1  12   8    0.13    0.20
  -2 -12  -8   72.76    2.89
   2 -12   8   77.83    3.11
   2  12   8   73.61    3.24
  -2  12  -8   70.56    3.60
  -2  12  -8   74.62    3.11
  -3 -12  -8    2.03    0.31
   3 -12   8    2.53    0.44
  -3  12  -8    2.11    0.37
  -3  12  -8    1.50    0.47
   3  12   8    2.77    0.45
   4 -12   8   16.33    1.05
  -4 -12  -8   17.29    0.89
  -4  12  -8   16.36    1.01
  -4  12  -8   16.58    1.25
   5 -12   8    3.52    0.55
  -5 -12  -8    3.86    0.43
  -5  12  -8    4.03    0.67
  -5  12  -8    4.48    0.57
  -6 -12  -8   52.15    2.17
  -6  12  -8   49.32    2.40
  -6  12  -8   52.92    2.79
  -7 -12  -8    1.61    0.31
  -7  12  -8    1.40    0.38
  -7  12  -8    1.02    0.49
  -8 -12  -8   19.48    1.05
  -8 -12  -8   16.32    1.61
  -8  12  -8   17.81    1.41
  -8  12  -8   19.99    1.25
  -9 -12  -8    0.75    0.57
  -9 -12  -8    0.68    0.28
  -9  12  -8    1.50    0.55
  -9  12  -8    1.29    0.41
   9 -13  -8   23.25    1.32
  -9 -13   8   24.12    1.35
  -9  13   8   23.17    1.18
  -9  13   8   23.32    1.62
   8 -13  -8    0.45    0.26
  -8 -13   8    0.99    0.34
  -8  13   8    0.20    0.35
   8  13  -8    1.61    0.70
   7 -13  -8   24.39    1.27
  -7 -13   8   22.26    1.28
  -7  13   8   23.14    1.56
   7  13  -8   26.89    2.09
  -6 -13   8    0.01    0.23
   6 -13  -8    0.10    0.19
  -6  13   8    0.28    0.31
   6  13  -8   -0.03    0.47
  -5 -13   8   35.53    1.74
   5 -13  -8   37.20    1.65
  -5  13   8   35.42    2.01
   5  13  -8   37.50    2.40
  -4 -13   8    0.13    0.21
   4 -13  -8    0.07    0.16
  -4  13   8    0.35    0.28
   4  13  -8    0.08    0.40
  -3 -13   8   54.98    2.42
   3 -13  -8   55.52    2.29
  -3  13   8   57.03    2.73
   3  13  -8   55.93    3.03
  -2 -13   8    0.17    0.24
   2 -13  -8    0.22    0.16
  -2  13   8    0.28    0.28
   2  13  -8    0.26    0.37
   1 -13  -8   59.65    2.41
  -1 -13   8   57.85    2.55
   1  13  -8   59.44    3.10
  -1  13   8   62.36    2.83
   0 -13   8    2.95    0.47
   0 -13  -8    2.88    0.35
   0  13  -8    2.38    0.53
   0  13   8    2.70    0.49
   1 -13   8    9.07    0.69
  -1 -13  -8    7.85    0.55
  -1  13  -8    8.38    0.60
  -1  13  -8    8.05    0.86
   1  13   8    9.01    0.74
   2 -13   8    0.28    0.26
  -2 -13  -8    0.11    0.16
  -2  13  -8   -0.11    0.29
  -2  13  -8    0.35    0.19
   2  13   8    0.23    0.23
  -3 -13  -8   86.22    3.36
   3 -13   8   87.00    3.59
  -3  13  -8   83.41    4.16
   3  13   8   92.16    3.76
  -3  13  -8   83.74    3.60
   4 -13   8    0.28    0.26
  -4 -13  -8    0.29    0.19
  -4  13  -8    0.31    0.22
  -4  13  -8    0.69    0.40
   5 -13   8    5.72    0.70
  -5 -13  -8    6.04    0.51
  -5  13  -8    6.27    0.83
  -5  13  -8    5.79    0.65
  -6 -13  -8    0.86    0.27
  -6  13  -8    1.20    0.35
  -6  13  -8    0.96    0.44
  -7 -13  -8   41.59    1.84
  -7  13  -8   41.81    2.08
  -7  13  -8   39.54    2.35
  -8 -13  -8    0.42    0.54
  -8 -13  -8    0.46    0.26
  -8  13  -8    0.61    0.33
  -8  13  -8    0.68    0.44
   9 -14  -8    5.77    0.66
  -9 -14   8    3.66    0.58
  -9  14   8    4.40    0.80
   8 -14  -8   -0.07    0.21
  -8 -14   8   -0.01    0.23
  -8  14   8   -0.21    0.30
   8  14  -8    0.13    0.57
   7 -14  -8    6.87    0.60
  -7 -14   8    7.59    0.68
   7  14  -8    7.75    1.31
  -7  14   8    5.86    0.84
   6 -14  -8   24.42    1.26
  -6 -14   8   24.59    1.35
  -6  14   8   25.85    1.63
   6  14  -8   23.61    1.98
   5 -14  -8    2.67    0.40
  -5 -14   8    2.52    0.43
   5  14  -8    2.67    0.74
  -5  14   8    2.15    0.50
  -4 -14   8    0.81    0.32
   4 -14  -8    1.06    0.26
  -4  14   8    1.20    0.40
   4  14  -8    1.39    0.57
  -3 -14   8    2.01    0.39
   3 -14  -8    1.85    0.31
   3  14  -8    1.47    0.55
  -3  14   8    1.30    0.41
  -2 -14   8   64.67    2.78
   2 -14  -8   62.69    2.62
  -2  14   8   69.32    3.11
   2  14  -8   66.44    3.44
  -1 -14   8    3.35    0.51
   1 -14  -8    4.12    0.43
  -1  14   8    3.75    0.59
   1  14  -8    4.05    0.70
   0 -14   8    4.53    0.56
   0 -14  -8    3.96    0.43
   0  14  -8    4.59    0.71
   0  14   8    3.45    0.54
  -1 -14  -8   12.34    0.72
   1 -14   8   12.12    0.85
   1  14   8   13.19    0.93
  -1  14  -8   11.47    0.73
  -1  14  -8   11.22    1.04
   2 -14   8   39.66    1.96
  -2 -14  -8   41.51    1.77
  -2  14  -8   41.20    1.88
  -2  14  -8   40.10    2.31
   2  14   8   41.99    2.05
   3 -14   8    1.65    0.40
  -3 -14  -8    1.61    0.30
  -3  14  -8    1.09    0.45
  -3  14  -8    1.62    0.34
   3  14   8    2.11    0.42
  -4 -14  -8    4.55    0.48
   4 -14   8    4.27    0.60
  -4  14  -8    4.85    0.74
  -4  14  -8    4.60    0.56
   5 -14   8    4.90    0.67
  -5 -14  -8    5.32    0.54
  -5  14  -8    5.56    0.64
  -5  14  -8    3.96    0.71
  -6 -14  -8   34.21    1.58
  -6  14  -8   34.15    1.77
  -6  14  -8   32.49    2.04
  -7 -14  -8   -0.14    0.16
  -7  14  -8   -0.05    0.24
  -7  14  -8   -0.07    0.36
  -8 -14  -8   14.11    0.87
  -8  14  -8   12.04    0.99
  -8  14  -8   12.48    1.19
  -8 -15   8   10.67    0.87
   8 -15  -8   12.59    0.86
  -8  15   8   11.02    1.21
   8  15  -8   10.26    1.62
  -7 -15   8   10.70    0.82
   7 -15  -8    9.65    0.73
  -7  15   8    7.81    0.99
   7  15  -8    8.96    1.44
   6 -15  -8   -0.04    0.19
  -6 -15   8   -0.15    0.24
  -6  15   8   -0.22    0.28
   6  15  -8   -0.48    0.48
  -5 -15   8   15.52    0.87
  -5 -15   8   15.02    1.00
   5 -15  -8   15.78    0.91
  -5  15   8   15.59    1.22
   5  15  -8   15.40    1.53
  -4 -15   8   13.86    0.95
   4 -15  -8   14.71    0.86
   4  15  -8   14.42    1.42
  -4  15   8   16.03    1.19
  -3 -15   8   16.07    1.02
   3 -15  -8   16.03    0.90
   3  15  -8   16.01    1.42
  -3  15   8   16.01    1.18
   2 -15  -8    1.46    0.29
  -2 -15   8    1.42    0.36
   2  15  -8    0.90    0.50
  -2  15   8    1.18    0.39
  -1 -15   8   25.94    1.40
   1 -15  -8   25.89    1.26
  -1  15   8   27.98    1.60
   1  15  -8   27.01    1.80
   0 -15  -8   14.42    0.81
   0 -15   8   14.17    0.94
   0  15   8   12.86    0.99
   0  15  -8   14.05    1.20
   1 -15   8    4.98    0.61
  -1 -15  -8    3.98    0.44
   1  15   8    4.11    0.59
  -1  15  -8    5.11    0.77
  -2 -15  -8    0.39    0.20
   2 -15   8    0.39    0.27
   2  15   8    0.68    0.30
  -2  15  -8    0.46    0.21
  -2  15  -8   -0.15    0.32
   3 -15   8   44.87    2.10
  -3 -15  -8   39.27    1.84
  -3  15  -8   41.20    2.40
  -3  15  -8   43.31    1.99
   3  15   8   45.70    2.14
  -4 -15  -8    8.60    0.65
   4 -15   8   10.23    0.85
  -4  15  -8   10.17    1.00
  -4  15  -8   10.54    0.77
  -5 -15  -8    4.56    0.51
   5 -15   8    5.79    0.73
  -5  15  -8    5.29    0.80
  -5  15  -8    4.37    0.59
  -6 -15  -8    5.76    0.59
  -6  15  -8    5.21    0.66
  -6  15  -8    5.73    0.85
  -7 -15  -8   24.90    1.29
  -7  15  -8   25.05    1.47
  -7  15  -8   23.03    1.67
  -8 -16   8    0.15    0.23
   8 -16  -8    0.01    0.21
   7 -16  -8   14.13    0.93
  -7 -16   8   15.60    0.95
  -7 -16   8   14.93    1.03
   7  16  -8   16.01    1.94
  -7  16   8   14.68    1.25
  -6 -16   8   21.90    1.15
   6 -16  -8   20.46    1.15
  -6 -16   8   22.70    1.29
   6  16  -8   24.17    2.07
  -6  16   8   20.16    1.49
  -5 -16   8   15.12    1.01
   5 -16  -8   16.53    0.94
  -5 -16   8   16.13    0.89
   5  16  -8   13.44    1.65
  -5  16   8   14.18    1.20
   4 -16  -8    0.29    0.20
  -4 -16   8   -0.11    0.25
  -4  16   8    0.33    0.31
   4  16  -8    0.07    0.46
  -3 -16   8   13.64    0.95
   3 -16  -8   14.67    0.85
  -3  16   8   14.69    1.13
   3  16  -8   13.55    1.36
   2 -16  -8   38.38    1.76
  -2 -16   8   38.72    1.92
  -2  16   8   42.12    2.18
   2  16  -8   43.00    2.52
   1 -16  -8    2.92    0.38
  -1 -16   8    3.25    0.50
   1  16  -8    1.99    0.59
  -1  16   8    1.91    0.48
   0 -16  -8    2.32    0.36
   0 -16   8    2.27    0.45
   0  16   8    2.56    0.49
   0  16  -8    2.55    0.60
   1 -16   8   27.55    1.50
  -1 -16  -8   26.75    1.31
   1  16   8   29.46    1.60
  -1  16  -8   26.58    1.81
   2 -16   8   15.01    1.09
  -2 -16  -8   17.01    0.94
   2  16   8   18.63    1.17
  -2  16  -8   17.05    1.35
   3 -16   8   12.95    0.96
  -3 -16  -8   13.02    0.79
  -3  16  -8   11.03    1.09
  -3  16  -8   11.67    0.83
   3  16   8   13.16    0.95
  -4 -16  -8    4.70    0.52
   4 -16   8    4.99    0.67
  -4  16  -8    4.18    0.72
  -4  16  -8    4.96    0.60
   5 -16   8   16.92    1.17
  -5 -16  -8   15.69    0.93
  -5  16  -8   16.18    1.31
  -5  16  -8   15.58    1.05
  -6 -16  -8   24.84    1.26
  -6  16  -8   23.15    1.66
  -6  16  -8   22.43    1.38
  -7 -16  -8   -0.24    0.17
  -7 -17   8    3.35    0.47
   7 -17  -8    3.09    0.47
  -7 -17   8    2.96    0.53
   7  17  -8    3.98    1.09
  -7  17   8    3.07    0.67
  -6 -17   8    0.09    0.19
   6 -17  -8   -0.13    0.20
  -6 -17   8   -0.37    0.24
  -6  17   8    0.51    0.39
   6  17  -8    0.31    0.61
  -5 -17   8    5.72    0.68
   5 -17  -8    5.72    0.60
  -5  17   8    8.72    1.04
   5  17  -8    6.90    1.21
   4 -17  -8   46.63    2.04
  -4 -17   8   44.64    2.16
   4  17  -8   48.14    3.00
  -4  17   8   45.37    2.47
   3 -17  -8    3.83    0.46
  -3 -17   8    3.17    0.51
   3  17  -8    4.49    0.90
  -3  17   8    4.34    0.71
   2 -17  -8    4.51    0.50
  -2 -17   8    5.62    0.66
  -2  17   8    5.74    0.76
   2  17  -8    4.83    0.91
  -1 -17   8   13.28    0.97
   1 -17  -8   14.82    0.85
  -1  17   8   15.50    1.13
   1  17  -8   13.91    1.33
   0 -17  -8   45.21    2.02
   0 -17   8   44.84    2.21
   0  17   8   51.34    2.42
   0  17  -8   47.66    2.75
  -1 -17  -8    3.54    0.44
   1 -17   8    3.21    0.57
  -1  17  -8    3.77    0.73
   1  17   8    5.65    0.70
  -2 -17  -8    4.18    0.47
   2 -17   8    2.37    0.51
   2  17   8    4.92    0.65
  -2  17  -8    4.09    0.73
  -3 -17  -8    7.00    0.58
   3 -17   8    7.00    0.79
   3  17   8    7.59    0.73
  -3  17  -8    6.53    0.90
   4 -17   8   30.14    1.67
  -4 -17  -8   28.50    1.42
  -4  17  -8   29.59    1.56
  -4  17  -8   29.16    1.92
  -5 -17  -8    0.46    0.26
   5 -17   8    0.49    0.35
  -5  17  -8    0.69    0.31
  -5  17  -8    0.54    0.43
  -6 -17  -8   10.77    0.75
  -6  17  -8    9.78    0.84
  -6  17  -8    8.34    1.06
  -6 -18   8    4.03    0.59
   6 -18  -8    4.11    0.54
  -6  18   8    4.91    0.80
   6  18  -8    2.97    0.97
  -5 -18   8   21.33    1.28
   5 -18  -8   22.23    1.19
  -5  18   8   20.94    1.53
   5  18  -8   21.52    2.02
   4 -18  -8    0.47    0.25
  -4 -18   8    0.31    0.30
   4  18  -8    0.15    0.59
  -4  18   8    0.10    0.30
   3 -18  -8   43.36    1.92
  -3 -18   8   41.71    2.06
   3  18  -8   40.81    2.77
  -3  18   8   44.21    2.35
  -2 -18   8    0.21    0.31
   2 -18  -8    0.34    0.21
  -2  18   8    0.50    0.33
   2  18  -8    0.27    0.50
  -1 -18   8    9.58    0.80
   1 -18  -8    9.10    0.66
  -1  18   8    9.71    0.90
   1  18  -8    9.30    1.20
   0 -18   8    0.14    0.30
   0 -18  -8    0.49    0.23
   0  18  -8    0.27    0.44
   0  18   8    0.34    0.32
   1 -18   8   56.66    2.60
  -1 -18  -8   53.59    2.36
  -1  18  -8   52.45    3.10
   1  18   8   61.74    2.76
   2 -18   8    1.58    0.45
  -2 -18  -8    2.22    0.37
  -2  18  -8    2.53    0.65
   2  18   8    2.27    0.48
   3 -18   8    8.42    0.88
  -3 -18  -8    7.75    0.62
  -3  18  -8    7.00    0.97
  -4 -18  -8    0.41    0.23
   4 -18   8   -0.06    0.31
  -4  18  -8    0.48    0.45
  -5 -18  -8   25.94    1.34
   5 -18   8   27.67    1.62
  -5  18  -8   24.91    1.46
  -5  18  -8   24.86    1.79
   5 -19  -8    0.13    0.23
  -5 -19   8   -0.24    0.23
   5  19  -8    0.21    0.68
  -5  19   8    0.20    0.35
   4 -19  -8   33.03    1.60
  -4 -19   8   33.99    1.77
  -4  19   8   32.08    1.99
   4  19  -8   33.49    2.54
   3 -19  -8    2.84    0.42
  -3 -19   8    3.79    0.59
  -3  19   8    3.30    0.64
   3  19  -8    3.13    0.90
   2 -19  -8    3.73    0.48
  -2 -19   8    3.87    0.59
  -2  19   8    4.92    0.74
   2  19  -8    3.42    0.85
   1 -19  -8    0.25    0.21
  -1 -19   8    0.08    0.29
   1  19  -8   -0.15    0.44
  -1  19   8    0.08    0.27
   0 -19  -8   39.30    1.86
   0 -19   8   45.02    2.13
   0  19  -8   38.41    2.57
   0  19   8   44.77    2.25
  -1 -19  -8    0.62    0.25
   1 -19   8   -0.36    0.28
  -1  19  -8   -0.35    0.40
   1  19   8    0.27    0.31
  -2 -19  -8    3.59    0.46
   2 -19   8    3.33    0.59
  -2  19  -8    3.49    0.76
  -3 -19  -8    0.28    0.22
   3 -19   8    0.63    0.36
  -3  19  -8    0.59    0.48
  -4 -19  -8   34.46    1.68
   4 -19   8   39.04    2.01
  -4  19  -8   31.90    2.21
   3 -20  -8   13.67    0.86
  -3 -20   8   11.69    0.94
  -3  20   8   12.35    1.11
   3  20  -8   11.81    1.58
   2 -20  -8    7.07    0.61
  -2 -20   8    8.70    0.89
  -2  20   8    8.42    0.98
   2  20  -8    6.92    1.18
   1 -20  -8    5.50    0.60
  -1 -20   8    6.16    0.77
   1  20  -8    6.15    1.07
  -1  20   8    7.49    0.90
   0 -20   8    0.88    0.40
   0 -20  -8    1.10    0.29
   0  20   8    1.22    0.44
   0  20  -8    1.17    0.64
  -1 -20  -8   34.49    1.67
   1 -20   8   37.86    1.95
   1  20   8   34.57    1.94
  -1  20  -8   35.55    2.39
  -2 -20  -8    3.82    0.50
   2 -20   8    4.60    0.69
  -2  20  -8    2.75    0.74
 -11   0   9    4.68    0.55
 -10   0   9   -0.50    0.21
  -9   0   9   69.04    3.04
  -9   0   9   69.56    2.82
  -8   0   9    0.08    0.20
  -8   0   9    0.31    0.21
  -7   0   9    9.87    0.71
  -7   0   9    9.37    0.62
  -6   0   9   -0.03    0.18
   6   0  -9   -0.09    0.14
  -6   0   9    0.01    0.16
   5   0  -9  156.72    6.74
   5   0  -9  156.49    5.81
  -5   0   9  155.65    6.19
  -5   0   9  157.40    5.78
   4   0  -9    0.32    0.27
  -4   0   9   -0.07    0.15
  -4   0   9    0.13    0.18
   4   0  -9    0.44    0.17
   3   0  -9    1.78    0.25
  -3   0   9    2.37    0.36
  -3   0   9    1.28    0.24
   3   0  -9    1.54    0.34
   2   0  -9   -0.23    0.22
  -2   0   9   -0.07    0.13
  -2   0   9    0.02    0.14
   2   0  -9    0.09    0.11
   1   0  -9  100.28    4.47
   1   0  -9   98.20    3.63
  -1   0   9  100.68    4.03
  -1   0   9   95.08    3.67
   0   0  -9    0.18    0.10
   0   0  -9   -0.31    0.22
   0   0   9   -0.05    0.10
   1   0   9    0.94    0.18
  -1   0  -9    1.09    0.35
  -1   0  -9    1.58    0.19
  -2   0  -9    0.28    0.10
  -2   0  -9    0.32    0.28
   2   0   9    0.10    0.11
  -3   0  -9  142.68    6.23
  -3   0  -9  138.79    4.89
   3   0   9  128.15    4.98
  -4   0  -9    0.82    0.44
  -5   0  -9    6.79    0.91
  -6   0  -9   -0.52    0.32
  -7   0  -9   33.56    2.18
  -8   0  -9   -0.58    0.40
  -9   0  -9   16.25    1.50
 -10   0  -9   -0.14    0.45
 -11  -1   9    5.82    0.61
 -11   1   9    5.95    0.61
 -10  -1   9   31.91    1.53
 -10   1   9   31.87    1.52
  -9  -1   9   -0.08    0.21
  -9   1   9    0.04    0.24
  -9   1   9    0.23    0.25
  -8  -1   9   29.87    1.37
  -8  -1   9   27.40    1.45
  -8   1   9   27.83    1.50
  -8   1   9   30.21    1.36
  -7  -1   9    7.02    0.60
  -7  -1   9    7.87    0.56
   7  -1  -9    7.50    0.59
  -7   1   9    8.70    0.67
  -7   1   9    7.78    0.54
   6  -1  -9   72.31    2.75
  -6  -1   9   68.77    2.67
  -6  -1   9   65.25    2.85
  -6   1   9   64.56    2.89
  -6   1   9   64.79    2.63
  -5  -1   9    0.62    0.23
   5  -1  -9    1.00    0.24
  -5  -1   9    1.10    0.27
  -5   1   9    1.38    0.31
   5   1  -9    0.29    0.29
   5   1  -9    1.50    0.28
  -5   1   9    0.51    0.22
  -4  -1   9   69.97    2.71
  -4  -1   9   68.20    2.91
   4  -1  -9   71.74    3.19
   4  -1  -9   69.46    2.71
   4   1  -9   72.12    3.22
  -4   1   9   66.50    2.67
   4   1  -9   69.44    2.72
  -4   1   9   67.00    2.95
  -3  -1   9   15.20    0.88
   3  -1  -9   15.35    0.97
  -3  -1   9   15.00    0.78
   3  -1  -9   14.95    0.76
   3   1  -9   17.62    1.04
  -3   1   9   14.82    0.76
   3   1  -9   14.56    0.76
  -3   1   9   15.71    0.91
   2  -1  -9   57.24    2.16
  -2  -1   9   57.53    2.41
  -2  -1   9   52.23    2.17
   2  -1  -9   53.97    2.64
   2   1  -9   57.52    2.16
  -2   1   9   51.98    2.14
  -2   1   9   57.85    2.44
   2   1  -9   53.54    2.65
   1  -1  -9    0.16    0.11
  -1  -1   9    0.20    0.16
   1  -1  -9   -0.31    0.22
  -1  -1   9   -0.13    0.14
   1   1  -9   -0.43    0.20
   1   1  -9    0.13    0.11
  -1   1   9    0.16    0.17
  -1   1   9   -0.04    0.12
   0  -1  -9   45.61    2.31
   0  -1   9   42.37    1.79
   0  -1  -9   47.28    1.75
   0   1   9   41.84    1.74
   0   1  -9   44.00    2.28
   0   1   9   47.24    2.06
   0   1  -9   45.45    1.74
  -1  -1  -9   11.82    0.96
   1  -1   9   11.64    0.65
  -1  -1  -9   13.47    0.62
  -1   1  -9   13.71    0.99
  -1   1  -9   13.03    0.60
   2  -1   9    8.88    0.53
  -2  -1  -9   10.53    0.49
  -2  -1  -9    8.36    0.83
  -2   1  -9    8.71    0.45
  -2   1  -9    8.70    0.83
   3  -1   9    1.37    0.24
  -3  -1  -9    1.83    0.21
  -3  -1  -9    1.41    0.50
  -3   1  -9    1.64    0.18
  -3   1  -9    1.99    0.52
  -4  -1  -9   82.45    4.08
  -4  -1  -9   84.90    3.06
  -4   1  -9   80.25    4.03
  -5  -1  -9   15.32    1.29
  -5   1  -9   15.99    1.28
  -6  -1  -9   22.18    1.65
  -6   1  -9   21.69    1.61
  -7  -1  -9    4.32    0.86
  -7   1  -9    3.60    0.78
  -8  -1  -9   56.27    3.18
  -8   1  -9   52.96    3.09
  -9  -1  -9    4.80    0.93
  -9   1  -9    4.57    0.89
 -10  -1  -9    3.70    0.87
 -10   1  -9    4.32    0.89
 -11  -2   9    0.11    0.26
 -11   2   9    0.12    0.25
 -10  -2   9    5.72    0.61
 -10   2   9    6.97    0.77
 -10   2   9    6.34    0.57
  -9  -2   9   56.34    2.34
  -9   2   9   53.13    2.56
  -9   2   9   55.04    2.30
  -8  -2   9   20.79    1.09
  -8   2   9   21.74    1.07
  -8   2   9   20.44    1.23
  -7  -2   9    0.63    0.22
  -7  -2   9    0.59    0.22
   7  -2  -9    0.95    0.26
  -7   2   9    0.61    0.21
  -7   2   9    0.23    0.21
   6  -2  -9   11.08    0.69
  -6  -2   9    9.46    0.68
  -6  -2   9    9.59    0.65
  -6   2   9   11.26    0.78
  -6   2   9   10.53    0.62
   5  -2  -9   77.53    3.03
  -5  -2   9   76.68    3.20
  -5  -2   9   79.52    3.02
  -5   2   9   76.75    3.29
   5   2  -9   77.63    3.55
  -5   2   9   75.16    2.96
  -4  -2   9   32.35    1.47
  -4  -2   9   34.31    1.58
   4  -2  -9   34.71    1.47
   4  -2  -9   31.96    1.70
   4   2  -9   35.63    1.79
  -4   2   9   32.36    1.41
   4   2  -9   36.28    1.50
  -4   2   9   33.24    1.64
  -3  -2   9    0.09    0.14
  -3  -2   9    0.11    0.16
   3  -2  -9    0.07    0.13
   3  -2  -9   -0.32    0.19
  -3   2   9    0.43    0.20
   3   2  -9    0.16    0.12
   3   2  -9    0.02    0.21
  -3   2   9   -0.07    0.13
   2  -2  -9   29.46    1.61
  -2  -2   9   30.36    1.45
  -2  -2   9   29.50    1.31
   2  -2  -9   31.28    1.28
   2   2  -9   29.46    1.63
  -2   2   9   27.36    1.24
   2   2  -9   31.75    1.28
  -2   2   9   31.68    1.51
  -1  -2   9   43.85    1.89
   1  -2  -9   45.53    2.34
   1  -2  -9   47.29    1.85
   1   2  -9   48.06    2.36
   1   2  -9   49.42    1.85
  -1   2   9   50.05    2.15
  -1   2   9   45.35    1.83
   0  -2  -9    3.80    0.57
   0  -2   9    4.24    0.36
   0  -2  -9    3.88    0.30
   0   2  -9    4.26    0.30
   0   2  -9    3.96    0.56
   0   2   9    4.03    0.50
   1  -2   9    0.42    0.16
  -1  -2  -9    0.08    0.26
  -1  -2  -9    0.56    0.14
  -1   2  -9    0.56    0.29
  -1   2  -9    0.45    0.12
   2  -2   9   47.31    1.98
  -2  -2  -9   48.70    2.58
  -2  -2  -9   50.70    1.88
  -2   2  -9   45.54    2.50
  -2   2  -9   50.82    1.84
   3  -2   9   86.14    3.33
  -3  -2  -9   89.24    4.23
  -3  -2  -9   88.08    3.20
  -3   2  -9   83.70    4.12
  -4  -2  -9    2.27    0.24
   4  -2   9    1.90    0.29
  -4  -2  -9    1.34    0.51
  -4   2  -9    2.16    0.53
  -5  -2  -9   16.74    1.36
  -5  -2  -9   17.41    0.78
  -5   2  -9   16.39    1.31
  -6  -2  -9   16.79    1.45
  -6   2  -9   20.02    1.48
  -7  -2  -9   58.08    3.28
  -7   2  -9   58.98    3.21
  -8  -2  -9   -0.31    0.42
  -8   2  -9   -0.01    0.43
  -9  -2  -9   15.96    1.50
  -9   2  -9   14.17    1.37
 -10  -2  -9   13.55    1.44
 -10   2  -9   12.73    1.35
 -11  -3   9   16.71    1.02
 -11   3   9   17.43    1.01
 -10  -3   9   30.40    1.51
 -10   3   9   31.47    1.49
 -10   3   9   31.09    1.71
  -9  -3   9    4.41    0.52
  -9   3   9    5.07    0.66
  -9   3   9    3.98    0.47
   8  -3  -9   14.39    0.93
  -8  -3   9   15.03    0.88
  -8   3   9   14.53    1.01
  -8   3   9   16.60    0.87
   7  -3  -9   37.01    1.69
  -7  -3   9   38.35    1.65
  -7   3   9   35.10    1.83
  -7   3   9   36.52    1.58
  -6  -3   9   14.70    0.86
   6  -3  -9   16.52    0.89
  -6  -3   9   15.67    0.85
  -6   3   9   14.88    0.79
  -6   3   9   15.47    0.99
  -5  -3   9    0.20    0.19
   5  -3  -9   -0.19    0.13
  -5  -3   9    0.07    0.16
  -5   3   9   -0.07    0.13
  -5   3   9    0.33    0.21
   5   3  -9    0.22    0.26
   4  -3  -9   19.54    0.98
   4  -3  -9   20.04    1.16
  -4  -3   9   22.85    1.08
  -4  -3   9   20.99    1.02
  -4   3   9   19.49    1.14
  -4   3   9   19.08    0.93
   4   3  -9   21.24    1.25
   3  -3  -9   72.99    3.30
   3  -3  -9   73.88    2.77
  -3  -3   9   69.14    2.97
  -3  -3   9   72.46    2.82
   3   3  -9   73.79    2.79
  -3   3   9   68.70    2.72
   3   3  -9   73.14    3.37
  -3   3   9   70.47    3.08
   2  -3  -9   36.77    1.48
   2  -3  -9   36.11    1.86
  -2  -3   9   37.67    1.66
  -2  -3   9   34.18    1.53
   2   3  -9   37.14    1.90
  -2   3   9   36.83    1.73
  -2   3   9   32.11    1.43
   2   3  -9   35.98    1.48
  -1  -3   9    1.73    0.28
   1  -3  -9    2.34    0.26
   1  -3  -9    1.87    0.41
   1   3  -9    2.13    0.25
   1   3  -9    2.27    0.43
  -1   3   9    2.21    0.38
   0  -3   9   17.23    0.88
   0  -3  -9   17.14    0.81
   0  -3  -9   17.72    1.19
   0   3  -9   17.80    1.16
   0   3  -9   18.60    0.80
   0   3   9   18.55    1.05
   1  -3   9   70.97    2.86
  -1  -3  -9   71.95    3.56
  -1  -3  -9   73.03    2.77
  -1   3  -9   74.88    3.53
   1   3   9   74.97    3.17
  -1   3  -9   76.65    2.73
   2  -3   9    3.50    0.38
  -2  -3  -9    3.74    0.30
  -2  -3  -9    4.08    0.67
  -2   3  -9    3.76    0.25
  -2   3  -9    3.71    0.58
  -3  -3  -9    9.89    0.98
   3  -3   9    9.75    0.62
  -3  -3  -9   10.60    0.53
  -3   3  -9    8.78    0.87
   4  -3   9   37.56    1.64
  -4  -3  -9   36.00    2.22
  -4  -3  -9   37.95    1.51
  -4   3  -9   39.42    2.17
  -5  -3  -9   11.96    1.17
  -5  -3  -9   13.81    0.67
  -5   3  -9   13.11    1.12
  -6  -3  -9   18.01    0.84
  -6  -3  -9   18.13    1.51
  -6   3  -9   17.51    1.38
  -7  -3  -9    8.23    1.15
  -7   3  -9    7.96    1.03
  -8  -3  -9   16.36    1.54
  -8   3  -9   18.06    1.46
  -9  -3  -9   14.07    1.47
  -9   3  -9   16.98    1.44
 -10  -3  -9    2.25    0.77
 -10   3  -9    2.90    0.76
 -10   3  -9    1.77    0.46
 -11  -4   9    3.05    0.47
 -11   4   9    3.69    0.50
 -11   4   9    3.72    0.63
 -10  -4   9    2.53    0.43
 -10   4   9    2.71    0.39
 -10   4   9    2.77    0.53
  -9  -4   9    8.08    0.64
  -9   4   9    7.11    0.80
  -9   4   9    7.51    0.58
   8  -4  -9   20.78    1.12
  -8  -4   9   18.50    1.04
  -8   4   9   19.19    1.22
  -8   4   9   18.61    0.99
  -7  -4   9    0.17    0.21
   7  -4  -9    0.37    0.21
  -7   4   9    0.04    0.17
  -7   4   9    0.34    0.25
   6  -4  -9   18.88    0.98
  -6  -4   9   17.65    0.96
  -6  -4   9   18.85    0.98
  -6   4   9   17.99    0.89
  -6   4   9   17.94    1.11
   6   4  -9   17.95    1.22
   5  -4  -9   35.63    1.57
  -5  -4   9   34.41    1.61
  -5  -4   9   37.27    1.60
  -5   4   9   35.89    1.49
  -5   4   9   34.07    1.76
   5   4  -9   37.35    1.94
  -4  -4   9   27.52    1.29
   4  -4  -9   28.35    1.27
  -4  -4   9   28.20    1.34
   4   4  -9   30.22    1.62
  -4   4   9   28.15    1.48
  -4   4   9   27.44    1.20
  -3  -4   9    9.63    0.62
   3  -4  -9    6.53    0.68
  -3  -4   9    9.03    0.60
   3  -4  -9   10.04    0.56
  -3   4   9    9.43    0.71
  -3   4   9    7.67    0.49
   3   4  -9    9.84    0.80
  -2  -4   9   47.20    1.97
   2  -4  -9   47.11    2.34
   2  -4  -9   47.19    1.89
  -2   4   9   46.11    1.84
   2   4  -9   47.72    2.38
  -2   4   9   49.37    2.20
   1  -4  -9   36.41    1.88
   1  -4  -9   35.11    1.44
  -1  -4   9   32.56    1.50
  -1   4   9   35.60    1.71
   1   4  -9   34.54    1.88
   1   4  -9   35.40    1.43
   0  -4  -9   46.74    1.92
   0  -4  -9   46.18    2.49
   0  -4   9   51.23    2.03
   0   4  -9   49.09    2.48
   0   4   9   49.47    2.25
   0   4  -9   52.12    1.90
  -1  -4  -9    5.42    0.73
  -1  -4  -9    5.90    0.39
   1  -4   9    7.20    0.50
  -1   4  -9    6.82    0.37
   1   4   9    6.11    0.55
  -1   4  -9    5.43    0.69
  -2  -4  -9   78.43    3.83
   2  -4   9   78.79    3.06
  -2  -4  -9   76.52    2.92
  -2   4  -9   78.37    3.73
   3  -4   9   25.58    1.21
  -3  -4  -9   27.37    1.10
  -3  -4  -9   27.21    1.71
  -3   4  -9   21.53    1.52
  -4  -4  -9   17.36    1.35
  -4  -4  -9   16.13    0.77
   4  -4   9   17.14    0.91
  -4   4  -9   14.98    1.19
  -5  -4  -9    0.05    0.41
  -5  -4  -9    0.48    0.16
  -5   4  -9    0.95    0.43
  -6  -4  -9   45.86    1.79
  -6  -4  -9   46.09    2.69
  -6   4  -9   40.21    2.45
  -7  -4  -9   21.46    1.68
  -7   4  -9   18.60    1.47
  -8  -4  -9    5.23    1.01
  -8   4  -9    5.63    0.88
  -9  -4  -9    2.80    0.80
  -9   4  -9    1.46    0.57
 -10  -4  -9   24.33    2.00
 -10   4  -9   24.41    1.49
 -10   4  -9   23.47    1.81
 -11  -5   9   39.58    1.87
 -11   5   9   40.19    1.81
 -11   5   9   36.63    2.09
 -10  -5   9    1.42    0.37
 -10   5   9    2.39    0.38
 -10   5   9    1.26    0.42
  -9  -5   9    1.57    0.35
   9  -5  -9    2.55    0.43
  -9   5   9    1.65    0.32
  -9   5   9    1.95    0.44
   8  -5  -9    2.11    0.39
  -8  -5   9    2.66    0.40
  -8   5   9    2.64    0.51
  -8   5   9    2.41    0.35
  -7  -5   9   56.61    2.32
   7  -5  -9   57.59    2.35
  -7   5   9   52.47    2.21
  -7   5   9   52.84    2.57
  -6  -5   9    3.39    0.43
   6  -5  -9    3.71    0.44
   6   5  -9    2.95    0.55
  -6   5   9    3.62    0.36
  -6   5   9    3.38    0.51
  -5  -5   9    2.51    0.33
   5  -5  -9    2.61    0.34
  -5  -5   9    2.48    0.37
   5   5  -9    2.36    0.47
  -5   5   9    2.31    0.28
  -5   5   9    2.30    0.42
  -4  -5   9    3.21    0.37
   4  -5  -9    2.72    0.34
  -4  -5   9    3.25    0.40
   4   5  -9    3.11    0.52
  -4   5   9    2.50    0.43
  -4   5   9    2.98    0.30
  -3  -5   9  145.01    5.35
   3  -5  -9  146.24    5.26
   3  -5  -9  140.17    6.19
  -3   5   9  133.97    5.18
   3   5  -9  144.94    6.31
  -3   5   9  146.79    5.78
  -2  -5   9   18.57    0.95
   2  -5  -9   18.29    0.86
   2  -5  -9   16.80    1.11
   2   5  -9   17.53    1.17
  -2   5   9   18.04    1.07
   1  -5  -9    0.52    0.16
   1  -5  -9    0.80    0.32
  -1  -5   9    0.00    0.18
  -1   5   9    0.68    0.24
   1   5  -9    0.51    0.29
   0  -5  -9   11.90    0.62
   0  -5   9   11.32    0.69
   0  -5  -9   10.77    0.94
   0   5   9   11.95    0.81
   0   5  -9   12.79    0.95
   1  -5   9  132.00    5.01
  -1  -5  -9  128.59    6.04
  -1  -5  -9  133.70    4.88
   1   5   9  138.85    5.43
  -1   5  -9  134.22    5.98
  -2  -5  -9    1.82    0.50
   2  -5   9    1.51    0.29
  -2  -5  -9    1.95    0.24
  -2   5  -9    1.15    0.40
  -3  -5  -9   10.88    0.57
  -3  -5  -9    9.68    0.99
   3  -5   9    9.90    0.66
  -3   5  -9   10.34    0.92
   4  -5   9    7.37    0.58
  -4  -5  -9    6.62    0.43
  -4  -5  -9    6.51    0.91
  -4   5  -9    7.08    0.85
  -5  -5  -9  113.27    5.44
  -5  -5  -9  111.36    4.12
  -5   5  -9  109.37    5.21
  -6  -5  -9   15.79    1.44
  -6  -5  -9   16.77    0.81
  -6   5  -9   14.81    1.26
  -7  -5  -9    8.82    1.20
  -7  -5  -9   10.71    0.62
  -7   5  -9   10.43    1.04
  -8  -5  -9    4.78    0.92
  -8   5  -9    5.27    0.85
  -9  -5  -9   37.72    2.58
  -9   5  -9   37.40    1.98
  -9   5  -9   37.08    2.32
 -10  -5  -9    1.43    0.70
 -10   5  -9    1.58    0.45
 -10   5  -9    1.41    0.62
 -11  -6   9   -0.26    0.26
 -11   6   9    0.29    0.36
 -11   6   9   -0.33    0.24
 -10  -6   9   10.10    0.76
 -10   6   9   11.58    0.75
 -10   6   9   10.36    0.94
   9  -6  -9    0.47    0.25
  -9  -6   9    0.00    0.22
  -9   6   9    0.40    0.22
  -9   6   9    0.56    0.33
   8  -6  -9   51.73    2.18
  -8  -6   9   49.29    2.12
  -8   6   9   47.32    2.00
  -8   6   9   43.76    2.34
  -7  -6   9   -0.24    0.19
   7  -6  -9   -0.29    0.17
  -7   6   9   -0.31    0.16
  -7   6   9    0.10    0.24
  -6  -6   9   36.55    1.62
   6  -6  -9   32.73    1.57
   6   6  -9   35.66    2.02
  -6   6   9   35.66    1.49
  -6   6   9   35.71    1.84
   5  -6  -9    3.67    0.42
  -5  -6   9    3.98    0.46
  -5   6   9    3.65    0.33
   5   6  -9    4.12    0.62
  -5   6   9    4.50    0.59
   4  -6  -9   91.05    3.45
  -4  -6   9   92.74    3.53
  -4   6   9   85.84    3.34
   4   6  -9   89.81    4.18
  -4   6   9   89.94    3.84
   3  -6  -9    0.63    0.18
   3  -6  -9    0.26    0.24
  -3  -6   9    0.33    0.19
   3   6  -9    0.93    0.35
  -3   6   9    0.70    0.17
  -3   6   9    0.33    0.24
   2  -6  -9   97.75    3.61
   2  -6  -9   91.65    4.33
  -2  -6   9   94.12    3.71
  -2   6   9   99.50    4.05
   2   6  -9   95.88    4.41
   1  -6  -9    2.34    0.46
   1  -6  -9    2.37    0.28
  -1  -6   9    2.49    0.36
  -1   6   9    2.39    0.43
   1   6  -9    2.29    0.45
   0  -6   9   48.22    2.04
   0  -6  -9   49.26    2.54
   0  -6  -9   48.25    1.93
   0   6  -9   47.75    2.49
   0   6   9   49.83    2.27
  -1  -6  -9    0.81    0.42
   1  -6   9    1.23    0.28
  -1  -6  -9    1.44    0.22
  -1   6  -9    1.04    0.38
   1   6   9    1.58    0.34
  -2  -6  -9   88.91    4.29
   2  -6   9   87.49    3.46
  -2  -6  -9   90.48    3.31
  -2   6  -9   84.82    4.13
   2   6   9   88.54    3.75
  -3  -6  -9    0.81    0.43
   3  -6   9    1.05    0.27
  -3  -6  -9    1.07    0.20
  -3   6  -9    1.13    0.39
  -4  -6  -9   14.04    0.72
  -4  -6  -9   14.95    1.29
   4  -6   9   14.46    0.87
  -4   6  -9   13.86    1.11
   5  -6   9    7.63    0.62
  -5  -6  -9    7.36    0.48
  -5  -6  -9    5.85    0.95
  -5   6  -9    6.81    0.86
  -6  -6  -9   85.32    3.19
  -6  -6  -9   84.45    4.38
  -6   6  -9   80.39    4.10
  -7  -6  -9   -0.45    0.34
  -7  -6  -9   -0.03    0.14
  -7   6  -9   -0.18    0.29
  -8  -6  -9    9.03    1.28
  -8   6  -9   10.08    1.05
  -9  -6  -9    0.34    0.53
  -9   6  -9    0.60    0.34
  -9   6  -9    0.85    0.49
 -10  -6  -9   36.56    2.64
 -10   6  -9   39.40    2.06
 -10   6  -9   36.81    2.37
 -10  -7   9   -0.33    0.22
  10  -7  -9    0.01    0.24
 -10   7   9    0.07    0.29
 -10   7   9    0.03    0.21
  -9  -7   9    5.19    0.58
   9  -7  -9    6.17    0.67
  -9   7   9    5.33    0.75
  -9   7   9    5.60    0.49
   8  -7  -9    0.16    0.21
  -8  -7   9   -0.05    0.22
  -8   7   9   -0.17    0.18
  -8   7   9    0.31    0.31
   7  -7  -9  101.66    3.86
  -7  -7   9   96.64    3.85
  -7   7   9   92.96    4.23
  -7   7   9   98.14    3.71
   6  -7  -9    0.93    0.25
  -6  -7   9    0.77    0.26
  -6   7   9    1.26    0.36
   6   7  -9    0.38    0.36
  -6   7   9    0.97    0.22
  -5  -7   9    2.93    0.39
   5  -7  -9    3.03    0.38
  -5   7   9    3.28    0.53
   5   7  -9    2.38    0.52
  -5   7   9    2.30    0.28
  -4  -7   9    0.32    0.21
   4  -7  -9    0.81    0.22
   4   7  -9    0.03    0.29
  -4   7   9    0.43    0.26
  -4   7   9    0.29    0.15
   3  -7  -9   78.08    3.54
   3  -7  -9   75.77    2.98
  -3  -7   9   76.03    3.08
  -3   7   9   76.31    3.38
   3   7  -9   79.43    3.70
  -2  -7   9    1.51    0.29
   2  -7  -9    1.67    0.25
   2  -7  -9    1.35    0.36
  -2   7   9    1.54    0.35
   2   7  -9    1.66    0.42
   1  -7  -9    2.24    0.28
  -1  -7   9    1.53    0.33
   1  -7  -9    1.92    0.43
   1   7  -9    2.34    0.47
  -1   7   9    2.59    0.43
   0  -7  -9    0.72    0.18
   0  -7   9    0.65    0.23
   0  -7  -9    0.64    0.36
   0   7   9    0.90    0.29
   0   7  -9    0.52    0.32
  -1  -7  -9  134.78    6.17
  -1  -7  -9  132.57    4.96
   1  -7   9  135.45    5.13
   1   7   9  140.06    5.53
  -1   7  -9  134.07    6.08
  -2  -7  -9    7.86    0.49
   2  -7   9    8.08    0.61
  -2  -7  -9    6.96    0.93
  -2   7  -9    7.37    0.79
   2   7   9    7.99    0.68
   3  -7   9    8.53    0.64
  -3  -7  -9    8.74    1.05
  -3  -7  -9    9.15    0.53
  -3   7  -9    7.93    0.83
   4  -7   9    4.23    0.51
  -4  -7  -9    4.60    0.37
  -4  -7  -9    3.94    0.74
  -4   7  -9    3.84    0.64
   5  -7   9   68.12    2.72
  -5  -7  -9   63.11    2.48
  -5  -7  -9   61.22    3.45
  -5   7  -9   60.69    3.22
  -6  -7  -9    2.22    0.31
  -6  -7  -9    2.52    0.75
  -6   7  -9    1.74    0.52
  -7  -7  -9   11.88    0.69
  -7  -7  -9   11.06    1.36
  -7   7  -9   11.51    1.10
  -8  -7  -9    6.98    0.51
  -8  -7  -9    5.69    1.05
  -8   7  -9    5.44    0.70
  -8   7  -9    5.20    0.83
  -9  -7  -9   27.54    2.12
  -9   7  -9   26.58    1.83
  -9   7  -9   23.95    1.50
  10  -8  -9    4.25    0.61
 -10  -8   9    4.16    0.57
 -10   8   9    5.27    0.53
 -10   8   9    4.78    0.75
  -9  -8   9    8.72    0.72
   9  -8  -9    9.81    0.76
  -9   8   9    7.99    0.94
  -9   8   9    8.09    0.60
   8  -8  -9   42.12    1.87
  -8  -8   9   37.86    1.79
  -8   8   9   34.94    2.03
  -8   8   9   39.00    1.68
   7  -8  -9    0.95    0.29
  -7  -8   9    0.48    0.27
  -7   8   9    0.77    0.34
  -7   8   9    0.35    0.20
   7   8  -9    0.55    0.48
   6  -8  -9   35.71    1.67
  -6  -8   9   37.01    1.72
  -6   8   9   36.73    1.97
   6   8  -9   40.08    2.25
  -6   8   9   38.12    1.58
  -5  -8   9   12.52    0.80
   5  -8  -9   11.86    0.73
  -5   8   9   13.08    0.95
   5   8  -9   11.83    1.05
  -5   8   9   12.32    0.65
   4  -8  -9   47.56    1.95
  -4  -8   9   45.51    2.02
  -4   8   9   45.35    2.26
   4   8  -9   47.20    2.48
  -3  -8   9    0.78    0.24
   3  -8  -9    0.32    0.16
  -3   8   9    0.62    0.28
   3   8  -9    0.93    0.37
  -2  -8   9   55.38    2.33
   2  -8  -9   53.32    2.71
   2  -8  -9   57.42    2.23
   2   8  -9   55.21    2.80
  -2   8   9   55.59    2.57
  -1  -8   9   21.66    1.08
   1  -8  -9   19.46    0.95
   1  -8  -9   19.48    1.30
   1   8  -9   19.32    1.31
  -1   8   9   20.55    1.21
   0  -8   9   31.06    1.48
   0  -8  -9   31.09    1.35
   0  -8  -9   32.87    1.87
   0   8  -9   30.35    1.80
   0   8   9   33.32    1.67
  -1  -8  -9    7.26    0.91
  -1  -8  -9    7.98    0.50
   1  -8   9    7.86    0.61
  -1   8  -9    7.29    0.78
   1   8   9    8.83    0.70
  -2  -8  -9   89.71    4.35
   2  -8   9   86.72    3.52
  -2  -8  -9   87.82    3.34
  -2   8  -9   86.01    4.18
   2   8   9   91.85    3.81
  -3  -8  -9    7.80    0.48
  -3  -8  -9    6.73    0.95
   3  -8   9    7.71    0.62
  -3   8  -9    6.04    0.78
   4  -8   9    9.71    0.72
  -4  -8  -9   10.14    0.59
  -4  -8  -9    9.29    1.16
  -4   8  -9    9.65    0.93
  -5  -8  -9    0.42    0.44
  -5  -8  -9    0.25    0.17
   5  -8   9    0.24    0.23
  -5   8  -9    0.10    0.34
  -6  -8  -9   66.73    3.71
  -6  -8  -9   67.34    2.65
  -6   8  -9   66.80    3.42
  -7  -8  -9    5.67    1.04
  -7  -8  -9    7.19    0.52
  -7   8  -9    7.03    0.93
  -7   8  -9    5.79    0.71
  -8  -8  -9    2.53    0.37
  -8  -8  -9    2.21    0.70
  -8   8  -9    2.14    0.59
  -8   8  -9    3.32    0.54
  -9  -8  -9    1.46    0.66
  -9   8  -9    1.75    0.60
  -9   8  -9    2.27    0.49
 -10  -9   9   22.96    1.29
  10  -9  -9   24.54    1.37
 -10   9   9   21.05    1.14
 -10   9   9   21.29    1.51
  -9  -9   9    2.66    0.44
   9  -9  -9    2.36    0.45
  -9   9   9    3.05    0.60
  -9   9   9    2.24    0.36
  -8  -9   9    3.76    0.52
   8  -9  -9    5.12    0.58
  -8   9   9    3.74    0.42
  -8   9   9    3.62    0.63
   7  -9  -9   54.90    2.39
  -7  -9   9   56.83    2.43
  -7   9   9   57.43    2.26
   7   9  -9   56.70    3.16
  -7   9   9   53.20    2.71
  -6  -9   9   25.29    1.33
   6  -9  -9   26.14    1.29
   6   9  -9   28.63    1.84
  -6   9   9   26.09    1.16
  -6   9   9   24.39    1.53
   5  -9  -9    0.68    0.23
  -5  -9   9    0.26    0.24
   5   9  -9    0.67    0.41
  -5   9   9    0.41    0.29
   4  -9  -9   13.16    0.75
  -4  -9   9   12.34    0.81
  -4   9   9   12.57    0.95
   4   9  -9   13.03    1.09
   3  -9  -9   83.12    3.23
  -3  -9   9   85.55    3.37
  -3   9   9   85.42    3.68
   3   9  -9   80.17    3.99
   2  -9  -9   10.42    0.62
  -2  -9   9   10.05    0.69
   2  -9  -9    9.93    0.86
  -2   9   9   10.34    0.82
   2   9  -9    9.83    0.91
   1  -9  -9   12.09    1.00
  -1  -9   9   12.17    0.78
   1  -9  -9   12.89    0.69
  -1   9   9   14.35    0.94
   1   9  -9   10.92    0.97
   0  -9  -9   23.95    1.12
   0  -9  -9   22.65    1.55
   0  -9   9   26.26    1.27
   0   9   9   25.69    1.40
   0   9  -9   24.46    1.54
   1  -9   9   94.78    3.74
  -1  -9  -9   93.14    4.52
  -1  -9  -9   90.65    3.55
  -1   9  -9   96.93    4.45
   1   9   9   95.69    4.02
  -2  -9  -9   26.10    1.18
   2  -9   9   24.63    1.31
  -2  -9  -9   26.77    1.78
   2   9   9   27.53    1.46
  -2   9  -9   25.60    1.62
  -3  -9  -9    4.42    0.38
  -3  -9  -9    4.63    0.80
   3  -9   9    4.09    0.51
  -3   9  -9    3.87    0.64
   4  -9   9   15.44    0.96
  -4  -9  -9   14.97    0.80
  -4  -9  -9   15.94    1.37
  -4   9  -9   14.55    1.18
  -5  -9  -9   56.91    3.36
  -5  -9  -9   63.10    2.45
   5  -9   9   65.25    2.70
  -5   9  -9   58.27    3.14
  -6  -9  -9    1.37    0.55
  -6  -9  -9    1.13    0.25
  -6   9  -9    1.36    0.49
  -7  -9  -9   14.14    0.77
  -7  -9  -9   12.11    1.47
  -7   9  -9   10.28    1.09
  -7   9  -9   12.12    0.93
  -8  -9  -9   16.47    1.63
  -8  -9  -9   19.46    0.99
  -8   9  -9   17.69    1.43
  -8   9  -9   18.25    1.21
  -9  -9  -9   13.87    0.84
  -9  -9  -9   12.91    1.62
  -9   9  -9   14.38    1.30
  -9   9  -9   14.23    1.07
 -10 -10   9    2.65    0.50
  10 -10  -9    3.46    0.54
 -10  10   9    4.13    0.75
 -10  10   9    2.93    0.44
   9 -10  -9   46.39    2.10
  -9 -10   9   44.28    2.07
  -9  10   9   41.48    2.35
  -9  10   9   44.10    1.91
   8 -10  -9   15.46    0.95
  -8 -10   9   14.54    0.96
  -8  10   9   13.93    1.13
  -8  10   9   14.85    0.83
   7 -10  -9    1.08    0.30
  -7 -10   9    0.20    0.25
  -7  10   9    0.81    0.37
  -7  10   9    0.60    0.21
   7  10  -9    0.86    0.56
  -6 -10   9   19.56    1.11
   6 -10  -9   19.13    1.05
  -6  10   9   19.26    1.31
   6  10  -9   20.21    1.58
   5 -10  -9   75.30    2.98
  -5 -10   9   75.66    3.08
   5  10  -9   75.20    3.79
  -5  10   9   71.22    3.38
  -4 -10   9   21.77    1.17
   4 -10  -9   20.45    1.07
  -4  10   9   22.12    1.36
   4  10  -9   23.09    1.54
   3 -10  -9    2.53    0.34
  -3 -10   9    2.98    0.43
   3  10  -9    3.44    0.61
  -3  10   9    2.08    0.43
   2 -10  -9   17.17    0.88
  -2 -10   9   16.99    1.00
   2 -10  -9   14.62    1.14
   2  10  -9   18.32    1.27
  -2  10   9   18.41    1.15
  -1 -10   9   29.38    1.45
   1 -10  -9   29.61    1.76
   1 -10  -9   30.53    1.33
  -1  10   9   30.25    1.63
   1  10  -9   29.48    1.78
   0 -10  -9    1.17    0.43
   0 -10   9    1.94    0.35
   0 -10  -9    2.07    0.29
   0  10   9    1.57    0.37
   0  10  -9    2.02    0.49
   1 -10   9    8.15    0.65
  -1 -10  -9    9.10    0.57
  -1 -10  -9    7.95    0.98
  -1  10  -9    9.00    0.88
   1  10   9    9.35    0.76
  -2 -10  -9   43.49    2.59
  -2 -10  -9   45.38    1.90
   2 -10   9   46.10    2.07
  -2  10  -9   46.21    2.49
   2  10   9   49.87    2.26
  -3 -10  -9   68.74    2.73
   3 -10   9   70.83    2.95
  -3 -10  -9   72.47    3.69
   3  10   9   73.80    3.14
  -3  10  -9   62.99    3.42
   4 -10   9   25.85    1.35
  -4 -10  -9   26.58    1.84
  -4 -10  -9   25.27    1.17
  -4  10  -9   21.72    1.57
  -5 -10  -9    4.71    0.42
  -5 -10  -9    4.57    0.86
   5 -10   9    5.05    0.62
  -5  10  -9    3.78    0.69
  -6 -10  -9   17.37    0.92
  -6 -10  -9   18.81    1.61
  -6  10  -9   15.68    1.31
  -6  10  -9   18.18    1.14
  -7 -10  -9   39.04    1.66
  -7 -10  -9   33.53    2.44
  -7  10  -9   36.58    1.91
  -7  10  -9   36.51    2.21
  -8 -10  -9    1.26    0.62
  -8 -10  -9    0.58    0.24
  -8  10  -9    0.47    0.44
  -8  10  -9    0.47    0.32
  -9 -10  -9    6.57    1.19
  -9 -10  -9    8.46    0.62
  -9  10  -9    7.38    0.85
  -9  10  -9    6.02    0.93
   9 -11  -9    0.10    0.24
  -9 -11   9   -0.04    0.25
  -9  11   9   -0.24    0.20
  -9  11   9   -0.11    0.30
  -8 -11   9   13.34    0.93
   8 -11  -9   14.44    0.93
  -8  11   9   13.84    1.14
   7 -11  -9   10.44    0.74
  -7 -11   9   11.46    0.82
  -7  11   9   10.35    0.96
   7  11  -9   11.17    1.35
  -6 -11   9   35.43    1.70
   6 -11  -9   35.47    1.63
  -6  11   9   33.39    1.93
   6  11  -9   34.21    2.26
   5 -11  -9    0.63    0.24
  -5 -11   9    0.64    0.28
  -5  11   9    1.05    0.38
   5  11  -9    0.24    0.43
  -4 -11   9   37.26    1.80
   4 -11  -9   39.56    1.72
   4  11  -9   39.58    2.30
  -4  11   9   39.57    2.07
  -3 -11   9    5.08    0.56
   3 -11  -9    5.91    0.46
   3  11  -9    6.10    0.81
  -3  11   9    4.30    0.62
   2 -11  -9   19.33    0.96
  -2 -11   9   18.12    1.05
   2 -11  -9   16.78    1.24
   2  11  -9   18.86    1.34
  -2  11   9   20.28    1.25
   1 -11  -9    1.09    0.45
  -1 -11   9    1.79    0.36
   1 -11  -9    1.50    0.26
  -1  11   9    0.90    0.33
   1  11  -9    1.03    0.42
   0 -11   9   45.77    2.05
   0 -11  -9   45.33    1.88
   0 -11  -9   42.82    2.46
   0  11  -9   44.83    2.45
   0  11   9   47.62    2.24
   1 -11   9    7.71    0.67
  -1 -11  -9    8.09    0.54
  -1 -11  -9    6.88    0.91
  -1  11  -9    9.20    0.88
   1  11   9    8.94    0.76
  -2 -11  -9   40.88    2.47
   2 -11   9   44.61    1.99
  -2 -11  -9   40.77    1.78
  -2  11  -9   41.14    2.33
   2  11   9   45.75    2.14
  -3 -11  -9    0.59    0.47
  -3 -11  -9    0.35    0.19
   3 -11   9    0.71    0.30
   3  11   9    0.61    0.29
  -3  11  -9    0.80    0.38
  -4 -11  -9   69.97    3.77
  -4 -11  -9   71.31    2.79
   4 -11   9   71.43    3.02
  -4  11  -9   67.49    3.52
   5 -11   9   10.31    0.83
  -5 -11  -9   11.39    1.20
  -5 -11  -9   10.17    0.65
  -5  11  -9    9.43    0.98
  -5  11  -9    9.66    0.78
  -6 -11  -9    2.56    0.37
  -6 -11  -9    1.51    0.63
  -6  11  -9    2.29    0.57
  -6  11  -9    2.60    0.48
  -7 -11  -9    1.86    0.34
  -7 -11  -9    2.18    0.74
  -7  11  -9    1.14    0.51
  -7  11  -9    2.58    0.49
  -8 -11  -9   37.41    2.65
  -8 -11  -9   41.56    1.79
  -8  11  -9   36.88    2.31
  -8  11  -9   38.73    2.04
   9 -12  -9   47.62    2.10
  -9 -12   9   38.32    1.99
  -9  12   9   40.71    2.34
   8 -12  -9    0.02    0.20
  -8 -12   9   -0.03    0.26
  -8  12   9    0.63    0.41
   7 -12  -9    4.18    0.53
  -7 -12   9    3.55    0.52
   7  12  -9    4.82    0.95
  -7  12   9    3.09    0.61
  -6 -12   9    1.46    0.38
   6 -12  -9    1.27    0.29
  -6  12   9    1.51    0.45
   6  12  -9    1.60    0.62
  -5 -12   9   37.53    1.80
   5 -12  -9   36.99    1.69
   5  12  -9   37.86    2.37
  -5  12   9   36.83    2.04
   4 -12  -9    0.75    0.23
  -4 -12   9    0.70    0.28
   4  12  -9    1.12    0.50
  -4  12   9    1.01    0.38
  -3 -12   9    3.88    0.54
   3 -12  -9    4.72    0.43
   3  12  -9    4.66    0.76
  -3  12   9    4.99    0.69
   2 -12  -9    0.47    0.19
  -2 -12   9    0.86    0.30
  -2  12   9    0.69    0.34
   2  12  -9    0.59    0.38
   1 -12  -9   90.35    3.55
  -1 -12   9   93.47    3.74
   1 -12  -9   92.99    4.41
   1  12  -9   93.39    4.45
  -1  12   9   93.15    4.05
   0 -12  -9    2.39    0.64
   0 -12  -9    3.22    0.37
   0 -12   9    2.96    0.47
   0  12   9    3.33    0.53
   0  12  -9    2.94    0.60
   1 -12   9    6.10    0.66
  -1 -12  -9    6.87    0.93
  -1 -12  -9    6.28    0.48
   1  12   9    7.01    0.78
  -1  12  -9    6.86    0.85
  -2 -12  -9    7.87    1.05
  -2 -12  -9    7.10    0.53
   2 -12   9    8.07    0.68
   2  12   9    9.72    0.78
  -2  12  -9    6.49    0.83
  -3 -12  -9   52.57    3.02
  -3 -12  -9   53.60    2.21
   3 -12   9   53.07    2.42
   3  12   9   54.66    2.55
  -3  12  -9   55.26    2.87
  -3  12  -9   53.27    2.42
  -4 -12  -9    1.52    0.58
   4 -12   9    2.16    0.44
  -4 -12  -9    1.72    0.31
  -4  12  -9    1.60    0.36
  -4  12  -9    1.35    0.47
   5 -12   9    1.98    0.44
  -5 -12  -9    2.19    0.35
  -5  12  -9    1.62    0.50
  -5  12  -9    2.06    0.41
  -6 -12  -9   -0.04    0.42
  -6 -12  -9    0.30    0.21
  -6  12  -9    0.56    0.42
  -6  12  -9    0.90    0.33
  -7 -12  -9   24.05    1.97
  -7 -12  -9   26.25    1.27
  -7  12  -9   25.36    1.74
  -7  12  -9   23.78    1.45
  -8 -12  -9    0.89    0.28
  -8 -12  -9    0.83    0.56
  -8  12  -9    1.04    0.51
  -8  12  -9    1.21    0.39
   9 -13  -9   -0.08    0.25
   8 -13  -9    8.35    0.71
  -8 -13   9    9.27    0.78
  -8  13   9    8.70    1.03
   8  13  -9    8.19    1.34
  -7 -13   9    1.58    0.39
   7 -13  -9    1.72    0.37
   7  13  -9    2.67    0.80
  -7  13   9    1.68    0.48
   6 -13  -9   18.31    1.03
  -6 -13   9   17.15    1.08
  -6  13   9   18.68    1.33
   6  13  -9   18.29    1.64
   5 -13  -9    0.29    0.22
  -5 -13   9    0.39    0.28
   5  13  -9    0.09    0.49
  -5  13   9    0.71    0.35
   4 -13  -9   27.24    1.31
  -4 -13   9   27.64    1.42
  -4  13   9   25.01    1.59
   4  13  -9   26.62    1.86
   3 -13  -9    0.36    0.19
  -3 -13   9    0.24    0.25
   3  13  -9   -0.27    0.32
  -3  13   9    0.33    0.27
  -2 -13   9   42.79    1.93
   2 -13  -9   38.73    1.74
   2  13  -9   38.96    2.34
  -2  13   9   40.98    2.13
   1 -13  -9    0.21    0.16
  -1 -13   9    0.25    0.25
   1 -13  -9   -0.77    0.30
   1  13  -9   -0.02    0.32
  -1  13   9    0.30    0.28
   0 -13  -9   26.35    1.82
   0 -13  -9   29.47    1.34
   0 -13   9   28.80    1.50
   0  13   9   31.72    1.68
   0  13  -9   29.92    1.84
  -1 -13  -9    1.86    0.31
   1 -13   9    2.65    0.45
  -1  13  -9    1.89    0.50
  -1  13  -9    2.05    0.35
   1  13   9    2.16    0.45
   2 -13   9   16.55    1.09
  -2 -13  -9   16.08    0.90
   2  13   9   19.68    1.19
  -2  13  -9   17.38    1.32
  -2  13  -9   18.12    1.02
  -3 -13  -9   -0.14    0.13
   3 -13   9    0.03    0.24
   3  13   9    0.22    0.24
  -3  13  -9    0.22    0.34
  -3  13  -9    0.13    0.21
   4 -13   9   27.32    1.51
  -4 -13  -9   29.11    1.33
  -4  13  -9   26.97    1.78
  -4  13  -9   26.90    1.46
   5 -13   9    0.34    0.30
  -5 -13  -9    0.24    0.45
  -5 -13  -9    0.28    0.19
  -5  13  -9    0.19    0.23
  -5  13  -9    0.06    0.33
  -6 -13  -9    6.83    0.56
  -6 -13  -9    6.97    1.09
  -6  13  -9    6.10    0.87
  -6  13  -9    7.20    0.77
  -7 -13  -9    0.29    0.47
  -7 -13  -9    1.33    0.32
  -7  13  -9    0.68    0.46
  -7  13  -9    1.22    0.40
  -8 -14   9    6.22    0.72
   8 -14  -9    7.62    0.67
   8  14  -9    5.02    1.15
  -8  14   9    5.76    0.87
  -7 -14   9    0.47    0.29
   7 -14  -9    1.03    0.31
   7  14  -9    0.98    0.62
  -7  14   9    0.65    0.37
  -6 -14   9    0.96    0.33
   6 -14  -9    1.62    0.36
  -6  14   9    1.28    0.46
   6  14  -9    1.53    0.68
   5 -14  -9   39.70    1.76
  -5 -14   9   37.39    1.85
  -5  14   9   37.94    2.13
   5  14  -9   37.10    2.50
   4 -14  -9    1.07    0.29
  -4 -14   9    1.26    0.33
   4  14  -9    0.64    0.51
  -4  14   9    0.95    0.37
  -3 -14   9    1.16    0.35
   3 -14  -9    1.55    0.30
  -3  14   9    1.46    0.41
   3  14  -9    2.11    0.59
   2 -14  -9    6.52    0.51
  -2 -14   9    6.11    0.67
  -2  14   9    6.21    0.81
   2  14  -9    5.58    0.86
  -1 -14   9   55.12    2.45
   1 -14  -9   52.82    2.26
  -1  14   9   57.52    2.70
   1  14  -9   54.74    2.98
   0 -14  -9    5.58    0.47
   0 -14   9    4.31    0.59
   0  14  -9    4.23    0.72
   0  14   9    5.43    0.71
   1 -14   9    4.02    0.56
  -1 -14  -9    4.38    0.46
   1  14   9    4.98    0.66
  -1  14  -9    4.11    0.70
  -2 -14  -9    1.54    0.29
   2 -14   9    1.96    0.44
   2  14   9    1.98    0.44
  -2  14  -9    1.52    0.48
  -2  14  -9    1.44    0.32
   3 -14   9   33.88    1.78
  -3 -14  -9   35.90    1.59
   3  14   9   38.29    1.89
  -3  14  -9   31.27    2.05
  -3  14  -9   34.28    1.71
   4 -14   9   -0.05    0.26
  -4 -14  -9    0.29    0.20
  -4  14  -9   -0.15    0.33
  -4  14  -9    0.14    0.21
  -5 -14  -9    1.80    0.34
   5 -14   9    1.92    0.47
  -5  14  -9    1.53    0.39
  -5  14  -9    1.48    0.50
  -6 -14  -9    6.43    1.10
  -6 -14  -9    6.99    0.57
  -6  14  -9    6.58    0.91
  -6  14  -9    6.04    0.72
  -7 -14  -9   31.94    2.42
  -7 -14  -9   37.44    1.68
  -7  14  -9   35.64    1.89
  -7  14  -9   33.76    2.17
   7 -15  -9   10.91    0.80
  -7 -15   9   11.41    0.89
   7  15  -9    9.06    1.44
  -7  15   9   11.39    1.07
   6 -15  -9   15.25    0.94
  -6 -15   9   15.62    1.04
   6  15  -9   13.98    1.67
  -6  15   9   14.89    1.23
   5 -15  -9    0.17    0.23
  -5 -15   9    0.43    0.27
   5  15  -9    0.38    0.56
  -5  15   9    0.29    0.30
   4 -15  -9   18.15    1.00
  -4 -15   9   16.11    1.08
   4  15  -9   17.69    1.57
  -4  15   9   17.16    1.27
  -3 -15   9   16.75    1.06
   3 -15  -9   15.98    0.91
   3  15  -9   15.36    1.40
  -3  15   9   15.32    1.17
   2 -15  -9   23.95    1.21
  -2 -15   9   24.34    1.36
  -2  15   9   25.67    1.56
   2  15  -9   25.29    1.78
   1 -15  -9    0.16    0.19
  -1 -15   9    0.26    0.28
  -1  15   9    0.11    0.26
   1  15  -9   -0.17    0.35
   0 -15   9   25.77    1.44
   0 -15  -9   27.41    1.28
   0  15   9   27.20    1.58
   0  15  -9   24.51    1.75
   1 -15   9    9.69    0.80
  -1 -15  -9    9.94    0.67
  -1  15  -9    9.25    0.98
   1  15   9    9.89    0.86
   2 -15   9   14.10    1.02
  -2 -15  -9   13.63    0.82
  -2  15  -9   14.68    1.23
   2  15   9   16.31    1.09
   3 -15   9    0.77    0.35
  -3 -15  -9    1.31    0.30
   3  15   9    0.97    0.35
  -3  15  -9    0.76    0.43
  -3  15  -9    1.02    0.31
   4 -15   9   22.47    1.37
  -4 -15  -9   22.33    1.15
  -4  15  -9   20.53    1.55
  -4  15  -9   22.62    1.27
   5 -15   9   19.73    1.24
  -5 -15  -9   15.24    0.93
  -5  15  -9   16.15    1.06
  -5  15  -9   14.26    1.29
  -6 -15  -9    4.91    0.55
  -6  15  -9    5.07    0.66
  -6  15  -9    4.86    0.83
  -7 -16   9    0.48    0.33
  -7 -16   9    0.64    0.27
   7 -16  -9    0.51    0.28
   7  16  -9    0.72    0.69
  -7  16   9    0.95    0.44
   6 -16  -9    7.99    0.65
  -6 -16   9    7.25    0.78
  -6  16   9    7.83    0.99
   6  16  -9    8.89    1.37
   5 -16  -9   14.09    0.88
  -5 -16   9   11.91    0.92
   5  16  -9   12.46    1.57
  -5  16   9   16.32    1.23
  -4 -16   9   21.94    1.29
   4 -16  -9   22.62    1.18
   4  16  -9   21.58    1.83
  -4  16   9   22.47    1.52
  -3 -16   9   -0.03    0.25
   3 -16  -9    0.32    0.21
   3  16  -9    0.10    0.45
  -3  16   9    0.45    0.34
  -2 -16   9   17.13    1.11
   2 -16  -9   16.31    0.94
   2  16  -9   15.78    1.44
  -2  16   9   18.74    1.28
  -1 -16   9   33.88    1.76
   1 -16  -9   32.74    1.57
  -1  16   9   35.41    1.94
   1  16  -9   36.35    2.24
   0 -16   9   21.44    1.29
   0 -16  -9   20.91    1.09
   0  16   9   22.44    1.40
   0  16  -9   19.09    1.54
   1 -16   9    0.99    0.36
  -1 -16  -9    1.23    0.30
   1  16   9    1.81    0.45
  -1  16  -9    1.33    0.51
  -2 -16  -9   10.44    0.69
   2 -16   9    9.69    0.84
  -2  16  -9    9.53    1.02
   2  16   9    9.33    0.84
  -3 -16  -9   13.02    0.83
   3 -16   9   13.89    1.02
  -3  16  -9   13.82    1.24
   3  16   9   15.60    1.09
   4 -16   9    5.85    0.74
  -4 -16  -9    5.88    0.54
  -4  16  -9    5.88    0.67
  -4  16  -9    5.46    0.84
  -5 -16  -9    0.53    0.27
   5 -16   9    0.54    0.35
  -5  16  -9    0.58    0.46
  -5  16  -9    0.85    0.33
  -6 -16  -9   26.38    1.35
   6 -17  -9    5.41    0.60
  -6 -17   9    4.48    0.62
  -6  17   9    5.34    0.84
   6  17  -9    5.39    1.14
   5 -17  -9    0.90    0.29
  -5 -17   9    0.18    0.31
   5  17  -9    0.36    0.63
  -5  17   9    0.71    0.38
  -4 -17   9    3.49    0.56
   4 -17  -9    3.44    0.47
  -4  17   9    4.34    0.72
   4  17  -9    2.54    0.82
   3 -17  -9   58.62    2.52
  -3 -17   9   59.23    2.70
  -3  17   9   61.21    3.00
   3  17  -9   60.71    3.49
   2 -17  -9    0.70    0.26
  -2 -17   9    1.30    0.40
  -2  17   9    1.09    0.42
   2  17  -9    1.42    0.60
  -1 -17   9    0.07    0.25
   1 -17  -9   -0.02    0.17
  -1  17   9    0.26    0.29
   1  17  -9   -0.25    0.37
   0 -17  -9    5.59    0.50
   0 -17   9    6.04    0.73
   0  17  -9    6.27    0.95
   0  17   9    5.24    0.74
   1 -17   9   47.66    2.32
  -1 -17  -9   46.86    2.08
  -1  17  -9   47.40    2.78
   1  17   9   51.46    2.48
  -2 -17  -9    6.27    0.53
   2 -17   9    5.66    0.74
  -2  17  -9    5.70    0.88
   2  17   9    6.58    0.79
   3 -17   9    2.76    0.55
  -3 -17  -9    2.83    0.41
  -3  17  -9    2.23    0.62
   3  17   9    3.21    0.57
  -4 -17  -9    7.45    0.61
   4 -17   9    7.62    0.87
  -4  17  -9    5.97    0.92
  -5 -17  -9   19.66    1.13
   5 -17   9   22.58    1.43
  -5  17  -9   20.10    1.57
  -5  17  -9   20.08    1.26
   5 -18  -9    3.07    0.48
  -5 -18   9    3.29    0.56
  -5  18   9    3.93    0.72
   5  18  -9    2.52    0.87
   4 -18  -9   18.51    1.07
  -4 -18   9   19.80    1.23
  -4  18   9   19.08    1.40
   4  18  -9   16.53    1.72
  -3 -18   9    1.07    0.39
   3 -18  -9    1.10    0.31
   3  18  -9    0.88    0.65
  -3  18   9    1.50    0.49
   2 -18  -9   30.76    1.47
  -2 -18   9   28.17    1.60
   2  18  -9   28.49    2.13
  -2  18   9   30.56    1.83
  -1 -18   9    3.63    0.58
   1 -18  -9    2.69    0.41
  -1  18   9    3.31    0.61
   1  18  -9    3.32    0.78
   0 -18  -9   22.53    1.20
   0 -18   9   24.46    1.43
   0  18  -9   21.36    1.73
   0  18   9   25.00    1.53
  -1 -18  -9    0.23    0.22
   1 -18   9   -0.19    0.30
   1  18   9    0.04    0.29
  -1  18  -9   -0.14    0.38
  -2 -18  -9   29.47    1.47
   2 -18   9   30.33    1.72
  -2  18  -9   31.50    2.09
   2  18   9   31.54    1.76
   3 -18   9    1.70    0.48
  -3 -18  -9    1.86    0.35
  -3  18  -9    1.60    0.58
   3  18   9    2.17    0.51
  -4 -18  -9    4.51    0.55
   3 -19  -9   29.91    1.50
  -3 -19   9   28.39    1.65
  -3  19   9   30.99    1.89
   3  19  -9   32.43    2.38
  -2 -19   9    1.64    0.45
   2 -19  -9    1.40    0.34
   2  19  -9    1.38    0.66
  -2  19   9    1.37    0.47
   1 -19  -9    0.71    0.28
  -1 -19   9    0.33    0.31
   1  19  -9    0.60    0.56
  -1  19   9    0.80    0.40
   0 -19   9    0.13    0.32
   0 -19  -9   -0.16    0.16
   0  19   9   -0.05    0.27
   0  19  -9   -0.02    0.45
  -1 -19  -9   34.89    1.69
   1 -19   9   37.05    1.97
   1  19   9   38.95    2.06
  -1  19  -9   34.84    2.36
  -2 -19  -9    0.37    0.24
   2 -19   9    0.30    0.37
  -2  19  -9    0.54    0.52
   2  19   9    0.15    0.30
 -11   0  10   -0.16    0.23
 -10   0  10   10.06    0.73
  -9   0  10   -0.44    0.20
  -8   0  10   80.34    3.20
  -8   0  10   80.73    3.45
  -7   0  10    0.05    0.19
  -7   0  10   -0.12    0.17
  -6   0  10   11.56    0.80
  -6   0  10   12.34    0.72
   6   0 -10   12.47    0.77
   5   0 -10    0.34    0.20
  -5   0  10    0.17    0.19
  -5   0  10   -0.25    0.17
  -4   0  10  135.50    5.26
  -4   0  10  143.61    5.68
   4   0 -10  144.65    5.28
   4   0 -10  143.43    6.20
  -3   0  10   -0.04    0.15
   3   0 -10   -0.22    0.23
  -3   0  10   -0.12    0.16
   3   0 -10    0.20    0.14
   2   0 -10    0.47    0.29
   2   0 -10    0.82    0.19
  -2   0  10    0.92    0.21
  -2   0  10    0.56    0.23
   1   0 -10   -0.16    0.26
   1   0 -10    0.19    0.12
  -1   0  10   -0.10    0.15
  -1   0  10    0.07    0.14
   0   0 -10   45.83    2.34
   0   0 -10   46.70    1.76
   0   0  10   41.52    1.79
  -1   0 -10    0.31    0.12
  -2   0 -10    5.73    0.75
  -2   0 -10    5.81    0.36
  -3   0 -10   -0.11    0.09
  -3   0 -10   -0.17    0.35
  -4   0 -10  114.49    5.44
  -5   0 -10    0.11    0.38
  -6   0 -10    0.12    0.40
  -7   0 -10   -0.12    0.38
  -8   0 -10   31.82    2.21
  -9   0 -10   -0.50    0.45
 -11  -1  10    1.48    0.37
 -11   1  10    0.81    0.30
 -10  -1  10    3.71    0.49
 -10   1  10    3.21    0.45
  -9  -1  10   48.61    2.09
  -9   1  10   46.65    2.27
  -9   1  10   47.89    2.07
  -8  -1  10    0.65    0.30
  -8   1  10    0.98    0.30
  -8   1  10    0.94    0.30
  -7  -1  10   12.73    0.87
  -7  -1  10   14.97    0.84
   7  -1 -10   13.45    0.86
  -7   1  10   13.66    0.92
  -7   1  10   14.88    0.81
  -6  -1  10    1.52    0.31
   6  -1 -10    2.32    0.36
  -6  -1  10    1.95    0.32
  -6   1  10    1.99    0.37
  -6   1  10    1.56    0.28
  -5  -1  10   96.81    4.04
   5  -1 -10   98.90    3.81
  -5  -1  10   95.79    3.77
  -5   1  10  100.08    3.76
  -5   1  10   96.98    4.09
   5   1 -10  102.52    3.83
   4  -1 -10    2.84    0.51
  -4  -1  10    3.68    0.48
   4  -1 -10    3.76    0.41
  -4  -1  10    2.79    0.38
   4   1 -10    2.46    0.48
  -4   1  10    2.87    0.43
  -4   1  10    2.88    0.36
   4   1 -10    3.43    0.40
   3  -1 -10   29.42    1.35
  -3  -1  10   30.80    1.39
  -3  -1  10   30.11    1.53
   3  -1 -10   33.90    1.72
   3   1 -10   32.23    1.38
  -3   1  10   34.92    1.61
   3   1 -10   31.46    1.72
  -3   1  10   30.07    1.35
  -2  -1  10    6.75    0.48
   2  -1 -10    6.30    0.66
   2  -1 -10    6.87    0.45
  -2  -1  10    6.35    0.55
   2   1 -10    7.47    0.69
   2   1 -10    6.18    0.43
  -2   1  10    6.08    0.56
  -2   1  10    6.03    0.44
  -1  -1  10   52.02    2.30
   1  -1 -10   50.83    2.00
   1  -1 -10   51.98    2.57
  -1  -1  10   50.66    2.05
   1   1 -10   52.39    2.01
  -1   1  10   50.65    2.01
   1   1 -10   49.09    2.54
  -1   1  10   50.10    2.31
   0  -1  10    1.52    0.25
   0  -1 -10    1.73    0.44
   0  -1 -10    1.53    0.22
   0   1  10    1.29    0.32
   0   1 -10    1.79    0.23
   0   1 -10    0.61    0.35
  -1  -1 -10   98.32    3.54
   1  -1  10   90.22    3.61
  -1  -1 -10   94.32    4.49
  -1   1 -10   97.40    4.49
  -1   1 -10   97.81    3.52
  -2  -1 -10    3.36    0.61
  -2  -1 -10    2.92    0.26
   2  -1  10    2.64    0.32
  -2   1 -10    2.42    0.53
  -2   1 -10    3.34    0.26
  -3  -1 -10   57.68    3.15
  -3  -1 -10   61.95    2.31
  -3   1 -10   63.17    3.17
  -4  -1 -10   -0.25    0.43
  -4   1 -10    0.49    0.47
  -5  -1 -10   39.15    2.42
  -5   1 -10   41.69    2.42
  -6  -1 -10   10.69    1.16
  -6   1 -10   11.91    1.16
  -7  -1 -10    8.29    1.14
  -7   1 -10    6.96    1.03
  -8  -1 -10    1.64    0.66
  -8   1 -10    1.25    0.62
  -9  -1 -10   35.13    2.41
  -9   1 -10   33.21    2.33
 -11  -2  10    9.57    0.75
 -11   2  10   11.01    0.78
 -10  -2  10    1.47    0.36
 -10   2  10    2.01    0.37
  -9  -2  10    2.78    0.44
  -9   2  10    3.27    0.53
  -9   2  10    3.07    0.43
  -8  -2  10   65.51    2.73
  -8   2  10   66.57    2.69
  -8   2  10   67.67    2.99
   7  -2 -10   15.80    0.94
  -7  -2  10   14.96    0.93
  -7  -2  10   14.86    0.88
  -7   2  10   15.92    0.86
  -7   2  10   17.49    1.04
   6  -2 -10   12.27    0.75
  -6  -2  10   11.48    0.75
  -6  -2  10   11.58    0.71
  -6   2  10    9.82    0.64
  -6   2  10   11.87    0.83
  -5  -2  10    1.20    0.29
  -5  -2  10    1.33    0.30
   5  -2 -10    1.03    0.25
  -5   2  10    0.63    0.21
   5   2 -10    1.29    0.38
  -5   2  10    1.22    0.31
   4  -2 -10   97.86    4.31
  -4  -2  10   96.63    3.69
  -4  -2  10   95.78    3.93
   4  -2 -10   95.72    3.66
   4   2 -10   97.18    3.69
  -4   2  10   94.50    4.00
  -4   2  10   90.39    3.61
   4   2 -10   99.09    4.37
  -3  -2  10    4.99    0.49
  -3  -2  10    6.10    0.49
   3  -2 -10    6.04    0.44
   3  -2 -10    4.76    0.59
  -3   2  10    4.95    0.56
   3   2 -10    5.98    0.43
  -3   2  10    5.52    0.42
   3   2 -10    5.06    0.62
  -2  -2  10    3.68    0.45
   2  -2 -10    3.82    0.37
  -2  -2  10    3.46    0.38
   2  -2 -10    2.36    0.47
  -2   2  10    3.20    0.34
   2   2 -10    3.66    0.54
   2   2 -10    3.15    0.34
  -2   2  10    3.97    0.50
   1  -2 -10   10.43    0.57
  -1  -2  10   10.61    0.62
   1  -2 -10    8.51    0.82
   1   2 -10   11.11    0.58
   1   2 -10    9.72    0.85
  -1   2  10   11.24    0.78
   0  -2 -10   25.21    1.50
   0  -2 -10   23.54    1.04
   0  -2  10   22.65    1.10
   0   2  10   23.63    1.30
   0   2 -10   24.14    1.02
   0   2 -10   23.67    1.46
  -1  -2 -10    6.88    0.44
  -1  -2 -10    5.19    0.78
   1  -2  10    7.51    0.52
  -1   2 -10    7.49    0.85
  -1   2 -10    8.99    0.45
  -2  -2 -10    0.29    0.13
   2  -2  10    0.18    0.15
  -2  -2 -10    0.97    0.41
  -2   2 -10   -0.02    0.29
  -3  -2 -10   19.08    0.82
   3  -2  10   17.23    0.91
  -3  -2 -10   18.19    1.39
  -3   2 -10   16.66    1.29
  -4  -2 -10  113.68    4.03
  -4  -2 -10  110.64    5.29
  -4   2 -10  104.07    5.17
  -5  -2 -10   15.46    1.37
  -5   2 -10   15.68    1.31
  -6  -2 -10    2.40    0.66
  -6   2 -10    3.27    0.69
  -7  -2 -10   11.03    1.33
  -7   2 -10   10.41    1.24
  -8  -2 -10   39.46    2.59
  -8   2 -10   39.80    2.51
  -9  -2 -10    0.86    0.61
  -9   2 -10    0.72    0.56
 -10  -3  10   18.22    1.06
 -10   3  10   17.68    1.19
 -10   3  10   17.32    1.00
  -9  -3  10   36.16    1.66
  -9   3  10   35.11    1.59
  -9   3  10   32.59    1.80
   8  -3 -10    2.33    0.41
  -8  -3  10    1.36    0.34
  -8   3  10    1.19    0.30
  -8   3  10    2.39    0.45
   7  -3 -10   11.05    0.77
  -7  -3  10   11.46    0.74
  -7   3  10   10.68    0.84
  -7   3  10   12.82    0.72
   6  -3 -10   24.17    1.20
  -6  -3  10   23.07    1.22
  -6  -3  10   24.78    1.19
  -6   3  10   23.91    1.11
  -6   3  10   22.39    1.31
  -5  -3  10   27.07    1.35
   5  -3 -10   31.06    1.38
  -5  -3  10   29.49    1.43
  -5   3  10   29.90    1.55
  -5   3  10   28.60    1.29
   5   3 -10   30.99    1.68
  -4  -3  10    0.14    0.18
   4  -3 -10    0.08    0.14
  -4  -3  10   -0.11    0.19
  -4   3  10    0.01    0.17
  -4   3  10    0.07    0.16
   4   3 -10   -0.14    0.26
   3  -3 -10    6.02    0.45
   3  -3 -10    6.64    0.70
  -3  -3  10    6.13    0.54
  -3  -3  10    5.99    0.51
   3   3 -10    8.02    0.72
  -3   3  10    5.03    0.42
   3   3 -10    5.89    0.46
  -3   3  10    6.83    0.60
   2  -3 -10   60.43    2.29
  -2  -3  10   56.41    2.34
   2  -3 -10   54.09    2.79
  -2   3  10   57.48    2.60
   2   3 -10   58.39    2.84
   2   3 -10   59.77    2.29
   1  -3 -10   23.96    1.53
  -1  -3  10   26.70    1.23
   1  -3 -10   27.20    1.17
   1   3 -10   28.03    1.16
   1   3 -10   24.85    1.54
  -1   3  10   28.51    1.44
   0  -3 -10    1.08    0.38
   0  -3  10    1.25    0.24
   0  -3 -10    0.86    0.18
   0   3 -10    0.56    0.33
   0   3 -10    1.02    0.19
   0   3  10    0.94    0.28
  -1  -3 -10   57.47    2.24
  -1  -3 -10   56.86    2.97
   1  -3  10   58.06    2.35
  -1   3 -10   58.89    2.20
  -1   3 -10   59.38    2.94
  -2  -3 -10   66.76    2.48
   2  -3  10   64.22    2.61
  -2  -3 -10   64.90    3.32
  -2   3 -10   64.45    3.25
   3  -3  10   14.93    0.82
  -3  -3 -10   14.31    1.22
  -3  -3 -10   15.27    0.72
  -3   3 -10   14.45    1.15
  -4  -3 -10    0.20    0.13
   4  -3  10    0.57    0.22
  -4  -3 -10    0.06    0.42
  -4   3 -10   -0.35    0.29
  -5  -3 -10   18.35    1.51
  -5   3 -10   18.69    1.42
  -6  -3 -10   20.26    1.63
  -6   3 -10   19.47    1.50
  -7  -3 -10   15.56    1.47
  -7   3 -10   16.90    1.42
  -8  -3 -10    2.53    0.76
  -8   3 -10    3.98    0.82
  -9  -3 -10   18.66    1.69
  -9   3 -10   16.50    1.51
 -10  -4  10    5.08    0.60
 -10   4  10    6.53    0.78
 -10   4  10    5.38    0.56
  -9  -4  10    5.63    0.60
  -9   4  10    6.69    0.55
  -9   4  10    6.76    0.76
  -8  -4  10   23.47    1.22
   8  -4 -10   23.78    1.29
  -8   4  10   24.06    1.17
  -8   4  10   24.82    1.42
  -7  -4  10   28.37    1.37
   7  -4 -10   30.60    1.43
  -7   4  10   26.09    1.52
  -7   4  10   27.29    1.28
   6  -4 -10   -0.02    0.17
  -6  -4  10   -0.05    0.20
  -6   4  10   -0.04    0.16
  -6   4  10   -0.04    0.19
   5  -4 -10   12.61    0.76
  -5  -4  10   14.29    0.82
  -5  -4  10   13.47    0.81
   5   4 -10   13.99    1.03
  -5   4  10   13.94    0.94
  -5   4  10   12.90    0.71
   4  -4 -10   44.79    1.85
  -4  -4  10   43.39    1.96
  -4  -4  10   44.86    1.90
  -4   4  10   44.56    2.10
   4   4 -10   44.32    2.27
  -4   4  10   41.15    1.76
   3  -4 -10   76.92    3.71
  -3  -4  10   82.09    3.20
   3  -4 -10   82.88    3.13
   3   4 -10   81.08    3.80
  -3   4  10   83.03    3.51
   2  -4 -10    3.11    0.52
   2  -4 -10    3.27    0.35
  -2  -4  10    3.29    0.40
  -2   4  10    3.44    0.49
   2   4 -10    2.63    0.49
   1  -4 -10   46.83    1.87
   1  -4 -10   45.37    2.39
  -1  -4  10   45.25    1.96
  -1   4  10   47.08    2.19
   1   4 -10   44.83    2.39
   1   4 -10   49.04    1.87
   0  -4  10   18.27    0.96
   0  -4 -10   19.10    0.88
   0  -4 -10   17.30    1.26
   0   4 -10   18.28    0.85
   0   4  10   20.09    1.15
   0   4 -10   20.96    1.30
  -1  -4 -10   57.72    3.09
  -1  -4 -10   63.64    2.36
   1  -4  10   60.67    2.47
   1   4  10   63.38    2.77
  -1   4 -10   57.97    3.02
   2  -4  10    2.32    0.34
  -2  -4 -10    1.33    0.48
  -2  -4 -10    1.97    0.25
  -2   4 -10    1.46    0.46
  -3  -4 -10   37.92    2.33
   3  -4  10   41.26    1.77
  -3  -4 -10   41.10    1.62
  -3   4 -10   39.61    2.25
   4  -4  10   19.14    1.03
  -4  -4 -10   20.16    0.90
  -4  -4 -10   18.67    1.49
  -4   4 -10   18.78    1.39
  -5  -4 -10    4.50    0.84
  -5  -4 -10    5.28    0.39
  -5   4 -10    4.95    0.77
  -6  -4 -10    0.41    0.49
  -6   4 -10   -0.03    0.37
  -7  -4 -10   30.72    2.21
  -7   4 -10   31.83    2.07
  -8  -4 -10   13.04    1.43
  -8   4 -10   16.47    1.40
  -9  -4 -10    6.96    1.17
  -9   4 -10    7.97    1.10
 -10  -5  10   36.70    1.77
 -10   5  10   37.06    2.01
 -10   5  10   37.24    1.71
  -9  -5  10    7.09    0.63
   9  -5 -10    8.34    0.71
  -9   5  10    7.63    0.58
  -9   5  10    5.69    0.74
  -8  -5  10    7.08    0.63
   8  -5 -10    8.74    0.68
  -8   5  10    7.47    0.83
  -8   5  10    7.82    0.57
   7  -5 -10    1.46    0.33
  -7  -5  10    1.23    0.31
  -7   5  10    1.53    0.29
  -7   5  10    1.12    0.36
  -6  -5  10   59.59    2.45
   6  -5 -10   58.77    2.43
  -6   5  10   55.00    2.30
  -6   5  10   59.61    2.71
   5  -5 -10   15.37    0.85
  -5  -5  10   15.40    0.87
  -5   5  10   12.99    0.96
   5   5 -10   15.51    1.12
  -5   5  10   14.04    0.74
  -4  -5  10    8.35    0.61
   4  -5 -10    9.81    0.60
  -4   5  10    6.95    0.48
   4   5 -10    7.57    0.77
  -4   5  10    8.97    0.72
   3  -5 -10    1.20    0.24
   3  -5 -10    1.24    0.34
  -3  -5  10    1.06    0.27
  -3   5  10    1.10    0.31
   3   5 -10    1.69    0.41
  -2  -5  10  104.59    4.14
   2  -5 -10  109.04    4.04
   2  -5 -10  102.21    4.85
  -2   5  10  110.81    4.51
   2   5 -10  112.09    4.94
   1  -5 -10   23.44    1.03
  -1  -5  10   22.61    1.12
   1  -5 -10   20.89    1.39
   1   5 -10   21.40    1.40
  -1   5  10   22.56    1.29
   0  -5 -10    2.35    0.28
   0  -5  10    2.61    0.36
   0  -5 -10    2.54    0.51
   0   5 -10    2.15    0.48
   0   5  10    2.65    0.45
   1  -5  10   30.59    1.37
  -1  -5 -10   27.10    1.77
  -1  -5 -10   27.40    1.22
  -1   5 -10   28.25    1.70
   1   5  10   30.65    1.56
  -2  -5 -10   74.32    2.83
   2  -5  10   74.42    2.98
  -2  -5 -10   75.15    3.76
  -2   5 -10   73.49    3.63
  -3  -5 -10    6.51    0.92
  -3  -5 -10    6.26    0.42
   3  -5  10    6.08    0.52
  -3   5 -10    5.89    0.80
  -4  -5 -10    6.31    0.41
   4  -5  10    5.41    0.56
  -4  -5 -10    4.77    0.83
  -4   5 -10    4.60    0.73
  -5  -5 -10    5.14    0.40
  -5  -5 -10    4.56    0.85
  -5   5 -10    5.24    0.81
  -6  -5 -10   68.07    2.56
  -6  -5 -10   63.43    3.63
  -6   5 -10   63.39    3.42
  -7  -5 -10    1.18    0.61
  -7   5 -10    0.40    0.45
  -8  -5 -10    2.80    0.78
  -8   5 -10    2.98    0.69
  -9  -5 -10    1.89    0.74
  -9   5 -10    2.38    0.67
 -10  -6  10    0.57    0.32
 -10   6  10    0.80    0.37
 -10   6  10    0.42    0.28
  -9  -6  10    7.30    0.64
   9  -6 -10    7.55    0.68
  -9   6  10    6.19    0.80
  -9   6  10    8.52    0.61
  -8  -6  10    0.62    0.28
   8  -6 -10    0.57    0.27
  -8   6  10    0.71    0.33
  -8   6  10    0.25    0.21
   7  -6 -10   55.86    2.36
  -7  -6  10   55.62    2.34
  -7   6  10   55.14    2.61
  -7   6  10   50.45    2.18
  -6  -6  10    2.57    0.41
   6  -6 -10    1.66    0.33
   6   6 -10    1.76    0.48
  -6   6  10    1.70    0.29
  -6   6  10    1.89    0.44
  -5  -6  10   12.61    0.81
   5  -6 -10   12.57    0.77
  -5   6  10   12.02    0.67
   5   6 -10   14.17    1.07
  -5   6  10   13.37    0.94
   4  -6 -10    0.22    0.16
  -4  -6  10    0.30    0.22
  -4   6  10    0.49    0.26
   4   6 -10    0.23    0.30
  -3  -6  10   17.82    0.98
   3  -6 -10   17.16    0.88
   3  -6 -10   16.18    1.09
  -3   6  10   17.11    1.09
   3   6 -10   19.17    1.24
   2  -6 -10   -0.02    0.26
  -2  -6  10    0.25    0.20
   2  -6 -10    0.03    0.12
  -2   6  10    0.15    0.20
   2   6 -10    0.32    0.29
  -1  -6  10   62.57    2.58
   1  -6 -10   64.53    2.47
   1  -6 -10   59.02    3.07
   1   6 -10   60.67    3.09
  -1   6  10   67.60    2.88
   0  -6 -10    0.13    0.27
   0  -6 -10    0.19    0.14
   0  -6  10    0.15    0.21
   0   6  10    0.16    0.21
   0   6 -10    0.28    0.30
  -1  -6 -10   68.67    3.56
   1  -6  10   69.87    2.88
  -1  -6 -10   71.87    2.74
  -1   6 -10   70.54    3.50
   1   6  10   76.23    3.20
  -2  -6 -10   -0.21    0.32
  -2  -6 -10    0.30    0.15
   2  -6  10    0.07    0.19
  -2   6 -10    0.03    0.31
  -3  -6 -10   44.52    1.84
  -3  -6 -10   47.51    2.67
   3  -6  10   46.55    2.02
  -3   6 -10   45.66    2.48
  -4  -6 -10    3.16    0.70
   4  -6  10    2.94    0.43
  -4  -6 -10    3.15    0.34
  -4   6 -10    2.85    0.58
  -5  -6 -10   24.20    1.10
  -5  -6 -10   25.15    1.85
  -5   6 -10   23.38    1.62
  -6  -6 -10    0.98    0.23
  -6  -6 -10   -0.21    0.42
  -6   6 -10    0.28    0.38
  -7  -6 -10   49.03    3.03
  -7   6 -10   48.16    2.76
  -8  -6 -10   -0.55    0.39
  -8   6 -10   -0.26    0.36
  -9  -6 -10    6.73    1.17
  -9   6 -10    6.78    0.82
  -9   6 -10    6.73    1.01
  10  -7 -10   34.11    1.77
 -10  -7  10   30.92    1.65
 -10   7  10   34.85    1.57
 -10   7  10   31.37    1.88
  -9  -7  10    1.93    0.41
   9  -7 -10    3.20    0.51
  -9   7  10    2.28    0.51
  -9   7  10    2.45    0.38
   8  -7 -10    1.66    0.36
  -8  -7  10    0.65    0.27
  -8   7  10    1.45    0.42
  -8   7  10    0.80    0.24
  -7  -7  10    0.35    0.28
   7  -7 -10    0.26    0.23
  -7   7  10    1.00    0.35
  -7   7  10    0.51    0.22
   6  -7 -10   77.17    3.17
  -6  -7  10   80.68    3.22
   6   7 -10   83.21    3.92
  -6   7  10   78.14    3.53
  -6   7  10   76.68    3.04
  -5  -7  10    1.41    0.33
   5  -7 -10    1.92    0.33
   5   7 -10    1.68    0.47
  -5   7  10    1.67    0.41
   4  -7 -10    4.70    0.42
  -4  -7  10    3.55    0.46
   4   7 -10    3.51    0.61
  -4   7  10    3.84    0.58
  -3  -7  10    6.92    0.57
   3  -7 -10    7.47    0.51
  -3   7  10    8.05    0.71
   3   7 -10    6.69    0.79
   2  -7 -10   57.28    2.24
   2  -7 -10   53.11    2.73
  -2  -7  10   55.55    2.34
  -2   7  10   54.79    2.58
   2   7 -10   55.73    2.81
   1  -7 -10    8.58    0.54
   1  -7 -10    9.53    0.87
  -1  -7  10    8.93    0.65
   1   7 -10    8.43    0.83
  -1   7  10    9.04    0.75
   0  -7  10    0.18    0.20
   0  -7 -10    0.32    0.16
   0  -7 -10    0.50    0.35
   0   7 -10    0.29    0.32
   0   7  10    0.20    0.21
  -1  -7 -10    2.14    0.55
   1  -7  10    1.43    0.31
  -1  -7 -10    2.08    0.28
  -1   7 -10    2.42    0.51
   1   7  10    2.32    0.44
   2  -7  10  101.80    3.93
  -2  -7 -10   97.76    3.73
  -2  -7 -10   95.18    4.80
   2   7  10  104.06    4.26
  -2   7 -10   98.31    4.68
  -3  -7 -10    0.19    0.13
   3  -7  10    0.04    0.21
  -3  -7 -10   -0.19    0.34
  -3   7 -10   -0.08    0.27
  -4  -7 -10    2.80    0.33
   4  -7  10    2.60    0.43
  -4  -7 -10    2.19    0.62
  -4   7 -10    2.24    0.53
  -5  -7 -10    3.33    0.77
   5  -7  10    3.61    0.50
  -5  -7 -10    4.05    0.40
  -5   7 -10    3.46    0.66
  -6  -7 -10   81.06    4.44
  -6  -7 -10   86.38    3.24
  -6   7 -10   83.00    4.18
  -7  -7 -10   -0.45    0.42
  -7  -7 -10    0.28    0.18
  -7   7 -10   -0.09    0.38
  -8  -7 -10    4.73    0.98
  -8   7 -10    4.30    0.80
  -9  -7 -10    2.15    0.78
  -9   7 -10    1.96    0.47
  -9   7 -10    1.86    0.63
  10  -8 -10    5.46    0.69
 -10  -8  10    5.30    0.64
 -10   8  10    5.01    0.74
 -10   8  10    4.65    0.53
   9  -8 -10    3.54    0.55
  -9  -8  10    4.70    0.58
  -9   8  10    5.47    0.75
  -9   8  10    3.71    0.44
  -8  -8  10    3.57    0.51
   8  -8 -10    5.60    0.62
  -8   8  10    3.64    0.62
  -8   8  10    3.77    0.42
  -7  -8  10   40.14    1.85
   7  -8 -10   40.74    1.85
  -7   8  10   38.11    2.08
  -6  -8  10    0.02    0.25
   6  -8 -10    0.71    0.25
  -6   8  10    0.39    0.28
   6   8 -10    0.71    0.46
  -5  -8  10   13.88    0.89
   5  -8 -10   15.49    0.87
   5   8 -10   16.15    1.23
  -5   8  10   14.03    1.04
  -4  -8  10   14.90    0.93
   4  -8 -10   16.47    0.87
   4   8 -10   15.17    1.19
  -4   8  10   15.32    1.07
  -3  -8  10   51.02    2.21
   3  -8 -10   49.59    2.09
  -3   8  10   51.15    2.44
   3   8 -10   51.32    2.66
  -2  -8  10    0.50    0.23
   2  -8 -10    0.10    0.14
   2  -8 -10   -0.27    0.25
  -2   8  10   -0.06    0.19
   2   8 -10    0.03    0.29
   1  -8 -10   46.95    1.94
  -1  -8  10   49.29    2.09
   1  -8 -10   43.11    2.46
  -1   8  10   50.04    2.31
   1   8 -10   47.65    2.51
   0  -8 -10   28.26    1.75
   0  -8  10   27.47    1.38
   0  -8 -10   27.81    1.25
   0   8  10   30.56    1.59
   0   8 -10   27.58    1.71
  -1  -8 -10   64.15    3.36
   1  -8  10   65.96    2.73
  -1  -8 -10   64.15    2.55
  -1   8 -10   63.42    3.25
   1   8  10   68.40    2.99
  -2  -8 -10   -0.10    0.36
   2  -8  10   -0.15    0.18
  -2  -8 -10    0.12    0.13
   2   8  10   -0.05    0.20
  -2   8 -10   -0.03    0.28
   3  -8  10   38.04    1.79
  -3  -8 -10   37.34    2.34
  -3  -8 -10   38.21    1.60
  -3   8 -10   37.95    2.18
   4  -8  10    6.77    0.61
  -4  -8 -10    7.44    1.06
  -4  -8 -10    6.10    0.46
  -4   8 -10    7.49    0.92
   5  -8  10   27.87    1.43
  -5  -8 -10   24.89    1.92
  -5  -8 -10   26.61    1.22
  -5   8 -10   25.42    1.73
  -6  -8 -10    0.22    0.18
  -6  -8 -10    0.98    0.54
  -6   8 -10    0.02    0.36
  -7  -8 -10   40.32    2.66
  -7  -8 -10   38.60    1.70
  -7   8 -10   39.33    2.36
  -8  -8 -10    5.36    1.06
  -8   8 -10    4.45    0.83
  -8   8 -10    3.42    0.58
   9  -9 -10   24.49    1.31
  -9  -9  10   21.00    1.23
  -9   9  10   20.95    1.09
  -9   9  10   18.66    1.40
  -8  -9  10    6.04    0.66
   8  -9 -10    6.85    0.69
  -8   9  10    4.32    0.70
   7  -9 -10    3.73    0.50
  -7  -9  10    4.43    0.56
  -7   9  10    5.32    0.72
  -6  -9  10   47.57    2.12
   6  -9 -10   45.87    2.06
   6   9 -10   51.11    2.74
  -6   9  10   44.26    2.35
   5  -9 -10   24.85    1.21
  -5  -9  10   23.53    1.27
  -5   9  10   22.96    1.44
   5   9 -10   24.07    1.64
  -4  -9  10    3.10    0.44
   4  -9 -10    2.36    0.35
   4   9 -10    2.35    0.55
  -4   9  10    2.57    0.50
  -3  -9  10   23.98    1.25
   3  -9 -10   22.53    1.12
   3   9 -10   23.79    1.54
  -3   9  10   22.40    1.38
  -2  -9  10   57.72    2.44
   2  -9 -10   54.78    2.82
   2  -9 -10   55.53    2.29
   2   9 -10   57.18    2.92
  -2   9  10   57.68    2.68
  -1  -9  10    9.85    0.72
   1  -9 -10   10.93    0.63
   1  -9 -10    9.96    0.95
   1   9 -10    9.99    0.93
  -1   9  10    9.61    0.81
   0  -9 -10    0.34    0.36
   0  -9 -10    0.46    0.18
   0  -9  10    0.22    0.22
   0   9  10    0.44    0.27
   0   9 -10    0.93    0.39
   1  -9  10    6.69    0.59
  -1  -9 -10    4.95    0.82
  -1  -9 -10    6.81    0.48
  -1   9 -10    6.06    0.78
   1   9  10    5.70    0.68
   2  -9  10   41.78    1.95
  -2  -9 -10   40.94    1.76
  -2  -9 -10   43.93    2.52
  -2   9 -10   40.76    2.33
   2   9  10   45.42    2.15
  -3  -9 -10    7.34    1.04
   3  -9  10    8.07    0.67
  -3  -9 -10    7.43    0.52
  -3   9 -10    8.18    0.87
   4  -9  10    0.18    0.22
  -4  -9 -10   -0.31    0.36
  -4  -9 -10    0.06    0.16
  -4   9 -10   -0.09    0.32
   5  -9  10   32.42    1.59
  -5  -9 -10   26.93    2.05
  -5  -9 -10   31.15    1.35
  -5   9 -10   25.78    1.83
  -6  -9 -10   30.01    1.39
  -6  -9 -10   29.97    2.20
  -6   9 -10   31.30    1.98
  -7  -9 -10    5.35    0.47
  -7  -9 -10    3.86    0.90
  -7   9 -10    4.35    0.78
  -7   9 -10    5.22    0.69
  -8  -9 -10    4.60    0.49
  -8  -9 -10    3.93    0.92
  -8   9 -10    4.40    0.80
  -8   9 -10    3.74    0.61
   9 -10 -10    1.99    0.46
  -9 -10  10    1.89    0.42
  -9  10  10    1.86    0.52
  -8 -10  10   26.91    1.41
   8 -10 -10   26.35    1.41
  -8  10  10   24.57    1.62
  -7 -10  10   14.41    0.91
   7 -10 -10   11.28    0.81
  -7  10  10   10.92    0.99
   7  10 -10   13.53    1.34
  -6 -10  10    2.53    0.45
   6 -10 -10    2.87    0.43
  -6  10  10    2.71    0.55
   6  10 -10    2.40    0.66
   5 -10 -10   10.53    0.71
  -5 -10  10   10.00    0.76
   5  10 -10   10.97    1.09
  -5  10  10   10.34    0.91
   4 -10 -10   48.18    2.02
  -4 -10  10   44.67    2.10
  -4  10  10   46.06    2.35
   4  10 -10   49.27    2.64
  -3 -10  10   12.57    0.85
   3 -10 -10   13.81    0.79
  -3  10  10   14.64    1.04
   3  10 -10   13.18    1.13
   2 -10 -10    1.49    0.45
   2 -10 -10    2.53    0.34
  -2 -10  10    2.78    0.42
  -2  10  10    2.38    0.46
   2  10 -10    1.64    0.47
   1 -10 -10   14.29    0.79
   1 -10 -10   13.10    1.13
  -1 -10  10   15.01    0.94
   1  10 -10   14.01    1.15
  -1  10  10   15.18    1.04
   0 -10  10   73.68    2.97
   0 -10 -10   67.51    3.54
   0 -10 -10   70.76    2.77
   0  10 -10   67.02    3.49
   0  10  10   73.79    3.23
   1 -10  10    5.63    0.63
  -1 -10 -10    6.17    0.87
  -1 -10 -10    6.25    0.47
  -1  10 -10    5.66    0.78
   1  10  10    6.63    0.73
   2 -10  10    1.43    0.37
  -2 -10 -10    1.89    0.30
  -2 -10 -10    2.17    0.63
   2  10  10    2.37    0.47
  -2  10 -10    2.37    0.55
  -3 -10 -10   12.20    1.23
  -3 -10 -10   11.82    0.70
   3 -10  10   14.08    0.91
  -3  10 -10   12.04    1.08
   4 -10  10   58.97    2.53
  -4 -10 -10   51.12    3.14
  -4 -10 -10   57.46    2.28
  -4  10 -10   54.09    2.95
  -5 -10 -10    3.85    0.43
  -5 -10 -10    3.74    0.81
   5 -10  10    2.62    0.49
  -5  10 -10    2.69    0.63
  -6 -10 -10    4.27    0.87
  -6 -10 -10    4.52    0.48
  -6  10 -10    3.74    0.73
  -6  10 -10    4.44    0.63
  -7 -10 -10   10.25    1.39
  -7 -10 -10   11.29    0.72
  -7  10 -10   10.59    1.10
  -7  10 -10   10.32    0.89
  -8 -10 -10   24.67    1.25
  -8 -10 -10   24.72    2.07
  -8  10 -10   26.23    1.54
  -8  10 -10   24.71    1.79
   9 -11 -10   39.96    1.88
  -9 -11  10   36.65    1.84
  -9  11  10   32.57    2.05
  -8 -11  10   -0.30    0.21
   8 -11 -10    0.09    0.24
  -8  11  10    0.03    0.28
  -7 -11  10    7.99    0.71
   7 -11 -10    7.72    0.65
   7  11 -10    7.43    1.12
  -7  11  10    7.70    0.93
  -6 -11  10    7.78    0.69
   6 -11 -10    7.60    0.62
   6  11 -10    9.06    1.16
  -6  11  10    7.09    0.85
   5 -11 -10   35.07    1.61
  -5 -11  10   34.69    1.70
   5  11 -10   34.48    2.18
  -5  11  10   33.18    1.90
  -4 -11  10   -0.03    0.23
   4 -11 -10    0.05    0.16
   4  11 -10   -0.46    0.33
  -4  11  10    0.13    0.25
  -3 -11  10   22.52    1.25
   3 -11 -10   22.00    1.11
   3  11 -10   22.51    1.56
  -3  11  10   22.83    1.42
   2 -11 -10    2.51    0.35
  -2 -11  10    2.75    0.44
   2  11 -10    3.28    0.62
  -2  11  10    3.40    0.56
   1 -11 -10   35.91    1.60
   1 -11 -10   33.34    2.08
  -1 -11  10   37.36    1.77
   1  11 -10   37.70    2.15
  -1  11  10   39.09    1.97
   0 -11 -10   -0.41    0.32
   0 -11  10    0.19    0.25
   0 -11 -10    0.08    0.16
   0  11 -10    0.25    0.32
   0  11  10   -0.13    0.21
  -1 -11 -10   16.64    0.88
  -1 -11 -10   15.16    1.31
   1 -11  10   18.36    1.07
  -1  11 -10   16.11    1.25
   1  11  10   17.88    1.16
  -2 -11 -10    5.81    0.89
   2 -11  10    4.27    0.57
  -2 -11 -10    5.43    0.45
   2  11  10    5.98    0.72
  -2  11 -10    5.06    0.75
  -3 -11 -10   19.01    0.98
  -3 -11 -10   19.58    1.58
   3 -11  10   18.71    1.16
   3  11  10   21.11    1.28
  -3  11 -10   18.96    1.41
   4 -11  10    0.18    0.25
  -4 -11 -10    0.63    0.48
  -4 -11 -10    0.67    0.21
  -4  11 -10    0.60    0.40
   5 -11  10   30.10    1.59
  -5 -11 -10   27.78    2.07
  -5 -11 -10   30.42    1.36
  -5  11 -10   27.17    1.54
  -5  11 -10   27.15    1.84
  -6 -11 -10   12.55    0.77
  -6 -11 -10   13.01    1.38
  -6  11 -10   11.94    0.92
  -6  11 -10   11.91    1.15
  -7 -11 -10    8.08    0.61
  -7 -11 -10    7.82    1.23
  -7  11 -10    9.59    1.13
  -7  11 -10    8.45    0.79
   8 -12 -10   34.05    1.69
  -8 -12  10   32.43    1.71
  -8  12  10   33.68    2.00
  -7 -12  10    0.32    0.28
   7 -12 -10    0.51    0.25
  -7  12  10    0.62    0.36
   7  12 -10    1.83    0.67
   6 -12 -10    3.48    0.47
  -6 -12  10    3.55    0.53
   6  12 -10    3.10    0.78
  -6  12  10    4.12    0.68
   5 -12 -10    2.06    0.36
  -5 -12  10    2.75    0.45
   5  12 -10    1.43    0.61
  -5  12  10    2.10    0.50
  -4 -12  10   67.46    2.91
   4 -12 -10   69.75    2.79
  -4  12  10   67.12    3.21
   4  12 -10   67.55    3.58
   3 -12 -10    0.10    0.17
  -3 -12  10   -0.05    0.20
  -3  12  10   -0.01    0.24
   3  12 -10   -0.02    0.34
   2 -12 -10    0.39    0.19
  -2 -12  10    0.57    0.30
  -2  12  10    0.24    0.27
   2  12 -10    0.49    0.38
   1 -12 -10   -0.01    0.36
  -1 -12  10    0.09    0.25
   1 -12 -10    0.04    0.16
  -1  12  10   -0.06    0.22
   1  12 -10    0.17    0.34
   0 -12  10   72.28    2.99
   0 -12 -10   64.47    3.52
   0 -12 -10   68.56    2.77
   0  12  10   74.45    3.25
   0  12 -10   68.04    3.52
  -1 -12 -10    1.74    0.29
   1 -12  10    2.09    0.42
  -1 -12 -10    2.19    0.58
  -1  12 -10    1.13    0.44
   1  12  10    1.41    0.39
  -2 -12 -10   -0.10    0.35
  -2 -12 -10   -0.02    0.16
   2 -12  10   -0.33    0.21
   2  12  10   -0.09    0.21
  -2  12 -10    0.01    0.31
  -3 -12 -10    2.71    0.70
  -3 -12 -10    2.02    0.33
   3 -12  10    1.83    0.42
  -3  12 -10    1.95    0.53
   3  12  10    2.10    0.45
  -4 -12 -10   30.48    1.35
   4 -12  10   29.50    1.57
  -4 -12 -10   28.71    2.05
  -4  12 -10   25.88    1.78
  -4  12 -10   25.66    1.48
  -5 -12 -10    5.04    0.46
   5 -12  10    5.67    0.70
  -5 -12 -10    5.89    1.01
  -5  12 -10    6.48    0.91
  -5  12 -10    4.14    0.59
  -6 -12 -10    1.98    0.70
  -6 -12 -10    2.20    0.37
  -6  12 -10    2.01    0.59
  -6  12 -10    1.94    0.44
  -7 -12 -10    0.86    0.56
  -7 -12 -10    0.62    0.26
  -7  12 -10    1.06    0.37
  -7  12 -10    1.25    0.52
   8 -13 -10    0.07    0.24
  -8 -13  10   -0.38    0.26
  -8  13  10    0.15    0.32
  -7 -13  10    6.58    0.72
   7 -13 -10    6.58    0.69
   7  13 -10    7.02    1.16
  -7  13  10    7.65    0.95
   6 -13 -10    0.79    0.28
  -6 -13  10    0.01    0.25
  -6  13  10    0.20    0.30
   6  13 -10    0.01    0.48
   5 -13 -10   38.87    1.76
  -5 -13  10   35.14    1.82
  -5  13  10   35.44    2.06
   5  13 -10   41.02    2.49
   4 -13 -10    3.51    0.46
  -4 -13  10    4.76    0.59
   4  13 -10    2.94    0.71
  -4  13  10    3.45    0.61
   3 -13 -10   44.39    1.93
  -3 -13  10   43.03    2.07
  -3  13  10   44.78    2.32
   3  13 -10   43.62    2.56
   2 -13 -10    0.24    0.19
  -2 -13  10    0.07    0.27
   2  13 -10    0.12    0.34
  -2  13  10    0.31    0.28
   1 -13 -10   35.92    1.64
   1 -13 -10   34.42    2.15
  -1 -13  10   37.67    1.84
   1  13 -10   39.12    2.25
  -1  13  10   39.94    2.05
   0 -13  10    0.67    0.30
   0 -13 -10    0.25    0.18
   0 -13 -10   -0.55    0.38
   0  13  10    0.72    0.34
   0  13 -10    0.67    0.41
   1 -13  10   21.00    1.26
  -1 -13 -10   20.77    1.59
  -1 -13 -10   20.15    1.06
   1  13  10   24.01    1.40
  -1  13 -10   21.40    1.52
  -2 -13 -10    1.67    0.58
   2 -13  10    1.86    0.44
  -2 -13 -10    1.91    0.32
   2  13  10    2.27    0.48
  -2  13 -10    2.19    0.39
  -2  13 -10    1.88    0.54
  -3 -13 -10   15.67    0.88
  -3 -13 -10   16.30    1.44
   3 -13  10   14.67    1.05
  -3  13 -10   15.85    1.00
   3  13  10   16.45    1.14
  -3  13 -10   14.53    1.24
  -4 -13 -10   -0.18    0.40
  -4 -13 -10    0.03    0.17
   4 -13  10    0.33    0.29
  -4  13 -10   -0.23    0.33
  -4  13 -10    0.43    0.26
  -5 -13 -10   35.86    2.44
   5 -13  10   40.08    1.93
  -5 -13 -10   34.41    1.59
  -5  13 -10   31.80    2.11
  -5  13 -10   33.55    1.80
  -6 -13 -10    1.29    0.62
  -6 -13 -10    1.26    0.31
  -6  13 -10    1.03    0.35
  -6  13 -10    0.72    0.44
   7 -14 -10    7.08    0.71
  -7 -14  10    5.14    0.67
   7  14 -10    6.25    1.14
  -7  14  10    5.33    0.83
   6 -14 -10    2.92    0.45
  -6 -14  10    1.95    0.45
   6  14 -10    2.35    0.76
  -6  14  10    2.68    0.58
  -5 -14  10    1.88    0.40
   5 -14 -10    1.57    0.35
  -5  14  10    2.08    0.53
   5  14 -10    1.08    0.65
  -4 -14  10   35.18    1.76
   4 -14 -10   34.30    1.61
   4  14 -10   35.65    2.30
  -4  14  10   32.65    1.94
  -3 -14  10    3.14    0.52
   3 -14 -10    2.62    0.39
  -3  14  10    3.15    0.60
   3  14 -10    2.77    0.69
   2 -14 -10    1.96    0.35
  -2 -14  10    2.02    0.44
  -2  14  10    2.07    0.48
   2  14 -10    1.81    0.57
  -1 -14  10    1.79    0.44
   1 -14 -10    1.20    0.28
  -1  14  10    0.82    0.36
   1  14 -10    1.48    0.52
   0 -14 -10   80.59    4.19
   0 -14 -10   81.77    3.30
   0 -14  10   81.93    3.53
   0  14 -10   82.42    4.18
   0  14  10   93.30    3.86
  -1 -14 -10    2.92    0.39
   1 -14  10    1.78    0.47
  -1 -14 -10    1.25    0.56
  -1  14 -10    2.45    0.59
  -2 -14 -10    4.24    0.47
   2 -14  10    2.87    0.53
  -2 -14 -10    3.59    0.78
   2  14  10    3.79    0.61
  -2  14 -10    3.69    0.70
   3 -14  10    2.66    0.51
  -3 -14 -10    1.79    0.62
  -3 -14 -10    2.71    0.38
   3  14  10    2.16    0.48
  -3  14 -10    2.68    0.45
  -3  14 -10    2.35    0.60
  -4 -14 -10   40.14    1.73
  -4 -14 -10   36.02    2.47
   4 -14  10   39.60    1.98
  -4  14 -10   37.81    1.89
  -4  14 -10   34.55    2.24
  -5 -14 -10    3.36    0.84
  -5 -14 -10    3.22    0.44
   5 -14  10    5.19    0.71
  -5  14 -10    2.85    0.67
  -5  14 -10    3.50    0.54
  -6 -14 -10    1.25    0.64
  -6 -14 -10    2.15    0.38
  -6  14 -10    1.50    0.54
  -6  14 -10    2.18    0.47
  -6 -15  10    9.66    0.84
   6 -15 -10   10.09    0.76
   6  15 -10    8.32    1.31
  -6  15  10   11.35    1.03
  -5 -15  10   14.01    0.98
   5 -15 -10   12.24    0.85
   5  15 -10   12.04    1.49
  -5  15  10   14.06    1.15
  -4 -15  10    0.11    0.26
   4 -15 -10   -0.11    0.19
   4  15 -10    0.68    0.56
  -4  15  10    0.56    0.34
  -3 -15  10    9.75    0.82
   3 -15 -10   10.76    0.73
  -3  15  10   10.59    0.98
   3  15 -10   12.28    1.23
   2 -15 -10   18.68    1.02
  -2 -15  10   17.98    1.16
   2  15 -10   18.81    1.51
  -2  15  10   17.34    1.28
   1 -15 -10   29.95    1.46
  -1 -15  10   32.64    1.69
  -1  15  10   33.92    1.87
   1  15 -10   29.96    2.03
   0 -15 -10    0.24    0.50
   0 -15 -10    0.48    0.21
   0 -15  10    0.33    0.33
   0  15 -10    0.26    0.42
   0  15  10    0.63    0.32
  -1 -15 -10   16.98    0.93
   1 -15  10   15.93    1.10
  -1 -15 -10   16.50    1.42
   1  15  10   16.51    1.18
  -1  15 -10   13.60    1.27
  -2 -15 -10   14.79    0.88
  -2 -15 -10   14.66    1.40
   2 -15  10   15.40    1.09
   2  15  10   16.28    1.15
  -2  15 -10   14.05    1.26
  -3 -15 -10    9.75    0.68
   3 -15  10    9.21    0.94
  -3 -15 -10    9.92    1.27
  -3  15 -10    8.93    0.74
  -3  15 -10    8.78    1.07
   3  15  10   11.15    0.93
  -4 -15 -10   -0.47    0.39
  -4 -15 -10    0.22    0.20
   4 -15  10    0.19    0.32
  -4  15 -10    0.38    0.42
  -4  15 -10    0.67    0.29
  -5 -15 -10   11.12    0.75
  -5 -15 -10    8.92    1.32
   5 -15  10   12.05    1.00
  -5  15 -10   11.84    1.16
  -5  15 -10   10.96    0.87
   6 -16 -10    2.62    0.45
   5 -16 -10    7.11    0.64
  -5 -16  10    7.97    0.83
  -5  16  10    7.81    0.95
   5  16 -10    6.88    1.18
   4 -16 -10   14.78    0.92
  -4 -16  10   13.40    1.01
   4  16 -10   14.84    1.50
  -4  16  10   14.64    1.18
   3 -16 -10   28.92    1.44
  -3 -16  10   29.65    1.62
  -3  16  10   29.63    1.81
   3  16 -10   28.98    2.10
   2 -16 -10    0.18    0.20
  -2 -16  10    0.33    0.32
  -2  16  10    0.47    0.35
   2  16 -10    0.47    0.45
  -1 -16  10    5.16    0.68
   1 -16 -10    4.82    0.53
  -1  16  10    6.55    0.85
   1  16 -10    4.67    0.85
   0 -16 -10   27.51    1.36
   0 -16 -10   26.23    1.88
   0 -16  10   27.88    1.57
   0  16 -10   26.42    1.89
   0  16  10   31.18    1.74
  -1 -16 -10    9.23    0.67
   1 -16  10    9.86    0.87
  -1 -16 -10    9.04    1.21
   1  16  10   10.57    0.93
  -1  16 -10    7.90    1.07
  -2 -16 -10    0.02    0.18
   2 -16  10   -0.44    0.25
  -2 -16 -10   -0.30    0.46
  -2  16 -10    0.18    0.37
   2  16  10    0.01    0.27
  -3 -16 -10   14.84    0.88
   3 -16  10   14.22    1.08
  -3 -16 -10   11.97    1.47
  -3  16 -10   14.19    1.29
   3  16  10   15.60    1.14
  -4 -16 -10   16.12    0.97
   4 -16  10   17.55    1.23
  -4 -16 -10   18.02    1.63
  -4  16 -10   16.76    1.09
  -4  16 -10   15.40    1.38
  -4 -17  10    2.08    0.48
   4 -17 -10    1.47    0.34
   4  17 -10    0.95    0.66
  -4  17  10    1.85    0.51
   3 -17 -10    6.01    0.62
  -3 -17  10    5.91    0.74
   3  17 -10    7.60    1.14
  -3  17  10    5.16    0.77
  -2 -17  10   37.14    2.01
   2 -17 -10   39.78    1.84
   2  17 -10   40.46    2.58
  -2  17  10   43.95    2.29
  -1 -17  10    3.99    0.63
   1 -17 -10    5.23    0.55
  -1  17  10    5.31    0.78
   1  17 -10    4.63    0.87
   0 -17  10    0.23    0.31
   0 -17 -10    0.22    0.22
   0  17 -10    0.07    0.42
   0  17  10    0.49    0.34
  -1 -17 -10    3.44    0.46
   1 -17  10    2.91    0.57
  -1  17 -10    2.66    0.67
   1  17  10    4.64    0.72
   2 -17  10   51.44    2.43
  -2 -17 -10   48.40    2.13
   2  17  10   50.47    2.51
  -2  17 -10   43.75    2.76
  -3 -17 -10    5.54    0.60
   3 -17  10    5.81    0.77
  -3  17 -10    6.69    0.97
   3  17  10    7.17    0.86
  -3 -18  10   24.33    1.42
   3 -18 -10   21.96    1.22
  -3  18  10   21.02    1.52
  -2 -18  10    0.16    0.34
   2 -18 -10    0.35    0.24
  -2  18  10   -0.04    0.30
   2  18 -10    0.26    0.52
  -1 -18  10   16.77    1.20
   1 -18 -10   16.82    0.99
   1  18 -10   15.79    1.49
  -1  18  10   18.31    1.32
   0 -18  10    4.86    0.70
   0 -18 -10    3.86    0.50
   0  18 -10    4.56    0.87
   0  18  10    5.40    0.78
   1 -18  10   16.56    1.21
  -1 -18 -10   15.85    0.96
  -1  18 -10   16.64    1.47
   1  18  10   16.05    1.22
  -2 -18 -10    0.07    0.20
 -10   0  11    0.06    0.24
  -9   0  11   19.59    1.08
  -8   0  11   -0.30    0.18
  -8   0  11   -0.75    0.17
  -7   0  11   48.91    2.09
  -7   0  11   49.11    2.28
  -6   0  11    0.58    0.25
   6   0 -11   -0.05    0.16
  -6   0  11   -0.24    0.17
  -5   0  11   25.58    1.21
  -5   0  11   24.43    1.34
   5   0 -11   24.84    1.23
  -4   0  11   -0.05    0.19
   4   0 -11   -0.07    0.16
  -4   0  11    0.33    0.23
   4   0 -11   -0.73    0.23
   3   0 -11   95.32    4.35
  -3   0  11   97.90    3.98
   3   0 -11   94.23    3.62
  -3   0  11   91.41    3.62
  -2   0  11    0.09    0.20
   2   0 -11   -0.13    0.11
  -2   0  11   -0.09    0.15
   2   0 -11    0.03    0.27
   1   0 -11   -0.11    0.25
   1   0 -11    0.10    0.13
  -1   0  11    0.26    0.22
   0   0 -11    0.27    0.14
   0   0 -11   -0.60    0.29
  -1   0 -11   89.47    4.36
  -1   0 -11   93.20    3.41
  -2   0 -11   -0.24    0.31
  -3   0 -11    0.42    0.38
  -4   0 -11   -0.40    0.35
  -5   0 -11   51.67    2.96
  -6   0 -11    0.00    0.43
  -7   0 -11    1.85    0.64
  -8   0 -11    0.40    0.53
 -10  -1  11    0.54    0.29
 -10   1  11    0.94    0.32
  -9  -1  11    1.77    0.37
  -9   1  11    0.97    0.33
  -8  -1  11   43.78    1.98
  -8   1  11   44.21    2.17
  -8   1  11   47.41    1.98
   7  -1 -11    0.58    0.26
  -7  -1  11    0.06    0.23
  -7  -1  11    0.99    0.31
  -7   1  11    0.74    0.30
  -7   1  11    0.24    0.24
   6  -1 -11    4.64    0.52
  -6  -1  11    5.49    0.60
  -6  -1  11    5.32    0.48
  -6   1  11    5.24    0.60
  -6   1  11    4.61    0.48
  -5  -1  11    0.18    0.21
   5  -1 -11    0.33    0.20
  -5  -1  11    0.26    0.22
   5   1 -11    0.42    0.21
  -5   1  11    0.61    0.23
  -5   1  11    0.04    0.19
  -4  -1  11   72.79    3.10
   4  -1 -11   73.11    2.87
  -4  -1  11   70.00    2.86
   4   1 -11   75.11    2.88
  -4   1  11   67.74    2.82
  -4   1  11   73.06    3.15
   4   1 -11   72.74    3.42
   3  -1 -11    0.03    0.15
  -3  -1  11    0.17    0.21
  -3  -1  11   -0.06    0.19
  -3   1  11    0.22    0.22
   3   1 -11   -0.31    0.30
   3   1 -11    0.36    0.19
  -3   1  11   -0.23    0.17
   2  -1 -11   23.18    1.43
  -2  -1  11   21.81    1.11
  -2  -1  11   24.92    1.31
   2  -1 -11   22.53    1.07
   2   1 -11   24.56    1.45
   2   1 -11   23.53    1.08
  -2   1  11   23.83    1.31
  -1  -1  11    3.09    0.36
   1  -1 -11    2.34    0.46
   1  -1 -11    2.72    0.31
   1   1 -11    2.85    0.32
  -1   1  11    2.91    0.46
   1   1 -11    1.89    0.45
   0  -1 -11   86.17    4.13
   0  -1 -11   87.76    3.26
   0   1 -11   84.15    4.11
   0   1 -11   88.28    3.26
  -1  -1 -11    0.16    0.13
  -1  -1 -11   -0.94    0.29
  -1   1 -11    0.18    0.12
  -1   1 -11   -0.53    0.30
  -2  -1 -11   30.13    1.27
  -2  -1 -11   31.64    1.92
  -2   1 -11   30.76    1.88
  -3  -1 -11    4.00    0.71
  -3   1 -11    4.06    0.69
  -4  -1 -11   49.67    2.86
  -4   1 -11   51.70    2.85
  -5  -1 -11   -0.39    0.42
  -5   1 -11    0.05    0.46
  -6  -1 -11   30.57    2.13
  -6   1 -11   31.12    2.09
  -7  -1 -11    0.98    0.55
  -7   1 -11    1.45    0.58
  -8  -1 -11   13.73    1.43
  -8   1 -11   12.64    1.35
 -10  -2  11    9.58    0.74
 -10   2  11    8.35    0.68
  -9  -2  11   18.87    1.07
  -9   2  11   18.96    1.19
  -9   2  11   17.65    1.01
  -8  -2  11    2.08    0.40
  -8   2  11    2.32    0.38
  -8   2  11    3.60    0.53
  -7  -2  11   37.50    1.74
   7  -2 -11   39.13    1.82
  -7   2  11   39.89    1.94
  -7   2  11   37.78    1.68
  -6  -2  11    7.87    0.62
  -6  -2  11    9.01    0.69
   6  -2 -11    9.82    0.67
  -6   2  11    8.97    0.61
  -6   2  11    8.57    0.72
  -5  -2  11   20.85    1.05
   5  -2 -11   20.37    1.05
  -5  -2  11   19.10    1.10
  -5   2  11   19.52    0.98
  -5   2  11   18.31    1.14
  -4  -2  11   -0.08    0.19
   4  -2 -11    0.08    0.16
  -4  -2  11    0.53    0.24
   4   2 -11    0.37    0.20
   4   2 -11   -0.09    0.28
  -4   2  11    0.46    0.21
  -4   2  11    0.13    0.21
  -3  -2  11   86.73    3.42
   3  -2 -11   84.44    3.36
  -3  -2  11   91.97    3.70
   3  -2 -11   87.21    4.04
  -3   2  11   87.15    3.75
   3   2 -11   88.84    3.38
   3   2 -11   87.48    4.08
  -2  -2  11   16.69    0.92
   2  -2 -11   18.72    0.89
   2  -2 -11   16.66    1.17
  -2   2  11   15.94    1.05
   2   2 -11   18.69    0.89
   2   2 -11   18.01    1.20
   1  -2 -11    2.66    0.53
  -1  -2  11    4.00    0.42
   1  -2 -11    3.11    0.34
   1   2 -11    2.86    0.55
   1   2 -11    3.84    0.33
  -1   2  11    3.67    0.53
   0  -2 -11    3.61    0.67
   0  -2 -11    5.09    0.37
   0  -2  11    4.74    0.43
   0   2  11    4.77    0.61
   0   2 -11    3.28    0.62
   0   2 -11    4.36    0.35
  -1  -2 -11   82.56    4.09
  -1  -2 -11   87.31    3.18
  -1   2 -11   82.29    4.05
  -2  -2 -11   14.35    1.23
  -2  -2 -11   16.06    0.74
  -2   2 -11   14.52    1.19
  -3  -2 -11    0.46    0.15
  -3  -2 -11    0.38    0.37
  -3   2 -11    0.18    0.33
  -4  -2 -11    6.51    0.96
  -4   2 -11    6.50    0.90
  -5  -2 -11   87.52    4.49
  -5   2 -11   87.42    4.41
  -6  -2 -11    6.41    1.05
  -6   2 -11    6.54    0.99
  -7  -2 -11    0.85    0.54
  -7   2 -11    1.06    0.54
  -8  -2 -11    5.00    0.99
  -8   2 -11    4.85    0.92
 -10  -3  11    2.96    0.48
 -10   3  11    2.66    0.42
  -9  -3  11   21.67    1.22
  -9   3  11   23.75    1.19
  -9   3  11   23.42    1.38
  -8  -3  11   39.81    1.93
   8  -3 -11   47.85    2.09
  -8   3  11   44.93    1.90
  -8   3  11   42.63    2.15
   7  -3 -11    7.75    0.63
  -7  -3  11    6.98    0.61
  -7   3  11    6.86    0.67
  -7   3  11    6.82    0.54
  -6  -3  11    3.54    0.45
   6  -3 -11    3.00    0.43
  -6  -3  11    3.29    0.45
  -6   3  11    2.83    0.37
  -6   3  11    4.29    0.57
   5  -3 -11   18.71    1.01
  -5  -3  11   19.64    1.08
  -5  -3  11   19.19    1.02
  -5   3  11   19.14    1.15
  -5   3  11   17.54    0.92
  -4  -3  11   20.80    1.12
   4  -3 -11   19.81    1.00
  -4  -3  11   19.96    1.04
  -4   3  11   16.96    1.13
   4   3 -11   19.51    1.27
  -3  -3  11   10.02    0.72
  -3  -3  11    8.77    0.64
   3  -3 -11    9.62    0.60
   3  -3 -11    7.79    0.81
  -3   3  11   10.27    0.78
   3   3 -11    9.36    0.88
   3   3 -11   11.02    0.65
  -2  -3  11   22.42    1.14
   2  -3 -11   21.50    1.40
   2  -3 -11   23.21    1.07
  -2   3  11   23.64    1.31
   2   3 -11   20.94    1.41
   2   3 -11   24.63    1.09
   1  -3 -11   40.97    1.72
  -1  -3  11   38.31    1.79
   1  -3 -11   43.31    2.26
   1   3 -11   40.57    2.24
  -1   3  11   44.78    2.08
   1   3 -11   44.74    1.74
   0  -3 -11   56.08    3.05
   0  -3 -11   61.51    2.38
   0  -3  11   61.70    2.48
   0   3 -11   64.54    2.37
   0   3 -11   55.40    3.02
   0   3  11   65.91    2.82
  -1  -3 -11    0.00    0.12
  -1  -3 -11   -0.33    0.32
   1  -3  11    0.27    0.20
  -1   3 -11   -0.22    0.29
  -2  -3 -11   20.76    0.95
  -2  -3 -11   20.51    1.50
  -2   3 -11   21.63    1.46
  -3  -3 -11   35.11    2.18
  -3  -3 -11   35.98    1.46
  -3   3 -11   34.97    2.11
  -4  -3 -11   36.30    2.31
  -4   3 -11   37.13    2.22
  -5  -3 -11    2.05    0.66
  -5   3 -11    0.77    0.47
  -6  -3 -11   25.31    1.92
  -6   3 -11   24.56    1.79
  -7  -3 -11   21.32    1.80
  -7   3 -11   21.83    1.69
  -8  -3 -11    8.64    1.27
  -8   3 -11    9.95    1.25
 -10  -4  11   25.61    1.38
 -10   4  11   27.62    1.58
 -10   4  11   25.42    1.32
  -9  -4  11    9.64    0.74
  -9   4  11   10.36    0.87
  -9   4  11   10.51    0.71
  -8  -4  11    3.38    0.49
   8  -4 -11    4.42    0.57
  -8   4  11    4.97    0.50
  -8   4  11    4.16    0.59
   7  -4 -11   20.11    1.14
  -7  -4  11   22.21    1.15
  -7   4  11   19.72    1.25
  -7   4  11   20.81    1.04
   6  -4 -11   48.15    2.07
  -6  -4  11   46.35    2.05
  -6   4  11   44.11    2.24
  -6   4  11   48.03    1.95
  -5  -4  11    2.06    0.36
   5  -4 -11    2.38    0.35
  -5  -4  11    3.05    0.43
   5   4 -11    2.33    0.50
  -5   4  11    2.76    0.48
  -4  -4  11    8.98    0.65
   4  -4 -11    8.11    0.57
  -4  -4  11    8.03    0.61
  -4   4  11    8.61    0.72
   4   4 -11    7.70    0.80
   3  -4 -11   16.62    0.86
   3  -4 -11   15.14    1.08
  -3  -4  11   15.62    0.91
  -3   4  11   15.98    1.04
   3   4 -11   16.97    1.17
  -2  -4  11   41.79    1.80
   2  -4 -11   37.88    2.12
   2  -4 -11   41.41    1.71
  -2   4  11   42.02    2.03
   2   4 -11   39.58    2.18
  -1  -4  11    0.55    0.23
   1  -4 -11    0.52    0.18
   1  -4 -11    0.22    0.34
   1   4 -11    0.78    0.20
  -1   4  11    0.37    0.24
   1   4 -11    0.64    0.36
   0  -4 -11   22.68    1.00
   0  -4  11   20.87    1.09
   0  -4 -11   21.00    1.45
   0   4 -11   18.90    1.38
   0   4  11   22.79    1.31
  -1  -4 -11   46.77    1.86
  -1  -4 -11   41.68    2.49
   1  -4  11   46.54    1.99
  -1   4 -11   49.77    2.52
  -2  -4 -11   21.17    1.54
  -2  -4 -11   22.67    0.99
   2  -4  11   22.06    1.12
  -2   4 -11   18.74    1.40
  -3  -4 -11   -0.01    0.12
  -3  -4 -11   -0.22    0.35
  -3   4 -11   -0.36    0.27
  -4  -4 -11   15.80    0.76
  -4  -4 -11   14.63    1.35
  -4   4 -11   14.30    1.23
  -5  -4 -11   12.60    1.30
  -5   4 -11   14.98    1.26
  -6  -4 -11   12.24    1.32
  -6   4 -11   12.09    1.19
  -7  -4 -11    0.56    0.56
  -7   4 -11    0.98    0.53
  -8  -4 -11   18.57    1.76
  -8   4 -11   21.17    1.68
  -9  -5  11   34.74    1.74
   9  -5 -11   37.57    1.86
  -9   5  11   38.45    1.68
  -9   5  11   35.10    1.94
  -8  -5  11    2.69    0.44
   8  -5 -11    2.52    0.44
  -8   5  11    2.86    0.38
  -8   5  11    1.94    0.44
  -7  -5  11   10.69    0.78
   7  -5 -11   12.04    0.80
  -7   5  11   11.72    0.91
  -7   5  11   10.95    0.69
  -6  -5  11    1.47    0.36
   6  -5 -11    1.50    0.33
  -6   5  11    2.11    0.45
  -5  -5  11   46.54    2.13
   5  -5 -11   51.04    2.12
   5   5 -11   52.19    2.61
  -5   5  11   48.13    2.37
  -4  -5  11    3.15    0.43
   4  -5 -11    2.47    0.36
  -4   5  11    3.62    0.54
   4   5 -11    2.64    0.52
   3  -5 -11    0.27    0.18
  -3  -5  11    0.00    0.18
   3   5 -11   -0.16    0.26
  -3   5  11    0.34    0.24
   2  -5 -11    3.27    0.37
  -2  -5  11    3.19    0.42
   2  -5 -11    3.05    0.53
   2   5 -11    4.42    0.64
  -2   5  11    3.51    0.52
   1  -5 -11   72.39    3.66
  -1  -5  11   77.40    3.07
   1  -5 -11   77.09    2.95
  -1   5  11   77.90    3.38
   1   5 -11   76.54    3.69
   0  -5 -11   32.89    1.38
   0  -5 -11   29.83    1.88
   0  -5  11   31.98    1.50
   0   5  11   34.29    1.73
   0   5 -11   30.14    1.86
  -1  -5 -11    0.35    0.16
   1  -5  11    0.44    0.22
  -1  -5 -11    0.15    0.35
  -1   5 -11    0.42    0.36
   1   5  11    0.45    0.27
  -2  -5 -11    0.96    0.49
   2  -5  11    1.98    0.35
  -2  -5 -11    2.07    0.27
  -2   5 -11    2.00    0.51
   3  -5  11   61.56    2.51
  -3  -5 -11   58.86    3.24
  -3  -5 -11   60.60    2.33
  -3   5 -11   55.94    3.07
  -4  -5 -11    0.20    0.15
  -4  -5 -11    0.19    0.40
  -4   5 -11   -0.52    0.27
  -5  -5 -11    2.10    0.67
  -5   5 -11    1.70    0.54
  -6  -5 -11    3.79    0.87
  -6   5 -11    4.73    0.82
  -7  -5 -11   32.33    2.37
  -7   5 -11   36.01    2.26
  -8  -5 -11    1.98    0.76
  -8   5 -11    2.21    0.67
  -9  -6  11   -0.20    0.23
   9  -6 -11    0.20    0.26
  -9   6  11   -0.60    0.18
  -9   6  11    0.62    0.33
   8  -6 -11    9.06    0.73
  -8  -6  11    8.93    0.72
  -8   6  11    7.27    0.84
  -8   6  11    8.63    0.62
   7  -6 -11   -0.14    0.21
  -7  -6  11   -0.19    0.21
  -7   6  11   -0.01    0.22
  -6  -6  11   56.10    2.37
   6  -6 -11   54.70    2.33
  -6   6  11   52.26    2.59
   5  -6 -11    5.05    0.52
  -5  -6  11    4.50    0.53
   5   6 -11    4.95    0.72
  -5   6  11    5.34    0.68
   4  -6 -11   11.59    0.72
  -4  -6  11   12.05    0.79
   4   6 -11   11.27    1.00
  -4   6  11   11.79    0.90
  -3  -6  11    1.04    0.29
   3  -6 -11    0.64    0.21
   3   6 -11    0.94    0.37
  -3   6  11    0.74    0.29
   2  -6 -11   29.76    1.77
  -2  -6  11   31.51    1.49
   2  -6 -11   32.06    1.40
   2   6 -11   31.36    1.83
  -2   6  11   31.46    1.68
   1  -6 -11    1.92    0.28
   1  -6 -11    1.92    0.50
  -1  -6  11    1.60    0.33
  -1   6  11    1.89    0.42
   1   6 -11    1.87    0.49
   0  -6  11   32.77    1.58
   0  -6 -11   34.40    1.47
   0  -6 -11   33.28    2.00
   0   6  11   37.82    1.85
   0   6 -11   33.43    1.97
  -1  -6 -11    5.79    0.84
  -1  -6 -11    6.92    0.46
   1  -6  11    6.37    0.58
  -1   6 -11    5.51    0.77
   1   6  11    7.20    0.68
   2  -6  11   70.36    2.82
  -2  -6 -11   66.44    3.52
  -2  -6 -11   68.74    2.62
  -2   6 -11   62.98    3.37
   3  -6  11    0.85    0.30
  -3  -6 -11    0.85    0.49
  -3  -6 -11    0.95    0.21
  -3   6 -11    0.31    0.36
  -4  -6 -11   35.85    2.36
   4  -6  11   39.96    1.79
  -4  -6 -11   38.22    1.57
  -4   6 -11   33.41    2.16
  -5  -6 -11   -0.02    0.42
  -5  -6 -11    0.25    0.17
  -5   6 -11    0.37    0.39
  -6  -6 -11   16.20    1.57
  -6   6 -11   19.01    1.47
  -7  -6 -11    0.52    0.56
  -7   6 -11    0.75    0.51
  -8  -6 -11   26.88    2.16
  -8   6 -11   25.95    1.90
  -9  -7  11   29.26    1.49
   9  -7 -11   28.30    1.52
  -9   7  11   25.08    1.62
   8  -7 -11    2.68    0.45
  -8  -7  11    1.79    0.41
  -8   7  11    2.30    0.49
   7  -7 -11    7.41    0.61
  -7  -7  11    6.20    0.65
  -7   7  11    5.53    0.72
  -6  -7  11    2.22    0.41
   6  -7 -11    2.31    0.39
  -6   7  11    1.96    0.46
   5  -7 -11   64.57    2.65
  -5  -7  11   64.92    2.72
   5   7 -11   66.52    3.29
  -5   7  11   60.04    2.95
  -4  -7  11    5.35    0.59
   4  -7 -11    5.22    0.47
  -4   7  11    5.98    0.71
   4   7 -11    5.63    0.77
   3  -7 -11   20.98    1.06
  -3  -7  11   21.48    1.16
   3   7 -11   21.53    1.44
  -3   7  11   21.37    1.31
   2  -7 -11    1.56    0.27
   2  -7 -11    0.91    0.37
  -2  -7  11    1.66    0.34
  -2   7  11    1.17    0.36
   2   7 -11    1.07    0.41
   1  -7 -11   51.10    2.72
  -1  -7  11   53.07    2.28
   1  -7 -11   52.27    2.14
   1   7 -11   50.32    2.73
  -1   7  11   56.80    2.56
   0  -7 -11    0.59    0.18
   0  -7 -11    0.54    0.39
   0  -7  11    0.88    0.29
   0   7 -11    0.89    0.40
   0   7  11    0.58    0.28
   1  -7  11    1.06    0.29
  -1  -7 -11    0.85    0.21
  -1  -7 -11    0.02    0.35
   1   7  11    1.10    0.36
  -1   7 -11    0.58    0.38
  -2  -7 -11    1.62    0.27
   2  -7  11    1.50    0.34
  -2  -7 -11    1.05    0.52
  -2   7 -11    1.39    0.47
  -3  -7 -11   63.11    3.45
  -3  -7 -11   63.06    2.49
   3  -7  11   66.91    2.72
  -3   7 -11   59.67    3.24
   4  -7  11    1.08    0.33
  -4  -7 -11    1.12    0.57
  -4  -7 -11    1.26    0.25
  -4   7 -11    1.79    0.53
  -5  -7 -11   -0.17    0.38
   5  -7  11   -0.13    0.20
  -5  -7 -11    0.04    0.15
  -5   7 -11    0.06    0.34
  -6  -7 -11    4.98    0.41
  -6  -7 -11    2.38    0.76
  -6   7 -11    3.63    0.72
  -7  -7 -11   50.69    3.12
  -7   7 -11   46.33    2.78
  -8  -7 -11    0.17    0.56
  -8   7 -11   -0.34    0.40
  -9  -8  11    3.54    0.54
   9  -8 -11    4.04    0.58
  -9   8  11    3.07    0.59
   8  -8 -11    2.86    0.48
  -8  -8  11    3.15    0.49
  -8   8  11    2.81    0.54
   7  -8 -11    6.10    0.64
  -7  -8  11    6.77    0.68
  -7   8  11    6.24    0.78
   6  -8 -11   46.36    2.06
  -6  -8  11   46.09    2.10
   6   8 -11   48.46    2.64
  -6   8  11   43.63    2.30
   5  -8 -11    0.17    0.20
  -5  -8  11    0.11    0.26
   5   8 -11    0.43    0.39
  -5   8  11    0.26    0.29
  -4  -8  11    6.43    0.65
   4  -8 -11    6.09    0.52
  -4   8  11    5.99    0.73
   4   8 -11    6.30    0.81
   3  -8 -11   26.72    1.27
  -3  -8  11   25.78    1.37
  -3   8  11   27.40    1.56
   3   8 -11   27.82    1.72
   2  -8 -11   41.59    2.25
   2  -8 -11   40.39    1.78
  -2  -8  11   45.67    1.96
  -2   8  11   44.30    2.16
   2   8 -11   39.49    2.30
   1  -8 -11    3.83    0.41
  -1  -8  11    4.54    0.54
   1  -8 -11    3.85    0.66
   1   8 -11    4.17    0.68
  -1   8  11    3.68    0.57
   0  -8 -11   17.63    0.89
   0  -8 -11   15.45    1.28
   0  -8  11   16.70    1.01
   0   8  11   19.50    1.20
   0   8 -11   18.60    1.31
  -1  -8 -11   10.17    1.02
  -1  -8 -11    8.57    0.57
   1  -8  11   10.16    0.74
  -1   8 -11    9.46    0.93
   1   8  11    9.96    0.83
  -2  -8 -11   34.29    1.49
  -2  -8 -11   34.15    2.18
   2  -8  11   36.17    1.70
   2   8  11   35.81    1.88
  -2   8 -11   32.33    2.03
  -3  -8 -11    0.27    0.45
  -3  -8 -11    0.16    0.16
   3  -8  11   -0.01    0.21
  -3   8 -11    0.11    0.34
   4  -8  11   10.50    0.81
  -4  -8 -11   11.77    0.68
  -4  -8 -11   10.01    1.29
  -4   8 -11   12.85    1.13
  -5  -8 -11   14.20    0.77
   5  -8  11   13.35    0.93
  -5  -8 -11   13.29    1.38
  -5   8 -11   12.06    1.17
  -6  -8 -11   12.86    0.75
  -6  -8 -11   13.89    1.44
  -6   8 -11   13.41    1.24
  -7  -8 -11    0.51    0.53
  -7   8 -11   -0.03    0.41
  -8  -9  11   25.08    1.38
   8  -9 -11   24.90    1.38
  -8   9  11   23.90    1.55
  -7  -9  11    5.49    0.64
   7  -9 -11    6.41    0.65
  -7   9  11    4.89    0.72
   6  -9 -11    3.09    0.44
  -6  -9  11    1.83    0.40
  -6   9  11    1.78    0.45
   6   9 -11    1.66    0.58
  -5  -9  11   35.34    1.72
   5  -9 -11   35.38    1.64
   5   9 -11   35.94    2.16
  -5   9  11   34.49    1.92
   4  -9 -11   43.79    1.87
  -4  -9  11   43.08    1.98
   4   9 -11   40.39    2.38
  -4   9  11   41.24    2.17
   3  -9 -11    1.54    0.30
  -3  -9  11    0.66    0.29
  -3   9  11    1.23    0.37
   3   9 -11    0.97    0.43
   2  -9 -11    4.52    0.42
  -2  -9  11    5.16    0.58
  -2   9  11    5.28    0.68
   2   9 -11    4.85    0.74
  -1  -9  11   26.31    1.42
   1  -9 -11   27.92    1.29
   1  -9 -11   26.83    1.73
  -1   9  11   31.25    1.66
   1   9 -11   28.39    1.76
   0  -9 -11   14.41    1.23
   0  -9 -11   16.07    0.83
   0  -9  11   15.09    0.96
   0   9  11   14.67    1.06
   0   9 -11   15.21    1.20
   1  -9  11   -0.13    0.20
  -1  -9 -11   -0.07    0.34
  -1  -9 -11    0.22    0.16
  -1   9 -11    0.19    0.33
   1   9  11    0.17    0.24
  -2  -9 -11   11.87    1.15
  -2  -9 -11    9.72    0.62
   2  -9  11   10.33    0.79
  -2   9 -11    9.10    0.96
   2   9  11   10.06    0.87
  -3  -9 -11   24.01    1.82
  -3  -9 -11   26.46    1.19
   3  -9  11   24.98    1.36
  -3   9 -11   22.90    1.63
  -4  -9 -11   16.00    0.85
   4  -9  11   15.87    1.03
  -4  -9 -11   14.88    1.44
  -4   9 -11   14.44    1.26
  -5  -9 -11    0.62    0.22
  -5  -9 -11    0.08    0.44
   5  -9  11    0.44    0.29
  -5   9 -11    0.56    0.42
  -6  -9 -11   14.84    1.51
  -6  -9 -11   15.64    0.86
  -6   9 -11   14.61    1.32
  -7  -9 -11   21.45    1.91
  -7   9 -11   23.47    1.72
  -8 -10  11    1.72    0.43
   8 -10 -11    1.10    0.35
  -8  10  11    1.49    0.44
  -7 -10  11   17.16    1.11
   7 -10 -11   19.33    1.10
  -7  10  11   17.28    1.26
   6 -10 -11   13.56    0.88
  -6 -10  11   15.13    0.97
  -6  10  11   12.38    1.05
   6  10 -11   16.14    1.38
  -5 -10  11    2.83    0.49
   5 -10 -11    4.36    0.51
  -5  10  11    4.01    0.62
   5  10 -11    3.15    0.70
  -4 -10  11    9.80    0.78
   4 -10 -11    9.15    0.66
   4  10 -11    9.80    1.02
  -4  10  11    9.94    0.88
  -3 -10  11   40.00    1.91
   3 -10 -11   40.82    1.78
   3  10 -11   39.93    2.32
  -3  10  11   40.67    2.12
  -2 -10  11   10.19    0.78
   2 -10 -11   10.36    0.66
  -2  10  11    9.07    0.84
   2  10 -11   10.03    0.99
   1 -10 -11   10.28    0.66
  -1 -10  11   10.59    0.79
   1 -10 -11   10.26    1.01
   1  10 -11   11.54    1.04
  -1  10  11   11.88    0.93
   0 -10 -11    2.90    0.37
   0 -10 -11    1.76    0.54
   0 -10  11    3.09    0.48
   0  10 -11    3.76    0.65
   0  10  11    4.03    0.59
   1 -10  11   36.43    1.77
  -1 -10 -11   36.54    1.58
  -1 -10 -11   36.26    2.22
   1  10  11   38.70    1.97
  -1  10 -11   31.89    2.06
   2 -10  11    6.27    0.69
  -2 -10 -11    5.53    0.89
  -2 -10 -11    6.12    0.46
  -2  10 -11    6.27    0.86
   2  10  11    5.78    0.73
   3 -10  11   -0.04    0.22
  -3 -10 -11   -0.15    0.36
  -3 -10 -11    0.03    0.15
  -3  10 -11   -0.49    0.26
   4 -10  11    4.86    0.62
  -4 -10 -11    4.26    0.87
  -4 -10 -11    4.81    0.42
  -4  10 -11    3.83    0.71
  -5 -10 -11   37.44    1.64
   5 -10  11   37.23    1.88
  -5 -10 -11   38.98    2.55
  -5  10 -11   34.54    2.22
  -6 -10 -11   10.05    1.39
  -6 -10 -11   10.85    0.70
  -6  10 -11    9.34    1.15
  -7 -10 -11    1.13    0.62
  -7 -10 -11    1.70    0.33
  -7  10 -11    1.99    0.63
  -7  10 -11    1.27    0.41
   8 -11 -11   34.68    1.70
  -8 -11  11   31.84    1.69
  -8  11  11   30.53    1.90
   7 -11 -11    2.73    0.45
  -7 -11  11    2.49    0.48
  -7  11  11    2.34    0.53
  -6 -11  11    2.29    0.45
   6 -11 -11    1.21    0.34
  -6  11  11    2.05    0.50
   6  11 -11    1.10    0.58
   5 -11 -11    5.97    0.53
  -5 -11  11    6.43    0.69
  -5  11  11    5.67    0.77
   5  11 -11    6.59    0.96
  -4 -11  11   49.83    2.31
   4 -11 -11   53.15    2.21
  -4  11  11   48.94    2.55
   4  11 -11   50.86    2.85
  -3 -11  11    0.83    0.34
   3 -11 -11    1.09    0.27
   3  11 -11    0.85    0.45
  -3  11  11    0.89    0.36
  -2 -11  11    9.36    0.77
   2 -11 -11    9.14    0.64
  -2  11  11    9.64    0.87
   2  11 -11    9.35    0.97
  -1 -11  11    5.35    0.63
   1 -11 -11    3.59    0.69
   1 -11 -11    4.20    0.46
   1  11 -11    4.06    0.70
  -1  11  11    4.26    0.63
   0 -11  11   23.22    1.29
   0 -11 -11   21.63    1.09
   0 -11 -11   20.47    1.57
   0  11  11   25.52    1.47
   0  11 -11   21.48    1.53
  -1 -11 -11    0.55    0.20
   1 -11  11    0.50    0.30
  -1 -11 -11    0.08    0.39
   1  11  11    0.54    0.33
  -1  11 -11    0.39    0.37
  -2 -11 -11   24.81    1.17
  -2 -11 -11   23.22    1.76
   2 -11  11   24.89    1.38
   2  11  11   25.26    1.51
  -2  11 -11   21.95    1.60
   3 -11  11   10.49    0.82
  -3 -11 -11    8.48    1.17
  -3 -11 -11    9.49    0.62
  -3  11 -11    9.23    0.99
   4 -11  11   21.35    1.28
  -4 -11 -11   19.04    1.69
  -4 -11 -11   21.56    1.07
  -4  11 -11   19.48    1.51
  -5 -11 -11    0.11    0.48
   5 -11  11    0.97    0.37
  -5 -11 -11    0.93    0.26
  -5  11 -11    0.91    0.50
  -6 -11 -11   23.51    1.99
  -6 -11 -11   27.50    1.28
  -6  11 -11   22.66    1.74
  -6  11 -11   25.03    1.49
   7 -12 -11   29.34    1.48
  -7 -12  11   26.56    1.51
  -7  12  11   26.43    1.71
   6 -12 -11    0.79    0.29
  -6 -12  11    0.35    0.30
   6  12 -11    0.61    0.53
  -6  12  11    0.64    0.34
  -5 -12  11    8.93    0.75
   5 -12 -11    8.90    0.68
   5  12 -11    7.96    1.10
  -5  12  11    8.22    0.95
   4 -12 -11    2.74    0.41
  -4 -12  11    1.95    0.43
  -4  12  11    1.66    0.47
   4  12 -11    1.93    0.60
   3 -12 -11   50.52    2.13
  -3 -12  11   50.88    2.30
   3  12 -11   46.66    2.76
  -3  12  11   49.16    2.52
  -2 -12  11    2.97    0.51
   2 -12 -11    2.37    0.37
  -2  12  11    2.40    0.52
   2  12 -11    2.58    0.61
  -1 -12  11    6.92    0.72
   1 -12 -11    6.42    0.51
   1  12 -11    6.07    0.86
  -1  12  11    6.78    0.81
   0 -12  11    0.55    0.30
   0 -12 -11    0.00    0.40
   0 -12 -11    0.29    0.18
   0  12  11    0.11    0.28
   0  12 -11    0.24    0.36
   1 -12  11   48.26    2.30
  -1 -12 -11   47.14    2.82
  -1 -12 -11   51.71    2.10
  -1  12 -11   48.98    2.74
   1  12  11   51.20    2.52
   2 -12  11    1.34    0.40
  -2 -12 -11    1.54    0.29
  -2 -12 -11    0.55    0.47
   2  12  11    1.36    0.42
  -2  12 -11    1.25    0.47
   3 -12  11    0.43    0.31
  -3 -12 -11    0.27    0.19
  -3 -12 -11   -0.09    0.40
  -3  12 -11    0.21    0.37
  -4 -12 -11    0.57    0.50
  -4 -12 -11    0.61    0.24
   4 -12  11    1.43    0.43
  -4  12 -11    1.06    0.48
  -5 -12 -11   55.37    3.39
  -5 -12 -11   55.68    2.36
   5 -12  11   64.54    2.73
  -5  12 -11   54.54    2.65
  -5  12 -11   53.33    3.08
  -6 -12 -11    0.12    0.51
  -6 -12 -11    0.19    0.22
  -6  12 -11    0.11    0.28
  -6  12 -11    0.15    0.42
   7 -13 -11    0.02    0.23
  -6 -13  11    4.95    0.66
   6 -13 -11    5.36    0.62
   6  13 -11    6.38    1.07
  -6  13  11    4.87    0.77
   5 -13 -11    0.37    0.24
  -5 -13  11    0.09    0.28
   5  13 -11    0.13    0.47
  -5  13  11    0.62    0.35
   4 -13 -11   56.97    2.48
  -4 -13  11   59.97    2.66
  -4  13  11   58.22    2.92
   4  13 -11   60.17    3.29
   3 -13 -11    2.05    0.36
  -3 -13  11    2.03    0.43
   3  13 -11    1.76    0.58
  -3  13  11    0.97    0.41
  -2 -13  11   13.20    0.97
   2 -13 -11   14.98    0.86
  -2  13  11   13.60    1.09
   2  13 -11   13.61    1.24
  -1 -13  11    0.86    0.38
   1 -13 -11    0.41    0.23
   1  13 -11    0.83    0.44
  -1  13  11    0.71    0.35
   0 -13 -11   46.93    2.04
   0 -13  11   48.27    2.28
   0 -13 -11   47.00    2.74
   0  13  11   50.89    2.51
   0  13 -11   47.30    2.70
   1 -13  11   -0.23    0.25
  -1 -13 -11    0.29    0.19
  -1 -13 -11   -0.35    0.38
   1  13  11   -0.10    0.24
  -1  13 -11   -0.32    0.34
  -2 -13 -11   25.89    1.87
   2 -13  11   25.36    1.44
  -2 -13 -11   23.60    1.19
  -2  13 -11   20.35    1.61
   2  13  11   27.01    1.58
  -3 -13 -11    1.11    0.57
   3 -13  11    1.37    0.42
  -3 -13 -11    1.19    0.29
  -3  13 -11    0.36    0.27
  -3  13 -11    1.14    0.47
  -4 -13 -11   19.83    1.74
   4 -13  11   21.65    1.34
  -4 -13 -11   20.24    1.08
  -4  13 -11   18.56    1.51
  -4  13 -11   21.29    1.26
  -5 -13 -11    0.10    0.19
   5 -13  11   -0.02    0.31
  -5 -13 -11    0.04    0.46
  -5  13 -11    0.31    0.46
  -5  13 -11    0.63    0.31
   6 -14 -11    3.19    0.48
  -6 -14  11    2.49    0.51
  -6  14  11    3.55    0.67
   6  14 -11    3.23    0.84
  -5 -14  11    2.93    0.52
   5 -14 -11    2.06    0.40
   5  14 -11    1.74    0.67
  -5  14  11    2.09    0.52
  -4 -14  11   -0.02    0.26
   4 -14 -11    0.18    0.22
  -4  14  11    0.12    0.29
   4  14 -11   -0.36    0.44
  -3 -14  11   49.37    2.33
   3 -14 -11   48.70    2.15
  -3  14  11   51.20    2.59
   3  14 -11   47.78    2.85
   2 -14 -11    4.18    0.48
  -2 -14  11    4.67    0.62
   2  14 -11    3.71    0.76
  -2  14  11    3.74    0.65
   1 -14 -11    6.77    0.57
  -1 -14  11    7.48    0.79
  -1  14  11    6.98    0.87
   1  14 -11    6.82    0.95
   0 -14 -11    3.73    0.45
   0 -14 -11    4.07    0.80
   0 -14  11    4.39    0.63
   0  14  11    5.21    0.76
   0  14 -11    4.24    0.76
   1 -14  11   57.03    2.67
  -1 -14 -11   55.55    3.22
  -1 -14 -11   55.14    2.40
  -1  14 -11   58.27    3.16
   1  14  11   65.04    2.93
  -2 -14 -11    2.37    0.72
  -2 -14 -11    3.62    0.45
   2 -14  11    3.61    0.61
  -2  14 -11    2.49    0.63
   2  14  11    4.67    0.70
  -3 -14 -11    0.25    0.22
  -3 -14 -11    0.21    0.46
   3 -14  11    0.20    0.32
  -3  14 -11    0.53    0.28
  -3  14 -11   -0.17    0.37
  -4 -14 -11    2.75    0.78
  -4 -14 -11    3.15    0.43
   4 -14  11    2.49    0.54
  -4  14 -11    2.61    0.65
  -4  14 -11    3.73    0.56
   5 -15 -11    9.36    0.73
  -5 -15  11    9.88    0.84
   5  15 -11    9.43    1.32
  -5  15  11    8.13    0.99
  -4 -15  11   17.70    1.17
   4 -15 -11   16.96    1.03
  -4  15  11   18.58    1.35
   4  15 -11   16.88    1.56
   3 -15 -11    0.27    0.21
  -3 -15  11    0.09    0.27
  -3  15  11   -0.17    0.27
   3  15 -11   -0.06    0.45
  -2 -15  11    5.22    0.70
   2 -15 -11    6.99    0.59
   2  15 -11    6.96    1.02
  -2  15  11    8.94    1.00
  -1 -15  11   15.33    1.10
   1 -15 -11   16.82    0.94
   1  15 -11   12.72    1.29
  -1  15  11   16.12    1.21
   0 -15 -11   22.44    1.14
   0 -15  11   21.20    1.33
   0  15 -11   18.62    1.56
   0  15  11   21.59    1.45
  -1 -15 -11    2.64    0.40
  -1 -15 -11    0.79    0.60
   1 -15  11    1.79    0.47
  -1  15 -11    1.72    0.57
   1  15  11    2.37    0.53
  -2 -15 -11   17.93    1.63
   2 -15  11   20.62    1.32
  -2 -15 -11   18.99    1.06
  -2  15 -11   18.40    1.50
   2  15  11   21.18    1.39
   3 -15  11    9.04    0.94
  -3 -15 -11    7.66    1.18
  -3 -15 -11    9.07    0.68
   3  15  11   10.66    0.95
  -3  15 -11    8.95    1.11
  -4 -15 -11   15.54    0.93
   4 -16 -11    8.99    0.70
  -4 -16  11    8.07    0.87
  -4  16  11    8.67    1.04
   3 -16 -11   10.46    0.79
  -3 -16  11   12.97    0.99
   3  16 -11   11.78    1.40
  -3  16  11   14.42    1.15
  -2 -16  11   21.54    1.32
   2 -16 -11   19.69    1.10
  -2  16  11   18.68    1.39
   2  16 -11   18.66    1.61
  -1 -16  11    3.49    0.59
   1 -16 -11    2.96    0.43
  -1  16  11    4.37    0.71
   1  16 -11    3.02    0.72
   0 -16  11    6.13    0.79
   0 -16 -11    7.67    0.60
   0  16 -11    6.39    0.97
   0  16  11    7.40    0.91
  -1 -16 -11   20.77    1.12
   1 -16  11   20.36    1.32
  -1 -16 -11   17.68    1.61
   1  16  11   25.10    1.51
  -1  16 -11   19.45    1.59
   2 -16  11   15.08    1.10
  -2 -16 -11   11.77    0.81
  -2 -16 -11   10.62    1.41
   2  16  11   16.07    1.17
  -2  16 -11   11.75    1.22
   2 -17 -11    2.64    0.42
   1 -17 -11   34.62    1.64
  -1 -17  11   35.89    1.90
  -1  17  11   36.15    2.05
   1  17 -11   30.61    2.24
   0 -17 -11    7.51    0.61
   0 -17  11    6.66    0.84
   0  17  11    8.63    0.99
  -9   0  12    0.01    0.23
  -8   0  12   17.54    1.01
  -7   0  12   -0.08    0.21
  -7   0  12   -0.36    0.20
   6   0 -12   21.47    1.19
  -6   0  12   23.26    1.30
  -6   0  12   21.92    1.15
  -5   0  12    0.17    0.21
  -5   0  12   -0.15    0.19
   5   0 -12    0.21    0.19
  -4   0  12   14.78    0.85
   4   0 -12   14.50    0.84
  -4   0  12   15.64    0.99
   3   0 -12    0.18    0.19
  -3   0  12    0.06    0.22
   2   0 -12   80.64    3.07
  -2   0  12   80.36    3.46
   2   0 -12   75.92    3.76
   1   0 -12    0.01    0.27
   1   0 -12   -0.06    0.12
   0   0 -12   20.56    1.39
   0   0 -12   19.39    0.94
  -1   0 -12   -0.44    0.30
  -2   0 -12   59.90    3.17
  -3   0 -12   -0.29    0.32
  -4   0 -12   13.51    1.25
  -5   0 -12   -0.12    0.46
  -6   0 -12   52.13    3.09
  -7   0 -12    0.03    0.49
  -9  -1  12    0.25    0.25
  -9   1  12    0.29    0.27
  -8  -1  12    2.52    0.42
  -8   1  12    2.58    0.47
  -8   1  12    2.17    0.39
   7  -1 -12   45.22    2.06
  -7  -1  12   43.17    1.96
  -7   1  12   44.19    2.15
  -7   1  12   45.02    1.94
  -6  -1  12    2.70    0.41
   6  -1 -12    3.26    0.46
  -6  -1  12    3.82    0.53
  -6   1  12    3.57    0.53
  -6   1  12    2.67    0.39
  -5  -1  12    5.64    0.63
  -5  -1  12    5.95    0.52
   5  -1 -12    5.99    0.52
  -5   1  12    5.49    0.49
  -5   1  12    6.01    0.68
   5   1 -12    4.89    0.55
  -4  -1  12    0.89    0.30
  -4  -1  12    0.67    0.25
   4  -1 -12    0.87    0.26
   4   1 -12    0.70    0.25
  -4   1  12    0.98    0.31
  -3  -1  12   91.85    3.85
   3  -1 -12   93.59    3.50
   3  -1 -12   88.88    4.20
  -3  -1  12   87.24    3.52
  -3   1  12   89.09    3.87
   3   1 -12   88.32    4.22
   3   1 -12   91.92    3.50
   2  -1 -12    0.73    0.22
   2  -1 -12   -0.10    0.36
   2   1 -12   -0.12    0.35
   2   1 -12    1.22    0.26
  -2   1  12    0.88    0.31
   1  -1 -12    6.99    0.85
   1  -1 -12    8.68    0.55
   1   1 -12    9.24    0.56
   1   1 -12    8.21    0.85
  -1   1  12    8.67    0.76
   0  -1 -12    3.40    0.62
   0  -1 -12    2.85    0.33
   0   1 -12    3.03    0.59
   0   1 -12    2.89    0.32
  -1  -1 -12   44.28    1.76
  -1  -1 -12   41.78    2.42
  -1   1 -12   43.43    2.42
  -2  -1 -12   -0.17    0.39
  -2   1 -12    0.04    0.38
  -3  -1 -12   13.97    1.25
  -3   1 -12   13.96    1.22
  -4  -1 -12    3.54    0.77
  -4   1 -12    3.85    0.76
  -5  -1 -12   46.90    2.88
  -5   1 -12   50.64    2.89
  -6  -1 -12   -0.16    0.49
  -6   1 -12   -0.06    0.47
  -7  -1 -12   21.93    1.85
  -7   1 -12   22.72    1.82
  -9  -2  12    9.75    0.75
  -9   2  12   10.14    0.72
  -8  -2  12   19.62    1.13
  -8   2  12   21.36    1.11
  -8   2  12   19.96    1.25
  -7  -2  12    0.17    0.27
   7  -2 -12    0.36    0.26
  -7   2  12    1.00    0.35
  -7   2  12    0.72    0.27
  -6  -2  12   22.17    1.17
   6  -2 -12   25.40    1.25
  -6  -2  12   22.24    1.25
  -6   2  12   21.42    1.12
  -6   2  12   22.02    1.31
   5  -2 -12   12.20    0.78
  -5  -2  12   11.62    0.78
  -5  -2  12   12.14    0.85
  -5   2  12   12.73    0.90
  -4  -2  12    2.95    0.47
  -4  -2  12    2.67    0.39
   4  -2 -12    3.60    0.42
   4   2 -12    2.25    0.50
   4   2 -12    3.91    0.45
  -4   2  12    3.19    0.50
   3  -2 -12    0.50    0.21
   3  -2 -12    0.09    0.33
  -3  -2  12    0.51    0.26
  -3  -2  12    0.05    0.22
   3   2 -12    0.26    0.35
   3   2 -12    0.57    0.22
  -3   2  12    0.77    0.28
  -2  -2  12   66.80    2.71
   2  -2 -12   67.64    2.65
   2  -2 -12   64.62    3.27
   2   2 -12   69.03    2.66
  -2   2  12   68.33    3.03
   2   2 -12   64.68    3.29
   1  -2 -12   14.19    0.76
   1  -2 -12   13.27    1.09
   1   2 -12   13.27    1.09
   1   2 -12   15.01    0.77
  -1   2  12   14.71    1.01
   0  -2 -12   10.77    0.98
   0  -2 -12    9.75    0.58
   0   2 -12    8.87    0.92
  -1  -2 -12    2.48    0.62
  -1  -2 -12    3.97    0.35
  -1   2 -12    3.24    0.64
  -2  -2 -12   52.63    2.89
  -2  -2 -12   52.45    2.08
  -2   2 -12   52.97    2.85
  -3  -2 -12    5.88    0.92
  -3   2 -12    9.05    1.05
  -4  -2 -12   -0.03    0.38
  -4   2 -12   -0.30    0.32
  -5  -2 -12    1.67    0.64
  -5   2 -12    1.65    0.59
  -6  -2 -12   40.02    2.64
  -6   2 -12   41.98    2.59
  -7  -2 -12   11.97    1.49
  -7   2 -12   11.25    1.37
  -9  -3  12    1.46    0.38
  -9   3  12    1.26    0.34
  -9   3  12    2.54    0.51
  -8  -3  12   19.09    1.10
   8  -3 -12   18.94    1.15
  -8   3  12   18.04    1.20
  -8   3  12   19.39    1.03
   7  -3 -12   34.43    1.66
  -7  -3  12   34.14    1.62
  -7   3  12   31.66    1.75
  -7   3  12   34.00    1.54
  -6  -3  12    8.64    0.68
   6  -3 -12    9.84    0.70
  -6   3  12    9.14    0.78
  -5  -3  12    8.56    0.69
   5  -3 -12    8.57    0.64
  -5  -3  12    7.99    0.63
  -5   3  12    6.68    0.75
  -4  -3  12   11.15    0.75
   4  -3 -12   11.68    0.72
  -4  -3  12   12.64    0.84
   4   3 -12   11.72    0.98
  -4   3  12   10.46    0.85
   3  -3 -12   25.20    1.17
  -3  -3  12   22.38    1.19
   3   3 -12   24.45    1.18
  -3   3  12   23.02    1.36
   3   3 -12   23.15    1.50
   2  -3 -12    8.46    0.58
  -2  -3  12    8.87    0.66
   2  -3 -12    8.11    0.91
   2   3 -12   10.31    0.62
  -2   3  12    9.16    0.78
   2   3 -12    7.93    0.86
  -1  -3  12    7.71    0.63
   1  -3 -12    8.65    0.55
   1  -3 -12    6.75    0.85
   1   3 -12    8.88    0.87
  -1   3  12    7.74    0.74
   1   3 -12    9.15    0.56
   0  -3 -12   40.71    1.65
   0  -3 -12   38.01    2.21
   0   3  12   40.22    2.02
   0   3 -12   37.23    2.18
  -1  -3 -12   42.53    2.37
  -1  -3 -12   43.00    1.69
  -1   3 -12   35.91    2.24
  -2  -3 -12   -0.14    0.39
  -2  -3 -12    0.42    0.17
  -2   3 -12    0.25    0.36
  -3  -3 -12    5.19    0.89
  -3   3 -12    6.29    0.88
  -4  -3 -12   23.30    1.75
  -4   3 -12   22.82    1.66
  -5  -3 -12   19.31    1.59
  -5   3 -12   16.15    1.43
  -6  -3 -12    0.80    0.57
  -6   3 -12    0.83    0.50
  -7  -3 -12   14.67    1.55
  -7   3 -12   18.08    1.55
  -9  -4  12   33.52    1.64
  -9   4  12   30.91    1.76
  -9   4  12   31.80    1.52
  -8  -4  12    5.02    0.59
   8  -4 -12    5.97    0.68
  -8   4  12    4.08    0.62
  -7  -4  12    1.55    0.37
   7  -4 -12    1.73    0.37
  -7   4  12    1.41    0.38
  -6  -4  12   10.58    0.77
   6  -4 -12   11.14    0.78
  -6   4  12   11.15    0.88
  -5  -4  12   44.91    1.98
   5  -4 -12   44.67    1.95
  -5   4  12   42.55    2.17
   4  -4 -12    3.20    0.41
  -4  -4  12    1.83    0.36
  -4   4  12    2.40    0.45
   4   4 -12    1.44    0.46
  -3  -4  12    8.29    0.63
   3  -4 -12    7.98    0.57
   3   4 -12    8.93    0.86
  -3   4  12    8.49    0.76
   2  -4 -12   22.02    1.49
   2  -4 -12   25.47    1.17
  -2  -4  12   24.70    1.25
   2   4 -12   25.99    1.59
  -2   4  12   25.17    1.43
   1  -4 -12   58.13    2.24
  -1  -4  12   56.23    2.35
   1  -4 -12   52.41    2.83
   1   4 -12   52.21    2.84
  -1   4  12   56.28    2.62
   0  -4 -12    4.22    0.73
   0  -4  12    4.85    0.53
   0  -4 -12    5.28    0.41
   0   4  12    5.31    0.66
   0   4 -12    4.21    0.69
  -1  -4 -12   15.63    0.78
  -1  -4 -12   15.08    1.24
  -1   4 -12   12.97    1.15
  -2  -4 -12   36.46    1.46
  -2  -4 -12   32.74    2.11
  -2   4 -12   31.02    2.00
  -3  -4 -12   30.61    1.29
  -3  -4 -12   29.45    1.99
  -3   4 -12   26.66    1.83
  -4  -4 -12    1.85    0.63
  -4   4 -12    2.24    0.60
  -5  -4 -12   18.66    1.60
  -5   4 -12   16.13    1.40
  -6  -4 -12   14.20    1.44
  -6   4 -12   13.44    1.31
  -7  -4 -12    5.02    1.04
  -7   4 -12    5.45    0.96
   9  -5 -12   -0.21    0.22
   8  -5 -12   29.84    1.53
  -8  -5  12   27.02    1.45
  -8   5  12   28.09    1.63
  -7  -5  12    5.92    0.63
   7  -5 -12    6.12    0.66
  -7   5  12    5.96    0.74
   6  -5 -12   24.54    1.26
  -6  -5  12   24.67    1.28
  -6   5  12   21.17    1.37
   5  -5 -12    0.81    0.26
  -5  -5  12    0.96    0.32
  -5   5  12    0.80    0.32
  -4  -5  12   45.26    2.01
   4  -5 -12   45.92    1.94
   4   5 -12   42.23    2.38
  -4   5  12   43.56    2.20
  -3  -5  12   13.30    0.83
   3  -5 -12   12.48    0.75
  -3   5  12   12.02    0.94
   3   5 -12   12.43    1.05
   2  -5 -12    3.87    0.62
  -2  -5  12    4.09    0.49
   2  -5 -12    4.22    0.44
  -2   5  12    4.57    0.64
   2   5 -12    3.66    0.64
  -1  -5  12    6.21    0.57
   1  -5 -12    5.34    0.76
   1  -5 -12    6.36    0.48
   1   5 -12    6.87    0.85
  -1   5  12    7.73    0.82
   0  -5 -12   73.44    3.77
   0  -5  12   75.59    3.10
   0  -5 -12   78.48    2.96
   0   5  12   78.67    3.45
   0   5 -12   73.19    3.74
  -1  -5 -12    9.33    0.99
   1  -5  12    9.70    0.72
  -1  -5 -12   10.62    0.61
  -1   5 -12   10.02    0.98
  -2  -5 -12    8.52    0.54
  -2  -5 -12    8.64    1.08
  -2   5 -12    7.70    0.94
  -3  -5 -12    0.72    0.51
  -3  -5 -12    0.69    0.20
  -3   5 -12    0.16    0.38
  -4  -5 -12   44.31    2.74
  -4   5 -12   45.23    2.60
  -5  -5 -12    1.11    0.59
  -5   5 -12    1.43    0.54
  -6  -5 -12    1.72    0.66
  -6   5 -12    0.73    0.46
  -7  -5 -12    2.10    0.78
  -7   5 -12    3.18    0.77
  -8  -6  12   -0.32    0.23
   8  -6 -12    0.14    0.26
  -8   6  12    0.15    0.27
   7  -6 -12    1.70    0.38
  -7  -6  12    1.92    0.41
  -7   6  12    2.28    0.48
   6  -6 -12    0.06    0.19
  -6  -6  12   -0.05    0.24
  -6   6  12    0.53    0.29
   5  -6 -12   82.56    3.19
  -5  -6  12   78.74    3.24
   5   6 -12   77.67    3.85
  -5   6  12   74.07    3.49
   4  -6 -12    0.14    0.19
  -4  -6  12   -0.09    0.22
  -4   6  12    0.03    0.26
   4   6 -12    0.34    0.37
  -3  -6  12    3.00    0.46
   3  -6 -12    3.58    0.42
  -3   6  12    3.99    0.60
   3   6 -12    3.16    0.60
   2  -6 -12    0.16    0.28
  -2  -6  12    0.27    0.24
   2  -6 -12    0.06    0.16
   2   6 -12   -0.22    0.26
  -2   6  12    0.13    0.23
  -1  -6  12   35.57    1.70
   1  -6 -12   37.06    1.59
   1  -6 -12   34.99    2.08
   1   6 -12   35.44    2.10
  -1   6  12   38.58    1.95
   0  -6 -12   -0.11    0.34
   0  -6 -12    0.25    0.16
   0  -6  12    0.40    0.25
   0   6  12    0.47    0.29
   0   6 -12   -0.06    0.32
  -1  -6 -12   17.38    1.40
  -1  -6 -12   17.82    0.90
   1  -6  12   18.05    1.04
  -1   6 -12   18.41    1.36
   1   6  12   18.79    1.23
  -2  -6 -12   -0.07    0.14
   2  -6  12    0.36    0.24
  -2  -6 -12    0.04    0.34
  -2   6 -12   -0.16    0.30
  -3  -6 -12   52.22    2.00
  -3  -6 -12   45.99    2.82
  -3   6 -12   45.56    2.67
  -4  -6 -12    0.90    0.56
  -4  -6 -12    0.92    0.23
  -4   6 -12    0.46    0.43
  -5  -6 -12   25.23    1.96
  -5   6 -12   24.76    1.77
  -6  -6 -12   -0.40    0.42
  -6   6 -12    0.05    0.40
  -7  -6 -12   25.35    2.11
  -7   6 -12   28.50    1.99
   8  -7 -12   20.61    1.23
  -8  -7  12   20.50    1.22
  -8   7  12   20.42    1.36
   7  -7 -12    3.26    0.49
  -7  -7  12    2.81    0.48
  -7   7  12    3.88    0.62
   6  -7 -12   13.34    0.88
  -6  -7  12   15.81    0.98
  -6   7  12   14.14    1.06
   5  -7 -12    0.36    0.22
  -5  -7  12   -0.31    0.22
  -5   7  12    0.02    0.25
   5   7 -12   -0.16    0.36
  -4  -7  12   43.01    2.05
   4  -7 -12   45.57    1.97
   4   7 -12   49.41    2.54
  -4   7  12   42.80    2.26
  -3  -7  12    5.81    0.63
   3  -7 -12    6.85    0.52
  -3   7  12    6.52    0.75
   3   7 -12    6.04    0.82
  -2  -7  12    8.36    0.67
   2  -7 -12    7.80    0.56
  -2   7  12    8.19    0.78
   2   7 -12    7.29    0.90
  -1  -7  12    1.86    0.38
   1  -7 -12    1.77    0.51
   1  -7 -12    2.71    0.35
  -1   7  12    2.03    0.45
   1   7 -12    1.68    0.50
   0  -7 -12   58.85    3.22
   0  -7  12   62.99    2.66
   0  -7 -12   61.09    2.48
   0   7  12   68.11    2.99
   0   7 -12   60.82    3.20
   1  -7  12    2.04    0.40
  -1  -7 -12    2.14    0.57
  -1  -7 -12    1.91    0.30
   1   7  12    2.34    0.49
  -1   7 -12    1.83    0.52
  -2  -7 -12    2.20    0.60
   2  -7  12    2.88    0.46
  -2  -7 -12    2.83    0.34
  -2   7 -12    2.14    0.56
  -3  -7 -12    1.26    0.54
  -3  -7 -12    1.60    0.28
   3  -7  12    1.10    0.33
  -3   7 -12    0.90    0.47
  -4  -7 -12   43.06    1.76
  -4  -7 -12   40.59    2.63
  -4   7 -12   39.62    2.43
  -5  -7 -12   -0.06    0.46
  -5   7 -12    0.37    0.42
  -6  -7 -12   -0.08    0.44
  -6   7 -12   -0.34    0.35
   8  -8 -12    6.80    0.74
  -8  -8  12    5.57    0.67
  -8   8  12    7.05    0.85
  -7  -8  12    0.31    0.27
   7  -8 -12    0.14    0.23
  -7   8  12    0.11    0.27
  -6  -8  12    8.73    0.73
   6  -8 -12    7.54    0.64
  -6   8  12    7.93    0.90
  -5  -8  12   40.44    2.00
   5  -8 -12   45.53    1.96
  -5   8  12   42.84    2.23
   5   8 -12   44.18    2.49
  -4  -8  12    1.24    0.36
   4  -8 -12    1.46    0.30
  -4   8  12    1.38    0.42
   4   8 -12    0.61    0.46
   3  -8 -12    2.55    0.38
  -3  -8  12    2.04    0.42
   3   8 -12    2.80    0.59
  -3   8  12    2.31    0.48
  -2  -8  12   12.16    0.84
   2  -8 -12   11.50    0.70
   2   8 -12    8.90    0.97
  -2   8  12   10.99    0.92
  -1  -8  12   40.90    1.86
   1  -8 -12   36.04    2.18
   1  -8 -12   37.88    1.67
   1   8 -12   37.00    2.20
  -1   8  12   40.90    2.07
   0  -8  12    0.61    0.30
   0  -8 -12    0.29    0.18
   0  -8 -12    0.88    0.47
   0   8  12    0.52    0.31
   0   8 -12    0.55    0.39
  -1  -8 -12    8.96    1.09
  -1  -8 -12   10.11    0.62
   1  -8  12    9.02    0.73
  -1   8 -12    9.49    0.97
   1   8  12   10.70    0.91
   2  -8  12    4.25    0.56
  -2  -8 -12    3.66    0.40
  -2  -8 -12    2.46    0.64
  -2   8 -12    3.46    0.67
  -3  -8 -12   15.98    1.45
   3  -8  12   17.09    1.04
  -3  -8 -12   15.62    0.84
  -3   8 -12   15.10    1.29
  -4  -8 -12   -0.29    0.41
   4  -8  12    0.26    0.25
  -4  -8 -12    0.82    0.23
  -4   8 -12    0.14    0.40
  -5  -8 -12   13.94    0.78
  -5  -8 -12   13.00    1.57
  -5   8 -12   12.87    1.23
  -6  -8 -12   10.48    1.42
  -6   8 -12   11.86    1.21
  -7  -9  12   15.02    1.01
   7  -9 -12   14.89    0.96
  -7   9  12   13.55    1.10
   6  -9 -12   12.52    0.83
  -6  -9  12   11.26    0.86
  -6   9  12   10.97    0.97
  -5  -9  12    0.22    0.28
   5  -9 -12    0.08    0.21
  -5   9  12    0.16    0.27
   5   9 -12    0.60    0.46
  -4  -9  12   19.44    1.16
   4  -9 -12   19.21    1.05
   4   9 -12   18.82    1.44
  -4   9  12   19.56    1.30
   3  -9 -12   15.21    0.89
  -3  -9  12   17.23    1.05
   3   9 -12   16.16    1.28
  -3   9  12   14.59    1.11
  -2  -9  12    7.87    0.70
   2  -9 -12    7.34    0.55
  -2   9  12    7.99    0.90
   2   9 -12    6.71    0.89
   1  -9 -12    1.92    0.32
   1  -9 -12    1.24    0.48
  -1  -9  12    1.00    0.34
  -1   9  12    1.63    0.43
   1   9 -12    1.36    0.49
   0  -9 -12   29.72    1.37
   0  -9  12   30.14    1.55
   0  -9 -12   29.01    1.91
   0   9  12   30.37    1.74
   0   9 -12   29.71    1.88
  -1  -9 -12   16.03    1.39
   1  -9  12   18.82    1.10
  -1  -9 -12   16.46    0.89
  -1   9 -12   15.04    1.28
   1   9  12   18.23    1.24
  -2  -9 -12    3.05    0.38
   2  -9  12    4.41    0.57
  -2  -9 -12    2.25    0.66
  -2   9 -12    3.15    0.65
  -3  -9 -12    4.81    0.91
  -3  -9 -12    6.20    0.49
   3  -9  12    6.43    0.71
  -3   9 -12    6.01    0.88
   4  -9  12   22.20    1.31
  -4  -9 -12   22.48    1.10
  -4  -9 -12   19.75    1.75
  -4   9 -12   23.07    1.65
  -5  -9 -12    9.89    1.41
  -5  -9 -12   13.97    0.79
   5  -9  12   15.50    1.02
  -5   9 -12   11.27    1.19
  -6  -9 -12    0.59    0.57
  -6   9 -12    0.87    0.55
  -7 -10  12    0.18    0.31
   7 -10 -12    0.11    0.25
  -7  10  12   -0.11    0.28
   6 -10 -12   22.00    1.19
  -6 -10  12   19.33    1.21
  -6  10  12   19.92    1.37
   5 -10 -12   23.06    1.21
  -5 -10  12   20.35    1.26
  -5  10  12   23.32    1.46
   5  10 -12   20.81    1.62
   4 -10 -12   15.89    0.94
  -4 -10  12   15.98    1.03
   4  10 -12   15.33    1.33
  -4  10  12   16.68    1.19
   3 -10 -12    3.49    0.45
  -3 -10  12    3.34    0.53
  -3  10  12    2.62    0.53
   3  10 -12    3.28    0.67
  -2 -10  12   20.77    1.22
   2 -10 -12   21.38    1.08
  -2  10  12   19.28    1.32
   2  10 -12   19.01    1.46
  -1 -10  12   20.56    1.23
   1 -10 -12   21.97    1.09
  -1  10  12   21.09    1.39
   1  10 -12   20.84    1.52
   0 -10  12    6.18    0.68
   0 -10 -12    3.59    0.75
   0 -10 -12    4.85    0.45
   0  10 -12    4.65    0.76
   0  10  12    6.89    0.83
   1 -10  12    3.00    0.49
  -1 -10 -12    2.16    0.63
  -1 -10 -12    2.46    0.35
   1  10  12    2.65    0.54
  -1  10 -12    2.52    0.59
  -2 -10 -12   28.86    1.37
  -2 -10 -12   28.75    2.05
   2 -10  12   32.40    1.64
   2  10  12   32.08    1.80
  -2  10 -12   27.88    1.90
  -3 -10 -12   16.70    0.90
  -3 -10 -12   15.22    1.48
   3 -10  12   17.78    1.13
  -3  10 -12   15.44    1.33
   4 -10  12    2.92    0.52
  -4 -10 -12    2.01    0.72
  -4 -10 -12    2.58    0.37
  -4  10 -12    2.66    0.66
  -5 -10 -12    5.14    1.03
   5 -10  12    5.20    0.68
  -5 -10 -12    4.53    0.49
  -5  10 -12    3.50    0.75
   6 -11 -12    1.99    0.39
  -6 -11  12    1.64    0.43
  -6  11  12    1.49    0.46
   6  11 -12    1.40    0.61
  -5 -11  12    0.85    0.35
   5 -11 -12    0.32    0.23
  -5  11  12    0.87    0.36
   5  11 -12    0.61    0.51
  -4 -11  12    7.42    0.77
   4 -11 -12    7.26    0.61
   4  11 -12    7.43    1.00
  -4  11  12    9.04    0.98
  -3 -11  12   42.17    2.03
   3 -11 -12   42.16    1.87
  -3  11  12   42.45    2.24
   3  11 -12   39.92    2.43
   2 -11 -12    0.70    0.26
  -2 -11  12    0.94    0.36
  -2  11  12    0.67    0.37
   2  11 -12    0.34    0.42
  -1 -11  12    1.44    0.40
   1 -11 -12    1.99    0.33
   1  11 -12    2.94    0.63
  -1  11  12    2.11    0.51
   0 -11 -12   10.13    1.18
   0 -11  12    9.71    0.82
   0 -11 -12   10.99    0.69
   0  11 -12    9.68    1.02
   0  11  12   11.17    0.96
  -1 -11 -12   29.11    2.10
   1 -11  12   33.24    1.72
  -1 -11 -12   33.18    1.50
  -1  11 -12   32.42    2.05
   1  11  12   36.59    1.94
  -2 -11 -12    0.17    0.45
  -2 -11 -12    0.74    0.23
   2 -11  12    1.05    0.37
  -2  11 -12    0.73    0.43
   2  11  12    0.93    0.41
  -3 -11 -12   12.62    0.75
   3 -11  12   11.56    0.93
  -3 -11 -12   12.21    1.31
  -3  11 -12   11.53    1.15
  -4 -11 -12    2.55    0.75
  -4 -11 -12    2.37    0.37
   4 -11  12    2.92    0.54
  -4  11 -12    2.50    0.64
   5 -11  12   34.55    1.83
  -5 -11 -12   32.53    2.42
  -5 -11 -12   33.93    1.56
  -5  11 -12   33.20    2.18
  -6 -12  12   21.79    1.34
   6 -12 -12   22.43    1.27
   6  12 -12   25.69    1.91
  -6  12  12   22.26    1.52
  -5 -12  12    0.24    0.29
   5 -12 -12    0.20    0.22
  -5  12  12    0.26    0.30
   5  12 -12    0.31    0.46
  -4 -12  12    9.28    0.82
   4 -12 -12    9.86    0.73
   4  12 -12    8.31    1.11
  -4  12  12   10.10    0.93
   3 -12 -12    1.78    0.35
  -3 -12  12    1.39    0.40
  -3  12  12    1.43    0.46
   3  12 -12    1.30    0.53
  -2 -12  12   37.49    1.90
   2 -12 -12   38.45    1.74
  -2  12  12   40.04    2.14
   2  12 -12   37.20    2.30
   1 -12 -12    0.27    0.21
  -1 -12  12    0.25    0.31
   1  12 -12   -0.01    0.35
  -1  12  12    0.14    0.30
   0 -12 -12    8.17    1.09
   0 -12  12    8.70    0.79
   0 -12 -12    8.64    0.61
   0  12  12    8.26    0.92
   0  12 -12    7.46    0.98
  -1 -12 -12   -0.40    0.38
  -1 -12 -12    0.04    0.18
   1 -12  12    0.01    0.26
  -1  12 -12    0.07    0.36
   1  12  12    0.15    0.31
  -2 -12 -12   45.93    1.93
  -2 -12 -12   42.22    2.71
   2 -12  12   47.05    2.21
   2  12  12   48.27    2.41
  -2  12 -12   37.31    2.48
   3 -12  12    0.27    0.32
  -3 -12 -12    0.25    0.45
  -3 -12 -12    0.21    0.20
  -3  12 -12    0.25    0.40
  -4 -12 -12    0.74    0.27
  -4 -12 -12    0.42    0.54
   4 -12  12    0.45    0.34
  -4  12 -12    0.67    0.47
  -5 -13  12    1.80    0.47
   5 -13 -12    2.15    0.42
  -5  13  12    2.60    0.56
  -4 -13  12    1.04    0.39
   4 -13 -12    1.69    0.35
   4  13 -12    0.58    0.53
  -4  13  12    2.56    0.55
   3 -13 -12   54.21    2.35
  -3 -13  12   57.20    2.57
   3  13 -12   52.45    3.07
  -3  13  12   55.15    2.79
  -2 -13  12    2.67    0.51
   2 -13 -12    2.79    0.41
  -2  13  12    1.93    0.52
   2  13 -12    2.45    0.66
   1 -13 -12    6.49    0.54
  -1 -13  12    6.03    0.74
   1  13 -12    6.84    0.95
  -1  13  12    6.86    0.86
   0 -13 -12    0.76    0.26
   0 -13  12    0.45    0.33
   0  13 -12    0.77    0.46
   0  13  12    0.56    0.36
  -1 -13 -12   35.48    2.42
  -1 -13 -12   39.55    1.76
   1 -13  12   39.84    2.01
  -1  13 -12   37.51    2.36
   1  13  12   43.35    2.23
  -2 -13 -12    0.21    0.21
  -2 -13 -12    0.22    0.50
   2 -13  12    0.22    0.33
  -2  13 -12   -0.20    0.35
   2  13  12   -0.11    0.30
   3 -13  12   16.63    1.17
  -3 -13 -12   17.71    0.96
  -3 -13 -12   17.89    1.61
  -3  13 -12   15.46    1.39
  -4 -14  12    6.86    0.79
   4 -14 -12    5.83    0.62
  -4  14  12    4.95    0.76
   4  14 -12    6.15    1.02
   3 -14 -12    0.01    0.21
  -3 -14  12    0.56    0.34
  -3  14  12    0.27    0.33
   3  14 -12    0.05    0.45
   2 -14 -12   31.97    1.60
  -2 -14  12   37.92    1.88
   2  14 -12   31.15    2.18
  -2  14  12   37.77    2.06
  -1 -14  12    2.65    0.55
   1 -14 -12    2.26    0.38
   1  14 -12    1.35    0.55
  -1  14  12    2.50    0.57
   0 -14 -12    3.31    0.45
   0 -14  12    3.87    0.62
   0  14 -12    3.20    0.71
   0  14  12    4.86    0.73
   1 -14  12    4.81    0.68
  -1 -14 -12    2.94    0.76
  -1 -14 -12    3.28    0.45
  -1  14 -12    3.94    0.78
   1  14  12    4.88    0.76
  -2 -14 -12   41.73    1.84
  -2 -14 -12   39.03    2.61
   2 -14  12   40.17    2.09
   2  14  12   45.24    2.31
  -2  14 -12   35.86    2.40
  -2 -15  12    1.42    0.44
   2 -15 -12    0.93    0.29
   2  15 -12    0.69    0.50
  -2  15  12    0.90    0.42
   1 -15 -12    2.91    0.43
  -1 -15  12    2.76    0.55
   1  15 -12    2.21    0.66
  -1  15  12    3.65    0.67
   0 -15  12    8.72    0.92
   0 -15 -12    8.21    0.64
   0  15  12    8.97    1.00
   0  15 -12    7.96    1.07
  -1 -15 -12   20.10    1.11
   1 -15  12   19.75    1.34
   1  15  12   22.48    1.51
  -8   0  13   -0.40    0.22
  -7   0  13   19.15    1.08
  -6   0  13   -0.22    0.19
   6   0 -13   -0.02    0.21
  -5   0  13   28.69    1.60
   5   0 -13   30.89    1.48
  -4   0  13    0.13    0.24
   4   0 -13    0.05    0.18
   3   0 -13   21.69    1.48
   3   0 -13   23.79    1.16
  -3   0  13   23.57    1.37
   2   0 -13   -0.04    0.19
   2   0 -13   -1.04    0.30
   1   0 -13   46.55    1.88
   1   0 -13   42.93    2.44
   0   0 -13    0.39    0.32
  -1   0 -13    7.46    0.94
  -2   0 -13    0.00    0.36
  -3   0 -13   42.02    2.53
  -4   0 -13    0.26    0.42
  -5   0 -13    1.34    0.56
  -6   0 -13   -1.02    0.38
  -8  -1  13    1.33    0.35
  -8   1  13    0.18    0.27
  -7  -1  13    1.57    0.37
  -7   1  13    1.78    0.43
   6  -1 -13   39.45    1.82
  -6  -1  13   37.65    1.90
  -6  -1  13   38.11    1.76
  -6   1  13   36.98    1.93
  -5  -1  13    0.37    0.28
   5  -1 -13    0.34    0.23
  -5   1  13    0.77    0.31
   5   1 -13    0.47    0.23
   4  -1 -13    4.77    0.51
  -4  -1  13    5.16    0.63
  -4   1  13    4.13    0.58
   4   1 -13    4.74    0.52
   3  -1 -13    0.55    0.23
  -3  -1  13    0.62    0.28
   3   1 -13    0.28    0.36
   3   1 -13    0.21    0.21
  -3   1  13    0.38    0.27
   2  -1 -13   82.58    3.19
   2  -1 -13   77.04    3.91
   2   1 -13   85.16    3.21
   2   1 -13   78.14    3.93
  -2   1  13   84.48    3.63
   1  -1 -13    5.02    0.42
   1  -1 -13    3.44    0.68
   1   1 -13    5.06    0.43
   1   1 -13    4.07    0.71
   0  -1 -13    1.70    0.28
   0  -1 -13    0.85    0.42
   0   1 -13    1.06    0.45
  -1  -1 -13    1.76    0.54
  -1   1 -13    3.07    0.63
  -2  -1 -13   29.10    1.91
  -2   1 -13   28.28    1.89
  -3  -1 -13    0.21    0.46
  -3   1 -13    0.38    0.45
  -4  -1 -13    4.85    0.90
  -4   1 -13    4.92    0.86
  -5  -1 -13    3.62    0.80
  -5   1 -13    3.64    0.80
  -6  -1 -13   32.50    2.28
  -6   1 -13   30.26    2.20
  -8  -2  13    8.03    0.68
  -8   2  13    8.35    0.77
   7  -2 -13   27.87    1.39
  -7  -2  13   22.06    1.25
  -7   2  13   22.76    1.39
  -6  -2  13   -0.48    0.22
   6  -2 -13    0.06    0.23
  -6   2  13   -0.13    0.23
  -5  -2  13   25.41    1.32
   5  -2 -13   25.66    1.33
  -5  -2  13   26.43    1.45
  -5   2  13   26.68    1.50
   4  -2 -13    7.44    0.59
  -4  -2  13    8.51    0.73
  -4   2  13    7.55    0.72
   4   2 -13    7.92    0.61
   3  -2 -13    2.96    0.39
   3   2 -13    2.54    0.38
   3   2 -13    2.22    0.53
  -3   2  13    3.04    0.52
   2  -2 -13    0.78    0.45
   2  -2 -13    1.28    0.28
   2   2 -13    0.89    0.47
   2   2 -13    2.08    0.33
  -2   2  13    1.39    0.40
   1  -2 -13   43.00    2.45
   1  -2 -13   46.26    1.89
   1   2 -13   45.06    2.46
   0  -2 -13   15.39    0.79
   0  -2 -13   13.54    1.18
   0   2 -13   14.31    1.18
  -1  -2 -13    9.33    0.99
  -1   2 -13    9.66    0.98
  -2  -2 -13    1.72    0.57
  -2   2 -13    1.46    0.52
  -3  -2 -13   27.11    1.91
  -3   2 -13   26.60    1.84
  -4  -2 -13   19.69    1.62
  -4   2 -13   18.37    1.53
  -5  -2 -13    0.11    0.46
  -5   2 -13    0.30    0.44
  -6  -2 -13    1.57    0.68
  -6   2 -13    2.44    0.75
   8  -3 -13   -0.02    0.24
  -8  -3  13   -0.19    0.24
  -8   3  13   -0.21    0.24
  -7  -3  13   12.28    0.86
   7  -3 -13   12.39    0.88
  -7   3  13   11.56    0.93
   6  -3 -13   30.86    1.51
  -6  -3  13   29.55    1.47
  -6   3  13   27.89    1.61
   5  -3 -13   13.37    0.83
  -5  -3  13   11.27    0.82
  -5   3  13   11.95    0.93
   4  -3 -13    0.30    0.21
  -4  -3  13    0.06    0.22
  -4   3  13   -0.30    0.19
   3  -3 -13   13.76    0.77
  -3  -3  13   11.22    0.79
   3   3 -13   11.50    1.04
  -3   3  13   11.20    0.92
   2  -3 -13   29.50    1.32
   2  -3 -13   26.05    1.69
  -2   3  13   28.86    1.61
   2   3 -13   26.61    1.72
   1  -3 -13   12.68    0.71
   1  -3 -13   10.89    1.04
  -1   3  13   12.49    0.96
   1   3 -13   10.31    1.02
   0  -3 -13    2.17    0.58
   0  -3 -13    2.22    0.32
   0   3 -13    2.21    0.55
  -1  -3 -13   24.77    1.76
  -1  -3 -13   27.70    1.23
  -1   3 -13   27.51    1.77
  -2  -3 -13   19.13    1.51
  -2   3 -13   19.99    1.48
  -3  -3 -13    3.05    0.75
  -3   3 -13    2.61    0.63
  -4  -3 -13    8.37    1.18
  -4   3 -13    9.10    1.15
  -5  -3 -13   19.80    1.73
  -5   3 -13   21.83    1.70
  -6  -3 -13   18.60    1.74
  -6   3 -13   21.33    1.72
   8  -4 -13   29.28    1.58
  -7  -4  13    3.90    0.53
   7  -4 -13    5.13    0.61
  -7   4  13    3.89    0.62
   6  -4 -13    0.11    0.22
  -6  -4  13    0.28    0.28
  -6   4  13    0.47    0.28
   5  -4 -13   11.14    0.77
  -5  -4  13   11.20    0.81
  -5   4  13   10.14    0.87
  -4  -4  13   50.97    2.33
   4  -4 -13   57.16    2.30
  -4   4  13   52.29    2.58
   4   4 -13   54.51    2.82
  -3  -4  13    5.74    0.60
   3  -4 -13    6.48    0.51
   3   4 -13    4.87    0.75
  -3   4  13    5.20    0.69
   2  -4 -13    2.59    0.36
  -2  -4  13    2.46    0.41
   2  -4 -13    1.86    0.49
   2   4 -13    3.00    0.59
  -2   4  13    2.18    0.48
   1  -4 -13   11.53    1.06
   1  -4 -13   12.67    0.73
  -1   4  13   12.63    0.99
   1   4 -13   11.95    1.08
   0  -4 -13   51.92    2.89
   0  -4 -13   56.88    2.22
   0   4 -13   52.89    2.88
  -1  -4 -13    0.39    0.44
  -1  -4 -13    1.56    0.27
  -1   4 -13    0.32    0.41
  -2  -4 -13    7.42    0.49
  -2  -4 -13    6.26    0.94
  -2   4 -13    5.27    0.84
  -3  -4 -13    8.46    1.12
  -3   4 -13    8.35    1.04
  -4  -4 -13   19.43    1.65
  -4   4 -13   19.07    1.53
  -5  -4 -13   -0.05    0.48
  -5   4 -13   -0.04    0.41
  -6  -4 -13    6.38    1.10
  -6   4 -13    5.60    0.97
   7  -5 -13   21.28    1.23
  -7  -5  13   20.79    1.20
  -7   5  13   21.10    1.35
   6  -5 -13    5.61    0.61
  -6  -5  13    4.04    0.55
  -6   5  13    4.63    0.67
  -5  -5  13   36.03    1.74
   5  -5 -13   36.40    1.69
  -5   5  13   34.66    1.90
   4  -5 -13    2.12    0.37
  -4  -5  13    1.14    0.35
   4   5 -13    1.62    0.51
  -4   5  13    2.63    0.52
   3  -5 -13   36.65    1.61
  -3  -5  13   34.17    1.67
   3   5 -13   32.53    2.02
  -3   5  13   36.04    1.90
   2  -5 -13    7.41    0.56
  -2  -5  13    9.10    0.70
   2   5 -13    7.94    0.94
  -2   5  13    8.62    0.80
   1  -5 -13   14.34    1.19
  -1  -5  13   14.96    0.93
   1  -5 -13   15.39    0.83
  -1   5  13   16.63    1.14
   1   5 -13   12.96    1.16
   0  -5 -13    2.11    0.31
   0  -5 -13    1.00    0.49
   0   5  13    1.24    0.39
   0   5 -13    0.78    0.44
  -1  -5 -13   53.10    2.12
  -1  -5 -13   50.61    2.88
  -1   5 -13   50.91    2.82
  -2  -5 -13    4.13    0.42
  -2  -5 -13    2.47    0.66
  -2   5 -13    2.52    0.62
  -3  -5 -13    5.87    0.95
  -3   5 -13    4.96    0.80
  -4  -5 -13    0.28    0.51
  -4   5 -13    0.72    0.47
  -5  -5 -13   45.59    2.91
  -5   5 -13   45.69    2.74
  -6  -5 -13    0.53    0.55
  -6   5 -13    0.83    0.55
   7  -6 -13    0.22    0.24
  -7  -6  13   -0.08    0.27
  -7   6  13    0.21    0.29
  -6  -6  13    0.04    0.27
   6  -6 -13    0.51    0.28
  -6   6  13    0.39    0.29
  -5  -6  13    1.10    0.35
   5  -6 -13    1.08    0.31
  -5   6  13    1.42    0.41
   4  -6 -13   54.02    2.27
  -4  -6  13   52.19    2.35
  -4   6  13   52.44    2.59
   4   6 -13   52.08    2.82
   3  -6 -13    0.06    0.18
  -3  -6  13   -0.13    0.22
   3   6 -13    0.28    0.36
  -3   6  13    0.09    0.28
   2  -6 -13    0.22    0.18
  -2  -6  13    0.01    0.26
  -2   6  13    0.31    0.27
   2   6 -13    0.62    0.37
  -1  -6  13   -0.09    0.22
   1  -6 -13    0.21    0.16
   1  -6 -13   -0.16    0.31
   1   6 -13    0.22    0.35
  -1   6  13    0.24    0.26
   0  -6 -13   46.68    2.66
   0  -6 -13   49.85    2.00
   0  -6  13   44.98    2.12
   0   6 -13   46.99    2.63
   0   6  13   48.16    2.43
  -1  -6 -13    0.37    0.40
  -1  -6 -13    0.65    0.21
  -1   6 -13    0.66    0.43
  -2  -6 -13    5.15    0.87
  -2  -6 -13    5.65    0.45
  -2   6 -13    5.00    0.82
  -3  -6 -13    0.29    0.18
  -3  -6 -13   -0.36    0.34
  -3   6 -13    0.32    0.41
  -4  -6 -13   55.25    3.25
  -4   6 -13   53.43    3.04
  -5  -6 -13    2.38    0.79
  -5   6 -13    1.90    0.65
  -7  -7  13   11.56    0.88
   7  -7 -13   12.09    0.88
  -7   7  13   11.46    0.98
   6  -7 -13    5.13    0.59
  -6  -7  13    3.78    0.54
  -6   7  13    3.39    0.59
   5  -7 -13   12.99    0.84
  -5  -7  13   12.90    0.90
  -5   7  13   11.74    0.99
   4  -7 -13    1.60    0.33
  -4  -7  13    1.34    0.36
  -4   7  13    1.39    0.43
   4   7 -13    1.70    0.53
   3  -7 -13   27.58    1.34
  -3  -7  13   27.65    1.47
  -3   7  13   28.07    1.65
   3   7 -13   27.50    1.78
  -2  -7  13    1.80    0.39
   2  -7 -13    1.80    0.33
   2   7 -13    1.72    0.51
  -2   7  13    1.66    0.43
   1  -7 -13   10.20    1.05
  -1  -7  13   12.80    0.89
   1  -7 -13   13.13    0.76
   1   7 -13   12.19    1.11
  -1   7  13   13.19    1.03
   0  -7 -13    2.80    0.66
   0  -7 -13    3.56    0.41
   0  -7  13    4.08    0.55
   0   7 -13    3.01    0.64
   0   7  13    2.37    0.54
  -1  -7 -13   44.90    1.84
  -1  -7 -13   41.89    2.54
  -1   7 -13   40.86    2.45
  -2  -7 -13    1.63    0.59
  -2  -7 -13    2.20    0.33
  -2   7 -13    1.49    0.53
  -3  -7 -13   10.95    0.66
  -3  -7 -13    9.82    1.26
  -3   7 -13    9.09    1.11
  -4  -7 -13   -0.05    0.47
  -4   7 -13   -0.10    0.38
  -5  -7 -13   42.05    2.78
  -5   7 -13   40.51    2.53
  -6  -8  13    0.66    0.33
   6  -8 -13    0.44    0.27
  -6   8  13    0.32    0.30
  -5  -8  13    6.14    0.69
   5  -8 -13    6.91    0.59
  -5   8  13    6.29    0.80
   5   8 -13    5.76    0.87
  -4  -8  13   49.08    2.32
   4  -8 -13   52.99    2.25
   4   8 -13   52.66    2.85
  -4   8  13   51.63    2.59
   3  -8 -13    1.59    0.31
  -3  -8  13    1.04    0.36
   3   8 -13    1.47    0.51
  -3   8  13    1.33    0.41
   2  -8 -13    1.17    0.29
  -2  -8  13    0.56    0.34
   2   8 -13    0.96    0.44
  -2   8  13    0.61    0.34
  -1  -8  13   10.56    0.81
   1  -8 -13    9.14    0.65
  -1   8  13   11.64    0.97
   1   8 -13   10.21    1.04
   0  -8  13   52.50    2.27
   0  -8 -13   46.96    2.03
   0  -8 -13   45.55    2.71
   0   8 -13   45.05    2.66
   0   8  13   52.50    2.54
   1  -8  13    2.89    0.49
  -1  -8 -13    2.62    0.37
  -1  -8 -13    2.24    0.66
  -1   8 -13    2.52    0.61
   1   8  13    2.92    0.58
  -2  -8 -13    2.74    0.71
  -2  -8 -13    3.39    0.40
  -2   8 -13    3.30    0.68
  -3  -8 -13    6.88    0.52
  -3  -8 -13    5.32    0.94
  -3   8 -13    6.31    0.93
  -4  -8 -13   29.55    2.17
  -4  -8 -13   29.96    1.36
  -4   8 -13   27.79    1.97
  -5  -8 -13    1.85    0.72
  -5   8 -13    1.07    0.54
  -6  -9  13   13.51    0.98
   6  -9 -13   15.56    0.96
  -6   9  13   11.41    1.03
   5  -9 -13   15.65    0.96
  -5  -9  13   14.93    1.02
   5   9 -13   13.47    1.29
  -5   9  13   14.50    1.13
  -4  -9  13    0.29    0.28
   4  -9 -13    0.11    0.21
  -4   9  13   -0.16    0.26
   4   9 -13   -0.10    0.39
   3  -9 -13   24.76    1.24
  -3  -9  13   22.58    1.35
   3   9 -13   24.68    1.69
  -3   9  13   24.85    1.54
   2  -9 -13   10.35    0.68
  -2  -9  13   10.47    0.84
   2   9 -13    8.77    1.06
  -2   9  13    9.66    0.91
   1  -9 -13   18.41    0.99
  -1  -9  13   19.24    1.16
  -1   9  13   18.32    1.29
   1   9 -13   16.99    1.38
   0  -9 -13    1.48    0.57
   0  -9 -13    2.38    0.35
   0  -9  13    1.73    0.42
   0   9  13    2.17    0.51
   0   9 -13    2.30    0.60
  -1  -9 -13   23.65    1.18
  -1  -9 -13   25.59    1.82
   1  -9  13   25.45    1.41
   1   9  13   25.79    1.59
  -1   9 -13   21.92    1.66
   2  -9  13   21.11    1.23
  -2  -9 -13   17.51    1.56
  -2  -9 -13   18.61    0.98
  -2   9 -13   17.74    1.46
  -3  -9 -13    4.62    0.91
  -3  -9 -13    4.01    0.44
  -3   9 -13    2.65    0.67
  -4  -9 -13    2.35    0.36
  -4  -9 -13    2.95    0.82
  -4   9 -13    1.93    0.62
   5 -10 -13   10.79    0.79
  -5 -10  13   10.17    0.86
   5  10 -13   11.88    1.20
  -5  10  13    9.75    0.94
  -4 -10  13   15.98    1.08
   4 -10 -13   15.02    0.94
   4  10 -13   16.11    1.37
  -4  10  13   17.17    1.23
   3 -10 -13   13.86    0.84
  -3 -10  13   13.43    0.96
   3  10 -13   10.46    1.14
  -3  10  13   13.74    1.09
   2 -10 -13    0.14    0.20
  -2 -10  13    0.32    0.31
   2  10 -13    0.02    0.38
  -2  10  13    0.34    0.32
   1 -10 -13   18.04    0.99
  -1 -10  13   18.64    1.17
  -1  10  13   18.01    1.29
   1  10 -13   16.85    1.40
   0 -10 -13   21.55    1.58
   0 -10 -13   20.20    1.06
   0 -10  13   21.76    1.28
   0  10 -13   17.88    1.47
   0  10  13   20.24    1.40
   1 -10  13    3.89    0.58
  -1 -10 -13    3.49    0.43
  -1 -10 -13    2.47    0.69
  -1  10 -13    3.67    0.72
   1  10  13    3.64    0.64
   2 -10  13    1.30    0.41
  -2 -10 -13    1.57    0.62
  -2 -10 -13    1.17    0.28
  -2  10 -13    1.44    0.53
   3 -10  13   22.90    1.34
  -3 -10 -13   22.54    1.12
  -3 -10 -13   20.01    1.77
  -3  10 -13   20.87    1.63
  -4 -10 -13    9.63    0.65
  -4 -10 -13    7.78    1.23
  -4  10 -13    7.76    1.07
   5 -11 -13    1.28    0.34
  -4 -11  13   -0.08    0.27
   4 -11 -13   -0.11    0.18
   4  11 -13    0.18    0.42
  -4  11  13    0.00    0.28
   3 -11 -13    6.40    0.57
  -3 -11  13    6.27    0.74
   3  11 -13    6.54    0.94
  -3  11  13    6.46    0.83
  -2 -11  13   35.98    1.85
   2 -11 -13   36.41    1.68
  -2  11  13   37.03    2.07
   2  11 -13   35.36    2.22
  -1 -11  13    0.84    0.38
   1 -11 -13    0.93    0.27
   1  11 -13    0.69    0.47
  -1  11  13    0.65    0.36
   0 -11  13    2.85    0.52
   0 -11 -13    4.15    0.47
   0 -11 -13    2.65    0.69
   0  11  13    3.18    0.62
   0  11 -13    2.88    0.67
  -1 -11 -13    4.19    0.83
   1 -11  13    4.22    0.61
  -1 -11 -13    4.20    0.48
  -1  11 -13    3.46    0.70
   1  11  13    3.70    0.68
   2 -11  13   31.59    1.67
  -2 -11 -13   29.91    1.39
  -2 -11 -13   29.32    2.12
  -2  11 -13   26.14    1.91
   3 -11  13    0.53    0.35
  -3 -11 -13    0.51    0.51
  -3 -11 -13    0.64    0.25
  -3  11 -13    0.39    0.42
   4 -12 -13    0.12    0.20
  -3 -12  13   14.02    1.04
   3 -12 -13   13.99    0.88
   3  12 -13   13.85    1.30
  -3  12  13   13.22    1.12
   2 -12 -13    1.78    0.35
  -2 -12  13    1.42    0.42
   2  12 -13    1.61    0.58
  -2  12  13    1.75    0.49
   1 -12 -13   28.71    1.39
  -1 -12  13   28.40    1.59
  -1  12  13   28.26    1.75
   1  12 -13   26.09    1.87
   0 -12 -13    1.40    0.30
   0 -12  13    1.27    0.42
   0  12  13    1.63    0.48
   0  12 -13    1.01    0.50
  -1 -12 -13    7.80    1.14
  -1 -12 -13    9.67    0.68
   1 -12  13   10.16    0.88
  -1  12 -13    8.32    1.09
   1  12  13   11.39    1.02
  -2 -12 -13    0.10    0.19
  -2 -12 -13   -0.75    0.41
   2 -12  13   -0.08    0.28
  -2  12 -13    0.11    0.37
  -2 -13  13   35.10    1.87
   2 -13 -13   35.42    1.67
  -2  13  13   34.67    2.05
   1 -13 -13    0.15    0.22
  -1 -13  13    0.40    0.34
  -1  13  13    0.28    0.32
   1  13 -13   -0.19    0.38
   0 -13 -13    4.36    0.52
   0 -13  13    3.59    0.62
   0  13 -13    3.61    0.77
   0  13  13    4.17    0.73
  -6   0  14   31.91    1.73
   5   0 -14   -0.03    0.22
  -5   0  14   -0.36    0.21
  -4   0  14   27.40    1.61
   4   0 -14   30.57    1.45
  -3   0  14   -0.17    0.22
   3   0 -14   -0.03    0.17
   2   0 -14   31.51    1.41
   2   0 -14   26.23    1.77
   1   0 -14   -0.11    0.38
   0   0 -14   31.10    1.96
  -1   0 -14   -0.07    0.31
  -2   0 -14    2.31    0.62
  -3   0 -14   -0.51    0.38
  -4   0 -14   51.76    3.07
   6  -1 -14    2.12    0.42
  -6   1  14    1.77    0.43
  -5  -1  14   47.40    2.25
   5  -1 -14   44.09    2.03
  -5   1  14   42.77    2.22
  -4  -1  14    0.21    0.28
   4  -1 -14    0.29    0.22
   4   1 -14    0.08    0.21
  -4   1  14    0.02    0.25
   3  -1 -14    0.31    0.22
  -3   1  14    0.38    0.29
   3   1 -14    0.32    0.21
   2  -1 -14    1.30    0.28
   2  -1 -14    0.89    0.43
   2   1 -14    0.83    0.45
   1  -1 -14   51.62    1.99
   1  -1 -14   41.95    2.51
   1   1 -14   43.53    2.52
   0  -1 -14    1.74    0.57
   0   1 -14    1.72    0.55
  -1  -1 -14    0.72    0.44
  -1   1 -14    0.49    0.42
  -2  -1 -14    2.70    0.66
  -2   1 -14    2.17    0.62
  -3  -1 -14   22.92    1.77
  -3   1 -14   23.69    1.77
  -4  -1 -14   -0.54    0.47
  -4   1 -14   -0.18    0.46
   6  -2 -14   29.73    1.48
  -6   2  14   25.49    1.56
   5  -2 -14    0.13    0.23
  -5  -2  14    0.35    0.29
  -5   2  14    0.12    0.29
   4  -2 -14   12.47    0.81
  -4   2  14   12.71    0.99
   3  -2 -14    9.16    0.66
   3   2 -14   10.18    0.69
   3   2 -14    8.63    0.93
  -3   2  14    8.43    0.92
   2  -2 -14   15.66    0.88
   2  -2 -14   14.99    1.22
  -2   2  14   16.23    1.15
   2   2 -14   15.45    1.25
   1  -2 -14    1.79    0.31
   1  -2 -14    1.16    0.50
   1   2 -14    0.29    0.42
   0  -2 -14   26.31    1.76
   0   2 -14   26.17    1.74
  -1  -2 -14   11.36    1.15
  -1   2 -14   12.76    1.15
  -2  -2 -14   10.89    1.14
  -2   2 -14   12.55    1.18
  -3  -2 -14    3.91    0.83
  -3   2 -14    2.12    0.66
  -4  -2 -14   46.20    2.80
  -4   2 -14   40.84    2.65
   6  -3 -14   11.13    0.83
  -6   3  14   11.40    0.94
   5  -3 -14   26.93    1.41
  -5   3  14   28.40    1.61
   4  -3 -14   22.51    1.20
  -4   3  14   22.17    1.40
   3  -3 -14    0.71    0.26
  -3   3  14    0.34    0.30
   3   3 -14    0.13    0.35
   2  -3 -14   10.31    0.68
  -2   3  14   10.04    0.90
   2   3 -14    9.28    0.98
   1  -3 -14   14.64    0.82
   1  -3 -14   12.50    1.16
   1   3 -14   15.63    1.25
   0  -3 -14   16.01    1.35
   0  -3 -14   18.27    0.93
   0   3 -14   17.15    1.36
  -1  -3 -14    2.69    0.67
  -1   3 -14    3.13    0.66
  -2  -3 -14   15.50    1.37
  -2   3 -14   14.14    1.29
  -3  -3 -14   21.07    1.68
  -3   3 -14   19.31    1.57
  -4  -3 -14    6.10    1.07
  -4   3 -14    6.41    1.00
   6  -4 -14    6.67    0.70
  -6  -4  14    5.16    0.62
  -6   4  14    5.82    0.75
  -5  -4  14    0.03    0.26
   5  -4 -14    0.40    0.26
  -5   4  14    0.32    0.29
   4  -4 -14    7.10    0.60
  -4   4  14    6.60    0.78
   3  -4 -14   41.77    1.82
   3   4 -14   38.44    2.28
  -3   4  14   40.25    2.13
   2  -4 -14    7.88    0.59
  -2   4  14    8.50    0.94
   2   4 -14    6.90    0.92
   1  -4 -14    0.55    0.22
   1  -4 -14   -0.02    0.32
  -1   4  14    0.23    0.30
   1   4 -14    0.37    0.40
   0  -4 -14   11.87    1.13
   0  -4 -14   11.31    0.70
   0   4 -14   11.16    1.10
  -1  -4 -14   31.71    2.04
  -1   4 -14   29.59    1.96
  -2  -4 -14    1.34    0.58
  -2   4 -14    1.76    0.58
  -3  -4 -14    0.18    0.45
  -3   4 -14   -0.33    0.37
  -4  -4 -14   13.09    1.43
  -4   4 -14   16.30    1.42
   6  -5 -14   16.61    1.03
  -6  -5  14   15.11    1.01
  -6   5  14   15.61    1.14
   5  -5 -14    6.31    0.66
  -5  -5  14    5.88    0.66
  -5   5  14    6.56    0.78
  -4  -5  14   17.73    1.10
   4  -5 -14   19.56    1.06
  -4   5  14   17.46    1.23
   3  -5 -14    0.24    0.21
   3   5 -14    0.49    0.40
  -3   5  14    0.42    0.33
   2  -5 -14   21.25    1.11
  -2   5  14   23.44    1.44
   2   5 -14   19.70    1.49
   1  -5 -14    1.13    0.45
   1  -5 -14    1.45    0.29
   1   5 -14    0.64    0.43
  -1   5  14    1.82    0.49
   0  -5 -14   15.48    0.83
   0  -5 -14   12.71    1.22
   0   5 -14   12.96    1.19
  -1  -5 -14   -0.44    0.39
  -1  -5 -14    0.36    0.19
  -1   5 -14   -0.18    0.36
  -2  -5 -14   28.19    1.95
  -2   5 -14   25.12    1.82
  -3  -5 -14    0.05    0.46
  -3   5 -14   -0.32    0.39
  -4  -5 -14    8.04    1.20
  -4   5 -14    9.03    1.15
  -5  -6  14    0.27    0.28
   5  -6 -14   -0.03    0.22
  -5   6  14   -0.03    0.25
   4  -6 -14    0.09    0.21
  -4  -6  14    0.09    0.24
  -4   6  14    0.18    0.29
   3  -6 -14   44.21    1.96
  -3  -6  14   45.44    2.09
  -3   6  14   44.74    2.31
   3   6 -14   41.97    2.48
   2  -6 -14    1.12    0.29
   2   6 -14    0.94    0.46
  -2   6  14    1.19    0.43
   1  -6 -14    0.17    0.19
  -1   6  14   -0.27    0.24
   1   6 -14   -0.19    0.32
   0  -6 -14   -0.34    0.36
   0  -6 -14    0.07    0.17
   0   6 -14    0.21    0.38
  -1  -6 -14   47.81    1.94
  -1  -6 -14   43.03    2.66
  -1   6 -14   44.25    2.61
  -2  -6 -14    0.00    0.44
  -2   6 -14   -0.17    0.37
  -3  -6 -14    2.92    0.75
  -3   6 -14    3.88    0.80
  -5  -7  14    0.20    0.28
   5  -7 -14    0.83    0.30
  -5   7  14    0.65    0.34
  -4  -7  14   32.43    1.66
   4  -7 -14   32.48    1.57
  -4   7  14   33.06    1.88
   4   7 -14   31.12    2.02
   3  -7 -14    0.43    0.24
  -3  -7  14    0.64    0.31
  -3   7  14    0.39    0.33
   3   7 -14   -0.01    0.38
   2  -7 -14   23.39    1.19
  -2  -7  14   22.19    1.31
   2   7 -14   23.33    1.64
  -2   7  14   23.46    1.51
   1  -7 -14    3.84    0.45
   1   7 -14    3.21    0.68
  -1   7  14    4.42    0.70
   0  -7 -14   19.38    1.02
   0  -7 -14   17.68    1.47
   0   7 -14   18.57    1.48
   0   7  14   21.90    1.42
  -1  -7 -14    0.19    0.19
  -1  -7 -14   -0.17    0.40
  -1   7 -14    0.65    0.46
  -2  -7 -14   29.98    1.37
  -2  -7 -14   28.21    2.04
  -2   7 -14   28.21    1.96
  -3  -7 -14    1.42    0.61
  -3   7 -14    0.56    0.48
  -4  -8  14    1.86    0.43
   4  -8 -14    2.11    0.40
   4   8 -14    2.24    0.63
  -4   8  14    1.72    0.47
   3  -8 -14   38.48    1.79
  -3  -8  14   37.80    1.93
  -3   8  14   42.46    2.20
   3   8 -14   38.61    2.34
   2  -8 -14    2.37    0.39
  -2  -8  14    3.09    0.52
  -2   8  14    2.05    0.51
   2   8 -14    2.75    0.65
   1  -8 -14   -0.02    0.18
  -1  -8  14   -0.10    0.27
  -1   8  14    0.05    0.28
   1   8 -14   -0.21    0.34
   0  -8 -14    5.85    0.91
   0  -8 -14    6.23    0.52
   0   8 -14    5.18    0.83
   0   8  14    5.52    0.80
  -1  -8 -14   33.77    1.48
  -1  -8 -14   30.29    2.10
  -1   8 -14   29.22    2.02
  -2  -8 -14    2.20    0.69
  -2  -8 -14    2.03    0.34
  -2   8 -14    1.75    0.59
   4  -9 -14    9.21    0.72
   3  -9 -14   -0.19    0.19
  -3  -9  14    0.12    0.28
   3   9 -14    0.32    0.41
  -3   9  14    0.12    0.30
  -2  -9  14   15.58    1.12
   2  -9 -14   17.18    0.97
  -2   9  14   18.04    1.29
   2   9 -14   16.64    1.39
  -1  -9  14   20.73    1.30
   1  -9 -14   21.22    1.12
  -1   9  14   23.14    1.50
   1   9 -14   20.41    1.56
   0  -9  14   13.56    1.00
   0  -9 -14   12.74    0.81
   0   9 -14   13.71    1.26
   0   9  14   17.01    1.24
  -1  -9 -14    1.37    0.30
  -1  -9 -14    0.32    0.48
  -1   9 -14    1.95    0.59
  -2  -9 -14   14.60    0.85
  -2  -9 -14   12.39    1.36
  -2   9 -14   14.41    1.31
   2 -10 -14    9.57    0.70
  -2 -10  14    8.00    0.85
   2  10 -14    9.53    1.14
  -2  10  14    9.48    1.03
  -1 -10  14    0.76    0.38
   1 -10 -14    0.42    0.22
   1  10 -14    0.42    0.42
  -1  10  14    0.57    0.36
   0 -10  14   14.46    1.06
   0 -10 -14   15.29    0.89
   0  10 -14   13.62    1.28
   0  10  14   15.85    1.24
  -1 -10 -14   15.02    0.89
   4   0 -15   -0.08    0.22
   3   0 -15   21.98    1.18
   1   0 -15   31.85    2.00
   0   0 -15   -0.23    0.40
  -1   0 -15   16.87    1.42
  -2   0 -15    0.22    0.42
   4  -1 -15   35.17    1.69
   4   1 -15   35.85    1.71
  -4   1  15   34.88    1.94
   3  -1 -15   -0.09    0.19
   2   1 -15    0.31    0.42
   1  -1 -15    0.20    0.42
   1   1 -15    0.06    0.45
   0  -1 -15   35.64    2.19
   0   1 -15   34.97    2.18
  -1  -1 -15    2.16    0.65
  -1   1 -15    3.35    0.73
  -2  -1 -15    0.26    0.44
  -2   1 -15    0.35    0.44
   4  -2 -15    0.20    0.23
  -4   2  15   -0.21    0.26
   3  -2 -15    3.57    0.49
  -3   2  15    3.66    0.63
   2  -2 -15   10.28    0.70
   2   2 -15    9.12    1.07
   1  -2 -15   21.84    1.58
   1   2 -15   22.03    1.59
   0  -2 -15   -0.09    0.42
   0   2 -15   -0.14    0.38
  -1  -2 -15   13.89    1.31
  -1   2 -15   14.76    1.31
  -2  -2 -15    8.13    1.10
  -2   2 -15    7.57    1.04
   4  -3 -15   20.28    1.15
   3  -3 -15   17.73    1.00
  -3   3  15   15.20    1.19
   2  -3 -15    1.92    0.36
   2   3 -15    1.12    0.51
   1  -3 -15    7.44    0.97
   1   3 -15    7.88    1.00
   0  -3 -15   18.26    1.46
   0   3 -15   17.94    1.44
  -1  -3 -15    4.96    0.88
  -1   3 -15    6.61    0.94
  -2  -3 -15    0.14    0.46
  -2   3 -15    0.05    0.46
   3  -4 -15    1.79    0.37
  -3   4  15    1.48    0.46
   2  -4 -15   30.59    1.43
   2   4 -15   27.18    1.87
  -2   4  15   29.21    1.75
   1  -4 -15   12.88    0.78
   1   4 -15    9.88    1.09
   0  -4 -15   -0.39    0.35
   0   4 -15   -0.47    0.33
  -1  -4 -15    4.71    0.86
  -1   4 -15    4.59    0.82
   3  -5 -15   30.74    1.50
   2  -5 -15    0.11    0.20
   2   5 -15   -0.21    0.38
  -2   5  15    0.21    0.33
   1  -5 -15   10.59    0.71
   1   5 -15   10.66    1.11
   0  -5 -15    1.92    0.35
   0  -5 -15    1.68    0.57
   0   5 -15    1.22    0.52
  -1  -5 -15   19.13    1.57
  -1   5 -15   18.62    1.51
   2  -6 -15   38.07    1.75
   1  -6 -15    1.41    0.31
  -1   6  15    1.36    0.47
   1   6 -15    0.44    0.45
   0  -6 -15   -0.05    0.18
   0   0   0    0.00    0.00
;
_shelx_hkl_checksum              64067
loop_
_space_group_symop_operation_xyz
'x, y, z'
'-x+1/2, y+1/2, -z+1/2'
'-x, -y, -z'
'x-1/2, -y-1/2, z-1/2'
loop_
_atom_site_label
_atom_site_type_symbol
_atom_site_fract_x
_atom_site_fract_y
_atom_site_fract_z
_atom_site_U_iso_or_equiv
_atom_site_adp_type
_atom_site_occupancy
_atom_site_site_symmetry_order
_atom_site_calc_flag
_atom_site_refinement_flags_posn
_atom_site_refinement_flags_adp
Tb1 Tb 0.38188(2) 0.03979(2) 0.59967(2) 0.01478(5) Uani 1 1 d . .
N1 N 0.6488(4) 0.2490(3) 0.9871(4) 0.0752(14) Uani 1 1 d . U
N2 N -0.3795(3) 0.27160(19) 0.6687(3) 0.0466(8) Uani 1 1 d . .
N3 N 0.2791(4) -0.06234(17) 0.7482(3) 0.0444(8) Uani 1 1 d . U
O1 O 0.2062(2) 0.10741(12) 0.65600(19) 0.0296(5) Uani 1 1 d . .
O1W O 0.8805(3) 0.20219(19) 0.0579(3) 0.0766(12) Uani 1 1 d . .
H1WD H 0.8594 0.2100 0.1239 0.092 Uiso 1 1 d R U
H1WA H 0.9603 0.1998 0.0582 0.115 Uiso 1 1 d R U
H1WB H 0.8483 0.1630 0.0342 0.115 Uiso 1 1 d R U
H1WC H 0.8537 0.2360 0.0153 0.115 Uiso 1 1 d R U
O2 O 0.3878(2) 0.13619(13) 0.7399(2) 0.0356(6) Uani 1 1 d . .
O3 O 0.03484(19) 0.42754(10) 0.94914(18) 0.0239(4) Uani 1 1 d . .
O4 O -0.1049(2) 0.34850(11) 0.9904(2) 0.0291(5) Uani 1 1 d . .
O5 O 0.5870(2) 0.03881(12) 0.6750(2) 0.0317(5) Uani 1 1 d . .
O6 O 0.72779(19) -0.01213(12) 0.56947(17) 0.0261(4) Uani 1 1 d . .
O7 O 0.3749(4) -0.02638(17) 0.7774(2) 0.0563(8) Uani 1 1 d . U
O8 O 0.2224(3) -0.04778(13) 0.6547(2) 0.0404(6) Uani 1 1 d . .
O9 O 0.2413(4) -0.10985(17) 0.8079(3) 0.0714(11) Uani 1 1 d . .
C1 C -0.3308(3) 0.2120(2) 0.7125(3) 0.0418(9) Uani 1 1 d . .
H1 H -0.3813 0.1715 0.7114 0.050 Uiso 1 1 calc R U
C2 C -0.2083(3) 0.20701(17) 0.7598(3) 0.0330(7) Uani 1 1 d . .
H2 H -0.1779 0.1638 0.7886 0.040 Uiso 1 1 calc R U
C3 C -0.1315(3) 0.26681(15) 0.7641(3) 0.0225(6) Uani 1 1 d . .
C4 C -0.1824(3) 0.32950(18) 0.7197(3) 0.0345(7) Uani 1 1 d . .
H4 H -0.1351 0.3713 0.7220 0.041 Uiso 1 1 calc R U
C5 C -0.3046(4) 0.3289(2) 0.6718(4) 0.0460(9) Uani 1 1 d . .
H5 H -0.3366 0.3709 0.6398 0.055 Uiso 1 1 calc R U
C6 C 0.0034(3) 0.26144(14) 0.8063(2) 0.0200(5) Uani 1 1 d . .
C7 C 0.0761(3) 0.20876(15) 0.7612(2) 0.0229(6) Uani 1 1 d . .
H7 H 0.0372 0.1775 0.7093 0.027 Uiso 1 1 calc R U
C8 C 0.2041(3) 0.20049(15) 0.7898(2) 0.0224(6) Uani 1 1 d . .
C9 C 0.2631(3) 0.24720(16) 0.8690(3) 0.0246(6) Uani 1 1 d . .
C10 C 0.1905(3) 0.30081(15) 0.9135(2) 0.0229(6) Uani 1 1 d . .
H10 H 0.2292 0.3324 0.9650 0.027 Uiso 1 1 calc R U
C11 C 0.0625(3) 0.30875(14) 0.8836(2) 0.0185(5) Uani 1 1 d . .
C12 C 0.3990(3) 0.2447(2) 0.9100(3) 0.0352(8) Uani 1 1 d . .
C13 C 0.4546(4) 0.1840(3) 0.9582(3) 0.0540(12) Uani 1 1 d . .
H13 H 0.4096 0.1417 0.9638 0.065 Uiso 1 1 calc R U
C14 C 0.5828(5) 0.1893(3) 0.9982(4) 0.0708(14) Uani 1 1 d . U
H14 H 0.6220 0.1501 1.0332 0.085 Uiso 1 1 calc R U
C15 C 0.5978(4) 0.3067(4) 0.9442(4) 0.0701(17) Uani 1 1 d . .
H15 H 0.6456 0.3480 0.9394 0.084 Uiso 1 1 calc R U
C16 C 0.4724(3) 0.3063(3) 0.9057(4) 0.0490(10) Uani 1 1 d . .
H16 H 0.4359 0.3479 0.8762 0.059 Uiso 1 1 calc R U
C17 C 0.2714(3) 0.14446(15) 0.7260(2) 0.0218(6) Uani 1 1 d . .
C18 C -0.0086(3) 0.36450(14) 0.9432(2) 0.0178(5) Uani 1 1 d . .
C19 C 0.6939(3) 0.01334(15) 0.6598(2) 0.0222(6) Uani 1 1 d . .
C20 C 0.7865(3) 0.01245(16) 0.7589(3) 0.0243(6) Uani 1 1 d . .
C21 C 0.7433(3) 0.0153(2) 0.8655(3) 0.0361(8) Uani 1 1 d . .
H21 H 0.6575 0.0207 0.8740 0.043 Uiso 1 1 calc R U
C22 C 0.8259(3) 0.0102(2) 0.9585(3) 0.0405(9) Uani 1 1 d . .
H22 H 0.7948 0.0110 1.0290 0.049 Uiso 1 1 calc R U
C23 C 0.9553(3) 0.00368(18) 0.9494(3) 0.0293(7) Uani 1 1 d . .
C24 C 0.9972(3) 0.0047(2) 0.8430(3) 0.0425(9) Uani 1 1 d . .
H24 H 1.0836 0.0036 0.8346 0.051 Uiso 1 1 calc R U
C25 C 0.9146(3) 0.0075(2) 0.7480(3) 0.0379(8) Uani 1 1 d . .
H25 H 0.9456 0.0060 0.6773 0.045 Uiso 1 1 calc R U
loop_
_atom_site_aniso_label
_atom_site_aniso_U_11
_atom_site_aniso_U_22
_atom_site_aniso_U_33
_atom_site_aniso_U_23
_atom_site_aniso_U_13
_atom_site_aniso_U_12
Tb1 0.01193(7) 0.01555(8) 0.01684(8) -0.00017(4) 0.00084(5) 0.00257(4)
N1 0.037(2) 0.127(4) 0.059(3) -0.049(3) -0.0149(18) 0.021(2)
N2 0.0230(14) 0.053(2) 0.062(2) -0.0132(16) -0.0117(14) 0.0016(14)
N3 0.061(2) 0.0348(16) 0.0407(18) 0.0084(13) 0.0277(16) 0.0084(15)
O1 0.0184(10) 0.0320(12) 0.0382(12) -0.0146(9) 0.0011(9) 0.0055(9)
O1W 0.0348(16) 0.076(2) 0.115(3) 0.053(2) -0.0270(17) -0.0220(15)
O2 0.0198(11) 0.0424(13) 0.0440(14) -0.0214(11) -0.0026(10) 0.0095(10)
O3 0.0205(10) 0.0163(9) 0.0353(11) -0.0039(8) 0.0050(9) -0.0040(8)
O4 0.0272(11) 0.0187(10) 0.0436(13) -0.0055(9) 0.0185(10) -0.0032(8)
O5 0.0176(11) 0.0450(14) 0.0312(12) -0.0112(9) -0.0068(9) 0.0091(9)
O6 0.0197(10) 0.0351(12) 0.0228(10) -0.0046(9) -0.0043(8) 0.0030(9)
O7 0.076(2) 0.0622(18) 0.0301(14) 0.0138(13) 0.0005(14) -0.0146(16)
O8 0.0343(14) 0.0329(13) 0.0560(17) 0.0072(11) 0.0173(13) 0.0008(10)
O9 0.103(3) 0.0473(17) 0.069(2) 0.0265(16) 0.044(2) -0.0037(18)
C1 0.0246(17) 0.044(2) 0.056(2) -0.0171(17) -0.0011(16) -0.0100(15)
C2 0.0239(15) 0.0256(15) 0.050(2) -0.0088(14) 0.0037(14) -0.0019(12)
C3 0.0152(13) 0.0236(14) 0.0288(15) -0.0084(11) 0.0012(11) 0.0012(11)
C4 0.0259(16) 0.0262(16) 0.050(2) -0.0033(14) -0.0046(15) 0.0024(13)
C5 0.0305(19) 0.044(2) 0.062(3) -0.0049(18) -0.0120(18) 0.0065(16)
C6 0.0160(13) 0.0163(12) 0.0280(14) -0.0035(10) 0.0028(11) -0.0010(10)
C7 0.0184(13) 0.0225(14) 0.0279(15) -0.0079(11) 0.0025(11) -0.0010(11)
C8 0.0204(14) 0.0203(13) 0.0266(14) -0.0034(11) 0.0034(11) 0.0043(11)
C9 0.0183(13) 0.0279(15) 0.0272(15) -0.0044(11) -0.0010(11) 0.0055(11)
C10 0.0195(14) 0.0224(13) 0.0266(14) -0.0063(11) 0.0004(11) 0.0019(11)
C11 0.0163(13) 0.0169(12) 0.0228(13) -0.0024(10) 0.0034(10) 0.0004(10)
C12 0.0211(15) 0.054(2) 0.0291(17) -0.0185(15) -0.0053(13) 0.0137(15)
C13 0.050(2) 0.070(3) 0.040(2) -0.015(2) -0.0120(18) 0.033(2)
C14 0.066(3) 0.098(3) 0.046(2) -0.016(3) -0.014(2) 0.059(2)
C15 0.0228(19) 0.122(5) 0.065(3) -0.048(3) -0.003(2) -0.003(2)
C16 0.0205(17) 0.072(3) 0.053(2) -0.028(2) -0.0037(16) -0.0017(17)
C17 0.0194(13) 0.0211(13) 0.0252(14) -0.0025(11) 0.0036(11) 0.0042(11)
C18 0.0179(12) 0.0150(12) 0.0202(13) -0.0017(9) -0.0013(10) 0.0004(10)
C19 0.0175(13) 0.0224(14) 0.0262(15) -0.0029(11) -0.0033(11) 0.0001(11)
C20 0.0189(14) 0.0261(14) 0.0268(15) -0.0047(11) -0.0058(12) 0.0024(11)
C21 0.0198(15) 0.058(2) 0.0293(17) -0.0099(15) -0.0043(13) 0.0088(15)
C22 0.0229(17) 0.071(3) 0.0265(17) -0.0113(16) -0.0038(13) 0.0105(17)
C23 0.0201(14) 0.0381(17) 0.0283(16) -0.0083(13) -0.0086(13) 0.0046(13)
C24 0.0159(15) 0.080(3) 0.0312(18) -0.0026(18) -0.0039(13) 0.0099(17)
C25 0.0209(16) 0.066(2) 0.0264(17) -0.0027(16) -0.0025(13) 0.0052(16)
loop_
_atom_type_symbol
_atom_type_description
_atom_type_scat_dispersion_real
_atom_type_scat_dispersion_imag
_atom_type_scat_source
C C 0.0033 0.0016 'International Tables Vol C Tables 4.2.6.8 and 6.1.1.4'
H H 0.0000 0.0000 'International Tables Vol C Tables 4.2.6.8 and 6.1.1.4'
N N 0.0061 0.0033 'International Tables Vol C Tables 4.2.6.8 and 6.1.1.4'
O O 0.0106 0.0060 'International Tables Vol C Tables 4.2.6.8 and 6.1.1.4'
Tb Tb -0.1723 4.1537 'International Tables Vol C Tables 4.2.6.8 and 6.1.1.4'
loop_
_geom_angle_atom_site_label_1
_geom_angle_atom_site_label_2
_geom_angle_atom_site_label_3
_geom_angle
_geom_angle_site_symmetry_1
_geom_angle_site_symmetry_3
O5 Tb1 O6 138.05(8) . 3_656
O5 Tb1 O3 74.34(7) . 2_546
O6 Tb1 O3 76.10(7) 3_656 2_546
O5 Tb1 O1 129.06(8) . .
O6 Tb1 O1 90.63(7) 3_656 .
O3 Tb1 O1 148.39(7) 2_546 .
O5 Tb1 O2 76.13(7) . .
O6 Tb1 O2 138.16(8) 3_656 .
O3 Tb1 O2 145.72(8) 2_546 .
O1 Tb1 O2 53.29(7) . .
O5 Tb1 O7 75.07(11) . .
O6 Tb1 O7 126.60(10) 3_656 .
O3 Tb1 O7 78.53(10) 2_546 .
O1 Tb1 O7 87.24(10) . .
O2 Tb1 O7 77.37(10) . .
O5 Tb1 O4 97.28(8) . 4_665
O6 Tb1 O4 76.79(8) 3_656 4_665
O3 Tb1 O4 125.68(7) 2_546 4_665
O1 Tb1 O4 77.04(7) . 4_665
O2 Tb1 O4 75.00(8) . 4_665
O7 Tb1 O4 152.35(9) . 4_665
O5 Tb1 O8 122.44(9) . .
O6 Tb1 O8 76.94(9) 3_656 .
O3 Tb1 O8 75.65(7) 2_546 .
O1 Tb1 O8 73.42(8) . .
O2 Tb1 O8 106.79(9) . .
O7 Tb1 O8 51.43(11) . .
O4 Tb1 O8 139.84(8) 4_665 .
O5 Tb1 O3 69.56(8) . 4_665
O6 Tb1 O3 75.27(7) 3_656 4_665
O3 Tb1 O3 76.97(7) 2_546 4_665
O1 Tb1 O3 127.77(7) . 4_665
O2 Tb1 O3 108.35(8) . 4_665
O7 Tb1 O3 141.16(10) . 4_665
O4 Tb1 O3 50.91(6) 4_665 4_665
O8 Tb1 O3 144.75(8) . 4_665
O5 Tb1 C18 81.16(8) . 4_665
O6 Tb1 C18 76.91(8) 3_656 4_665
O3 Tb1 C18 102.48(7) 2_546 4_665
O1 Tb1 C18 102.20(8) . 4_665
O2 Tb1 C18 89.72(8) . 4_665
O7 Tb1 C18 155.03(10) . 4_665
O4 Tb1 C18 25.16(7) 4_665 4_665
O8 Tb1 C18 153.42(9) . 4_665
O3 Tb1 C18 25.96(7) 4_665 4_665
O5 Tb1 Tb1 66.59(6) . 3_656
O6 Tb1 Tb1 71.58(5) 3_656 3_656
O3 Tb1 Tb1 40.44(5) 2_546 3_656
O1 Tb1 Tb1 158.14(6) . 3_656
O2 Tb1 Tb1 135.60(6) . 3_656
O7 Tb1 Tb1 113.40(9) . 3_656
O4 Tb1 Tb1 86.36(5) 4_665 3_656
O8 Tb1 Tb1 113.10(6) . 3_656
O3 Tb1 Tb1 36.53(4) 4_665 3_656
C18 Tb1 Tb1 62.19(5) 4_665 3_656
C15 N1 C14 122.1(4) . .
C1 N2 C5 116.8(3) . .
O9 N3 O7 121.5(4) . .
O9 N3 O8 121.2(4) . .
O7 N3 O8 117.4(3) . .
C17 O1 Tb1 94.40(17) . .
C17 O2 Tb1 91.29(18) . .
C18 O3 Tb1 162.35(19) . 2_556
C18 O3 Tb1 90.92(16) . 4_566
Tb1 O3 Tb1 103.03(7) 2_556 4_566
C18 O4 Tb1 96.64(16) . 4_566
C19 O5 Tb1 141.9(2) . .
C19 O6 Tb1 132.73(19) . 3_656
N3 O7 Tb1 95.9(2) . .
N3 O8 Tb1 95.0(2) . .
N2 C1 C2 123.3(3) . .
C1 C2 C3 119.6(3) . .
C2 C3 C4 117.4(3) . .
C2 C3 C6 120.5(3) . .
C4 C3 C6 121.9(3) . .
C5 C4 C3 118.9(3) . .
N2 C5 C4 123.9(4) . .
C7 C6 C11 118.2(3) . .
C7 C6 C3 117.7(2) . .
C11 C6 C3 124.0(2) . .
C6 C7 C8 123.1(3) . .
C7 C8 C9 118.6(3) . .
C7 C8 C17 116.4(3) . .
C9 C8 C17 124.8(3) . .
C10 C9 C8 118.4(3) . .
C10 C9 C12 116.3(3) . .
C8 C9 C12 125.3(3) . .
C9 C10 C11 122.4(3) . .
C10 C11 C6 119.2(2) . .
C10 C11 C18 118.0(2) . .
C6 C11 C18 122.6(2) . .
C13 C12 C16 118.2(4) . .
C13 C12 C9 122.3(4) . .
C16 C12 C9 119.4(3) . .
C12 C13 C14 116.9(5) . .
N1 C14 C13 121.8(5) . .
N1 C15 C16 119.6(6) . .
C15 C16 C12 121.3(5) . .
O2 C17 O1 121.0(3) . .
O2 C17 C8 121.3(3) . .
O1 C17 C8 117.6(3) . .
O4 C18 O3 120.5(2) . .
O4 C18 C11 120.5(2) . .
O3 C18 C11 118.9(2) . .
O4 C18 Tb1 58.20(14) . 4_566
O3 C18 Tb1 63.11(14) . 4_566
C11 C18 Tb1 168.05(19) . 4_566
O5 C19 O6 125.8(3) . .
O5 C19 C20 116.2(3) . .
O6 C19 C20 118.0(3) . .
C25 C20 C21 118.8(3) . .
C25 C20 C19 121.8(3) . .
C21 C20 C19 119.4(3) . .
C22 C21 C20 120.7(3) . .
C21 C22 C23 121.5(3) . .
C24 C23 C22 117.1(3) . .
C24 C23 C23 121.5(4) . 3_757
C22 C23 C23 121.4(4) . 3_757
C23 C24 C25 122.1(3) . .
C20 C25 C24 119.8(3) . .
loop_
_geom_bond_atom_site_label_1
_geom_bond_atom_site_label_2
_geom_bond_distance
_geom_bond_site_symmetry_2
Tb1 O5 2.300(2) .
Tb1 O6 2.325(2) 3_656
Tb1 O3 2.3727(19) 2_546
Tb1 O1 2.393(2) .
Tb1 O2 2.467(2) .
Tb1 O7 2.471(3) .
Tb1 O4 2.480(2) 4_665
Tb1 O8 2.482(2) .
Tb1 O3 2.585(2) 4_665
Tb1 C18 2.898(3) 4_665
Tb1 Tb1 3.8833(3) 3_656
N1 C15 1.300(8) .
N1 C14 1.333(8) .
N2 C1 1.324(5) .
N2 C5 1.337(5) .
N3 O9 1.228(4) .
N3 O7 1.251(5) .
N3 O8 1.265(5) .
O1 C17 1.259(4) .
O2 C17 1.246(4) .
O3 C18 1.269(3) .
O3 Tb1 2.3726(19) 2_556
O3 Tb1 2.585(2) 4_566
O4 C18 1.240(3) .
O4 Tb1 2.480(2) 4_566
O5 C19 1.258(4) .
O6 C19 1.259(4) .
O6 Tb1 2.325(2) 3_656
C1 C2 1.386(5) .
C2 C3 1.386(4) .
C3 C4 1.384(4) .
C3 C6 1.490(4) .
C4 C5 1.383(5) .
C6 C7 1.387(4) .
C6 C11 1.400(4) .
C7 C8 1.389(4) .
C8 C9 1.406(4) .
C8 C17 1.508(4) .
C9 C10 1.396(4) .
C9 C12 1.494(4) .
C10 C11 1.390(4) .
C11 C18 1.500(4) .
C12 C13 1.390(6) .
C12 C16 1.396(6) .
C13 C14 1.416(7) .
C15 C16 1.380(5) .
C18 Tb1 2.899(3) 4_566
C19 C20 1.488(4) .
C20 C25 1.381(4) .
C20 C21 1.389(5) .
C21 C22 1.373(5) .
C22 C23 1.391(5) .
C23 C24 1.381(5) .
C23 C23 1.494(6) 3_757
C24 C25 1.388(5) .
