#------------------------------------------------------------------------------
#$Date: 2019-10-28 05:08:01 +0200 (Mon, 28 Oct 2019) $
#$Revision: 219660 $
#$URL: file:///home/coder/svn-repositories/cod/cif/4/51/44/4514471.cif $
#------------------------------------------------------------------------------
#
# This file is available in the Crystallography Open Database (COD),
# http://www.crystallography.net/
#
# All data on this site have been placed in the public domain by the
# contributors.
#
data_4514471
loop_
_publ_author_name
'Mi, Xiuna'
'Sheng, Dafei'
'Yu, Yu'e'
'Wang, Yuhao'
'Zhao, Limin'
'Lu, Jing'
'Li, Yunwu'
'Li, Dacheng'
'Dou, Jianmin'
'Duan, Jingui'
'Wang, Suna'
_publ_section_title
;
 Tunable Light Emission and Multiresponsive Luminescent Sensitivities in
 Aqueous Solutions of Two Series of Lanthanide Metal-Organic Frameworks
 Based on Structurally Related Ligands.
;
_journal_issue                   8
_journal_name_full               'ACS applied materials &amp; interfaces'
_journal_page_first              7914
_journal_page_last               7926
_journal_paper_doi               10.1021/acsami.8b18320
_journal_volume                  11
_journal_year                    2019
_chemical_formula_sum            'C19 H18 N O9 Tb'
_chemical_formula_weight         563.26
_space_group_crystal_system      monoclinic
_space_group_IT_number           15
_space_group_name_Hall           '-C 2yc'
_space_group_name_H-M_alt        'C 1 2/c 1'
_symmetry_space_group_name_Hall  '-C 2yc'
_symmetry_space_group_name_H-M   'C 1 2/c 1'
_atom_sites_solution_hydrogens   mixed
_audit_creation_method           SHELXL-2014/7
_cell_angle_alpha                90
_cell_angle_beta                 125.108(2)
_cell_angle_gamma                90
_cell_formula_units_Z            8
_cell_length_a                   24.491(4)
_cell_length_b                   13.587(2)
_cell_length_c                   14.903(3)
_cell_measurement_reflns_used    5961
_cell_measurement_temperature    298(2)
_cell_measurement_theta_max      28.324
_cell_measurement_theta_min      2.7335
_cell_volume                     4056.9(12)
_computing_cell_refinement       'Bruker SMART'
_computing_data_collection       'Bruker SMART'
_computing_data_reduction        'Bruker SAINT'
_computing_molecular_graphics    'Bruker SHELXTL'
_computing_publication_material  'Bruker SHELXTL'
_computing_structure_refinement  'SHELXL-2014/7 (Sheldrick, 2014)'
_computing_structure_solution    'Bruker SHELXTL'
_diffrn_ambient_temperature      298(2)
_diffrn_measured_fraction_theta_full 0.998
_diffrn_measured_fraction_theta_max 0.998
_diffrn_measurement_device_type  'CCD area detector'
_diffrn_measurement_method       'phi and omega scans'
_diffrn_radiation_type           MoK\a
_diffrn_radiation_wavelength     0.71073
_diffrn_reflns_av_R_equivalents  0.0262
_diffrn_reflns_av_unetI/netI     0.0313
_diffrn_reflns_Laue_measured_fraction_full 0.998
_diffrn_reflns_Laue_measured_fraction_max 0.998
_diffrn_reflns_limit_h_max       29
_diffrn_reflns_limit_h_min       -29
_diffrn_reflns_limit_k_max       15
_diffrn_reflns_limit_k_min       -16
_diffrn_reflns_limit_l_max       13
_diffrn_reflns_limit_l_min       -17
_diffrn_reflns_number            9953
_diffrn_reflns_point_group_measured_fraction_full 0.998
_diffrn_reflns_point_group_measured_fraction_max 0.998
_diffrn_reflns_theta_full        25.020
_diffrn_reflns_theta_max         25.020
_diffrn_reflns_theta_min         2.736
_exptl_absorpt_coefficient_mu    3.538
_exptl_absorpt_correction_T_max  1.0
_exptl_absorpt_correction_T_min  0.95
_exptl_absorpt_correction_type   multi-scan
_exptl_absorpt_process_details   sadabs
_exptl_crystal_colour            colorless
_exptl_crystal_density_diffrn    1.844
_exptl_crystal_description       'needle crystal'
_exptl_crystal_F_000             2208
_exptl_crystal_size_max          0.250
_exptl_crystal_size_mid          0.200
_exptl_crystal_size_min          0.150
_refine_diff_density_max         1.567
_refine_diff_density_min         -1.570
_refine_diff_density_rms         0.159
_refine_ls_extinction_method     none
_refine_ls_goodness_of_fit_ref   1.083
_refine_ls_hydrogen_treatment    constr
_refine_ls_matrix_type           full
_refine_ls_number_parameters     288
_refine_ls_number_reflns         3578
_refine_ls_number_restraints     93
_refine_ls_restrained_S_all      1.187
_refine_ls_R_factor_all          0.0476
_refine_ls_R_factor_gt           0.0354
_refine_ls_shift/su_max          0.004
_refine_ls_shift/su_mean         0.000
_refine_ls_structure_factor_coef Fsqd
_refine_ls_weighting_details
'w=1/[\s^2^(Fo^2^)+(0.0492P)^2^+50.3729P] where P=(Fo^2^+2Fc^2^)/3'
_refine_ls_weighting_scheme      calc
_refine_ls_wR_factor_gt          0.0933
_refine_ls_wR_factor_ref         0.1021
_reflns_Friedel_coverage         0.000
_reflns_number_gt                2954
_reflns_number_total             3578
_reflns_threshold_expression     'I > 2\s(I)'
_cod_data_source_file            am8b18320_si_006.cif
_cod_data_source_block           170312f
_cod_database_code               4514471
_shelx_shelxl_version_number     2014/7
_shelx_space_group_comment
;
The symmetry employed for this shelxl refinement is uniquely defined
by the following loop, which should always be used as a source of
symmetry information in preference to the above space-group names.
They are only intended as comments.
;
_shelx_estimated_absorpt_t_min   0.472
_shelx_estimated_absorpt_t_max   0.619
_shelx_res_file
;

    170312f.res created by SHELXL-2014/7

TITL 170312f in C2/c
CELL 0.71073  24.4909  13.5871  14.9031  90.000 125.108  90.000
ZERR    8.00   0.0043   0.0024   0.0026   0.000   0.002   0.000
LATT 7
SYMM -X, Y, 0.5-Z
SFAC C  H  N  O  Tb
UNIT 152 144 8 72 8
OMIT  -1.00  50.04
L.S. 16
ACTA
BOND
FMAP 2
PLAN 20
eadp n1 n1'
eadp c17 c17'
eadp c18 c18'
eadp c19 c19'
DFIX 2.49 0.01 C18' C19'
DFIX 1.47 0.01 N1' C18' N1' C19'
DFIX 1.33 0.01 N1' C17'
DFIX 2.13 0.01 N1' O9
DFIX 2.45 0.01 C17' C18' C17' C19'
DFIX 1.24 0.01 O9 C17'
flat 0.03 n1' o9 c17' c18' c19'
DFIX 2.49 0.01 C18 C19
DFIX 1.47 0.01 N1 C18 N1 C19
DFIX 1.33 0.01 N1 C17
DFIX 2.13 0.01 N1 O9
DFIX 2.45 0.01 C17 C18 C17 C19
DFIX 1.24 0.01 O9 C17
flat 0.03 n1 o9 c17 c18 c19
dfix 2.16 0.01 h4 h19a_$1
eqiv $1 x-0.5,y+0.5,z
SIMU 0.003 0.006 3.8 tb1 o9 N1 C17 C18 C19
SIZE 0.25 0.20 0.15
FREE C19  C18
FREE C17  C18
FREE Tb1  C17
FREE Tb1  C16
TEMP 25
WGHT    0.049200   50.372898
FVAR       0.19221   0.54334
O8    4    0.263018    0.370958    0.633252    11.00000    0.02303    0.04233 =
         0.02948   -0.01331    0.01286    0.00109
O6    4    0.307655    0.578672    0.949034    11.00000    0.01925    0.04856 =
         0.03957   -0.02552    0.00524    0.00278
O5    4    0.224260    0.667477    0.917181    11.00000    0.02358    0.02683 =
         0.01876   -0.00703    0.00768   -0.00013
C16   1    0.246748    0.596927    0.891528    11.00000    0.02706    0.02640 =
         0.02295   -0.00646    0.01694   -0.00159
O2    4   -0.103077    0.237396    0.276661    11.00000    0.03879    0.07022 =
         0.01874   -0.00897    0.00466    0.00751
TB1   5    0.161961    0.193167    0.401667    11.00000    0.01760    0.02115 =
         0.01196   -0.00108    0.00638    0.00016
O4    4    0.162040    0.302196    0.523502    11.00000    0.02956    0.04073 =
         0.03421   -0.02024    0.01959   -0.00721
C15   1    0.203265    0.358925    0.599932    11.00000    0.02766    0.02794 =
         0.02036   -0.00503    0.01392    0.00145
O3    4   -0.017465    0.397264    0.541968    11.00000    0.02745    0.06853 =
         0.03470   -0.02580    0.01854   -0.01902
C10   1    0.112655    0.410470    0.621161    11.00000    0.02342    0.02973 =
         0.01785   -0.00965    0.00910   -0.00386
AFIX  43
H10   2    0.083676    0.369356    0.562604    11.00000   -1.20000
AFIX   0
C13   1    0.222848    0.476896    0.745994    11.00000    0.01871    0.02719 =
         0.02304   -0.00491    0.00802    0.00179
AFIX  43
H13   2    0.267637    0.479478    0.772105    11.00000   -1.20000
AFIX   0
C14   1    0.178575    0.416724    0.656913    11.00000    0.02394    0.02101 =
         0.01916   -0.00471    0.01131    0.00327
C9    1    0.088932    0.464279    0.670895    11.00000    0.02325    0.03083 =
         0.01945   -0.00240    0.00954   -0.00073
C2    1   -0.105939    0.290931    0.424537    11.00000    0.02806    0.04115 =
         0.02420   -0.00263    0.00891   -0.00410
C12   1    0.199487    0.532799    0.795239    11.00000    0.02362    0.02323 =
         0.01731   -0.00616    0.00876   -0.00394
O7    4    0.053904    0.175871    0.363621    11.00000    0.02825    0.17741 =
         0.06574   -0.06997    0.01355   -0.00984
AFIX   3
H7B   2    0.045144    0.114900    0.360271    11.00000   -1.50000
H7C   2    0.053524    0.202420    0.414901    11.00000   -1.50000
AFIX   0
C7    1   -0.079026    0.361180    0.506659    11.00000    0.02750    0.05563 =
         0.02190   -0.00083    0.01045   -0.00257
C1    1   -0.070145    0.253657    0.375967    11.00000    0.03630    0.03966 =
         0.02598   -0.00871    0.01260   -0.00015
C8    1    0.017728    0.457966    0.635415    11.00000    0.02366    0.04808 =
         0.02820   -0.01221    0.01414   -0.00671
AFIX  23
H8A   2    0.016102    0.430383    0.693871    11.00000   -1.20000
H8B   2   -0.002123    0.523057    0.618215    11.00000   -1.20000
AFIX   0
O9    4    0.115732    0.038239    0.316693    11.00000    0.05011    0.04535 =
         0.04431   -0.00857    0.00919   -0.00634
C3    1   -0.168814    0.253911    0.384880    11.00000    0.05196    0.06724 =
         0.04181   -0.01487    0.02395   -0.02437
AFIX  43
H3    2   -0.187407    0.206529    0.329847    11.00000   -1.20000
AFIX   0
C11   1    0.132796    0.527436    0.757589    11.00000    0.02530    0.02462 =
         0.02342   -0.00572    0.01477    0.00059
AFIX  43
H11   2    0.117248    0.565919    0.790079    11.00000   -1.20000
AFIX   0
C6    1   -0.114690    0.395599    0.546753    11.00000    0.03776    0.06579 =
         0.04287   -0.01657    0.02652   -0.01269
AFIX  43
H6    2   -0.096529    0.443825    0.600862    11.00000   -1.20000
AFIX   0
O1    4   -0.008898    0.241362    0.438569    11.00000    0.03364    0.18555 =
         0.05234   -0.05846    0.00417    0.01918
C5    1   -0.177418    0.357501    0.505477    11.00000    0.04076    0.10625 =
         0.06204   -0.02128    0.03323   -0.02107
AFIX  43
H5    2   -0.201483    0.380277    0.531889    11.00000   -1.20000
AFIX   0
C4    1   -0.204410    0.285540    0.424934    11.00000    0.04236    0.13533 =
         0.06172   -0.02709    0.03459   -0.04244
AFIX  43
H4    2   -0.246109    0.258874    0.398194    11.00000   -1.20000
PART 1
AFIX   0
N1    3    0.105337   -0.087027    0.217186    21.00000    0.05602    0.04994 =
         0.05076   -0.00846    0.00760   -0.00623
C17   1    0.128410   -0.047825    0.314418    21.00000    0.04916    0.04417 =
         0.04084   -0.00634    0.00397   -0.00382
AFIX  43
H17   2    0.153340   -0.084810    0.378401    21.00000   -1.20000
AFIX   0
C19   1    0.121266   -0.189574    0.208520    21.00000    0.06338    0.06099 =
         0.06167   -0.01149   -0.00691    0.00052
AFIX 137
H19A  2    0.148025   -0.218377    0.280348    21.00000   -1.50000
H19B  2    0.145509   -0.190815    0.175880    21.00000   -1.50000
H19C  2    0.080651   -0.226386    0.163682    21.00000   -1.50000
AFIX   0
C18   1    0.066544   -0.031956    0.114380    21.00000    0.06859    0.06407 =
         0.06270   -0.00879   -0.00103   -0.00418
AFIX 137
H18A  2    0.023243   -0.017366    0.097618    21.00000   -1.50000
H18B  2    0.061703   -0.070667    0.056312    21.00000   -1.50000
H18C  2    0.089202    0.028344    0.121675    21.00000   -1.50000
PART 2
AFIX   0
C17'  1    0.118185   -0.022417    0.259918   -21.00000    0.04916    0.04417 =
         0.04084   -0.00634    0.00397   -0.00382
AFIX  43
H17'  2    0.139841   -0.009774    0.226407   -21.00000   -1.20000
AFIX   0
N1'   3    0.088543   -0.107875    0.247628   -21.00000    0.05602    0.04994 =
         0.05076   -0.00846    0.00760   -0.00623
C18'  1    0.053675   -0.130128    0.298670   -21.00000    0.06859    0.06407 =
         0.06270   -0.00879   -0.00103   -0.00418
AFIX 137
H18D  2    0.080106   -0.108060    0.373471   -21.00000   -1.50000
H18E  2    0.046732   -0.199857    0.296675   -21.00000   -1.50000
H18F  2    0.011339   -0.097046    0.259310   -21.00000   -1.50000
AFIX   0
C19'  1    0.087090   -0.186889    0.178490   -21.00000    0.06338    0.06099 =
         0.06167   -0.01149   -0.00691    0.00052
AFIX 137
H19D  2    0.113458   -0.167781    0.152526   -21.00000   -1.50000
H19E  2    0.041873   -0.198147    0.117074   -21.00000   -1.50000
H19F  2    0.104991   -0.246192    0.220846   -21.00000   -1.50000
PART 0
AFIX   0
HKLF 4

REM  170312f in C2/c
REM R1 =  0.0354 for    2954 Fo > 4sig(Fo)  and  0.0476 for all    3578 data
REM    288 parameters refined using     93 restraints

END

WGHT      0.0492     50.3995

REM Highest difference peak  1.567,  deepest hole -1.570,  1-sigma level  0.159
Q1    1   0.0716  0.0352 -0.0197  11.00000  0.05    1.57
Q2    1   0.0150  0.3093  0.2986  11.00000  0.05    1.50
Q3    1   0.1611  0.5810  0.9047  11.00000  0.05    1.35
Q4    1   0.1422  0.0227  0.3676  11.00000  0.05    1.32
Q5    1   0.0620  0.2642  0.3437  11.00000  0.05    0.90
Q6    1   0.0917  0.0582  0.2743  11.00000  0.05    0.79
Q7    1   0.1301  0.1982  0.3077  11.00000  0.05    0.70
Q8    1   0.0799 -0.1113  0.1880  11.00000  0.05    0.70
Q9    1   0.1347  0.2521  0.3822  11.00000  0.05    0.68
Q10   1   0.1358  0.1380  0.3879  11.00000  0.05    0.68
Q11   1   0.1092 -0.1378  0.2980  11.00000  0.05    0.66
Q12   1   0.0740 -0.1984  0.2488  11.00000  0.05    0.66
Q13   1   0.0873 -0.0292  0.3116  11.00000  0.05    0.65
Q14   1   0.0138 -0.0739  0.1347  11.00000  0.05    0.59
Q15   1   0.1991  0.1369  0.4273  11.00000  0.05    0.59
Q16   1  -0.0217  0.2976  0.3897  11.00000  0.05    0.53
Q17   1   0.2710  0.6816  0.9798  11.00000  0.05    0.51
Q18   1   0.1960  0.2474  0.4192  11.00000  0.05    0.50
Q19   1  -0.0338  0.1931  0.4293  11.00000  0.05    0.50
Q20   1   0.3236  0.6393  0.9981  11.00000  0.05    0.46
;
_shelx_res_checksum              40302
_shelx_hkl_file
;
  -4   0   0 4838.16   76.55
  -6   0   0 4386.90   76.57
  -8   0   0  127.11   11.88
 -10   0   0  326.03   19.94
 -12   0   0 4184.76   88.50
 -14   0   0  205.87   19.31
 -16   0   0 1381.57   51.61
 -18   0   0 1901.81   64.57
 -20   0   0    4.94   12.11
 -22   0   0 1279.67   57.49
 -24   0   0  410.16   34.24
 -26   0   0   28.19   17.68
 -25   1   0  134.34   26.43
 -23   1   0   11.60   14.11
 -21   1   0   22.13   14.32
 -19   1   0  185.88   26.21
 -17   1   0   12.44   11.04
 -15   1   0  235.64   21.55
 -13   1   0  109.02   16.92
 -11   1   0    2.95    7.41
  -9   1   0 1473.33   42.24
  -7   1   0  202.62   13.33
  -5   1   0  408.48   15.74
  -3   1   0  382.62   11.83
   3  -1   0  381.99   10.58
  -3  -1   0  397.15   11.97
  -5  -1   0  376.27   15.00
  -5  -1   0  354.25   10.10
  -7  -1   0  201.94   13.00
  -9  -1   0 1425.41   40.58
 -11  -1   0   -1.11    6.30
 -13  -1   0  158.83   16.66
 -15  -1   0  200.40   20.14
 -17  -1   0   32.77   13.79
 -19  -1   0  172.34   23.67
 -21  -1   0   14.95   13.99
 -23  -1   0   19.42   14.49
 -25  -1   0  122.73   24.03
 -26   2   0    1.75   16.49
 -24   2   0  284.75   30.35
 -22   2   0  680.27   42.97
 -20   2   0   36.70   15.94
 -18   2   0 1544.19   58.82
 -16   2   0 1311.65   51.24
 -14   2   0    6.28   10.31
 -12   2   0 3238.67   76.43
 -10   2   0 2285.44   56.66
  -8   2   0  852.03   28.72
  -6   2   0 4355.92   74.63
  -4   2   0 1390.01   29.62
   4  -2   0 1352.62   28.20
   2  -2   0  640.44   15.79
  -2   2   0  674.63   16.59
   0  -2   0 4861.47   71.79
   0  -2   0 5011.96   72.53
  -2  -2   0  660.15   15.85
  -2  -2   0  655.39   15.02
  -4  -2   0 1332.58   28.58
  -4  -2   0 1360.58   24.96
  -6  -2   0 4439.91   67.10
  -6  -2   0 4477.05   75.79
  -8  -2   0  908.47   21.75
  -8  -2   0  886.28   28.82
 -10  -2   0 2268.41   42.96
 -10  -2   0 2179.33   54.38
 -12  -2   0 3075.16   72.21
 -12  -2   0 3090.52   56.93
 -14  -2   0    9.80    5.47
 -14  -2   0    2.62    7.93
 -16  -2   0 1271.96   49.04
 -18  -2   0 1529.16   57.06
 -20  -2   0   40.61   14.71
 -22  -2   0  644.96   40.69
 -24  -2   0  312.88   30.55
 -26  -2   0    1.56   14.94
 -25   3   0  493.93   40.73
 -23   3   0   17.30   15.97
 -21   3   0  344.85   30.84
 -19   3   0  813.13   44.32
 -17   3   0   -2.85   11.48
 -15   3   0 1503.69   54.63
 -13   3   0 1568.25   51.45
 -11   3   0    2.69    6.98
  -9   3   0 3509.32   72.16
  -7   3   0 2023.65   46.42
   7  -3   0 2073.70   43.74
   5  -3   0  537.30   18.26
  -5   3   0  591.81   19.81
   3  -3   0 2605.24   47.18
  -3   3   0 2691.88   48.29
   1  -3   0 1674.31   32.50
   1  -3   0 1652.05   32.40
  -1  -3   0 1693.15   33.02
  -1  -3   0 1725.97   32.48
  -3  -3   0 2646.99   46.98
  -3  -3   0 2631.98   45.27
  -5  -3   0  549.35   16.15
  -5  -3   0  531.05   18.31
  -7  -3   0 2182.47   40.08
  -7  -3   0 2152.34   47.21
  -9  -3   0 3722.20   62.03
  -9  -3   0 3627.57   73.33
 -11  -3   0    9.05    5.25
 -11  -3   0    2.52    7.39
 -13  -3   0 1496.07   48.72
 -13  -3   0 1511.26   36.45
 -15  -3   0 1576.39   53.97
 -17  -3   0   -5.00    9.45
 -19  -3   0  838.19   43.71
 -21  -3   0  361.11   30.67
 -23  -3   0   -5.36   12.33
 -25  -3   0  460.04   38.47
 -24   4   0   15.38   16.70
 -22   4   0    1.07   15.23
 -20   4   0  -16.68   11.74
 -18   4   0   61.47   18.50
 -16   4   0   81.96   18.38
 -14   4   0   57.58   14.63
 -12   4   0   42.71   11.83
 -10   4   0   -2.04    6.57
   8  -4   0    7.15    4.80
  -8   4   0    1.57    5.49
  -6   4   0  391.72   18.08
   6  -4   0  386.16   17.22
  -4   4   0  775.01   23.94
   4  -4   0  785.33   23.73
   2  -4   0  171.84   10.06
   2  -4   0  182.10   10.27
   0  -4   0  222.64   10.87
   0  -4   0  208.43   10.84
  -2  -4   0  182.08   10.24
  -2  -4   0  189.39   10.09
  -4  -4   0  768.39   21.61
  -4  -4   0  799.04   23.43
  -6  -4   0  388.72   15.52
  -6  -4   0  355.04   16.65
  -8  -4   0    0.91    5.57
  -8  -4   0    8.84    5.37
 -10  -4   0   -2.70    4.18
 -10  -4   0    2.02    5.86
 -12  -4   0   21.79    7.23
 -12  -4   0   31.02    9.92
 -14  -4   0   25.59   10.66
 -16  -4   0   83.67   16.98
 -18  -4   0   67.87   16.90
 -20  -4   0   -1.39   10.88
 -22  -4   0    2.51   13.96
 -24  -4   0   25.09   16.69
 -25   5   0  623.48   46.66
 -23   5   0   29.66   19.41
 -21   5   0  930.28   52.55
 -19   5   0 1157.01   55.71
 -17   5   0   14.55   13.34
 -15   5   0 1754.39   60.60
 -13   5   0 1025.47   42.42
 -11   5   0  179.70   17.07
  -9   5   0 3977.81   81.83
   9  -5   0 3874.19   77.68
   7  -5   0 3604.16   71.06
  -7   5   0 3585.29   72.68
   5  -5   0  155.20   11.54
  -5   5   0  147.56   11.65
   3  -5   0 3074.68   59.06
   3  -5   0 3023.27   58.13
   1  -5   0 2612.25   52.28
   1  -5   0 2756.28   52.94
  -1  -5   0 2587.97   50.58
  -1  -5   0 2606.22   51.19
  -3  -5   0 3207.61   60.16
  -3  -5   0 3197.86   58.78
  -5  -5   0  136.09   10.75
  -5  -5   0  143.43   10.29
  -7  -5   0 3334.15   62.42
  -7  -5   0 3426.52   67.49
  -9  -5   0 3823.98   77.97
  -9  -5   0 3885.23   71.00
 -11  -5   0  186.18   13.77
 -11  -5   0  173.87   15.84
 -13  -5   0 1062.97   41.24
 -15  -5   0 1656.59   56.18
 -17  -5   0   29.82   13.81
 -19  -5   0 1049.71   49.53
 -21  -5   0  833.21   46.33
 -23  -5   0    1.76   13.31
 -25  -5   0  538.21   41.48
 -24   6   0  160.91   32.64
 -22   6   0   89.88   25.64
 -20   6   0   -1.21   16.24
 -18   6   0  458.05   35.39
 -16   6   0  814.15   42.95
 -14   6   0  112.39   20.51
 -12   6   0  369.77   25.19
 -10   6   0 1288.84   43.96
  10  -6   0 1236.54   40.61
  -8   6   0  169.32   15.20
   8  -6   0  127.52   12.85
   6  -6   0  883.19   30.71
  -6   6   0  891.47   31.27
  -4   6   0  241.85   14.94
   4  -6   0  238.83   14.96
   2  -6   0  826.97   27.68
   2  -6   0  883.83   27.99
   0  -6   0  618.46   22.90
   0  -6   0  655.19   23.46
  -2  -6   0  874.73   27.40
  -2  -6   0  936.68   28.58
  -4  -6   0  284.47   15.73
  -4  -6   0  243.55   14.19
  -6  -6   0  861.05   29.78
  -6  -6   0  867.83   27.73
  -8  -6   0  118.14   11.54
  -8  -6   0  160.17   13.75
 -10  -6   0 1201.33   40.20
 -10  -6   0 1213.36   34.99
 -12  -6   0  329.97   23.09
 -14  -6   0   95.93   17.10
 -16  -6   0  735.03   38.60
 -18  -6   0  408.55   31.28
 -20  -6   0  -11.30   12.15
 -22  -6   0   98.64   23.18
 -24  -6   0  168.86   29.07
 -23   7   0  -19.28   18.31
 -21   7   0  242.90   35.19
 -19   7   0  317.81   32.94
 -17   7   0   15.84   15.94
 -15   7   0  243.99   24.75
 -13   7   0  543.96   32.48
 -11   7   0   74.04   15.28
  11  -7   0   78.51   13.87
   9  -7   0  836.86   33.91
  -9   7   0  848.53   35.08
   7  -7   0  208.00   16.41
  -7   7   0  198.16   16.55
   5  -7   0  330.49   19.39
  -5   7   0  334.88   19.41
   3  -7   0 1775.88   45.63
   3  -7   0 1762.22   46.12
   1  -7   0  564.15   23.68
   1  -7   0  540.65   22.94
  -1  -7   0  509.78   22.12
  -1  -7   0  525.44   22.45
  -3  -7   0 1872.19   45.51
  -3  -7   0 1720.41   44.58
  -5  -7   0  337.22   18.73
  -5  -7   0  324.46   17.76
  -7  -7   0  225.39   15.05
  -7  -7   0  208.67   15.75
  -9  -7   0  820.49   32.80
  -9  -7   0  776.12   28.64
 -11  -7   0   56.02   10.90
 -11  -7   0   59.70   12.85
 -13  -7   0  490.31   29.13
 -15  -7   0  263.06   23.35
 -17  -7   0   16.28   12.88
 -19  -7   0  303.50   28.73
 -21  -7   0  212.81   29.68
 -23  -7   0  -30.37   13.75
 -22   8   0  701.40   51.59
 -20   8   0  -11.24   16.86
 -18   8   0 1016.25   54.36
 -16   8   0 1259.81   55.88
 -14   8   0   58.86   17.05
 -12   8   0 1425.03   53.19
  10  -8   0 1362.13   47.10
 -10   8   0 1428.28   49.75
  -8   8   0  330.73   22.53
   8  -8   0  321.59   21.70
  -6   8   0 4102.15   85.38
   6  -8   0 4051.15   86.12
   4  -8   0 1697.07   48.44
   4  -8   0 1722.49   47.23
   2  -8   0  772.30   30.50
   2  -8   0  827.12   30.64
   0  -8   0 3144.04   67.56
   0  -8   0 3176.49   69.14
  -2  -8   0  809.27   30.14
  -2  -8   0  844.71   30.87
  -4  -8   0 1689.51   45.63
  -4  -8   0 1633.59   45.75
  -6  -8   0 4003.89   82.81
  -6  -8   0 4090.06   80.96
  -8  -8   0  353.16   21.69
  -8  -8   0  317.11   19.18
 -10  -8   0 1373.21   46.24
 -10  -8   0 1327.60   40.58
 -12  -8   0 1414.24   49.97
 -14  -8   0   62.16   15.10
 -16  -8   0 1259.53   52.69
 -18  -8   0  960.45   48.83
 -20  -8   0  -13.42   12.03
 -22  -8   0  642.98   45.06
 -23   9   0  -16.15   19.39
 -21   9   0   12.67   19.29
 -19   9   0   24.07   18.39
 -17   9   0   11.51   15.06
 -15   9   0  -16.42   11.10
 -13   9   0   -0.70   10.83
 -11   9   0   -5.09    9.69
  11  -9   0    0.27    8.67
   9  -9   0    7.64    9.01
  -9   9   0   13.24   10.92
  -7   9   0   35.13   11.07
   7  -9   0   41.04   11.50
  -5   9   0   -6.44    5.93
   5  -9   0   -7.48    6.14
   3  -9   0   20.13    8.52
   3  -9   0   22.39    8.52
   1  -9   0   23.07    9.22
   1  -9   0   31.40    9.04
  -1  -9   0   18.16    8.59
  -1  -9   0   28.32    8.57
  -3  -9   0   28.92    9.06
  -3  -9   0   34.85    9.34
  -5  -9   0   -1.48    6.43
  -5  -9   0    4.76    6.87
  -7  -9   0   34.44   10.43
  -7  -9   0   68.21   12.83
  -9  -9   0   27.93   10.65
  -9  -9   0   16.99    8.60
 -11  -9   0    7.32    9.18
 -13  -9   0   -2.39    9.63
 -15  -9   0   -4.07   10.84
 -17  -9   0   -6.95   11.88
 -19  -9   0    8.60   13.60
 -21  -9   0   -5.35   14.33
 -23  -9   0  -14.21   15.05
 -22  10   0  663.89   52.12
 -20  10   0  -20.02   18.10
 -18  10   0  725.49   47.40
 -16  10   0  732.44   44.70
 -14  10   0   78.41   19.74
 -12  10   0 1269.81   52.75
  12 -10   0 1245.68   51.04
  10 -10   0 1032.39   44.88
 -10  10   0 1076.99   45.83
   8 -10   0   31.95   12.01
  -8  10   0   14.12   10.03
  -6  10   0 2283.97   62.93
   6 -10   0 2292.50   65.70
   4 -10   0  871.25   35.44
   4 -10   0  803.75   36.17
   2 -10   0  486.45   26.16
   2 -10   0  537.27   28.48
   0 -10   0 2099.05   58.80
   0 -10   0 2025.88   55.94
  -2 -10   0  554.92   27.57
  -2 -10   0  538.53   28.04
  -4 -10   0  868.23   35.31
  -4 -10   0  822.12   34.62
  -6 -10   0 2220.55   61.36
  -6 -10   0 2309.10   61.13
  -8 -10   0   15.49   10.15
  -8 -10   0   31.35   11.38
 -10 -10   0  951.74   40.85
 -12 -10   0 1252.62   49.46
 -14 -10   0  114.74   21.83
 -16 -10   0  730.12   42.28
 -18 -10   0  772.13   45.79
 -20 -10   0   -5.65   13.44
 -22 -10   0  557.44   43.72
 -21  11   0  177.51   34.77
 -19  11   0  238.43   36.12
 -17  11   0   23.23   17.96
 -15  11   0  222.04   31.55
 -13  11   0  398.55   32.27
 -11  11   0  124.48   20.75
  11 -11   0  111.11   20.16
   9 -11   0 1157.53   49.23
  -9  11   0 1137.50   47.41
   7 -11   0  244.92   22.83
  -7  11   0  184.41   19.56
  -5  11   0  215.06   20.25
   5 -11   0  188.58   19.47
   3 -11   0  989.60   39.68
   3 -11   0 1005.65   42.28
   1 -11   0  316.87   22.28
   1 -11   0  331.95   23.95
  -1 -11   0  330.60   23.66
  -1 -11   0  311.57   22.41
  -3 -11   0  967.82   39.04
  -3 -11   0  945.13   39.73
  -5 -11   0  224.10   20.21
  -5 -11   0  199.30   18.86
  -7 -11   0  169.70   18.48
  -7 -11   0  202.83   19.33
  -9 -11   0 1039.31   43.95
 -11 -11   0  137.18   21.15
 -13 -11   0  340.87   27.58
 -15 -11   0  227.65   24.50
 -17 -11   0   61.39   20.14
 -19 -11   0  300.13   35.87
 -21 -11   0  159.94   31.70
 -18  12   0   69.72   25.18
 -16  12   0  147.82   27.95
 -14  12   0   -8.09   12.37
  12 -12   0  159.73   24.81
 -12  12   0  157.38   23.65
 -10  12   0   54.76   16.36
  10 -12   0   78.35   18.60
   8 -12   0   -8.67    9.35
  -8  12   0    1.89    9.41
  -6  12   0  206.84   21.35
   6 -12   0  231.95   22.90
   4 -12   0  159.42   17.89
   4 -12   0  186.21   20.79
   2 -12   0    7.80   10.75
   2 -12   0   24.89   10.67
   0 -12   0  414.43   28.06
   0 -12   0  396.31   26.10
  -2 -12   0   19.01   10.15
  -2 -12   0   20.63   11.73
  -4 -12   0  166.22   20.48
  -4 -12   0  173.75   23.06
  -6 -12   0  215.39   21.16
  -6 -12   0  228.10   21.60
  -8 -12   0  -11.94    7.36
 -10 -12   0   67.76   15.88
 -12 -12   0  143.65   21.89
 -14 -12   0  -10.19   11.31
 -16 -12   0  168.79   26.61
 -18 -12   0   44.33   20.17
 -20 -12   0   -1.23   16.69
 -17  13   0    6.71   18.02
 -15  13   0  695.74   45.68
 -13  13   0  596.07   40.47
 -11  13   0    0.39   12.26
  11 -13   0    0.09   12.62
  -9  13   0 1184.89   51.02
   9 -13   0 1202.47   55.00
   7 -13   0  513.32   35.41
  -7  13   0  479.72   31.11
  -5  13   0  140.77   20.14
   5 -13   0  119.65   20.67
   3 -13   0 1562.77   59.81
   3 -13   0 1517.90   54.30
   1 -13   0  346.04   25.55
   1 -13   0  323.59   27.11
  -1 -13   0  313.77   24.27
  -1 -13   0  327.99   27.34
  -3 -13   0 1543.47   57.24
  -3 -13   0 1539.55   53.98
  -5 -13   0  112.10   19.08
  -5 -13   0  159.74   21.42
  -7 -13   0  503.54   31.70
  -9 -13   0 1133.26   49.04
 -11 -13   0    3.28   12.15
 -13 -13   0  539.36   36.88
 -15 -13   0  783.44   45.92
 -17 -13   0   -2.81   14.97
 -16  14   0   53.11   22.88
 -14  14   0  -12.81   14.92
  12 -14   0   63.61   20.29
 -12  14   0   26.89   15.61
 -10  14   0   39.13   15.57
  10 -14   0   38.36   16.82
   8 -14   0   -6.59   11.78
  -8  14   0  -10.49    9.51
  -6  14   0   28.64   12.58
   6 -14   0   35.57   16.32
   4 -14   0   24.16   14.47
   2 -14   0   11.73   11.05
   2 -14   0    1.79   11.85
   0 -14   0  290.74   24.83
   0 -14   0  287.37   26.91
  -2 -14   0   -4.04    9.40
  -2 -14   0    5.85   11.31
  -4 -14   0   24.45   13.48
  -4 -14   0   40.81   14.22
  -6 -14   0   58.59   16.15
  -8 -14   0    4.76   10.33
 -10 -14   0   32.99   15.42
 -12 -14   0   54.76   17.33
 -14 -14   0  -17.20   13.34
 -16 -14   0   28.69   18.01
 -13  15   0  310.89   31.66
  11 -15   0  -16.52   13.16
 -11  15   0   -4.58   13.72
   9 -15   0  319.57   32.98
  -9  15   0  292.71   28.13
  -7  15   0  203.02   23.00
   7 -15   0  157.81   26.96
   5 -15   0  162.15   26.68
  -5  15   0  124.24   21.71
   3 -15   0  701.57   39.06
   3 -15   0  646.02   42.24
   1 -15   0  208.62   29.45
   1 -15   0  213.57   23.35
  -1 -15   0  228.25   31.18
  -1 -15   0  199.21   24.50
  -3 -15   0  702.94   42.20
  -3 -15   0  649.51   37.82
  -5 -15   0  159.95   23.20
  -7 -15   0  171.76   24.10
  -9 -15   0  305.64   28.40
 -11 -15   0   -4.62   13.74
 -13 -15   0  244.59   30.98
 -12  16   0  451.43   37.07
 -10  16   0  275.68   30.06
  10 -16   0  305.53   33.73
  -8  16   0   47.28   17.77
   8 -16   0   35.77   19.63
   6 -16   0  597.30   43.61
  -6  16   0  561.68   38.28
  -4  16   0  155.57   24.94
   4 -16   0  199.37   30.46
   2 -16   0   81.73   19.65
   2 -16   0  110.99   24.84
   0 -16   0  327.45   27.98
   0 -16   0  277.91   29.54
  -2 -16   0   63.28   21.26
  -2 -16   0   48.98   17.26
  -4 -16   0  168.16   25.15
  -6 -16   0  624.75   39.23
  -8 -16   0   94.46   20.76
 -10 -16   0  343.99   32.44
 -12 -16   0  468.34   37.34
  -9  17   0   25.70   18.60
   7 -17   0   24.56   19.09
  -7  17   0   19.96   17.56
   5 -17   0  -16.08   15.76
  -5  17   0   13.06   14.85
   3 -17   0   -3.23   16.73
   1 -17   0   -5.74   14.70
   1 -17   0   -7.13   12.00
  -1 -17   0    1.31   13.67
  -1 -17   0   -7.46   15.15
  -3 -17   0    5.20   14.76
  -5 -17   0   10.75   14.47
  -7 -17   0   -5.12   14.21
  -9 -17   0   36.28   18.30
   2 -18   0  181.75   33.31
   0 -18   0  905.97   49.57
   0 -18   0  865.59   54.65
  -2 -18   0  164.74   27.64
  -2 -18   1    1.22   15.29
   0 -18   1  -14.33   13.55
   0 -18   1  -23.05   16.44
  -9 -17   1   70.91   22.61
  -7 -17   1  694.69   43.42
  -5 -17   1  335.04   31.48
  -3 -17   1  119.22   23.02
  -1 -17   1  620.05   40.69
  -1 -17   1  713.52   48.51
   1 -17   1   90.55   21.42
   1 -17   1   50.70   22.17
  -3  17  -1  188.42   29.92
   3 -17   1  192.99   31.57
   5 -17   1  622.77   47.29
  -5  17  -1  593.42   42.24
  -7  17  -1   15.23   15.43
   7 -17   1   20.57   19.55
 -12 -16   1  -11.32   14.51
 -10 -16   1  154.88   26.79
  -8 -16   1   22.97   16.04
  -6 -16   1   66.11   17.71
  -4 -16   1  125.82   22.38
  -2 -16   1   10.32   15.49
  -2 -16   1    6.37   13.24
   0 -16   1  101.80   23.95
   0 -16   1  105.37   20.80
   2 -16   1  347.66   33.25
   2 -16   1  383.32   30.99
  -4  16  -1   31.62   16.96
   4 -16   1   27.23   17.44
  -6  16  -1   89.01   21.96
   6 -16   1   88.43   24.83
   8 -16   1  146.25   29.85
  -8  16  -1  125.20   25.68
 -10  16  -1   -0.58   15.09
 -15 -15   1   -4.24   15.07
 -13 -15   1  218.55   31.05
 -11 -15   1  106.00   21.97
  -9 -15   1   19.77   14.44
  -7 -15   1  217.60   26.97
  -5 -15   1   60.71   16.66
  -3 -15   1  118.69   23.32
  -3 -15   1  128.42   22.03
  -1 -15   1  303.53   28.91
  -1 -15   1  357.61   28.87
   1 -15   1    7.55   12.67
   1 -15   1   -2.67   13.56
   3 -15   1  224.60   30.27
   5 -15   1  328.16   31.65
  -5  15  -1  348.44   29.71
  -7  15  -1    9.59   13.68
   7 -15   1    8.89   14.11
  -9  15  -1  194.47   28.41
   9 -15   1  213.36   31.49
 -11  15  -1  263.60   29.81
 -13  15  -1   -6.67   14.60
 -16 -14   1  660.21   44.58
 -14 -14   1  497.72   37.06
 -12 -14   1   46.37   17.94
 -10 -14   1  773.91   42.53
  -8 -14   1  228.84   24.23
  -6 -14   1  181.50   24.56
  -4 -14   1 1012.46   47.24
  -4 -14   1  975.16   44.99
  -2 -14   1  235.42   23.53
  -2 -14   1  246.76   24.73
   0 -14   1  441.49   30.54
   0 -14   1  430.33   32.62
   2 -14   1 1232.09   54.85
   2 -14   1 1224.05   51.05
  -4  14  -1  121.27   20.47
   4 -14   1  131.60   23.88
  -6  14  -1  485.34   33.29
   6 -14   1  527.31   38.06
  -8  14  -1  513.23   35.46
   8 -14   1  511.03   37.51
 -10  14  -1   -6.93   11.30
 -12  14  -1  585.85   41.30
 -14  14  -1  531.65   41.46
 -19 -13   1  -13.04   13.92
 -17 -13   1  -11.71   13.58
 -15 -13   1    7.72   15.01
 -13 -13   1  -11.41   11.07
 -11 -13   1  -12.47   10.11
  -9 -13   1   -2.55   11.14
  -7 -13   1   42.90   14.83
  -5 -13   1   12.36   11.08
  -5 -13   1   -9.15    9.45
  -3 -13   1  -11.92    9.33
  -3 -13   1    0.01    9.69
  -1 -13   1    3.99   11.45
  -1 -13   1   -7.50    9.08
   1 -13   1    1.76   10.23
   1 -13   1  -10.48    8.92
   3 -13   1  -14.28    9.47
   3 -13   1   17.00   11.43
   5 -13   1   -3.24    9.64
  -5  13  -1   14.35   11.92
   7 -13   1   23.92   14.98
  -7  13  -1   18.80   11.93
  -9  13  -1  -14.75   10.37
   9 -13   1   -6.00   11.35
 -11  13  -1   -9.49   11.13
 -13  13  -1   -6.52   13.23
 -15  13  -1   32.40   20.68
 -17  13  -1  -13.47   17.29
 -20 -12   1  331.07   33.72
 -18 -12   1   10.20   14.36
 -16 -12   1  675.55   42.31
 -14 -12   1  458.95   33.18
 -12 -12   1  128.58   21.11
 -10 -12   1  901.96   43.31
  -8 -12   1  454.35   30.02
  -6 -12   1  222.62   21.58
  -6 -12   1  301.49   23.27
  -4 -12   1 1330.14   49.24
  -4 -12   1 1342.80   49.14
  -2 -12   1  258.01   22.56
  -2 -12   1  301.30   23.27
   0 -12   1  349.05   25.54
   0 -12   1  320.88   25.38
   2 -12   1 1176.25   46.34
   2 -12   1 1202.91   48.92
   4 -12   1  106.93   19.75
  -6  12  -1  752.36   38.20
   6 -12   1  734.15   39.96
   8 -12   1 1302.16   54.33
  -8  12  -1 1179.12   50.12
 -10  12  -1   -9.35   11.82
 -12  12  -1  576.95   38.34
 -14  12  -1  478.97   37.73
 -16  12  -1   17.30   15.93
 -18  12  -1  621.59   48.38
 -21 -11   1  -17.78   15.76
 -19 -11   1  288.86   34.74
 -17 -11   1  274.38   28.01
 -15 -11   1  -15.53   10.43
 -13 -11   1  469.28   31.72
 -11 -11   1  823.83   40.37
  -9 -11   1   82.30   16.27
  -7 -11   1 1336.88   45.61
  -7 -11   1 1245.00   46.88
  -5 -11   1  238.90   20.23
  -5 -11   1  265.84   21.61
  -3 -11   1  337.28   23.13
  -3 -11   1  338.68   23.38
  -1 -11   1  863.95   37.01
  -1 -11   1  857.14   37.58
   1 -11   1  237.86   20.51
   1 -11   1  228.32   19.71
   3 -11   1  671.31   33.13
   3 -11   1  619.35   33.38
  -5  11  -1 1231.75   46.97
   5 -11   1 1294.29   50.25
   7 -11   1    2.62    9.65
  -7  11  -1    1.75    9.40
   9 -11   1  561.87   34.97
  -9  11  -1  622.30   36.07
 -11  11  -1  896.29   44.84
 -13  11  -1   45.48   17.94
 -15  11  -1  282.84   30.82
 -17  11  -1  269.57   35.93
 -19  11  -1   -9.63   19.81
 -22 -10   1   88.68   23.10
 -20 -10   1  124.33   24.79
 -18 -10   1   -3.17   12.63
 -16 -10   1   13.51   13.03
 -14 -10   1   57.31   15.92
 -12 -10   1   37.02   14.00
 -10 -10   1  420.12   27.27
  -8 -10   1   88.22   14.11
  -8 -10   1   85.29   15.43
  -6 -10   1  301.95   20.60
  -6 -10   1  259.34   20.66
  -4 -10   1  736.96   32.72
  -4 -10   1  695.81   30.80
  -2 -10   1   97.91   14.93
  -2 -10   1  114.81   16.24
   0 -10   1   50.76   11.92
   0 -10   1   79.44   13.69
   2 -10   1  228.76   19.18
   2 -10   1  224.93   18.86
   4 -10   1    2.56    7.65
  -6  10  -1  349.49   24.66
   6 -10   1  356.00   25.73
   8 -10   1  679.65   35.51
  -8  10  -1  679.89   35.56
 -10  10  -1   -4.23    9.64
 -12  10  -1   69.92   18.51
 -14  10  -1  135.83   26.06
 -16  10  -1   -7.04   13.40
 -18  10  -1  161.16   31.46
 -20  10  -1   10.60   22.54
 -23  -9   1  477.52   40.21
 -21  -9   1   -4.30   12.32
 -19  -9   1 1159.72   55.90
 -17  -9   1 1129.90   51.99
 -15  -9   1  173.12   23.59
 -13  -9   1 2534.43   72.74
 -11  -9   1 1872.00   58.07
  -9  -9   1  453.25   26.23
  -9  -9   1  460.44   22.93
  -7  -9   1 2950.56   71.82
  -7  -9   1 2981.35   66.28
  -5  -9   1 1100.05   39.27
  -5  -9   1 1182.05   38.21
  -3  -9   1  266.41   18.05
  -3  -9   1  257.94   19.04
  -1  -9   1 3324.84   73.92
  -1  -9   1 3240.90   72.79
   1  -9   1 1346.94   43.84
   1  -9   1 1443.70   44.92
   3  -9   1  842.81   34.35
   3  -9   1  925.40   36.29
   5  -9   1 3671.99   84.48
  -5   9  -1 3662.90   82.77
   7  -9   1  414.35   26.06
  -7   9  -1  405.89   25.74
  -9   9  -1  974.28   42.39
   9  -9   1 1006.64   42.49
 -11   9  -1 2471.84   74.38
 -13   9  -1  -13.97    9.79
 -15   9  -1  945.13   49.56
 -17   9  -1  594.99   42.42
 -19   9  -1    4.65   17.41
 -21   9  -1  724.46   52.97
 -24  -8   1   -7.75   16.89
 -22  -8   1   30.67   17.43
 -20  -8   1   33.38   16.19
 -18  -8   1  -10.24   11.93
 -16  -8   1    4.69   11.38
 -14  -8   1   63.38   15.62
 -12  -8   1   19.49   10.24
 -10  -8   1   36.81    9.05
 -10  -8   1   43.84   11.71
  -8  -8   1    2.48    6.78
  -8  -8   1    7.15    6.31
  -6  -8   1  664.36   28.91
  -6  -8   1  673.18   26.05
  -4  -8   1  677.22   26.56
  -4  -8   1  648.69   27.89
  -2  -8   1   82.74   12.12
  -2  -8   1   61.86   10.33
   0  -8   1   32.01    8.75
   0  -8   1   21.67    7.71
   2  -8   1  442.48   23.15
   2  -8   1  448.86   23.27
   4  -8   1   -4.06    5.16
  -4   8  -1   -8.24    4.76
   6  -8   1  153.84   15.50
  -6   8  -1  124.90   16.24
   8  -8   1   29.28   10.49
  -8   8  -1   44.27   12.34
 -10   8  -1   34.68   13.67
 -12   8  -1  -15.33    9.35
 -14   8  -1  118.49   21.39
 -16   8  -1   11.00   14.27
 -18   8  -1  131.78   28.26
 -20   8  -1   56.35   24.97
 -22   8  -1    2.46   22.62
 -25  -7   1  297.26   33.40
 -23  -7   1  359.41   34.51
 -21  -7   1   -3.70   12.89
 -19  -7   1 1077.84   51.68
 -17  -7   1  637.35   37.53
 -15  -7   1   65.19   17.40
 -13  -7   1  914.07   38.69
 -11  -7   1  928.98   37.11
  -9  -7   1  171.43   15.46
  -9  -7   1  153.07   12.10
  -7  -7   1 3502.38   74.60
  -7  -7   1 3628.27   68.15
  -5  -7   1  669.70   24.16
  -3  -7   1  576.39   24.38
  -3  -7   1  579.86   22.91
  -1  -7   1 4174.82   78.15
  -1  -7   1 4081.12   79.15
   1  -7   1  900.40   30.69
   1  -7   1  876.30   30.86
   3  -7   1 2790.40   63.30
   3  -7   1 2971.25   64.09
   5  -7   1 2506.99   60.60
  -5   7  -1 2504.63   60.63
   7  -7   1  209.33   16.78
  -7   7  -1  202.78   17.57
  -9   7  -1 1274.70   45.41
 -11   7  -1  953.18   41.95
 -13   7  -1  137.57   21.83
 -15   7  -1 1019.55   48.98
 -17   7  -1  689.33   44.04
 -19   7  -1   -8.59   16.17
 -21   7  -1  560.56   45.14
 -23   7  -1  238.21   39.90
 -24  -6   1    7.60   16.64
 -22  -6   1  489.65   37.27
 -20  -6   1  593.87   38.74
 -18  -6   1   -6.25   10.44
 -16  -6   1 1863.11   61.97
 -14  -6   1  254.79   21.45
 -12  -6   1  361.53   23.30
 -10  -6   1 2128.85   55.29
 -10  -6   1 2167.51   45.99
  -8  -6   1  665.84   27.39
  -8  -6   1  707.97   22.88
  -6  -6   1  254.31   15.78
  -6  -6   1  261.71   13.53
  -4  -6   1 4314.57   79.83
  -4  -6   1 4281.45   74.62
  -2  -6   1  967.10   30.08
  -2  -6   1  995.00   28.56
   0  -6   1 1066.74   31.95
   0  -6   1 1093.90   31.20
   2  -6   1 1745.38   43.66
   2  -6   1 1735.37   43.08
   4  -6   1  264.36   16.36
  -4   6  -1  274.04   16.95
  -6   6  -1 1610.00   45.71
   6  -6   1 1484.15   42.81
  -8   6  -1 1653.53   49.32
 -10   6  -1   28.82   11.52
 -12   6  -1 1752.98   57.94
 -14   6  -1  662.40   37.76
 -16   6  -1   37.54   16.20
 -18   6  -1 1341.82   61.18
 -20   6  -1  549.91   42.95
 -22   6  -1   28.76   20.23
 -25  -5   1   -9.29   13.49
 -23  -5   1   31.04   16.55
 -21  -5   1   -1.71   11.59
 -19  -5   1   25.15   12.94
 -17  -5   1   84.32   17.49
 -15  -5   1   23.60   11.14
 -13  -5   1  175.46   16.89
 -11  -5   1  352.16   15.67
 -11  -5   1  387.28   21.99
  -9  -5   1   -6.53    4.09
  -9  -5   1   -2.37    5.29
  -7  -5   1   13.41    5.76
  -7  -5   1   13.28    4.93
   7   5  -1   12.55    5.22
  -5  -5   1  177.16   10.09
  -5  -5   1  186.16   12.29
   5   5  -1  178.66    9.78
  -3  -5   1   27.80    5.45
  -3  -5   1   23.40    5.85
   3   5  -1   35.16    3.92
  -1  -5   1  257.23   12.81
  -1  -5   1  254.99   13.66
   1  -5   1  546.41   19.97
   1  -5   1  512.61   19.90
  -3   5  -1   93.52    9.25
   3  -5   1   81.13    8.65
  -5   5  -1  212.68   14.71
   5  -5   1  212.60   13.94
  -7   5  -1   17.50    7.36
  -9   5  -1  264.45   19.31
 -11   5  -1   67.47   13.85
 -13   5  -1  135.93   20.23
 -15   5  -1  255.65   24.97
 -17   5  -1  166.29   25.72
 -19   5  -1    9.17   15.74
 -21   5  -1   51.70   22.16
 -23   5  -1   25.76   20.90
 -26  -4   1  599.01   44.03
 -24  -4   1   -4.60   13.37
 -22  -4   1  868.49   47.49
 -20  -4   1 1424.04   58.34
 -18  -4   1  -12.18    8.25
 -16  -4   1 1649.48   56.30
 -14  -4   1 1514.21   49.91
 -12  -4   1  200.63   11.82
 -12  -4   1  241.35   17.97
 -10  -4   1 6208.90   95.98
 -10  -4   1 6294.29  110.47
   8   4  -1 1046.87   30.76
  -8  -4   1 1044.70   31.78
  -8  -4   1 1080.13   25.04
  -6  -4   1 1007.71   28.60
   6   4  -1 1036.53   26.91
  -6  -4   1 1011.29   23.30
   4   4  -1 3744.93   62.28
  -4  -4   1 3914.32   61.91
  -4  -4   1 3895.84   67.34
  -2  -4   1 1386.31   32.01
  -2  -4   1 1353.59   29.16
   0  -4   1 1596.83   35.39
   0  -4   1 1602.84   33.99
   2  -4   1 6749.01  105.20
   2  -4   1 6900.03  105.64
  -4   4  -1   35.26    6.85
   4  -4   1   29.96    6.42
  -6   4  -1 3780.52   72.99
  -8   4  -1 4741.44   90.91
 -10   4  -1   16.17    8.13
 -12   4  -1 1885.66   57.46
 -14   4  -1 1547.42   55.26
 -16   4  -1   16.09   13.79
 -18   4  -1 1005.50   50.51
 -20   4  -1  440.84   35.78
 -22   4  -1   87.79   24.42
 -24   4  -1  779.99   50.48
 -25  -3   1   57.98   19.85
 -23  -3   1  260.25   32.45
 -21  -3   1   38.30   16.72
 -19  -3   1  559.75   35.07
 -17  -3   1  434.13   29.39
 -15  -3   1   -2.24    7.05
 -13  -3   1  349.41   22.44
 -13  -3   1  380.66   15.04
 -11  -3   1  102.73    7.85
 -11  -3   1   67.04   11.45
  -9  -3   1    7.23    5.36
  -9  -3   1   13.48    3.83
   9   3  -1    6.19    5.26
  -7  -3   1 1268.38   25.58
  -7  -3   1 1234.74   32.47
   7   3  -1 1274.24   32.57
   5   3  -1 1165.38   26.82
  -5  -3   1 1127.01   27.93
  -5  -3   1 1180.82   22.88
  -3  -3   1  202.54    7.94
  -3  -3   1  198.07    9.85
   3   3  -1  211.70    7.81
  -1  -3   1 2842.88   49.53
  -1  -3   1 2862.21   47.13
   1  -3   1 3681.53   59.91
   1  -3   1 3601.09   60.27
  -3   3  -1 1693.56   36.81
   3  -3   1 1730.55   36.10
  -5   3  -1 1622.04   38.43
  -7   3  -1  276.34   16.34
  -9   3  -1  908.27   33.16
 -11   3  -1 2225.19   60.09
 -13   3  -1   -4.52    8.18
 -15   3  -1  789.31   40.46
 -17   3  -1  451.65   33.30
 -19   3  -1   -6.07   12.26
 -21   3  -1  223.60   29.78
 -23   3  -1  132.28   26.98
 -25   3  -1  -20.59   16.01
 -26  -2   1  278.25   30.70
 -24  -2   1   15.42   14.95
 -22  -2   1  296.42   28.50
 -20  -2   1  339.58   28.13
 -18  -2   1  121.30   19.88
 -16  -2   1  865.32   39.12
 -14  -2   1  425.35   16.27
 -14  -2   1  401.90   24.85
 -12  -2   1  463.31   24.36
 -12  -2   1  456.48   15.34
  10   2  -1 2373.03   56.19
 -10  -2   1 2475.90   56.41
 -10  -2   1 2381.34   41.26
  -8  -2   1  958.42   28.85
   8   2  -1  956.10   29.01
  -8  -2   1  983.03   19.58
  -6  -2   1 1172.76   28.64
   6   2  -1 1181.21   28.92
  -4  -2   1 1323.25   27.71
   4   2  -1 1318.32   26.82
  -2  -2   1 2301.57   39.06
   0  -2   1 1834.56   32.55
   0  -2   1 1777.87   31.38
  -2   2  -1 5252.98   79.74
  -4   2  -1  121.36    8.64
  -6   2  -1 1241.40   33.08
  -8   2  -1 2047.72   50.08
 -10   2  -1   41.51   10.92
 -12   2  -1  690.65   33.18
 -14   2  -1  939.34   41.78
 -16   2  -1   -0.27   11.35
 -18   2  -1  551.91   36.10
 -20   2  -1  315.20   29.20
 -22   2  -1   51.51   18.99
 -24   2  -1  289.76   32.13
 -27  -1   1   25.87   18.90
 -25  -1   1  438.32   35.81
 -23  -1   1  828.26   46.33
 -21  -1   1    9.58   12.20
 -19  -1   1 1190.65   50.61
 -17  -1   1 1489.27   54.03
 -15  -1   1  288.21   22.31
 -13  -1   1 2851.07   70.08
  11   1  -1 4090.25   82.89
 -11  -1   1 3935.01   81.69
  -9  -1   1  225.79   14.88
   9   1  -1  219.25   14.15
  -7  -1   1 4312.48   74.61
  -5  -1   1 1433.31   29.90
   5   1  -1 1394.38   30.06
   3   1  -1 4938.52   75.53
  -3  -1   1 5062.68   72.89
  -1   1  -1 1475.66   26.24
  -3   1  -1  773.62   19.78
  -5   1  -1 5616.73   90.78
  -7   1  -1  648.51   24.66
  -9   1  -1 2923.88   66.31
 -11   1  -1 3205.14   75.08
 -13   1  -1   80.85   15.42
 -15   1  -1 1542.06   54.68
 -17   1  -1 1992.55   65.74
 -19   1  -1  117.22   22.62
 -21   1  -1  747.21   44.24
 -23   1  -1  345.21   32.43
 -25   1  -1   68.99   21.09
 -26   0   1   -3.85   12.80
 -24   0   1    2.83   12.03
 -22   0   1   -8.93   11.74
 -20   0   1   -1.47   10.78
 -18   0   1  -12.07    7.58
 -16   0   1   -7.27    8.52
 -14   0   1    7.75    8.62
 -12   0   1   -3.72    6.01
  10   0  -1   -1.71    4.07
 -10   0   1   -5.17    4.67
  -8   0   1    1.08    4.17
   8   0  -1    4.07    4.02
  -6   0   1   14.03    5.87
   6   0  -1   16.37    5.22
   4   0  -1   16.57    3.60
  -4   0   1   29.28    4.36
  -2   0  -1    4.15    2.52
  -4   0  -1    9.99    4.83
  -6   0  -1    1.98    4.65
  -8   0  -1    8.49    6.24
 -10   0  -1   12.51    8.79
 -12   0  -1   -6.12    6.78
 -14   0  -1    4.57   10.09
 -16   0  -1   -4.79   10.32
 -18   0  -1   -5.73    9.36
 -20   0  -1  -16.07    9.51
 -22   0  -1   -3.29   12.37
 -24   0  -1   -9.19   12.22
 -27   1   1    9.31   15.82
 -25   1   1  440.03   36.34
 -23   1   1  885.31   48.73
 -21   1   1   -9.90   11.49
 -19   1   1 1292.61   53.06
 -17   1   1 1571.65   55.76
 -15   1   1  260.98   21.73
 -13   1   1 2839.66   70.49
 -11   1   1 4145.33   84.58
  11  -1  -1 4029.44   83.22
  -9   1   1  236.06   15.86
   9  -1  -1  223.87   14.33
  -7   1   1 4350.01   75.97
   7  -1  -1 4235.37   75.32
   5  -1  -1 1432.50   26.03
  -5   1   1 1401.16   30.37
   5  -1  -1 1391.93   29.74
   3  -1  -1 5155.70   73.87
  -3   1   1 5263.11   74.79
   3  -1  -1 4979.13   77.19
  -1  -1  -1 1484.45   25.67
  -3  -1  -1  873.12   21.56
  -3  -1  -1  843.18   18.45
  -5  -1  -1 5362.41   79.30
  -5  -1  -1 5147.72   86.02
  -7  -1  -1  650.13   24.57
  -9  -1  -1 2890.63   64.72
 -11  -1  -1 3313.20   75.26
 -13  -1  -1   83.86   15.05
 -15  -1  -1 1576.16   55.12
 -15  -1  -1 1551.78   41.98
 -17  -1  -1 2023.21   66.13
 -19  -1  -1  143.11   23.57
 -21  -1  -1  769.27   44.11
 -23  -1  -1  327.05   30.72
 -25  -1  -1   36.84   17.41
 -26   2   1  263.31   34.88
 -24   2   1    9.14   14.54
 -22   2   1  312.94   29.94
 -20   2   1  366.61   29.52
 -18   2   1  143.96   22.15
 -16   2   1  895.12   41.00
 -14   2   1  454.28   27.52
 -12   2   1  481.17   26.52
  10  -2  -1 2367.86   55.52
 -10   2   1 2302.49   55.59
   8  -2  -1  995.16   24.92
   8  -2  -1  948.82   28.78
  -8   2   1  966.46   29.52
   6  -2  -1 1220.38   26.55
  -6   2   1 1186.20   29.07
   6  -2  -1 1201.63   28.83
   4  -2  -1 1375.08   26.81
  -4   2   1 1308.59   26.87
   4  -2  -1 1335.21   26.85
   2  -2  -1 2351.57   39.58
   2  -2  -1 2296.53   37.22
   0  -2  -1 1843.12   30.40
   0  -2  -1 1757.82   32.89
  -2  -2  -1 5249.70   76.84
  -2  -2  -1 5088.30   76.23
  -4  -2  -1  115.40    8.31
  -4  -2  -1  118.00    6.87
  -6  -2  -1 1272.45   28.25
  -6  -2  -1 1297.97   33.57
  -8  -2  -1 2045.09   41.59
  -8  -2  -1 2111.02   50.24
 -10  -2  -1   40.51    7.29
 -10  -2  -1   16.17    7.68
 -12  -2  -1  668.82   31.30
 -12  -2  -1  687.09   24.17
 -14  -2  -1  927.26   30.51
 -14  -2  -1  968.14   40.45
 -16  -2  -1    1.97   10.85
 -18  -2  -1  512.29   33.33
 -20  -2  -1  356.73   29.67
 -22  -2  -1   60.08   18.46
 -24  -2  -1  282.25   34.08
 -25   3   1   46.06   19.44
 -23   3   1  247.65   32.23
 -21   3   1   21.93   15.65
 -19   3   1  607.24   37.59
 -17   3   1  514.10   33.39
 -15   3   1    3.73   10.62
 -13   3   1  336.27   22.90
 -11   3   1   75.33   12.64
  -9   3   1    5.87    5.45
   9  -3  -1   16.40    5.92
   9  -3  -1   18.97    5.80
   7  -3  -1 1258.84   30.56
   7  -3  -1 1271.98   32.18
  -7   3   1 1282.24   33.07
   5  -3  -1 1143.81   25.75
   5  -3  -1 1151.06   27.27
  -5   3   1 1119.60   27.45
   3  -3  -1  190.10    6.99
   3  -3  -1  202.29    9.85
   1  -3  -1 2888.29   50.25
   1  -3  -1 2914.54   47.90
  -1  -3  -1 3712.17   61.70
  -1  -3  -1 3700.35   58.78
  -3  -3  -1 1636.89   33.80
  -3  -3  -1 1680.83   34.15
  -5  -3  -1 1585.03   36.03
  -5  -3  -1 1584.29   33.41
  -7  -3  -1  297.75   13.46
  -7  -3  -1  298.90   16.28
  -9  -3  -1  874.67   25.79
  -9  -3  -1  912.22   32.22
 -11  -3  -1 2172.58   47.26
 -11  -3  -1 2139.37   57.45
 -13  -3  -1    1.46    5.77
 -13  -3  -1   -6.07    6.88
 -15  -3  -1  831.82   39.19
 -17  -3  -1  540.29   33.41
 -19  -3  -1   -4.81   11.17
 -21  -3  -1  151.82   24.99
 -23  -3  -1  124.75   24.89
 -25  -3  -1    4.98   16.72
 -26   4   1  561.27   44.18
 -24   4   1   -1.95   14.39
 -22   4   1  930.76   51.10
 -20   4   1 1563.96   63.26
 -18   4   1   -2.40   11.61
 -16   4   1 1669.41   58.88
 -14   4   1 1517.78   51.59
 -12   4   1  194.94   17.16
 -10   4   1 6336.70  112.20
  10  -4  -1 6408.16  106.83
  -8   4   1 1133.36   33.25
   8  -4  -1 1068.60   30.57
   8  -4  -1 1062.38   30.97
   6  -4  -1  963.28   25.40
   6  -4  -1  992.42   27.69
  -6   4   1 1023.06   28.81
  -4   4   1 3819.75   65.84
   4  -4  -1 3750.61   66.27
   4  -4  -1 3846.50   60.97
   2  -4  -1 1329.99   31.61
   2  -4  -1 1351.47   29.85
   0  -4  -1 1565.78   32.67
   0  -4  -1 1536.15   34.53
  -2  -4  -1 6822.84  105.63
  -2  -4  -1 6862.49  103.30
  -4  -4  -1   47.20    7.01
  -4  -4  -1   41.85    7.10
  -6  -4  -1 3721.57   66.22
  -6  -4  -1 3746.31   69.57
  -8  -4  -1 4436.75   75.66
  -8  -4  -1 4251.46   81.74
 -10  -4  -1   18.42    8.29
 -10  -4  -1   13.21    6.98
 -12  -4  -1 1838.86   44.51
 -12  -4  -1 1801.78   54.16
 -14  -4  -1 1558.56   53.54
 -16  -4  -1   10.61   10.86
 -18  -4  -1  981.80   47.06
 -20  -4  -1  449.72   34.07
 -22  -4  -1   64.33   19.93
 -24  -4  -1  681.23   46.12
 -25   5   1    0.61   15.47
 -23   5   1   16.69   18.95
 -21   5   1    7.46   17.83
 -19   5   1   41.14   17.42
 -17   5   1  105.55   20.54
 -15   5   1   37.92   13.73
 -13   5   1  167.10   17.50
  11  -5  -1  384.15   20.31
 -11   5   1  383.09   22.54
  -9   5   1    9.84    6.76
   9  -5  -1    2.20    5.01
   7  -5  -1    5.93    4.49
  -7   5   1   13.07    6.34
   7  -5  -1    8.35    5.37
  -5   5   1  171.18   12.02
   5  -5  -1  176.96   12.15
   5  -5  -1  180.46    9.23
   3  -5  -1   27.83    5.92
   3  -5  -1   30.09    6.40
   1  -5  -1  231.69   13.24
   1  -5  -1  231.22   12.26
  -1  -5  -1  524.80   19.96
  -1  -5  -1  528.15   18.90
  -3  -5  -1   80.01    8.48
  -3  -5  -1   87.68    8.18
  -5  -5  -1  202.34   13.44
  -5  -5  -1  183.41   12.31
  -7  -5  -1   24.02    8.25
  -7  -5  -1   13.43    7.19
  -9  -5  -1  275.20   16.38
  -9  -5  -1  271.53   17.85
 -11  -5  -1   74.74   11.37
 -11  -5  -1   73.91   13.38
 -13  -5  -1  139.34   18.65
 -15  -5  -1  267.64   23.33
 -17  -5  -1  189.63   24.87
 -19  -5  -1    8.77   13.65
 -21  -5  -1   43.08   18.03
 -23  -5  -1   26.37   16.81
 -24   6   1   26.99   19.04
 -22   6   1  475.50   40.30
 -20   6   1  575.66   41.26
 -18   6   1   -9.04   12.78
 -16   6   1 1963.43   66.20
 -14   6   1  284.30   23.64
 -12   6   1  355.20   23.75
  12  -6  -1  343.46   20.91
  10  -6  -1 2241.24   56.18
 -10   6   1 2272.94   58.98
  -8   6   1  746.79   29.28
   8  -6  -1  722.89   28.12
   6  -6  -1  282.06   16.70
  -6   6   1  270.33   16.12
   4  -6  -1 4378.97   81.05
   4  -6  -1 4339.13   77.82
   2  -6  -1  996.11   28.96
   2  -6  -1  963.67   30.33
   0  -6  -1 1094.45   32.48
   0  -6  -1 1104.60   30.60
  -2  -6  -1 1770.23   41.81
  -2  -6  -1 1787.42   43.59
  -4  -6  -1  248.64   15.50
  -4  -6  -1  279.79   15.47
  -6  -6  -1 1476.26   39.97
  -6  -6  -1 1498.38   40.68
  -8  -6  -1 1564.60   44.37
  -8  -6  -1 1623.99   43.44
 -10  -6  -1   15.34    8.15
 -10  -6  -1   19.17    8.54
 -12  -6  -1 1648.79   52.67
 -14  -6  -1  694.72   35.78
 -16  -6  -1   43.22   14.83
 -18  -6  -1 1223.89   54.45
 -20  -6  -1  499.93   37.21
 -22  -6  -1    9.28   17.20
 -24  -6  -1  426.08   38.59
 -25   7   1  365.84   39.30
 -23   7   1  371.05   37.54
 -21   7   1   -8.96   13.99
 -19   7   1 1111.53   54.92
 -17   7   1  674.79   40.38
 -15   7   1   71.52   17.43
  13  -7  -1  947.45   38.21
 -13   7   1  968.76   41.66
  11  -7  -1  906.95   35.86
 -11   7   1  877.21   37.06
  -9   7   1  167.06   16.46
   9  -7  -1  171.36   15.18
   7  -7  -1 3674.79   77.06
  -7   7   1 3683.44   76.37
  -5   7   1  674.18   26.31
   5  -7  -1  710.57   28.15
   3  -7  -1  615.97   24.36
   3  -7  -1  579.22   25.02
   1  -7  -1 4315.51   82.93
   1  -7  -1 4325.67   79.43
  -1  -7  -1  903.27   29.44
  -1  -7  -1  875.39   30.89
  -3  -7  -1 2791.52   61.64
  -3  -7  -1 2771.38   59.82
  -5  -7  -1 2475.48   56.74
  -5  -7  -1 2424.27   57.12
  -7  -7  -1  195.21   15.46
  -7  -7  -1  199.97   15.49
  -9  -7  -1 1202.07   40.86
  -9  -7  -1 1249.83   39.16
 -11  -7  -1  905.57   34.21
 -11  -7  -1  974.82   39.05
 -13  -7  -1  129.27   18.77
 -15  -7  -1 1053.32   46.69
 -17  -7  -1  683.03   40.46
 -19  -7  -1   -5.57   11.99
 -21  -7  -1  610.83   41.81
 -23  -7  -1  153.57   27.82
 -24   8   1   -0.80   21.73
 -22   8   1   25.79   22.30
 -20   8   1   28.21   18.33
 -18   8   1   -9.85   13.23
 -16   8   1    2.46   12.52
  14  -8  -1   87.10   16.42
 -14   8   1   61.13   16.81
  12  -8  -1   22.51   11.29
 -12   8   1   17.50   12.09
 -10   8   1   26.75   10.86
  10  -8  -1   40.56   11.01
  -8   8   1    9.69    7.39
   8  -8  -1   -3.23    5.84
   6  -8  -1  719.73   30.54
  -6   8   1  647.86   28.08
   4  -8  -1  639.73   26.57
   4  -8  -1  675.50   28.94
   2  -8  -1   88.73   12.27
   2  -8  -1   77.73   12.16
   0  -8  -1   38.24    9.00
   0  -8  -1   42.78    9.51
  -2  -8  -1  445.59   21.90
  -2  -8  -1  462.12   23.54
  -4  -8  -1    2.65    6.41
  -4  -8  -1   -0.28    6.19
  -6  -8  -1  101.03   14.23
  -6  -8  -1  127.39   13.24
  -8  -8  -1   36.98   10.39
  -8  -8  -1   35.19   11.42
 -10  -8  -1   18.72   10.14
 -10  -8  -1   22.20   11.40
 -12  -8  -1   -8.97    9.08
 -14  -8  -1  104.74   18.37
 -16  -8  -1    4.46   12.39
 -18  -8  -1   95.11   21.40
 -20  -8  -1   52.93   20.17
 -22  -8  -1    3.60   16.82
 -23   9   1  511.17   46.08
 -21   9   1   14.67   18.42
 -19   9   1 1138.73   58.10
 -17   9   1 1141.01   54.39
 -15   9   1  139.92   22.74
 -13   9   1 2688.50   77.71
  13  -9  -1 2717.99   74.94
 -11   9   1 1952.10   60.68
  11  -9  -1 1899.04   59.55
  -9   9   1  468.64   27.57
   9  -9  -1  420.24   26.05
   7  -9  -1 3005.52   74.11
  -7   9   1 3033.26   71.50
   5  -9  -1 1166.43   38.91
   5  -9  -1 1160.33   41.60
   3  -9  -1  253.57   17.77
   3  -9  -1  268.90   19.50
   1  -9  -1 3267.74   70.97
   1  -9  -1 3301.84   75.71
  -1  -9  -1 1436.92   45.50
  -1  -9  -1 1377.60   41.91
  -3  -9  -1  856.65   32.68
  -3  -9  -1  829.12   34.13
  -5  -9  -1 3540.46   78.25
  -5  -9  -1 3637.85   80.35
  -7  -9  -1  393.40   23.58
  -7  -9  -1  416.92   24.19
  -9  -9  -1  951.56   37.32
  -9  -9  -1  955.59   38.76
 -11  -9  -1 2228.99   65.51
 -13  -9  -1   -5.29    9.46
 -15  -9  -1  873.92   44.43
 -17  -9  -1  559.28   37.42
 -19  -9  -1   12.27   14.71
 -21  -9  -1  632.24   45.64
 -22  10   1  125.55   31.40
 -20  10   1  133.92   30.24
 -18  10   1   -1.52   16.27
 -16  10   1    2.81   12.42
  14 -10  -1   50.75   16.09
 -14  10   1   46.11   16.21
 -12  10   1    1.50   11.86
  12 -10  -1   24.56   12.40
  10 -10  -1  500.89   30.33
 -10  10   1  478.51   29.56
   8 -10  -1  102.03   17.15
  -8  10   1   93.23   15.40
  -6  10   1  279.63   20.95
   6 -10  -1  285.08   22.05
   4 -10  -1  744.12   31.84
   4 -10  -1  738.63   34.44
   2 -10  -1  133.64   14.12
   2 -10  -1   98.14   15.88
   0 -10  -1   57.32   12.12
   0 -10  -1   51.33   12.40
  -2 -10  -1  204.01   17.43
  -2 -10  -1  217.36   18.81
  -4 -10  -1    0.65    6.73
  -4 -10  -1   -9.90    7.05
  -6 -10  -1  334.65   23.65
  -6 -10  -1  371.64   23.79
  -8 -10  -1  673.61   32.81
  -8 -10  -1  646.78   32.27
 -10 -10  -1    8.50    9.73
 -12 -10  -1  100.21   18.08
 -14 -10  -1  155.53   23.40
 -16 -10  -1   -6.40   11.88
 -18 -10  -1  152.28   26.00
 -20 -10  -1   83.10   22.77
 -21  11   1  -38.30   16.64
 -19  11   1  320.15   39.24
 -17  11   1  317.76   31.32
 -15  11   1  -12.42   10.37
 -13  11   1  540.48   34.85
  13 -11  -1  463.04   32.54
  11 -11  -1  912.20   44.09
 -11  11   1  847.81   41.60
  -9  11   1   74.47   15.56
   9 -11  -1   98.19   18.18
  -7  11   1 1327.12   47.24
   7 -11  -1 1341.77   51.39
   5 -11  -1  295.43   21.50
   5 -11  -1  276.49   22.85
   3 -11  -1  360.95   26.03
   3 -11  -1  406.43   24.96
   1 -11  -1  907.08   39.64
   1 -11  -1  857.05   35.51
  -1 -11  -1  237.34   19.54
  -1 -11  -1  227.43   20.49
  -3 -11  -1  623.68   30.93
  -3 -11  -1  637.78   33.17
  -5 -11  -1 1309.47   48.17
  -5 -11  -1 1293.00   46.08
  -7 -11  -1    8.17    9.41
  -7 -11  -1   -8.97    7.96
  -9 -11  -1  576.55   32.44
 -11 -11  -1  941.28   43.58
 -13 -11  -1   70.77   17.16
 -15 -11  -1  252.69   26.34
 -17 -11  -1  262.09   28.61
 -19 -11  -1   -8.77   15.55
 -20  12   1  378.76   38.89
 -18  12   1   27.53   20.13
 -16  12   1  690.09   44.38
 -14  12   1  473.12   35.11
  14 -12  -1  453.45   34.21
  12 -12  -1  122.17   21.77
 -12  12   1   82.99   17.96
  10 -12  -1  916.82   45.77
 -10  12   1  905.44   42.81
   8 -12  -1  494.05   33.09
  -8  12   1  486.57   29.97
   6 -12  -1  287.82   25.42
  -6  12   1  259.11   22.38
   4 -12  -1 1339.99   52.39
   4 -12  -1 1341.22   48.01
   2 -12  -1  270.50   24.18
   2 -12  -1  270.05   22.07
   0 -12  -1  334.80   23.50
   0 -12  -1  373.02   27.02
  -2 -12  -1 1252.91   49.82
  -2 -12  -1 1217.73   44.87
  -4 -12  -1  118.49   19.25
  -4 -12  -1  118.99   18.77
  -6 -12  -1  709.37   37.08
  -6 -12  -1  742.81   36.09
  -8 -12  -1 1176.55   47.99
 -10 -12  -1  -21.13    8.32
 -12 -12  -1  553.05   35.19
 -14 -12  -1  483.48   34.98
 -16 -12  -1   27.04   17.13
 -18 -12  -1  638.84   44.85
 -19  13   1  -11.02   16.30
 -17  13   1  -11.33   16.22
 -15  13   1    1.64   15.02
 -13  13   1   -7.53   11.51
  13 -13  -1   -2.01   13.07
  11 -13  -1   -8.25   11.00
 -11  13   1   -7.24   10.45
   9 -13  -1   -4.73   11.41
  -9  13   1   16.19   11.42
  -7  13   1   32.08   13.86
   7 -13  -1   51.76   16.97
   5 -13  -1   16.15   12.25
   3 -13  -1    6.42    9.35
   3 -13  -1   -8.74    9.05
   1 -13  -1   -3.08    8.66
   1 -13  -1   -9.84    8.07
  -1 -13  -1   -4.90   10.69
  -1 -13  -1   -4.51    9.26
  -3 -13  -1    4.62    8.89
  -3 -13  -1   -3.40   10.66
  -5 -13  -1   -7.05    9.34
  -5 -13  -1   -7.48    9.76
  -7 -13  -1   25.38   12.48
  -9 -13  -1  -11.34    8.80
 -11 -13  -1   -2.23   11.88
 -13 -13  -1   -1.99   13.57
 -15 -13  -1   51.86   18.60
 -17 -13  -1    3.09   18.00
 -16  14   1  665.30   45.11
 -14  14   1  474.92   37.62
  14 -14  -1  533.62   40.48
  12 -14  -1   35.21   18.05
 -12  14   1   32.50   16.11
 -10  14   1  806.02   43.17
  10 -14  -1  818.70   47.49
   8 -14  -1  245.40   26.56
  -8  14   1  246.35   23.54
   6 -14  -1  126.66   22.57
  -6  14   1  154.99   22.56
   4 -14  -1 1034.17   51.10
   4 -14  -1 1030.97   44.99
   2 -14  -1  227.51   21.99
   2 -14  -1  245.23   25.99
   0 -14  -1  471.63   34.39
   0 -14  -1  394.87   27.72
  -2 -14  -1 1222.15   49.16
  -2 -14  -1 1295.88   55.27
  -4 -14  -1  126.90   23.01
  -4 -14  -1  155.68   21.87
  -6 -14  -1  465.71   31.21
  -8 -14  -1  481.37   32.79
 -10 -14  -1    3.79   11.92
 -12 -14  -1  558.95   38.07
 -14 -14  -1  478.26   37.17
 -15  15   1   -4.82   15.55
  13 -15  -1  236.41   34.16
 -13  15   1  210.14   30.44
  11 -15  -1  124.22   25.93
 -11  15   1   88.21   21.03
  -9  15   1   -5.18   12.28
   9 -15  -1    6.95   14.50
  -7  15   1  179.59   25.28
   7 -15  -1  161.72   27.60
  -5  15   1   37.15   13.46
   5 -15  -1   42.87   16.97
   3 -15  -1   89.03   22.04
   3 -15  -1  131.09   21.26
   1 -15  -1  353.63   31.44
   1 -15  -1  333.27   27.00
  -1 -15  -1   25.45   12.45
  -1 -15  -1   -7.52   14.06
  -3 -15  -1  242.76   24.25
  -3 -15  -1  232.65   30.57
  -5 -15  -1  341.12   27.38
  -7 -15  -1   16.12   13.28
  -9 -15  -1  184.51   27.18
 -11 -15  -1  234.36   26.17
 -13 -15  -1   -8.51   15.02
 -12  16   1    4.43   16.18
  12 -16  -1    1.14   16.33
  10 -16  -1  202.35   34.04
 -10  16   1  149.48   25.42
   8 -16  -1   24.98   17.86
  -8  16   1   39.28   15.53
  -6  16   1   36.19   15.69
   6 -16  -1   37.97   18.56
   4 -16  -1  134.44   27.27
   2 -16  -1  -10.19   10.82
   2 -16  -1   -0.01   15.13
   0 -16  -1  109.95   21.37
   0 -16  -1  106.24   23.61
  -2 -16  -1  355.74   32.83
  -2 -16  -1  325.48   27.81
  -4 -16  -1   49.67   17.69
  -6 -16  -1   90.29   21.25
  -8 -16  -1  157.08   25.57
 -10 -16  -1   -8.52   11.57
   9 -17  -1   17.91   20.03
  -9  17   1   59.10   19.27
  -7  17   1  808.22   45.71
   7 -17  -1  664.67   49.32
  -5  17   1  321.20   32.05
   5 -17  -1  342.57   36.06
   3 -17  -1  116.50   26.11
   3 -17  -1  111.33   21.52
   1 -17  -1  760.52   50.42
   1 -17  -1  665.42   40.41
  -1 -17  -1   95.98   20.49
  -1 -17  -1   57.90   23.28
  -3 -17  -1  199.62   26.63
  -5 -17  -1  574.25   38.09
  -7 -17  -1   28.65   17.39
   2 -18  -1    5.88   14.35
   2 -18  -1   -8.78   16.49
   0 -18  -1  -26.04   12.88
   0 -18  -1    7.38   17.90
  -2 -18   2  328.87   31.68
  -9 -17   2   24.68   17.08
  -7 -17   2   10.95   16.31
  -5 -17   2   56.86   19.86
  -3 -17   2   23.54   15.38
  -1 -17   2   10.49   15.71
  -1 -17   2    4.41   16.36
   1 -17   2   25.36   17.85
   1 -17   2   75.82   20.95
  -3  17  -2  -16.82   14.54
   3 -17   2  -12.98   14.89
  -5  17  -2    2.06   16.11
 -14 -16   2  354.58   33.91
 -12 -16   2  113.33   25.45
 -10 -16   2   95.16   22.61
  -8 -16   2  477.86   35.93
  -6 -16   2  192.48   28.05
  -4 -16   2  109.30   24.12
  -2 -16   2  707.01   45.10
  -2 -16   2  672.77   40.93
   0 -16   2  112.19   23.55
   0 -16   2   98.48   24.98
   2 -16   2  260.44   33.61
   4 -16   2  465.95   39.69
  -4  16  -2  618.25   42.01
  -6  16  -2    6.49   16.19
  -8  16  -2  223.92   31.55
 -10  16  -2  292.08   31.81
 -15 -15   2  226.22   31.44
 -13 -15   2   68.80   19.84
 -11 -15   2  506.99   36.10
  -9 -15   2  206.99   27.87
  -7 -15   2   90.98   20.03
  -5 -15   2  482.60   34.07
  -3 -15   2    1.59   12.01
  -3 -15   2   10.21   12.21
  -1 -15   2  477.48   33.33
  -1 -15   2  483.32   35.81
   1 -15   2  777.57   46.35
   1 -15   2  714.24   41.05
  -3  15  -2   66.04   18.77
   3 -15   2   68.63   20.46
   5 -15   2  233.60   31.79
  -5  15  -2  298.01   28.65
  -7  15  -2  450.42   35.02
  -9  15  -2    9.19   15.47
 -11  15  -2  357.03   34.42
 -18 -14   2   53.72   22.43
 -16 -14   2   -1.17   14.16
 -14 -14   2   17.13   15.16
 -12 -14   2   22.42   13.77
 -10 -14   2  -11.17   10.13
  -8 -14   2   26.97   14.30
  -6 -14   2   16.60   11.93
  -4 -14   2  198.85   22.57
  -4 -14   2  181.85   23.97
  -2 -14   2  121.87   20.18
  -2 -14   2   76.06   19.03
   0 -14   2   20.08   12.65
   0 -14   2  -11.03   10.86
   2 -14   2  137.18   21.63
   2 -14   2   70.20   18.82
   4 -14   2   69.29   19.71
  -4  14  -2   94.15   20.14
   6 -14   2    7.71   13.28
  -6  14  -2   14.27   13.96
  -8  14  -2   45.98   16.66
 -10  14  -2   23.80   17.66
 -12  14  -2   -6.79   15.79
 -14  14  -2   -7.63   16.20
 -19 -13   2    5.88   17.38
 -17 -13   2  600.13   41.72
 -15 -13   2  532.62   37.75
 -13 -13   2  102.22   21.30
 -11 -13   2 1010.61   47.80
  -9 -13   2  412.31   30.10
  -7 -13   2  338.83   27.46
  -5 -13   2 1309.72   51.40
  -5 -13   2 1343.26   51.47
  -3 -13   2  274.30   23.88
  -3 -13   2  255.32   23.27
  -1 -13   2  674.81   37.67
  -1 -13   2  659.42   36.47
   1 -13   2 1469.54   55.06
   1 -13   2 1414.19   56.41
   3 -13   2   53.68   16.52
  -5  13  -2  802.51   41.25
   5 -13   2  683.74   40.79
  -7  13  -2  643.87   38.59
  -9  13  -2   -1.87   11.81
 -11  13  -2  761.91   45.17
 -13  13  -2  692.72   45.75
 -15  13  -2    6.44   20.90
 -20 -12   2   40.80   20.72
 -18 -12   2   50.96   18.89
 -16 -12   2   22.06   14.06
 -14 -12   2  125.88   23.03
 -12 -12   2  117.81   21.15
 -10 -12   2   60.63   15.36
  -8 -12   2  311.95   25.84
  -6 -12   2  124.71   20.36
  -6 -12   2   68.35   14.98
  -4 -12   2   77.87   15.75
  -4 -12   2  108.78   18.17
  -2 -12   2  325.35   24.50
  -2 -12   2  342.90   25.12
   0 -12   2    5.95    9.18
   0 -12   2   -6.41    8.12
   2 -12   2  321.19   25.92
   2 -12   2  304.54   24.47
   4 -12   2  377.51   28.91
  -4  12  -2  390.95   27.84
   6 -12   2  -12.44    8.79
  -6  12  -2   -4.92    9.58
  -8  12  -2  145.40   22.13
 -10  12  -2  277.13   27.40
 -12  12  -2   13.87   13.91
 -14  12  -2   21.43   19.13
 -16  12  -2  133.60   28.90
 -21 -11   2  151.97   28.87
 -19 -11   2    8.33   15.74
 -17 -11   2  659.67   41.08
 -15 -11   2  202.95   23.03
 -13 -11   2   78.66   17.16
 -11 -11   2 1073.44   46.37
  -9 -11   2  255.14   22.24
  -7 -11   2  462.85   28.57
  -7 -11   2  434.21   25.18
  -5 -11   2 1356.43   48.66
  -5 -11   2 1393.17   46.76
  -3 -11   2  363.83   24.41
  -3 -11   2  373.75   24.82
  -1 -11   2  176.82   18.39
  -1 -11   2  168.07   17.75
   1 -11   2  561.89   31.42
   1 -11   2  547.80   30.64
   3 -11   2   23.39   11.70
   3 -11   2   48.84   13.48
   5 -11   2  970.60   43.74
  -5  11  -2  950.02   41.83
  -7  11  -2  772.33   39.37
  -9  11  -2    1.65   11.97
 -11  11  -2  445.08   33.42
 -13  11  -2  251.36   28.39
 -15  11  -2  -18.19   14.61
 -17  11  -2  462.83   41.01
 -22 -10   2   -5.94   14.10
 -20 -10   2  537.30   40.17
 -18 -10   2  521.89   37.17
 -16 -10   2  -14.44    9.81
 -14 -10   2 1698.05   60.47
 -12 -10   2  473.89   29.81
 -10 -10   2  399.93   26.83
  -8 -10   2 1632.16   46.78
  -8 -10   2 1657.55   53.37
  -6 -10   2  406.00   22.82
  -6 -10   2  402.47   25.00
  -4 -10   2  385.13   22.92
  -4 -10   2  351.19   23.07
  -2 -10   2 1798.00   54.03
  -2 -10   2 1836.45   53.48
   0 -10   2  462.15   26.47
   0 -10   2  455.54   26.23
   2 -10   2  909.17   38.58
   2 -10   2  956.21   38.98
   4 -10   2 1867.28   58.85
  -4  10  -2 1892.23   57.85
   6 -10   2  127.89   19.29
  -6  10  -2  137.06   19.49
  -8  10  -2 1658.25   58.43
 -10  10  -2 1109.90   49.12
 -12  10  -2    4.75   12.27
 -14  10  -2  807.78   47.64
 -16  10  -2  397.20   36.13
 -18  10  -2   26.81   21.86
 -23  -9   2    8.54   15.31
 -21  -9   2   24.10   16.01
 -19  -9   2   -2.81   12.50
 -17  -9   2    6.34   12.16
 -15  -9   2   -2.49    9.03
 -13  -9   2   69.95   15.82
 -11  -9   2   66.41   14.71
  -9  -9   2   21.09    7.71
  -9  -9   2    7.51    8.44
  -7  -9   2   11.28    7.74
  -7  -9   2    1.87    6.76
  -5  -9   2    3.53    6.29
  -5  -9   2    6.89    7.42
  -3  -9   2  104.38   14.49
  -3  -9   2   81.92   13.03
  -1  -9   2   90.41   13.54
  -1  -9   2   58.91   11.71
   1  -9   2   34.89   10.33
   1  -9   2   46.87   10.72
   3  -9   2   21.80    8.99
   3  -9   2   26.01   10.63
   5  -9   2    6.94    8.18
  -5   9  -2    9.87    8.61
  -7   9  -2    5.19    9.22
  -9   9  -2    4.37   11.21
 -11   9  -2    4.94   10.65
 -13   9  -2  -13.69   11.36
 -15   9  -2   -8.89   12.81
 -17   9  -2  -19.82   13.88
 -19   9  -2  -12.85   17.97
 -24  -8   2  412.26   38.04
 -22  -8   2    4.08   14.12
 -20  -8   2  911.53   48.67
 -18  -8   2 1110.82   51.04
 -16  -8   2    6.60    9.91
 -14  -8   2 1593.43   55.29
 -12  -8   2  998.33   40.60
 -10  -8   2  461.46   26.04
 -10  -8   2  468.69   20.11
  -8  -8   2 2675.40   56.94
  -8  -8   2 2795.02   67.22
  -6  -8   2  697.66   29.84
  -6  -8   2  704.47   25.90
  -4  -8   2  800.82   28.57
  -4  -8   2  784.53   31.37
  -2  -8   2 4799.85   91.00
  -2  -8   2 4920.05   94.39
   0  -8   2  449.39   23.65
   0  -8   2  456.09   23.09
   2  -8   2 1162.88   39.39
   2  -8   2 1113.49   38.58
   4  -8   2 2862.76   68.77
  -4   8  -2 2769.78   68.00
  -6   8  -2   66.64   13.36
  -8   8  -2 1591.58   53.79
 -10   8  -2 2352.93   71.16
 -12   8  -2   21.40   13.91
 -14   8  -2 1094.59   52.41
 -16   8  -2  906.57   50.83
 -18   8  -2   35.83   20.37
 -20   8  -2  891.31   57.78
 -25  -7   2    0.28   16.72
 -23  -7   2  250.67   33.97
 -21  -7   2  144.28   25.15
 -19  -7   2  191.15   26.35
 -17  -7   2  794.06   40.68
 -15  -7   2  190.40   19.79
 -13  -7   2  131.80   18.47
 -11  -7   2 1237.11   42.85
  -9  -7   2  443.08   18.02
  -9  -7   2  447.17   23.76
   9   7  -2  472.01   20.10
  -7  -7   2  734.49   23.91
  -7  -7   2  692.31   28.51
   7   7  -2  683.04   21.96
  -5  -7   2 3192.31   62.53
   5   7  -2 3180.93   55.35
  -5  -7   2 3351.96   69.88
  -3  -7   2  540.84   24.17
  -3  -7   2  551.65   22.20
   3   7  -2  534.77   13.37
  -1  -7   2  718.95   28.07
  -1  -7   2  714.62   26.53
   1  -7   2 1381.90   40.69
   1  -7   2 1293.74   38.94
   3  -7   2   -7.05    5.25
  -3   7  -2   -2.78    5.11
  -5   7  -2  705.40   30.55
   5  -7   2  736.32   31.00
  -7   7  -2  829.24   35.81
  -9   7  -2   46.76   14.52
 -11   7  -2  335.40   27.46
 -13   7  -2  648.39   37.97
 -15   7  -2   18.15   17.15
 -17   7  -2  564.09   41.32
 -19   7  -2  221.75   34.90
 -21   7  -2   -0.69   20.14
 -26  -6   2  104.50   24.62
 -24  -6   2  165.30   28.87
 -22  -6   2  -18.66    9.89
 -20  -6   2  389.26   31.57
 -18  -6   2  232.77   23.36
 -16  -6   2   17.31   12.32
 -14  -6   2  788.04   35.85
 -12  -6   2  672.00   30.54
 -10  -6   2  194.07   15.99
  10   6  -2  222.33   14.93
 -10  -6   2  205.61   11.07
   8   6  -2 1491.09   36.75
  -8  -6   2 1450.39   41.78
  -8  -6   2 1445.74   32.75
  -6  -6   2   -4.46    4.26
  -6  -6   2   -1.59    3.78
   6   6  -2   -1.26    3.71
  -4  -6   2  251.24   13.31
   4   6  -2  271.44   10.18
  -4  -6   2  260.86   15.67
  -2  -6   2 3692.40   71.54
   2   6  -2 3608.03   56.84
  -2  -6   2 3705.35   68.08
   0  -6   2   74.86    9.89
   0  -6   2   50.69    9.09
   2  -6   2 2106.77   50.00
   2  -6   2 2082.10   49.89
   4  -6   2 2405.19   56.96
  -4   6  -2 2459.92   58.14
  -6   6  -2   23.69    8.83
  -8   6  -2  395.89   24.24
 -10   6  -2  983.80   41.39
 -12   6  -2   20.63   12.62
 -14   6  -2  364.74   29.35
 -16   6  -2  731.29   43.55
 -18   6  -2  -10.86   14.74
 -20   6  -2  311.47   40.21
 -22   6  -2   88.74   27.80
 -27  -5   2  493.69   42.44
 -25  -5   2   10.06   17.59
 -23  -5   2  859.91   49.06
 -21  -5   2 1167.12   54.25
 -19  -5   2   53.04   16.18
 -17  -5   2 1380.53   52.67
 -15  -5   2 1042.11   42.15
 -13  -5   2  345.24   22.19
  13   5  -2  351.19   21.24
 -11  -5   2 3247.49   72.04
  11   5  -2 3334.44   70.59
 -11  -5   2 3259.30   54.31
  -9  -5   2  784.98   28.97
  -9  -5   2  802.89   20.20
   9   5  -2  857.89   27.57
  -7  -5   2 1412.59   38.26
  -7  -5   2 1389.53   29.58
   7   5  -2 1437.82   33.66
  -5  -5   2 4791.04   76.19
   5   5  -2 4809.61   76.71
  -5  -5   2 4818.92   84.47
   3   5  -2  565.30   14.42
  -3  -5   2  579.06   18.98
  -3  -5   2  575.47   21.59
  -1  -5   2 2123.50   44.42
  -1  -5   2 2084.67   46.37
   1  -5   2 6594.61  108.22
   1  -5   2 6662.06  107.16
  -3   5  -2   36.18    7.93
  -5   5  -2 2761.37   62.22
  -7   5  -2 3743.77   79.58
  -9   5  -2   13.18    9.01
 -11   5  -2 2273.12   65.18
 -13   5  -2 1907.14   63.20
 -15   5  -2   35.88   14.97
 -17   5  -2 1301.20   58.74
 -19   5  -2  416.91   36.74
 -21   5  -2  109.91   27.34
 -23   5  -2  733.68   52.10
 -26  -4   2  -17.28   13.34
 -24  -4   2   12.38   14.79
 -22  -4   2    7.56   14.39
 -20  -4   2   -5.82   10.43
 -18  -4   2  174.38   23.08
 -16  -4   2   -0.69    8.50
  14   4  -2   98.34   14.45
 -14  -4   2   89.95   14.11
  12   4  -2   23.98    8.59
 -12  -4   2   19.24    4.74
 -12  -4   2    9.19    7.43
 -10  -4   2    0.04    4.91
  10   4  -2    5.08    5.45
 -10  -4   2    8.75    3.48
  -8  -4   2  256.01    9.14
  -8  -4   2  279.73   15.43
   8   4  -2  247.29   13.68
  -6  -4   2  740.81   17.54
   6   4  -2  728.56   20.75
  -6  -4   2  742.19   24.11
  -4  -4   2  768.75   23.68
   4   4  -2  774.71   18.71
  -4  -4   2  795.80   19.66
  -2  -4   2   64.63    6.20
  -2  -4   2   59.87    7.02
   0  -4   2 1249.19   30.11
   0  -4   2 1249.12   31.42
  -2   4  -2   27.68    6.18
  -4   4  -2  189.81   13.42
  -6   4  -2    1.00    5.90
  -8   4  -2   41.09   10.87
 -10   4  -2  292.90   21.44
 -12   4  -2   92.71   17.59
 -14   4  -2   23.92   14.41
 -16   4  -2    5.73   13.05
 -18   4  -2   12.04   15.61
 -20   4  -2   47.93   20.80
 -22   4  -2   17.39   17.29
 -27  -3   2  394.55   36.03
 -25  -3   2  -15.86   12.76
 -23  -3   2  746.74   45.21
 -21  -3   2 1061.24   50.46
 -19  -3   2   -4.07    9.55
 -17  -3   2 1907.78   61.53
 -15  -3   2  591.67   30.61
  13   3  -2  257.15   18.41
 -13  -3   2  279.72   11.02
 -13  -3   2  292.46   19.95
 -11  -3   2 3878.41   78.14
 -11  -3   2 3957.53   60.07
  11   3  -2 3886.32   78.81
  -9  -3   2 1264.58   35.23
   9   3  -2 1298.09   34.89
   7   3  -2  911.62   25.06
  -5  -3   2 3491.95   60.92
   5   3  -2 3538.18   58.80
  -5  -3   2 3443.41   52.47
  -3  -3   2   42.57    6.07
  -3  -3   2   53.31    4.61
   3   3  -2   47.58    4.03
  -1  -3   2 8044.27  117.28
  -1  -3   2 8343.91  120.20
  -3   3  -2   -1.13    3.38
  -5   3  -2 2988.26   60.31
  -7   3  -2 5907.58  104.16
  -9   3  -2  174.86   15.94
 -11   3  -2 2523.52   66.83
 -13   3  -2  747.20   37.27
 -15   3  -2   -4.57   11.71
 -17   3  -2 1044.57   49.97
 -19   3  -2  361.05   32.27
 -21   3  -2  169.35   27.58
 -23   3  -2  752.56   48.87
 -28  -2   2   23.34   18.07
 -26  -2   2  328.42   32.83
 -24  -2   2  416.89   34.47
 -22  -2   2    6.92   12.15
 -20  -2   2  797.11   41.85
 -18  -2   2  933.04   42.89
 -16  -2   2   55.61   13.81
 -14  -2   2 1384.14   28.97
  14   2  -2 1463.57   46.71
 -14  -2   2 1431.83   46.71
  12   2  -2 1609.45   45.00
 -12  -2   2 1339.92   26.58
 -12  -2   2 1386.09   42.70
 -10  -2   2  640.61   25.00
  10   2  -2  697.55   25.67
   8   2  -2 2836.63   55.67
  -8  -2   2 2831.94   55.27
  -6  -2   2  895.76   23.42
   6   2  -2  874.82   23.01
  -4  -2   2  706.84   18.41
   4   2  -2  678.52   17.35
  -2  -2   2 4667.28   71.09
   0  -2   2 4121.12   64.04
  -2   2  -2  154.71    9.13
  -4   2  -2 2855.21   54.52
  -6   2  -2  846.30   27.94
  -8   2  -2 2473.50   58.57
 -10   2  -2 1518.94   47.49
 -12   2  -2   21.13   11.44
 -14   2  -2 1742.20   59.73
 -16   2  -2  858.68   42.89
 -18   2  -2    9.81   13.75
 -20   2  -2  356.38   32.02
 -22   2  -2  203.07   30.04
 -24   2  -2    9.62   16.75
 -27  -1   2   83.86   22.59
 -25  -1   2    1.41   13.82
 -23  -1   2  118.71   23.04
 -21  -1   2   20.50   13.03
 -19  -1   2   79.02   18.04
 -17  -1   2  224.51   21.08
 -15  -1   2    1.76    7.10
  15   1  -2   -6.55    5.51
  13   1  -2  123.06   13.42
 -13  -1   2  109.10   15.85
  11   1  -2  392.49   20.13
 -11  -1   2  376.99   20.34
   9   1  -2  644.90   23.17
  -9  -1   2  673.63   23.97
  -7  -1   2  487.44   17.31
   7   1  -2  477.46   17.05
   5   1  -2 3461.24   58.96
  -5  -1   2 3595.41   56.53
  -3  -1   2 1517.28   26.52
   3   1  -2 1444.01   27.94
  -1  -1   2 2847.25   44.09
  -1   1  -2  549.85   14.83
  -3   1  -2   44.84    6.36
  -5   1  -2   21.40    6.35
  -7   1  -2  148.96   13.02
 -11   1  -2  346.09   23.57
 -13   1  -2  290.74   23.51
 -15   1  -2   60.61   15.72
 -17   1  -2  323.73   27.10
 -19   1  -2  102.84   22.00
 -21   1  -2   36.71   16.96
 -23   1  -2   48.23   19.13
 -28   0   2   10.57   17.13
 -26   0   2  512.39   38.93
 -24   0   2  849.21   47.46
 -22   0   2   -3.98   11.21
 -20   0   2 1264.64   52.73
 -18   0   2 1168.75   48.38
 -16   0   2  666.86   33.81
 -14   0   2 3155.92   74.33
  14   0  -2 2928.04   72.28
 -12   0   2 8856.18  145.81
  12   0  -2 8452.59  146.54
  10   0  -2   24.66    6.70
 -10   0   2   31.57    8.20
  -8   0   2 9995.77  147.89
   8   0  -2 9687.05  150.38
   6   0  -2 6317.26   98.29
  -6   0   2 6264.83   95.36
   4   0  -2 5604.51   87.56
  -4   0   2 5931.13   83.24
   2   0  -2 4267.61   61.97
  -2   0  -2  982.35   23.25
  -4   0  -2 2011.24   43.03
  -6   0  -2 1853.64   45.54
  -8   0  -2 1926.57   50.49
 -10   0  -2 1639.22   49.57
 -12   0  -2  147.63   18.65
 -14   0  -2 2194.66   65.26
 -16   0  -2 1678.35   59.24
 -18   0  -2   44.11   15.65
 -20   0  -2  888.68   47.41
 -22   0  -2  578.35   40.18
 -24   0  -2  105.83   23.45
 -27   1   2   93.17   24.22
 -25   1   2    2.52   13.46
 -23   1   2  126.81   24.17
 -21   1   2   29.14   14.84
 -19   1   2   43.06   15.53
 -17   1   2  272.52   23.34
  15  -1  -2    6.80    7.46
 -15   1   2   14.16    9.15
 -13   1   2  111.76   15.82
  13  -1  -2  121.59   13.33
 -11   1   2  401.40   22.07
  11  -1  -2  383.64   19.92
   9  -1  -2  652.70   17.42
   9  -1  -2  679.77   23.59
  -9   1   2  612.12   24.30
   7  -1  -2  459.41   12.88
   7  -1  -2  464.60   16.68
  -7   1   2  465.59   18.32
   5  -1  -2 3647.72   55.81
  -5   1   2 3638.92   59.12
   5  -1  -2 3684.64   60.93
   3  -1  -2 1436.89   27.00
   1  -1  -2 2710.83   43.49
  -1  -1  -2  549.62   15.17
  -1  -1  -2  579.74   14.77
  -3  -1  -2   38.87    6.20
  -3  -1  -2   23.94    4.70
  -5  -1  -2   15.87    4.34
  -5  -1  -2   34.80    7.11
  -7  -1  -2  134.43    9.77
  -7  -1  -2  147.35   12.74
  -9  -1  -2   11.77    6.24
  -9  -1  -2   17.47    8.52
 -11  -1  -2  361.30   23.27
 -11  -1  -2  363.05   18.44
 -13  -1  -2  267.31   17.41
 -13  -1  -2  241.29   21.20
 -15  -1  -2   29.60   13.52
 -15  -1  -2   28.10    9.40
 -17  -1  -2  369.61   28.64
 -19  -1  -2   85.41   20.08
 -21  -1  -2   48.53   16.98
 -23  -1  -2   28.64   16.42
 -28   2   2   18.54   18.39
 -26   2   2  343.16   32.87
 -24   2   2  398.02   33.90
 -22   2   2    2.86   12.06
 -20   2   2  860.59   43.85
 -18   2   2  963.34   43.77
 -16   2   2   71.12   15.56
 -14   2   2 1521.82   49.67
  14  -2  -2 1459.99   47.32
  12  -2  -2 1384.43   42.19
 -12   2   2 1373.86   43.70
 -10   2   2  653.99   26.11
  10  -2  -2  685.61   20.51
  10  -2  -2  633.75   24.68
   8  -2  -2 2847.75   55.78
   8  -2  -2 2839.85   49.96
  -8   2   2 2896.80   56.68
  -6   2   2  936.68   23.34
   6  -2  -2  903.98   23.25
   6  -2  -2  922.82   21.94
  -4   2   2  703.77   15.99
   4  -2  -2  681.59   18.06
   4  -2  -2  702.90   17.37
   0  -2  -2 4017.34   59.21
  -2  -2  -2  133.21    7.95
  -2  -2  -2  122.98    7.46
  -4  -2  -2 2887.75   54.13
  -4  -2  -2 3005.63   52.58
  -6  -2  -2  858.35   24.93
  -6  -2  -2  916.58   28.78
  -8  -2  -2 2534.02   52.07
  -8  -2  -2 2577.46   59.26
 -10  -2  -2 1567.77   40.13
 -10  -2  -2 1613.50   48.03
 -12  -2  -2   12.79    9.34
 -12  -2  -2    3.75    6.27
 -14  -2  -2 1709.80   56.85
 -14  -2  -2 1782.22   47.69
 -16  -2  -2  806.37   40.03
 -18  -2  -2   10.66   12.39
 -20  -2  -2  344.34   29.87
 -22  -2  -2  240.80   30.75
 -24  -2  -2  -23.29   12.70
 -27   3   2  431.87   39.74
 -25   3   2   -9.66   13.70
 -23   3   2  742.34   44.71
 -21   3   2 1031.99   49.67
 -19   3   2    4.77   11.72
 -17   3   2 2031.52   65.13
 -15   3   2  636.86   33.15
  13  -3  -2  278.83   19.22
 -13   3   2  270.48   20.20
  11  -3  -2 3964.78   71.60
  11  -3  -2 4016.71   80.45
 -11   3   2 4022.05   80.82
   9  -3  -2 1323.23   35.16
   9  -3  -2 1369.83   32.68
  -9   3   2 1279.23   35.71
  -7   3   2  902.90   25.39
   7  -3  -2  906.47   24.38
   7  -3  -2  904.40   24.73
   5  -3  -2 3442.21   57.84
  -5   3   2 3457.75   57.25
   5  -3  -2 3443.91   59.60
   3  -3  -2   47.03    4.46
   3  -3  -2   59.40    6.38
   1  -3  -2 8019.26  120.52
   1  -3  -2 8199.62  114.04
  -1  -3  -2 2061.84   37.38
  -1  -3  -2 2165.24   42.20
  -3  -3  -2    2.43    3.72
  -3  -3  -2    2.04    2.71
  -5  -3  -2 2960.57   57.29
  -5  -3  -2 2964.64   55.22
  -7  -3  -2 5961.62  103.69
  -7  -3  -2 6117.25   98.56
  -9  -3  -2  156.02   12.09
  -9  -3  -2  160.65   15.04
 -11  -3  -2 2501.02   55.10
 -11  -3  -2 2369.28   62.69
 -13  -3  -2  853.84   30.86
 -13  -3  -2  853.85   37.83
 -15  -3  -2   -2.15    8.87
 -17  -3  -2 1164.16   50.06
 -19  -3  -2  393.75   31.75
 -21  -3  -2  155.84   25.62
 -23  -3  -2  743.21   46.71
 -26   4   2    5.03   15.56
 -24   4   2   27.15   18.26
 -22   4   2    2.65   14.60
 -20   4   2    4.88   12.71
 -18   4   2  168.74   24.55
 -16   4   2   -8.99    8.74
 -14   4   2   83.49   15.24
  14  -4  -2   58.26   12.20
  12  -4  -2   13.88    7.73
  12  -4  -2   28.66    7.85
 -12   4   2    4.38    7.44
  10  -4  -2    5.76    5.68
 -10   4   2   18.07    6.84
  10  -4  -2   20.98    6.47
   8  -4  -2  278.74   14.81
  -8   4   2  293.21   15.73
   8  -4  -2  272.35   14.21
  -6   4   2  771.58   22.95
   6  -4  -2  763.96   20.74
   6  -4  -2  730.25   23.40
   4  -4  -2  783.48   23.94
   4  -4  -2  804.33   18.83
   2  -4  -2   50.66    5.59
   2  -4  -2   61.49    8.69
   0  -4  -2 1276.05   27.80
   0  -4  -2 1209.17   31.59
  -2  -4  -2   40.21    6.00
  -2  -4  -2   32.86    7.04
  -4  -4  -2  181.45   11.18
  -4  -4  -2  173.46   11.85
  -6  -4  -2   -2.44    4.89
  -6  -4  -2    0.29    4.85
  -8  -4  -2   56.27   10.24
  -8  -4  -2   28.57    7.68
 -10  -4  -2  270.89   19.85
 -10  -4  -2  279.62   16.81
 -12  -4  -2   79.15   14.70
 -12  -4  -2   82.20   13.13
 -14  -4  -2   34.49   12.75
 -16  -4  -2   -0.74   10.41
 -18  -4  -2   16.80   13.69
 -20  -4  -2   17.90   15.72
 -22  -4  -2   25.05   16.44
 -24  -4  -2    4.12   18.19
 -27   5   2  464.50   41.56
 -25   5   2    8.43   14.86
 -23   5   2  982.84   54.18
 -21   5   2 1316.13   60.03
 -19   5   2   55.42   17.73
 -17   5   2 1424.89   54.72
 -15   5   2 1022.98   42.98
  13  -5  -2  310.92   19.04
  13  -5  -2  337.81   21.53
 -13   5   2  329.20   22.29
  11  -5  -2 3392.99   72.21
  11  -5  -2 3326.60   69.10
 -11   5   2 3402.15   73.44
   9  -5  -2  856.67   27.71
  -9   5   2  874.88   30.01
   9  -5  -2  856.35   28.65
   7  -5  -2 1458.66   38.11
  -7   5   2 1421.37   37.05
   7  -5  -2 1461.98   33.65
   5  -5  -2 5114.36   78.76
   5  -5  -2 4961.94   86.65
  -5   5   2 4863.70   82.90
   3  -5  -2  557.27   14.14
   3  -5  -2  532.03   21.12
   3  -5  -2  578.86   18.89
   1  -5  -2 2159.00   42.69
   1  -5  -2 2142.47   47.93
  -1  -5  -2 6517.42   99.95
  -1  -5  -2 6328.44  105.66
  -3  -5  -2   45.26    8.90
  -3  -5  -2   47.74    7.59
  -5  -5  -2 2516.97   55.22
  -5  -5  -2 2593.46   54.12
  -7  -5  -2 3534.62   72.35
  -7  -5  -2 3696.11   71.42
  -9  -5  -2    9.26    6.61
  -9  -5  -2   24.30    8.42
 -11  -5  -2 2158.90   59.51
 -11  -5  -2 2117.93   52.56
 -13  -5  -2 1864.60   58.65
 -15  -5  -2   41.21   15.00
 -17  -5  -2 1282.34   54.41
 -19  -5  -2  337.01   30.21
 -21  -5  -2  108.98   23.56
 -23  -5  -2  633.29   43.68
 -26   6   2   70.63   24.21
 -24   6   2  190.87   32.24
 -22   6   2  -21.11   14.99
 -20   6   2  419.04   34.84
 -18   6   2  256.71   25.90
 -16   6   2   -0.35   10.98
 -14   6   2  797.10   36.61
  14  -6  -2  766.71   31.95
 -12   6   2  652.58   30.78
  12  -6  -2  652.91   28.29
  10  -6  -2  206.37   15.62
 -10   6   2  214.92   17.21
  10  -6  -2  242.54   15.86
   8  -6  -2 1577.89   37.52
   8  -6  -2 1499.25   41.85
  -8   6   2 1510.29   41.78
   6  -6  -2    0.16    4.85
  -6   6   2    1.75    4.58
   6  -6  -2   -2.98    3.37
   4  -6  -2  249.97   14.16
   4  -6  -2  262.92   15.96
   4  -6  -2  266.09    9.71
   2  -6  -2 3636.12   71.73
   2  -6  -2 3579.10   65.30
   0  -6  -2   72.00    7.76
   0  -6  -2   53.55    9.53
  -2  -6  -2 1977.31   48.78
  -2  -6  -2 2056.80   45.05
  -4  -6  -2 2344.52   54.77
  -4  -6  -2 2315.68   51.29
  -6  -6  -2   26.01    8.12
  -6  -6  -2   21.61    8.99
  -8  -6  -2  377.12   20.95
  -8  -6  -2  368.29   21.33
 -10  -6  -2  921.10   36.48
 -10  -6  -2  954.59   34.55
 -12  -6  -2   15.79   10.53
 -14  -6  -2  376.59   28.01
 -16  -6  -2  631.40   37.55
 -18  -6  -2    4.74   14.13
 -20  -6  -2  260.38   28.62
 -22  -6  -2  120.65   27.01
 -25   7   2  -12.73   16.95
 -23   7   2  255.68   35.95
 -21   7   2  158.93   28.16
 -19   7   2  241.34   31.29
 -17   7   2  878.33   44.97
 -15   7   2  221.53   22.18
  15  -7  -2  224.74   19.73
  13  -7  -2  121.82   16.42
 -13   7   2  121.85   17.84
 -11   7   2 1268.03   43.10
  11  -7  -2 1216.22   40.99
  -9   7   2  432.22   23.17
   9  -7  -2  507.01   24.64
   9  -7  -2  474.30   20.33
   7  -7  -2  712.56   21.67
   7  -7  -2  696.60   28.66
  -7   7   2  695.13   27.33
   5  -7  -2 3336.96   55.68
   5  -7  -2 3395.38   66.60
   5  -7  -2 3350.44   71.62
   3  -7  -2  541.98   21.76
   3  -7  -2  547.91   24.71
   1  -7  -2  719.39   25.06
   1  -7  -2  723.98   28.79
  -1  -7  -2 1250.15   38.87
  -1  -7  -2 1340.52   35.88
  -3  -7  -2   -5.94    4.50
  -3  -7  -2   -4.00    5.69
  -5  -7  -2  722.57   27.64
  -5  -7  -2  734.90   29.75
  -7  -7  -2  788.81   30.82
  -7  -7  -2  776.14   31.56
  -9  -7  -2   16.97   10.04
  -9  -7  -2   38.40   10.71
 -11  -7  -2  348.61   24.77
 -11  -7  -2  327.24   22.99
 -13  -7  -2  643.44   34.79
 -15  -7  -2   46.93   15.12
 -17  -7  -2  539.04   36.83
 -19  -7  -2  180.20   27.34
 -21  -7  -2   44.78   19.47
 -24   8   2  435.18   42.81
 -22   8   2   -7.87   16.95
 -20   8   2 1107.18   55.88
 -18   8   2 1091.94   52.18
 -16   8   2   -4.21   10.54
  16  -8  -2   -4.16    9.13
  14  -8  -2 1684.29   54.81
 -14   8   2 1775.93   59.21
 -12   8   2 1112.11   43.52
  12  -8  -2 1172.93   42.91
  10  -8  -2  514.08   27.07
 -10   8   2  496.00   27.02
   8  -8  -2 2876.14   69.08
  -8   8   2 2866.71   66.30
  -6   8   2  658.89   27.09
   6  -8  -2  666.31   29.69
   4  -8  -2  852.95   29.96
   4  -8  -2  859.37   33.41
   2  -8  -2 4821.99   95.38
   2  -8  -2 4852.57   88.35
   0  -8  -2  502.33   22.45
   0  -8  -2  483.47   24.81
  -2  -8  -2 1113.50   38.71
  -2  -8  -2 1153.02   35.33
  -4  -8  -2 2884.65   63.93
  -4  -8  -2 2808.30   67.62
  -6  -8  -2   74.88   12.73
  -6  -8  -2   49.34   11.83
  -8  -8  -2 1577.43   48.58
  -8  -8  -2 1478.87   47.35
 -10  -8  -2 2239.58   63.25
 -10  -8  -2 2318.38   62.31
 -12  -8  -2   29.94   11.74
 -14  -8  -2  984.78   45.44
 -16  -8  -2  905.29   46.44
 -18  -8  -2    0.27   13.77
 -20  -8  -2  878.27   51.37
 -23   9   2   -7.86   18.29
 -21   9   2   13.05   18.43
 -19   9   2   -5.50   16.35
 -17   9   2   -0.38   12.57
 -15   9   2   -8.39   10.57
  15  -9  -2   -0.51    9.47
 -13   9   2   37.24   14.70
  13  -9  -2   47.04   14.11
  11  -9  -2   90.41   16.37
 -11   9   2   46.05   12.66
  -9   9   2    4.13    7.10
   9  -9  -2    1.57    7.23
   7  -9  -2    4.95    7.54
  -7   9   2   10.53    7.48
   5  -9  -2   -4.50    5.57
   5  -9  -2    6.56    6.66
   3  -9  -2   65.21   12.85
   3  -9  -2  105.39   11.84
   1  -9  -2   84.77   12.24
   1  -9  -2   64.76   12.76
  -1  -9  -2   47.47   11.76
  -1  -9  -2   39.09    8.93
  -3  -9  -2   21.29    9.14
  -3  -9  -2   45.05    9.98
  -5  -9  -2    6.37    8.64
  -5  -9  -2   23.45    9.61
  -7  -9  -2   12.06    9.40
  -7  -9  -2   13.40    8.47
  -9  -9  -2    7.64    9.94
  -9  -9  -2    6.38    8.92
 -11  -9  -2    1.58    8.87
 -13  -9  -2   13.67   11.22
 -15  -9  -2   -8.58   11.03
 -17  -9  -2    5.56   12.87
 -19  -9  -2   -0.57   13.93
 -21  -9  -2   12.17   17.74
 -22  10   2    9.44   19.16
 -20  10   2  567.57   42.80
 -18  10   2  472.66   36.50
  16 -10  -2  -11.59    8.87
 -16  10   2   -9.70   10.43
  14 -10  -2 1834.37   62.85
 -14  10   2 1934.82   65.10
 -12  10   2  566.01   32.39
  12 -10  -2  549.71   32.67
 -10  10   2  433.13   27.32
  10 -10  -2  410.91   27.49
   8 -10  -2 1733.21   56.33
  -8  10   2 1796.70   53.09
  -6  10   2  419.52   23.49
   6 -10  -2  417.19   26.55
   4 -10  -2  387.33   25.57
   4 -10  -2  363.97   22.25
   2 -10  -2 1894.50   51.84
   2 -10  -2 1940.22   58.27
   0 -10  -2  506.40   28.73
   0 -10  -2  496.48   24.82
  -2 -10  -2  847.86   37.31
  -2 -10  -2  900.43   34.26
  -4 -10  -2 1779.95   56.43
  -4 -10  -2 1920.56   53.53
  -6 -10  -2  141.76   19.88
  -6 -10  -2  144.36   16.03
  -8 -10  -2 1589.04   52.40
  -8 -10  -2 1631.55   54.10
 -10 -10  -2 1153.53   45.91
 -12 -10  -2    0.58   10.29
 -14 -10  -2  896.88   45.79
 -16 -10  -2  402.81   33.65
 -18 -10  -2   29.29   17.03
 -20 -10  -2  592.77   45.31
 -21  11   2  176.53   32.72
 -19  11   2   10.70   18.66
 -17  11   2  729.31   44.04
  17 -11  -2  725.68   42.15
  15 -11  -2  232.75   24.34
 -15  11   2  233.66   25.09
  13 -11  -2   67.34   17.21
 -13  11   2   38.74   15.68
 -11  11   2 1138.34   46.21
  11 -11  -2 1098.15   48.07
   9 -11  -2  244.01   22.86
  -9  11   2  236.50   20.94
  -7  11   2  468.67   26.97
   7 -11  -2  430.46   28.95
   5 -11  -2 1524.18   48.03
   5 -11  -2 1441.98   52.83
   3 -11  -2  411.54   23.94
   3 -11  -2  395.38   27.29
   1 -11  -2  206.44   19.92
   1 -11  -2  174.17   16.18
  -1 -11  -2  518.52   27.17
  -1 -11  -2  544.17   31.28
  -3 -11  -2   28.34   11.06
  -3 -11  -2   35.02   11.75
  -5 -11  -2  975.88   39.36
  -5 -11  -2  953.41   42.10
  -7 -11  -2  780.12   37.97
  -7 -11  -2  793.23   37.13
  -9 -11  -2   11.74   11.43
 -11 -11  -2  424.63   30.23
 -13 -11  -2  285.12   26.90
 -15 -11  -2   -0.24   12.27
 -17 -11  -2  402.58   35.21
 -19 -11  -2  187.31   31.28
 -20  12   2   41.88   20.69
 -18  12   2   27.62   19.00
  16 -12  -2   31.23   16.17
 -16  12   2   -5.16   13.29
  14 -12  -2   89.28   19.84
 -14  12   2  103.68   20.91
  12 -12  -2  139.55   22.64
 -12  12   2  127.62   22.11
 -10  12   2   70.80   17.32
  10 -12  -2   61.26   16.17
   8 -12  -2  367.40   28.45
  -8  12   2  358.84   24.84
  -6  12   2   99.47   16.31
   6 -12  -2  139.90   22.98
   4 -12  -2   97.53   16.27
   4 -12  -2  112.37   19.63
   2 -12  -2  341.80   27.46
   2 -12  -2  343.31   23.06
   0 -12  -2   -6.70    7.50
   0 -12  -2    5.44    9.46
  -2 -12  -2  339.38   23.36
  -2 -12  -2  317.27   26.06
  -4 -12  -2  400.66   25.77
  -4 -12  -2  381.28   28.38
  -6 -12  -2  -12.97    7.76
  -6 -12  -2   -4.12   10.05
  -8 -12  -2  104.48   19.33
 -10 -12  -2  252.46   23.84
 -12 -12  -2   19.86   14.34
 -14 -12  -2   33.18   17.01
 -16 -12  -2  174.43   28.73
 -19  13   2    2.85   16.15
 -17  13   2  682.90   44.96
  17 -13  -2  678.62   44.46
 -15  13   2  510.60   36.65
  15 -13  -2  509.64   37.59
 -13  13   2   80.22   18.13
  13 -13  -2  141.22   25.94
 -11  13   2 1035.40   46.81
  11 -13  -2 1033.87   50.76
  -9  13   2  444.08   28.83
   9 -13  -2  375.66   30.96
   7 -13  -2  334.20   28.53
  -7  13   2  293.08   23.88
   5 -13  -2 1297.62   48.23
   5 -13  -2 1474.10   58.27
   3 -13  -2  220.85   20.98
   3 -13  -2  271.75   25.65
   1 -13  -2  672.29   38.88
   1 -13  -2  668.60   33.84
  -1 -13  -2 1443.49   57.16
  -1 -13  -2 1438.99   50.25
  -3 -13  -2   70.33   15.32
  -3 -13  -2   29.37   13.24
  -5 -13  -2  716.32   40.38
  -5 -13  -2  719.19   36.58
  -7 -13  -2  631.49   35.17
  -9 -13  -2  -12.41   10.45
 -11 -13  -2  759.62   42.74
 -13 -13  -2  658.08   41.65
 -15 -13  -2   30.08   18.87
 -18  14   2   69.26   23.59
 -16  14   2   -6.68   14.58
  16 -14  -2   12.99   16.95
 -14  14   2   25.76   17.49
  14 -14  -2   22.37   16.73
 -12  14   2   11.69   13.88
  12 -14  -2   30.64   18.48
  10 -14  -2   -0.20   12.68
 -10  14   2    0.29   11.08
   8 -14  -2   22.47   14.60
  -8  14   2   13.88   12.25
   6 -14  -2   19.29   13.45
  -6  14   2  -12.81    8.80
   4 -14  -2  204.92   21.08
   4 -14  -2  248.67   31.65
   2 -14  -2  153.84   20.19
   2 -14  -2  135.44   24.23
   0 -14  -2    6.68   10.15
   0 -14  -2   -1.09   12.34
  -2 -14  -2   93.04   21.26
  -2 -14  -2  116.54   19.46
  -4 -14  -2  128.75   20.38
  -4 -14  -2   64.83   19.40
  -6 -14  -2    9.60   11.90
  -8 -14  -2   37.07   16.26
 -10 -14  -2   50.77   18.06
 -12 -14  -2    6.21   13.74
 -14 -14  -2   -7.95   14.77
 -15  15   2  193.09   29.46
  15 -15  -2  197.36   31.74
 -13  15   2   68.90   20.05
  13 -15  -2   65.48   21.79
 -11  15   2  537.98   36.35
  11 -15  -2  504.02   39.64
   9 -15  -2  185.57   29.14
  -9  15   2  172.43   23.76
  -7  15   2   81.83   17.41
   7 -15  -2  103.01   23.92
   5 -15  -2  502.30   37.43
   3 -15  -2   -8.31    9.43
   3 -15  -2  -18.46   11.90
   1 -15  -2  490.77   31.72
   1 -15  -2  463.34   36.75
  -1 -15  -2  751.03   39.20
  -1 -15  -2  810.67   46.94
  -3 -15  -2   62.13   20.38
  -3 -15  -2   61.73   17.81
  -5 -15  -2  303.54   26.50
  -7 -15  -2  505.44   34.72
  -9 -15  -2    5.41   13.13
 -11 -15  -2  369.97   32.07
 -14  16   2  359.34   33.18
 -12  16   2   89.93   22.88
  12 -16  -2  136.65   28.70
  10 -16  -2  113.82   26.01
 -10  16   2   74.73   20.32
   8 -16  -2  555.29   42.16
  -8  16   2  506.63   34.70
   6 -16  -2  174.89   30.00
  -6  16   2  145.11   24.05
   4 -16  -2   64.75   20.60
   4 -16  -2  140.19   23.11
   2 -16  -2  700.47   39.14
   2 -16  -2  731.84   46.64
   0 -16  -2  111.55   20.15
   0 -16  -2  109.43   25.28
  -2 -16  -2  205.41   23.10
  -2 -16  -2  221.39   32.57
  -4 -16  -2  484.21   33.56
  -6 -16  -2    1.49   12.38
  -8 -16  -2  259.04   27.10
 -10 -16  -2  309.11   30.40
  -9  17   2    7.82   14.66
   9 -17  -2   -6.99   16.68
  -7  17   2   25.75   14.22
   7 -17  -2  -18.18   14.45
  -5  17   2   33.72   16.40
   5 -17  -2   62.96   23.60
   3 -17  -2   15.34   16.12
   3 -17  -2   24.95   16.11
   1 -17  -2   27.97   15.47
   1 -17  -2   10.24   16.88
  -1 -17  -2   71.37   23.23
  -1 -17  -2   59.54   18.53
  -3 -17  -2   -2.49   14.11
  -5 -17  -2    3.84   15.36
   2 -18  -2  283.04   39.24
 -11 -17   3  136.12   26.43
  -9 -17   3  599.38   42.10
  -7 -17   3  141.81   25.78
  -5 -17   3  224.82   30.84
  -3 -17   3  461.06   36.58
  -1 -17   3   41.14   19.53
  -1 -17   3   41.88   20.30
  -1  17  -3  334.20   36.68
  -3  17  -3  582.17   44.58
  -5  17  -3   -6.18   16.26
 -14 -16   3   47.62   19.79
 -12 -16   3  213.39   31.59
 -10 -16   3  121.08   24.62
  -8 -16   3   75.27   20.00
  -6 -16   3  249.64   30.50
  -4 -16   3   36.41   16.49
  -2 -16   3   84.70   22.35
  -2 -16   3   98.67   22.11
   0 -16   3  260.16   27.25
   0 -16   3  282.21   35.62
  -2  16  -3   22.94   16.33
  -4  16  -3  148.46   26.66
  -6  16  -3   93.54   23.72
  -8  16  -3  -11.46   14.07
 -17 -15   3   23.33   17.29
 -15 -15   3  180.61   28.80
 -13 -15   3   80.26   21.51
 -11 -15   3   43.81   17.01
  -9 -15   3  423.77   32.87
  -7 -15   3   64.86   18.25
  -5 -15   3  108.59   21.18
  -3 -15   3  417.35   33.58
  -3 -15   3  372.90   30.70
  -1 -15   3   82.90   19.09
  -1 -15   3   53.93   18.99
   1 -15   3  134.92   23.19
   1 -15   3  140.34   26.03
  -3  15  -3  374.94   33.06
  -5  15  -3    9.78   14.27
  -7  15  -3  167.86   27.00
  -9  15  -3  233.79   32.33
 -11  15  -3   -4.01   14.81
 -18 -14   3  506.77   40.48
 -16 -14   3  251.79   32.08
 -14 -14   3  107.06   22.54
 -12 -14   3  917.24   48.18
 -10 -14   3  275.25   27.23
  -8 -14   3  281.52   26.69
  -6 -14   3  979.15   46.78
  -4 -14   3    4.20   11.44
  -4 -14   3   -6.21   10.69
  -2 -14   3 1020.04   48.67
  -2 -14   3  959.19   46.39
   0 -14   3 1245.97   54.99
   0 -14   3 1180.75   52.01
   2 -14   3   42.77   16.32
  -4  14  -3  518.68   36.10
  -6  14  -3  573.38   37.78
  -8  14  -3    5.11   13.63
 -10  14  -3  578.80   41.32
 -12  14  -3  500.69   41.08
 -19 -13   3   -3.67   14.83
 -17 -13   3  -11.81   11.58
 -15 -13   3    2.34   12.32
 -13 -13   3   10.26   13.29
 -11 -13   3   14.35   12.71
  -9 -13   3   -4.33    9.72
  -7 -13   3   38.60   13.27
  -5 -13   3   16.13   11.31
  -5 -13   3   23.07   12.61
  -3 -13   3  -11.92    8.16
  -3 -13   3   -3.93    8.96
  -1 -13   3   11.69   10.04
  -1 -13   3    4.65   11.43
   1 -13   3   -7.14    9.11
   1 -13   3    0.00    9.76
   3 -13   3   -9.81   10.55
  -3  13  -3   -9.82    9.07
  -5  13  -3    5.93   11.61
  -7  13  -3   25.78   14.86
  -9  13  -3  -15.45   12.09
 -11  13  -3   -2.40   13.95
 -13  13  -3  -16.63   15.27
 -15  13  -3  -14.04   18.24
 -22 -12   3  299.26   39.74
 -20 -12   3   14.62   14.74
 -18 -12   3  699.63   44.55
 -16 -12   3  319.95   30.16
 -14 -12   3  145.25   23.45
 -12 -12   3 1091.74   49.02
 -10 -12   3  149.31   21.63
  -8 -12   3  372.44   27.63
  -6 -12   3 1710.96   58.33
  -6 -12   3 1679.98   54.30
  -4 -12   3  352.33   25.63
  -4 -12   3  413.09   27.91
  -2 -12   3  540.38   32.32
  -2 -12   3  499.03   30.93
   0 -12   3 1584.97   56.93
   0 -12   3 1616.93   57.03
   2 -12   3   -9.39    7.65
   2 -12   3   -7.02    8.38
  -4  12  -3 1395.84   53.89
  -6  12  -3 1014.89   46.69
  -8  12  -3    8.23   11.39
 -10  12  -3  725.87   43.15
 -12  12  -3  443.54   37.49
 -14  12  -3  -18.61   14.68
 -16  12  -3  486.21   43.78
 -23 -11   3   -7.77   15.27
 -21 -11   3  309.97   32.93
 -19 -11   3  292.84   30.21
 -17 -11   3    6.95   12.53
 -15 -11   3  800.60   42.74
 -13 -11   3  144.93   22.01
 -11 -11   3  167.29   22.16
  -9 -11   3  600.18   33.21
  -7 -11   3  163.76   17.69
  -7 -11   3  148.38   15.93
  -5 -11   3  172.66   17.90
  -5 -11   3  183.40   17.74
  -3 -11   3 1214.54   45.17
  -3 -11   3 1252.47   46.83
  -1 -11   3   -7.05    7.18
  -1 -11   3    9.80    9.44
   1 -11   3  680.75   35.22
   1 -11   3  661.83   34.40
   3 -11   3  867.80   41.18
  -3  11  -3  832.17   39.19
  -5  11  -3    0.50    9.10
  -7  11  -3  275.64   25.11
  -9  11  -3  440.60   32.81
 -11  11  -3  -12.56   11.11
 -13  11  -3  365.70   35.00
 -15  11  -3  329.86   34.33
 -17  11  -3    3.78   18.55
 -24 -10   3   44.13   21.30
 -22 -10   3   92.54   23.20
 -20 -10   3   -5.24   12.39
 -18 -10   3  490.51   36.03
 -16 -10   3  315.85   27.11
 -14 -10   3  104.45   18.54
 -12 -10   3  366.82   26.54
 -10 -10   3   59.05   13.91
  -8 -10   3   83.58   14.89
  -8 -10   3   68.30   11.90
  -6 -10   3  320.71   20.50
  -6 -10   3  329.50   23.03
  -4 -10   3  293.96   21.58
  -4 -10   3  284.37   19.92
  -2 -10   3   88.95   14.80
  -2 -10   3   79.19   13.68
   0 -10   3  156.65   16.56
   0 -10   3  158.12   16.69
   2 -10   3    9.21    8.63
   2 -10   3    2.82    8.79
  -4  10  -3  187.35   18.88
  -6  10  -3  169.41   21.95
  -8  10  -3    7.58   12.29
 -10  10  -3  236.89   25.04
 -12  10  -3  188.74   28.64
 -14  10  -3  -16.75   13.49
 -16  10  -3  106.98   26.17
 -18  10  -3   25.48   23.56
 -25  -9   3  468.82   41.84
 -23  -9   3   -3.88   13.81
 -21  -9   3  885.46   50.12
 -19  -9   3  486.91   35.55
 -17  -9   3   46.39   16.81
 -15  -9   3 1047.55   46.10
 -13  -9   3  391.56   26.99
 -11  -9   3  375.58   25.20
  -9  -9   3 2644.06   69.10
  -9  -9   3 2504.96   56.66
  -7  -9   3  564.57   28.80
  -7  -9   3  572.13   24.76
  -5  -9   3  761.79   33.47
  -5  -9   3  823.31   30.95
  -3  -9   3 3240.15   75.92
  -3  -9   3 3372.68   74.11
  -1  -9   3  487.80   26.57
  -1  -9   3  492.83   25.71
   1  -9   3 1171.62   42.53
   1  -9   3 1205.59   42.45
  -3   9  -3 2026.37   58.60
  -5   9  -3   -1.54    7.66
  -7   9  -3 1587.12   55.91
  -9   9  -3 1067.45   47.27
 -11   9  -3    3.00   11.50
 -13   9  -3 1155.80   55.26
 -15   9  -3  729.77   47.61
 -17   9  -3  218.53   35.51
 -19   9  -3 1015.11   62.82
 -26  -8   3  -27.41   15.90
 -24  -8   3    4.21   15.31
 -22  -8   3    0.08   13.85
 -20  -8   3   72.63   19.23
 -18  -8   3  475.14   33.31
 -16  -8   3  515.47   32.55
 -14  -8   3   43.61   13.48
  12   8  -3  322.52   19.02
 -12  -8   3  324.77   22.99
 -10  -8   3   -2.82    7.44
 -10  -8   3   -0.74    4.89
  10   8  -3    4.45    6.21
   8   8  -3    8.64    5.42
  -8  -8   3    6.41    5.75
  -8  -8   3   11.75    7.45
  -6  -8   3   71.08   11.95
   6   8  -3   81.07    7.57
  -6  -8   3   73.76   10.51
  -4  -8   3    4.62    5.98
  -4  -8   3   23.44    7.31
  -2  -8   3   33.78    9.56
  -2  -8   3   27.73    8.42
   0  -8   3  141.08   14.17
   0  -8   3  154.76   14.62
   2  -8   3   -2.28    5.92
   2  -8   3   -5.77    5.74
  -4   8  -3   99.65   14.97
  -6   8  -3  224.42   20.16
  -8   8  -3    9.95    9.93
 -10   8  -3  311.20   26.66
 -12   8  -3   71.13   18.77
 -14   8  -3   26.94   17.29
 -16   8  -3   78.83   23.65
 -18   8  -3  125.15   28.07
 -20   8  -3    6.57   21.81
 -25  -7   3  160.36   29.66
 -23  -7   3   -2.67   13.86
 -21  -7   3  756.34   44.65
 -19  -7   3  790.80   42.59
 -17  -7   3  139.35   20.98
 -15  -7   3 2059.35   63.24
 -13  -7   3  641.51   31.91
  13   7  -3  674.50   28.96
  11   7  -3  181.54   14.23
 -11  -7   3  191.11   17.43
  -9  -7   3  709.57   30.19
   9   7  -3  721.34   24.49
  -9  -7   3  700.09   22.29
  -7  -7   3  260.80   14.04
   7   7  -3  250.72   12.51
  -7  -7   3  238.99   17.24
  -5  -7   3  810.41   30.78
   5   7  -3  810.32   20.88
  -5  -7   3  816.10   26.72
   3   7  -3 4148.71   67.18
  -3  -7   3 4374.13   80.42
  -3  -7   3 4292.08   84.24
  -1  -7   3  168.58   14.64
  -1  -7   3  185.06   14.02
   1  -7   3 1563.91   44.44
   1  -7   3 1502.70   44.32
  -3   7  -3 1448.71   44.68
  -5   7  -3   53.61   12.05
  -7   7  -3 1024.06   40.95
  -9   7  -3 1119.05   46.27
 -11   7  -3    5.13   13.11
 -13   7  -3  669.35   40.44
 -15   7  -3  636.51   42.48
 -17   7  -3   10.71   17.58
 -19   7  -3  704.28   50.15
 -21   7  -3  265.97   41.37
 -26  -6   3    1.87   14.80
 -24  -6   3  640.54   43.51
 -22  -6   3  270.81   28.19
 -20  -6   3  223.67   27.62
 -18  -6   3  815.41   41.59
 -16  -6   3  450.75   29.03
  16   6  -3  468.95   26.99
  14   6  -3  194.24   16.48
 -14  -6   3  203.35   18.29
 -12  -6   3 2627.06   65.88
  12   6  -3 2665.31   61.67
  10   6  -3 1113.02   32.82
 -10  -6   3 1074.69   37.08
 -10  -6   3 1100.74   25.41
  -8  -6   3 1717.19   46.32
  -8  -6   3 1644.18   35.37
   8   6  -3 1723.58   39.12
  -6  -6   3 6366.00  109.84
   6   6  -3 6273.14   98.93
  -6  -6   3 6293.55   99.02
  -4  -6   3  654.97   25.72
   4   6  -3  704.49   18.57
  -4  -6   3  699.51   23.25
  -2  -6   3 2236.49   49.13
  -2  -6   3 2190.78   51.72
   0  -6   3 1594.03   42.92
  -2   6  -3    3.36    6.19
  -4   6  -3 2173.25   55.73
  -6   6  -3 2989.99   71.71
  -8   6  -3   27.14   11.48
 -10   6  -3 2793.77   76.20
 -12   6  -3 1129.66   48.89
 -14   6  -3   26.29   14.73
 -16   6  -3  774.56   46.80
 -18   6  -3  289.79   32.23
 -20   6  -3   92.00   28.41
 -27  -5   3   14.47   16.07
 -25  -5   3   15.00   16.19
 -23  -5   3  -15.62   12.99
 -21  -5   3   -2.69   10.23
 -19  -5   3   10.01   11.24
 -17  -5   3   15.80   11.12
  17   5  -3   21.29   10.46
 -15  -5   3  120.92   17.00
  15   5  -3  129.03   16.53
 -13  -5   3   13.84    8.02
  13   5  -3   18.92    7.88
 -11  -5   3   52.07   10.29
 -11  -5   3   62.34    5.04
  11   5  -3   87.24   11.62
  -9  -5   3   15.37    3.81
   9   5  -3   21.64    6.07
  -9  -5   3    6.60    6.00
   7   5  -3   -3.73    3.29
  -7  -5   3   -5.21    3.99
  -7  -5   3    1.21    3.09
   5   5  -3   22.70    4.62
  -5  -5   3    2.48    3.38
  -5  -5   3    4.75    4.27
  -3  -5   3  272.95   15.26
  -3  -5   3  284.37   13.52
  -1  -5   3    4.48    4.41
   1  -5   3  420.02   19.32
  -3   5  -3  640.47   25.90
  -5   5  -3    0.77    6.67
  -7   5  -3   59.65   12.47
  -9   5  -3   69.72   14.10
 -11   5  -3  142.18   21.26
 -13   5  -3   13.57   12.82
 -15   5  -3  158.67   25.49
 -17   5  -3  -16.13   13.79
 -19   5  -3   30.90   18.74
 -21   5  -3   -4.15   18.48
 -28  -4   3  553.50   43.09
 -26  -4   3   -0.18   13.28
 -24  -4   3  935.42   50.99
 -22  -4   3  913.30   47.65
 -20  -4   3   13.54   11.85
 -18  -4   3 1539.65   55.75
  16   4  -3  908.30   37.83
 -16  -4   3  915.71   39.30
  14   4  -3  657.83   29.64
 -14  -4   3  636.83   30.21
  12   4  -3 4313.56   85.35
 -12  -4   3 4332.36   86.78
 -10  -4   3 2350.86   54.73
  10   4  -3 2453.64   53.14
  -8  -4   3 4619.06   68.05
  -8  -4   3 4650.45   83.28
   8   4  -3 4680.12   80.60
  -6  -4   3 4938.16   74.22
   6   4  -3 5006.69   81.18
  -6  -4   3 4897.96   84.43
   4   4  -3  111.27    7.17
  -4  -4   3   99.60    8.75
  -2  -4   3 5923.31   95.81
   0  -4   3 4671.66   80.17
  -2   4  -3    8.80    5.35
  -4   4  -3 3489.79   70.47
  -6   4  -3 5568.44  102.70
  -8   4  -3   30.11    9.96
 -10   4  -3 3209.08   78.75
 -12   4  -3 2483.99   71.97
 -14   4  -3   77.95   19.18
 -16   4  -3 1298.91   57.78
 -18   4  -3  604.68   41.74
 -20   4  -3  231.91   34.44
 -22   4  -3  597.28   44.72
 -27  -3   3  134.61   27.14
 -25  -3   3  169.22   29.24
 -23  -3   3   -2.64   10.24
 -21  -3   3  391.70   30.44
 -19  -3   3  452.82   30.93
 -17  -3   3   81.40   15.79
  17   3  -3   53.69   13.01
  15   3  -3  169.47   16.00
 -15  -3   3  157.93   16.16
  13   3  -3  586.46   26.56
 -13  -3   3  622.52   28.19
 -11  -3   3  951.68   32.01
  11   3  -3  872.77   29.75
   9   3  -3  883.46   26.82
  -9  -3   3  863.82   27.74
   7   3  -3  175.00   10.17
  -7  -3   3  152.48   10.45
   5   3  -3 2137.80   41.23
  -5  -3   3 2173.93   43.26
  -3  -3   3  854.13   23.30
  -1  -3   3 6821.95  103.89
  -1   3  -3  549.33   19.50
  -3   3  -3 3109.08   60.72
  -5   3  -3  264.71   16.40
  -7   3  -3 1283.60   39.89
  -9   3  -3  475.03   26.40
 -11   3  -3   11.78   10.27
 -13   3  -3   20.66   12.78
 -15   3  -3   44.37   17.10
 -17   3  -3   27.99   16.66
 -19   3  -3  157.51   27.22
 -21   3  -3  201.41   31.03
 -23   3  -3   37.39   20.85
 -28  -2   3  193.54   31.82
 -26  -2   3   11.46   14.28
 -24  -2   3  414.42   34.36
 -22  -2   3  662.02   39.85
 -20  -2   3   17.39   12.54
  18   2  -3 1376.45   50.63
 -18  -2   3 1363.37   51.47
 -16  -2   3  159.38   16.89
  16   2  -3  154.71   16.35
 -14  -2   3  371.41   22.80
  14   2  -3  402.06   22.76
  12   2  -3 4418.27   87.13
 -12  -2   3 4600.54   87.90
  10   2  -3  829.87   27.28
 -10  -2   3  825.54   27.38
   8   2  -3  608.08   20.56
  -8  -2   3  620.01   20.79
  -6  -2   3 5133.11   79.99
   6   2  -3 4997.93   82.40
  -4  -2   3 2208.67   40.55
  -2  -2   3   28.59    4.75
   0   2  -3 6119.33   92.87
  -2   2  -3   10.87    4.22
  -4   2  -3 1942.15   44.03
  -6   2  -3 1754.34   45.06
  -8   2  -3   32.57   10.02
 -10   2  -3  841.65   35.90
 -12   2  -3  194.07   23.00
 -14   2  -3   25.32   14.31
 -16   2  -3  892.01   45.08
 -18   2  -3  189.75   26.74
 -20   2  -3   70.18   19.75
 -22   2  -3  413.52   37.15
 -29  -1   3   16.25   16.85
 -27  -1   3  542.99   40.38
 -25  -1   3  552.97   39.86
 -23  -1   3    8.23   12.79
 -21  -1   3 1391.05   56.28
  19   1  -3  919.27   42.28
 -19  -1   3  929.16   43.31
 -17  -1   3  222.03   20.44
  17   1  -3  227.57   20.07
 -15  -1   3 2653.75   68.65
  15   1  -3 2829.33   69.57
 -13  -1   3 2462.82   60.42
 -11  -1   3  103.07   10.56
  11   1  -3  106.14   10.59
  -9  -1   3 5592.45   92.10
   9   1  -3 5507.57   94.46
  -7  -1   3  654.67   19.03
   7   1  -3  635.55   20.18
   5   1  -3 1446.31   31.68
  -5  -1   3 1577.36   29.18
  -3  -1   3 7172.13  101.66
   1   1  -3  291.52   10.15
  -1   1  -3 6764.18   99.46
  -3   1  -3 3300.24   59.39
  -5   1  -3 1067.01   31.78
  -7   1  -3 1965.66   50.64
  -9   1  -3 1893.81   54.00
 -11   1  -3   57.83   14.62
 -13   1  -3 2936.14   78.41
 -15   1  -3 1301.75   52.13
 -17   1  -3    6.20   12.17
 -19   1  -3 1142.03   53.73
 -21   1  -3  277.53   30.18
 -23   1  -3   69.74   22.21
 -28   0   3   -8.92   14.71
 -26   0   3   -9.82   11.18
 -24   0   3  -15.36   10.42
 -22   0   3   -6.09   10.14
 -20   0   3   -9.19    9.82
 -18   0   3  -14.12    7.29
  18   0  -3   -6.34    7.08
 -16   0   3    3.65    8.48
  16   0  -3   -6.19    6.23
  14   0  -3   -1.06    5.67
 -14   0   3   -0.76    6.24
 -12   0   3   -4.14    5.20
  12   0  -3   -2.77    4.00
 -10   0   3    0.23    4.19
  10   0  -3   -3.87    1.85
  10   0  -3   -0.97    3.68
   8   0  -3   23.07    5.18
   8   0  -3    5.88    2.17
  -8   0   3   -3.81    2.95
   6   0  -3    4.13    3.49
   6   0  -3   16.84    3.38
  -6   0   3    3.39    3.03
   4   0  -3    5.70    2.31
   2   0  -3    0.53    1.87
   0   0  -3    2.18    3.26
   0   0  -3    4.58    3.21
  -2   0  -3    8.96    4.35
  -4   0  -3    3.88    5.02
  -6   0  -3   -1.92    4.98
  -8   0  -3   -7.42    6.47
 -10   0  -3    8.10    8.98
 -12   0  -3   -0.46    9.60
 -14   0  -3   -3.01    9.08
 -16   0  -3    1.66    8.52
 -16   0  -3  -11.78    9.87
 -18   0  -3  -10.08   10.08
 -20   0  -3  -18.58   11.32
 -22   0  -3   -2.27   15.32
 -29   1   3   19.23   18.32
 -27   1   3  594.69   42.37
 -25   1   3  479.68   36.79
 -23   1   3   13.21   14.23
 -21   1   3 1414.64   57.22
  19  -1  -3  940.18   43.04
 -19   1   3  940.50   43.70
 -17   1   3  215.03   20.80
  17  -1  -3  202.84   19.22
  15  -1  -3 2821.28   70.67
 -15   1   3 2959.08   72.64
 -13   1   3 2568.13   62.42
  13  -1  -3 2478.83   60.25
  11  -1  -3  102.67   10.31
  11  -1  -3   92.24    6.93
 -11   1   3  108.93   11.61
  -9   1   3 5463.62   92.79
   9  -1  -3 5458.47   93.20
   9  -1  -3 5443.23   80.91
   7  -1  -3  704.45   17.08
   7  -1  -3  673.28   20.70
  -7   1   3  609.47   19.55
   5  -1  -3 1535.27   30.36
   5  -1  -3 1602.19   33.03
  -5   1   3 1539.80   28.35
   3  -1  -3 7089.61  101.95
   1  -1  -3  274.73   10.89
  -1  -1  -3 6805.98  102.08
  -1  -1  -3 7147.88  104.23
  -3  -1  -3 3330.18   59.14
  -3  -1  -3 3290.70   60.42
  -5  -1  -3 1086.33   29.81
  -5  -1  -3 1109.62   32.59
  -7  -1  -3 1983.81   50.20
  -7  -1  -3 1945.13   45.29
  -9  -1  -3 1995.13   54.36
  -9  -1  -3 1987.85   48.20
 -11  -1  -3   18.94    7.63
 -11  -1  -3   32.65   11.74
 -13  -1  -3 3125.85   70.61
 -13  -1  -3 3129.91   80.00
 -15  -1  -3 1268.11   50.91
 -15  -1  -3 1363.02   44.40
 -17  -1  -3   -1.17   10.39
 -19  -1  -3 1118.96   52.32
 -21  -1  -3  241.77   27.41
 -23  -1  -3   72.77   22.49
 -28   2   3  261.58   34.96
 -26   2   3   26.40   18.78
 -24   2   3  498.03   36.89
 -22   2   3  698.80   41.11
 -20   2   3   22.36   13.51
 -18   2   3 1460.73   53.50
  18  -2  -3 1428.76   52.35
  16  -2  -3  147.34   16.15
 -16   2   3  181.96   22.29
  14  -2  -3  388.44   22.59
 -14   2   3  409.46   25.15
  12  -2  -3 4669.20   89.78
  12  -2  -3 4536.90   76.33
 -12   2   3 4736.43   91.96
 -10   2   3  817.93   28.67
  10  -2  -3  814.33   27.17
  10  -2  -3  838.41   22.51
  -8   2   3  630.01   21.28
   8  -2  -3  603.99   20.60
   8  -2  -3  626.45   18.29
   6  -2  -3 5116.53   79.78
  -6   2   3 5253.82   78.55
   6  -2  -3 5014.43   82.93
   4  -2  -3 2176.14   41.78
   2  -2  -3   23.68    4.73
   0  -2  -3 5737.76   88.32
   0  -2  -3 5720.15   82.18
  -2  -2  -3   18.55    4.60
  -2  -2  -3    7.26    3.62
  -4  -2  -3 2050.97   44.20
  -4  -2  -3 1994.59   43.19
  -6  -2  -3 1868.81   43.22
  -6  -2  -3 1813.44   45.81
  -8  -2  -3   13.77    6.44
  -8  -2  -3   32.30   10.12
 -10  -2  -3  921.44   32.00
 -10  -2  -3  963.42   37.43
 -12  -2  -3  183.00   15.62
 -12  -2  -3  165.92   18.08
 -14  -2  -3   20.03   10.03
 -14  -2  -3   46.32   15.41
 -16  -2  -3  916.86   43.59
 -18  -2  -3  228.99   28.12
 -20  -2  -3   58.66   18.01
 -22  -2  -3  394.12   34.14
 -27   3   3  168.31   29.89
 -25   3   3  200.55   29.89
 -23   3   3   17.27   15.94
 -21   3   3  454.61   33.38
 -19   3   3  557.88   34.85
 -17   3   3   79.84   16.62
  17  -3  -3   70.11   14.21
  15  -3  -3  164.38   16.05
 -15   3   3  172.45   18.43
  13  -3  -3  626.51   27.52
 -13   3   3  646.78   29.97
  13  -3  -3  630.03   22.85
  11  -3  -3  948.45   26.95
 -11   3   3  939.09   32.14
  11  -3  -3  895.28   30.11
   9  -3  -3  940.92   28.11
   9  -3  -3  936.65   26.02
  -9   3   3  950.60   28.40
   7  -3  -3  194.45   10.82
  -7   3   3  162.65    9.82
   7  -3  -3  166.79   10.30
  -5   3   3 2142.92   37.41
   5  -3  -3 2094.70   40.78
   5  -3  -3 2115.03   43.24
   3  -3  -3  759.89   16.58
   3  -3  -3  770.14   23.31
   1  -3  -3 6703.61  105.27
   1  -3  -3 6939.97   97.00
  -1  -3  -3  550.26   19.19
  -1  -3  -3  548.81   15.81
  -3  -3  -3 3021.99   57.59
  -3  -3  -3 3068.89   55.36
  -5  -3  -3  304.49   16.11
  -5  -3  -3  292.43   15.47
  -7  -3  -3 1367.14   39.73
  -7  -3  -3 1405.44   37.85
  -9  -3  -3  458.09   21.75
  -9  -3  -3  442.26   23.84
 -11  -3  -3   13.69    8.01
 -11  -3  -3   27.18   11.61
 -13  -3  -3    6.55   10.47
 -13  -3  -3    9.28    8.72
 -15  -3  -3   59.34   15.63
 -17  -3  -3   12.65   12.65
 -19  -3  -3  146.62   25.55
 -21  -3  -3  159.46   26.35
 -23  -3  -3   68.32   21.81
 -28   4   3  552.84   44.00
 -26   4   3  -14.11   14.79
 -24   4   3  963.28   51.59
 -22   4   3 1004.08   50.72
 -20   4   3   26.82   14.71
 -18   4   3 1744.13   61.44
 -16   4   3  935.67   41.39
  16  -4  -3  933.27   39.13
  14  -4  -3  645.72   25.51
  14  -4  -3  649.99   29.55
 -14   4   3  658.93   31.52
 -12   4   3 4382.95   87.37
  12  -4  -3 4480.33   87.23
  12  -4  -3 4348.46   80.05
  10  -4  -3 2449.67   53.51
  10  -4  -3 2438.52   51.56
 -10   4   3 2410.57   53.78
  -8   4   3 4649.35   80.15
   8  -4  -3 4781.37   81.99
   8  -4  -3 4792.17   81.80
  -6   4   3 4896.38   78.98
   6  -4  -3 4963.76   84.71
   6  -4  -3 5029.17   81.43
   4  -4  -3   96.23    6.81
   4  -4  -3   99.63    9.20
   2  -4  -3 5637.92   95.65
   2  -4  -3 5964.03   86.54
   0  -4  -3 4700.12   81.49
   0  -4  -3 4569.82   72.15
  -2  -4  -3    8.42    5.90
  -4  -4  -3 3252.55   63.32
  -4  -4  -3 3250.58   61.24
  -6  -4  -3 5451.89   95.33
  -6  -4  -3 5390.05   94.42
  -8  -4  -3    8.57    7.84
  -8  -4  -3   16.18    7.41
 -10  -4  -3 3197.31   75.65
 -10  -4  -3 3357.78   71.02
 -12  -4  -3 2566.32   62.36
 -12  -4  -3 2472.36   68.59
 -14  -4  -3   75.09   16.46
 -16  -4  -3 1292.09   53.50
 -18  -4  -3  581.84   38.02
 -20  -4  -3  207.18   28.28
 -22  -4  -3  626.21   43.02
 -27   5   3   16.89   19.10
 -25   5   3   10.20   15.90
 -23   5   3   -4.03   15.11
 -21   5   3    2.67   13.67
 -19   5   3    7.39   13.87
 -17   5   3    7.13   11.06
  17  -5  -3   10.03    8.92
 -15   5   3  113.06   17.43
  15  -5  -3  145.65   14.11
  15  -5  -3  132.58   15.54
  13  -5  -3   13.35    7.52
  13  -5  -3    7.13    6.29
 -13   5   3   10.83    8.45
  11  -5  -3   63.33   10.52
  11  -5  -3   71.37   11.03
 -11   5   3   63.57   11.62
   9  -5  -3   17.72    7.04
  -9   5   3    3.93    5.34
   9  -5  -3    5.22    5.40
   7  -5  -3   -1.36    4.27
  -7   5   3   -3.13    4.17
   7  -5  -3   -2.81    3.78
   5  -5  -3    4.77    3.44
   5  -5  -3   -0.71    4.38
   3  -5  -3  289.98   12.58
   3  -5  -3  288.89   16.18
   1  -5  -3    5.71    4.98
   1  -5  -3    5.54    3.70
  -1  -5  -3  470.43   17.13
  -1  -5  -3  448.95   20.94
  -3  -5  -3  619.40   21.61
  -3  -5  -3  643.14   25.20
  -5  -5  -3   -3.62    4.19
  -5  -5  -3   -1.86    5.78
  -7  -5  -3   40.70    9.58
  -7  -5  -3   37.65    9.69
  -9  -5  -3   66.09   12.30
  -9  -5  -3   68.17   12.38
 -11  -5  -3  160.73   16.66
 -11  -5  -3  206.11   19.38
 -13  -5  -3   21.07   11.57
 -15  -5  -3  169.41   23.10
 -17  -5  -3   -6.73   11.66
 -19  -5  -3   20.73   15.07
 -21  -5  -3    0.00   15.56
 -26   6   3   12.34   17.14
 -24   6   3  731.74   48.17
 -22   6   3  299.97   31.67
 -20   6   3  214.95   28.75
 -18   6   3  852.89   43.69
  16  -6  -3  475.66   28.10
  16  -6  -3  446.14   24.79
 -16   6   3  444.88   29.41
 -14   6   3  193.55   18.89
  14  -6  -3  216.27   16.77
  14  -6  -3  204.75   17.83
 -12   6   3 2579.73   63.68
  12  -6  -3 2677.22   62.21
  12  -6  -3 2716.73   62.84
  10  -6  -3 1159.43   36.70
  10  -6  -3 1140.21   33.66
 -10   6   3 1129.47   36.15
   8  -6  -3 1732.40   39.13
  -8   6   3 1735.96   43.20
   8  -6  -3 1724.92   45.73
   6  -6  -3 6379.69   97.91
  -6   6   3 6123.91  100.75
   6  -6  -3 6019.07  107.50
   4  -6  -3  662.38   18.39
   4  -6  -3  701.25   22.22
   4  -6  -3  655.44   26.31
   2  -6  -3 2187.62   44.62
   2  -6  -3 2111.45   51.88
   0  -6  -3 1664.70   38.18
   0  -6  -3 1669.69   44.87
  -2  -6  -3   -1.73    5.65
  -2  -6  -3   -2.50    3.81
  -4  -6  -3 2033.58   52.41
  -4  -6  -3 2073.49   47.92
  -6  -6  -3 2782.79   61.67
  -6  -6  -3 2840.87   64.71
  -8  -6  -3   29.60   10.21
  -8  -6  -3   20.51    8.38
 -10  -6  -3 2704.70   65.68
 -10  -6  -3 2678.02   68.73
 -12  -6  -3 1130.72   45.35
 -14  -6  -3   60.84   16.77
 -16  -6  -3  808.75   43.28
 -18  -6  -3  296.31   28.80
 -20  -6  -3  157.62   28.37
 -22  -6  -3  552.83   43.08
 -27   7   3  114.68   29.97
 -25   7   3  143.58   30.07
 -23   7   3  -18.42   15.65
 -21   7   3  809.00   47.45
 -19   7   3  890.32   46.73
 -17   7   3  134.19   22.63
  17  -7  -3   95.66   15.79
  15  -7  -3 2150.88   59.96
 -15   7   3 2101.90   63.72
  13  -7  -3  636.00   29.95
 -13   7   3  654.06   31.53
  13  -7  -3  687.83   29.95
  11  -7  -3  171.32   15.91
  11  -7  -3  191.16   14.67
 -11   7   3  179.90   16.03
   9  -7  -3  748.64   30.49
   9  -7  -3  769.79   25.42
  -9   7   3  743.54   29.08
   7  -7  -3  275.57   12.84
   7  -7  -3  252.18   17.53
  -7   7   3  258.46   15.84
   5  -7  -3  804.05   26.58
   5  -7  -3  808.02   20.99
   5  -7  -3  776.98   30.77
   3  -7  -3 4304.38   76.13
   3  -7  -3 4193.84   85.07
   1  -7  -3  176.81   11.91
   1  -7  -3  179.13   15.21
  -1  -7  -3 1503.78   38.80
  -1  -7  -3 1529.69   44.95
  -3  -7  -3 1389.23   43.01
  -3  -7  -3 1355.71   37.72
  -5  -7  -3   31.82   10.57
  -5  -7  -3   49.65   10.00
  -7  -7  -3  991.36   35.64
  -7  -7  -3 1029.27   38.28
  -9  -7  -3 1101.24   40.96
  -9  -7  -3 1133.41   41.05
 -11  -7  -3    8.81    9.91
 -11  -7  -3   27.68   11.83
 -13  -7  -3  679.24   36.70
 -15  -7  -3  652.30   38.66
 -17  -7  -3   23.56   15.47
 -19  -7  -3  699.87   44.31
 -21  -7  -3  219.41   32.17
 -26   8   3  -23.61   17.61
 -24   8   3  -15.31   16.01
 -22   8   3  -17.15   14.37
 -20   8   3   66.33   19.98
  18  -8  -3  548.38   31.70
 -18   8   3  546.10   36.47
  16  -8  -3  484.45   29.16
 -16   8   3  523.39   33.22
  14  -8  -3   63.80   14.56
 -14   8   3   65.86   15.22
  12  -8  -3  340.96   20.12
 -12   8   3  348.41   23.64
  12  -8  -3  366.45   23.32
 -10   8   3   -1.53    6.44
  10  -8  -3    0.95    5.93
  10  -8  -3    2.81    6.43
   8  -8  -3   11.15    7.68
   8  -8  -3    6.96    5.10
  -8   8   3    3.33    6.02
   6  -8  -3   76.95   13.04
   4  -8  -3    2.77    6.30
   4  -8  -3   12.82    4.22
   4  -8  -3   10.31    5.85
   2  -8  -3   54.04    9.47
   2  -8  -3   35.39    9.92
   0  -8  -3  145.89   12.11
   0  -8  -3  139.23   14.93
  -2  -8  -3    4.05    4.96
  -2  -8  -3   -4.54    5.81
  -4  -8  -3   93.46   12.25
  -4  -8  -3   81.59   14.64
  -6  -8  -3  224.72   19.12
  -6  -8  -3  179.07   16.16
  -8  -8  -3  -12.60    7.93
  -8  -8  -3   -2.89    6.85
 -10  -8  -3  330.80   23.57
 -10  -8  -3  314.72   24.05
 -12  -8  -3   77.95   15.91
 -14  -8  -3   32.38   15.16
 -16  -8  -3  114.61   22.10
 -18  -8  -3  112.29   25.06
 -20  -8  -3   23.58   19.69
 -25   9   3  533.49   46.36
 -23   9   3    1.60   17.97
 -21   9   3  880.43   50.88
 -19   9   3  507.53   36.99
  17  -9  -3   68.51   16.47
 -17   9   3   65.22   19.57
  15  -9  -3 1062.22   44.92
 -15   9   3 1147.81   47.98
  13  -9  -3  429.99   27.63
 -13   9   3  425.97   28.00
  11  -9  -3  375.62   24.76
 -11   9   3  426.43   25.33
   9  -9  -3 2644.45   69.32
  -9   9   3 2605.80   64.23
   7  -9  -3  587.37   30.10
  -7   9   3  576.02   26.29
   5  -9  -3  860.45   30.95
   5  -9  -3  783.12   34.64
   3  -9  -3 3359.80   69.60
   3  -9  -3 3282.79   78.69
   1  -9  -3  457.63   26.61
   1  -9  -3  484.24   22.43
  -1  -9  -3 1148.05   36.82
  -1  -9  -3 1210.94   43.60
  -3  -9  -3 2177.49   61.09
  -3  -9  -3 2062.98   53.82
  -5  -9  -3   -6.77    6.26
  -5  -9  -3    5.76    7.82
  -7  -9  -3 1521.07   48.52
  -7  -9  -3 1517.84   51.44
  -9  -9  -3 1043.61   42.41
  -9  -9  -3 1022.18   41.64
 -11  -9  -3    5.99    8.96
 -13  -9  -3 1073.72   48.22
 -15  -9  -3  685.97   41.00
 -17  -9  -3  213.63   30.54
 -19  -9  -3  958.51   53.71
 -24  10   3   23.26   21.50
 -22  10   3   82.68   26.56
 -20  10   3   -1.28   16.00
  18 -10  -3  551.54   35.23
 -18  10   3  518.54   36.49
  16 -10  -3  283.75   24.81
 -16  10   3  279.72   26.58
  14 -10  -3  116.01   19.31
 -14  10   3   91.87   17.92
  12 -10  -3  294.26   24.03
 -12  10   3  339.11   24.09
 -10  10   3   51.28   12.71
  10 -10  -3   66.51   14.88
  -8  10   3   73.70   13.78
   8 -10  -3   78.03   15.40
   6 -10  -3  383.59   25.73
   6 -10  -3  357.18   21.09
   4 -10  -3  315.98   23.55
   4 -10  -3  302.40   19.14
   2 -10  -3   95.97   17.29
   2 -10  -3   94.71   13.62
   0 -10  -3  165.79   14.61
   0 -10  -3  200.29   19.07
  -2 -10  -3    6.77    7.25
  -2 -10  -3    8.14    9.25
  -4 -10  -3  244.53   21.22
  -4 -10  -3  225.40   18.57
  -6 -10  -3  198.94   18.64
  -6 -10  -3  206.16   20.92
  -8 -10  -3    2.18    9.42
  -8 -10  -3   -1.37    9.60
 -10 -10  -3  266.49   22.85
 -12 -10  -3  199.13   24.81
 -14 -10  -3    1.75   12.73
 -16 -10  -3  172.60   27.89
 -18 -10  -3   65.31   23.87
 -23  11   3   -9.51   17.60
 -21  11   3  311.61   34.62
  19 -11  -3  304.12   28.79
 -19  11   3  280.48   29.87
  17 -11  -3   -2.48   11.34
 -17  11   3   -5.37   13.27
  15 -11  -3  836.83   43.55
 -15  11   3  929.00   45.34
  13 -11  -3  202.92   24.68
 -13  11   3  170.01   22.15
  11 -11  -3  173.10   22.95
 -11  11   3  132.13   19.17
   9 -11  -3  640.60   35.73
  -9  11   3  691.90   32.31
  -7  11   3  171.93   16.70
   7 -11  -3  148.93   20.93
   5 -11  -3  190.34   20.06
   5 -11  -3  180.20   16.89
   3 -11  -3 1212.27   48.04
   3 -11  -3 1187.98   40.71
   1 -11  -3   13.82    9.06
   1 -11  -3    7.55    9.30
  -1 -11  -3  687.00   35.96
  -1 -11  -3  650.45   29.93
  -3 -11  -3  856.54   40.35
  -3 -11  -3  811.13   34.47
  -5 -11  -3    3.84    9.25
  -5 -11  -3   -1.06   10.30
  -7 -11  -3  330.03   26.29
  -7 -11  -3  309.62   24.06
  -9 -11  -3  399.37   27.57
 -11 -11  -3    6.35   11.09
 -13 -11  -3  337.08   29.60
 -15 -11  -3  336.72   31.14
 -17 -11  -3   -7.79   16.80
 -22  12   3  249.05   38.26
 -20  12   3   16.59   18.92
 -18  12   3  729.79   44.58
  18 -12  -3  724.96   43.88
 -16  12   3  339.37   29.79
  16 -12  -3  366.07   31.75
  14 -12  -3  203.99   23.08
 -14  12   3  127.99   21.80
  12 -12  -3 1105.67   50.85
 -12  12   3 1113.55   46.93
 -10  12   3  144.71   20.17
  10 -12  -3  187.98   24.62
   8 -12  -3  342.09   27.69
  -8  12   3  354.84   24.49
   6 -12  -3 1729.08   61.86
   4 -12  -3  380.54   28.75
   4 -12  -3  372.52   24.55
   2 -12  -3  538.34   33.36
   2 -12  -3  491.73   27.09
   0 -12  -3 1600.26   58.62
   0 -12  -3 1634.68   50.79
  -2 -12  -3  -12.52    8.39
  -2 -12  -3  -14.27    7.86
  -4 -12  -3 1426.56   55.40
  -4 -12  -3 1388.42   48.94
  -6 -12  -3 1023.85   42.78
  -6 -12  -3  982.39   46.13
  -8 -12  -3   20.99   12.37
 -10 -12  -3  775.33   40.83
 -12 -12  -3  467.68   34.10
 -14 -12  -3   -1.85   13.99
 -16 -12  -3  483.51   38.65
  19 -13  -3    0.82   14.47
 -19  13   3  -12.54   17.27
  17 -13  -3   -8.30   14.03
 -17  13   3  -24.10   13.30
 -15  13   3   -1.95   12.51
  15 -13  -3   -5.07   11.70
  13 -13  -3   29.58   15.24
 -13  13   3    2.19   10.84
  11 -13  -3   21.73   15.14
 -11  13   3   19.78   13.18
  -9  13   3   -1.56    9.80
   9 -13  -3    4.04   11.05
   7 -13  -3   26.71   14.71
  -7  13   3   15.77    9.72
   5 -13  -3   30.67   13.81
   5 -13  -3   25.76   11.59
   3 -13  -3  -10.23   10.79
   3 -13  -3   -8.23    6.76
   1 -13  -3    1.51    9.06
   1 -13  -3   -7.96   10.08
  -1 -13  -3   -0.41    8.34
  -1 -13  -3   -2.99   10.83
  -3 -13  -3   -4.13    9.79
  -3 -13  -3  -23.36    8.71
  -5 -13  -3   -4.99    9.89
  -5 -13  -3    3.22   12.81
  -7 -13  -3   16.19   13.46
  -9 -13  -3  -10.98   10.34
 -11 -13  -3   -9.96   12.39
 -13 -13  -3    7.05   16.02
 -15 -13  -3  -11.61   15.45
 -18  14   3  561.26   40.78
  18 -14  -3  560.04   42.40
 -16  14   3  233.88   32.15
  16 -14  -3  217.03   31.41
  14 -14  -3  167.11   27.52
 -14  14   3  109.02   22.60
  12 -14  -3  937.31   51.01
 -12  14   3 1001.81   46.73
  10 -14  -3  258.97   27.91
 -10  14   3  291.28   24.73
  -8  14   3  297.06   24.45
   8 -14  -3  279.76   27.93
  -6  14   3 1024.35   42.95
   6 -14  -3  956.30   49.52
   4 -14  -3  -13.93    8.84
   4 -14  -3   14.39   14.04
   2 -14  -3 1054.56   52.07
   2 -14  -3 1015.57   42.55
   0 -14  -3 1233.50   56.17
   0 -14  -3 1233.15   47.63
  -2 -14  -3   55.11   13.96
  -2 -14  -3   18.97   13.47
  -4 -14  -3  473.34   30.59
  -4 -14  -3  452.75   34.98
  -6 -14  -3  631.30   36.33
  -8 -14  -3   -7.19   10.19
 -10 -14  -3  618.28   38.71
 -12 -14  -3  504.88   37.15
  17 -15  -3   11.13   17.36
 -17  15   3    0.94   17.84
 -15  15   3  185.70   28.31
  15 -15  -3  229.56   33.73
 -13  15   3   84.62   20.05
  13 -15  -3   93.68   23.31
 -11  15   3    5.70   14.06
  11 -15  -3   22.60   15.52
  -9  15   3  452.38   30.52
   9 -15  -3  406.45   35.89
   7 -15  -3   81.90   20.45
  -7  15   3   52.39   16.37
   5 -15  -3  103.11   22.16
   5 -15  -3   98.56   17.94
   3 -15  -3  425.52   29.39
   3 -15  -3  378.20   34.10
   1 -15  -3   69.10   16.07
   1 -15  -3   72.29   20.69
  -1 -15  -3  185.44   23.47
  -1 -15  -3  122.16   24.31
  -3 -15  -3  424.63   29.39
  -3 -15  -3  377.85   33.01
  -5 -15  -3   19.55   13.89
  -7 -15  -3  193.98   25.77
  14 -16  -3   18.96   18.10
 -12  16   3  167.79   26.32
  12 -16  -3  190.19   32.26
 -10  16   3   56.59   18.66
  10 -16  -3   94.83   23.86
   8 -16  -3   87.69   24.70
  -8  16   3   62.77   18.38
   6 -16  -3  265.82   35.43
  -6  16   3  230.74   24.67
   4 -16  -3    9.63   16.21
   2 -16  -3  107.25   25.30
   0 -16  -3  301.64   32.16
  -2 -16  -3   19.85   17.38
   9 -17  -3  539.87   44.03
   7 -17  -3  107.98   26.57
   5 -17  -3  214.50   33.02
   3 -17  -3  510.66   42.19
   1 -17  -3   47.44   19.37
  -1 -17  -3  298.17   32.94
  -9 -17   4   -3.02   14.82
  -7 -17   4    7.80   15.78
  -5 -17   4  -14.34   12.59
  -3 -17   4   16.48   15.55
  -1 -17   4   34.30   17.51
  -1  17  -4  -24.70   16.08
 -14 -16   4   78.59   23.42
 -12 -16   4   89.48   23.31
 -10 -16   4  481.34   37.03
  -8 -16   4   71.89   20.71
  -6 -16   4  216.23   29.23
  -4 -16   4  496.93   36.58
  -2 -16   4    9.76   13.49
   0 -16   4  311.02   29.85
  -2  16  -4  497.16   40.72
  -4  16  -4   -7.42   14.31
  -6  16  -4  437.72   37.99
 -17 -15   4  168.35   28.33
 -15 -15   4  154.53   27.65
 -13 -15   4  713.16   44.40
 -11 -15   4   68.22   19.44
  -9 -15   4  149.56   24.73
  -7 -15   4  425.84   33.13
  -5 -15   4   46.59   16.92
  -3 -15   4  177.22   26.36
  -3 -15   4  280.12   27.10
  -1 -15   4  704.81   42.27
  -1  15  -4   18.27   15.55
  -3  15  -4  431.57   35.67
  -5  15  -4  297.46   30.50
  -7  15  -4   -3.57   13.99
  -9  15  -4  377.63   35.36
 -18 -14   4    1.51   14.44
 -16 -14   4   23.15   16.51
 -14 -14   4   45.56   19.29
 -12 -14   4   98.55   21.63
 -10 -14   4   79.28   19.03
  -8 -14   4    2.29   10.73
  -6 -14   4   32.01   14.80
  -4 -14   4   55.70   17.30
  -4 -14   4   50.67   15.66
  -2 -14   4   38.50   15.93
  -2 -14   4   34.75   15.13
   0 -14   4   60.56   16.92
  -2  14  -4   59.02   17.64
  -4  14  -4  -11.39   10.48
  -6  14  -4   33.20   15.22
  -8  14  -4   29.97   17.39
 -10  14  -4    8.74   16.19
 -21 -13   4   22.72   18.90
 -19 -13   4  740.18   48.05
 -17 -13   4  189.42   28.20
 -15 -13   4  189.83   27.65
 -13 -13   4  897.50   46.55
 -11 -13   4  309.68   27.38
  -9 -13   4  489.38   33.32
  -7 -13   4 1686.85   61.46
  -5 -13   4   55.09   15.45
  -5 -13   4   58.22   18.35
  -3 -13   4 1566.93   59.00
  -3 -13   4 1636.72   59.38
  -1 -13   4 1606.05   60.38
   1 -13   4   11.50   12.45
  -3  13  -4  884.97   45.26
  -5  13  -4 1022.33   49.38
  -7  13  -4   -3.36   12.19
  -9  13  -4  627.65   41.81
 -11  13  -4  535.70   41.22
 -13  13  -4   18.90   20.57
 -22 -12   4   95.62   24.52
 -20 -12   4   48.56   18.44
 -18 -12   4   11.42   14.66
 -16 -12   4  122.85   23.21
 -14 -12   4   31.01   14.90
 -12 -12   4   42.33   14.54
 -10 -12   4  290.57   25.29
  -8 -12   4  134.77   20.32
  -6 -12   4   94.19   16.67
  -6 -12   4  105.43   17.98
  -4 -12   4   64.15   14.47
  -4 -12   4   74.81   16.62
  -2 -12   4   -0.31    8.56
  -2 -12   4   -7.60    8.08
   0 -12   4   72.15   16.21
  -2  12  -4   54.62   14.63
  -4  12  -4    1.83    9.84
  -6  12  -4  186.70   26.20
  -8  12  -4   84.06   20.49
 -10  12  -4   21.00   15.87
 -12  12  -4  171.28   30.40
 -14  12  -4   59.06   22.42
 -23 -11   4  194.98   31.52
 -21 -11   4   46.06   18.44
 -19 -11   4  671.07   43.43
 -17 -11   4  371.31   31.59
 -15 -11   4   49.80   16.06
 -13 -11   4  723.90   39.45
 -11 -11   4  162.42   21.78
  -9 -11   4  245.80   22.63
  -7 -11   4  847.72   35.54
  -7 -11   4  825.23   38.95
  -5 -11   4   93.86   16.09
  -5 -11   4   55.59   13.45
  -3 -11   4   94.73   15.90
  -3 -11   4  169.49   20.77
  -1 -11   4  743.35   36.73
   1 -11   4   -5.15    8.80
  -3  11  -4  742.74   37.77
  -5  11  -4  748.49   39.45
  -7  11  -4   40.20   15.44
  -9  11  -4  826.57   45.09
 -11  11  -4  505.55   38.32
 -13  11  -4    5.76   18.68
 -15  11  -4  402.78   38.81
 -24 -10   4   -3.59   14.19
 -22 -10   4  508.77   40.71
 -20 -10   4  467.16   37.16
 -18 -10   4  163.24   24.66
 -16 -10   4  880.97   44.37
 -14 -10   4   88.76   18.08
 -12 -10   4  529.84   32.22
 -10 -10   4 1362.63   50.14
  -8 -10   4  380.58   25.63
  -8 -10   4  377.19   21.91
  -6 -10   4  566.17   30.55
  -6 -10   4  630.82   29.00
  -4 -10   4 2122.02   61.85
  -4 -10   4 2156.58   58.80
  -2 -10   4   17.76   10.66
  -2 -10   4   26.30   11.29
   0 -10   4  959.22   40.62
  -2  10  -4 1768.96   56.95
  -4  10  -4   -4.23    8.60
  -6  10  -4 1077.17   47.20
  -8  10  -4  886.85   44.42
 -10  10  -4   20.40   14.44
 -14  10  -4  467.76   39.30
 -16  10  -4   17.17   20.39
 -25  -9   4    3.57   17.21
 -23  -9   4   16.99   16.14
 -21  -9   4   -4.04   12.36
 -19  -9   4   33.84   16.65
 -17  -9   4    5.72   12.06
 -15  -9   4   -1.62    9.12
 -13  -9   4   -5.34    7.21
 -11  -9   4   -1.91    7.31
  -9  -9   4    2.38    5.94
  -9  -9   4   -1.48    6.50
  -7  -9   4   56.19   10.92
  -7  -9   4   86.56   14.43
  -5  -9   4   76.60   13.40
  -5  -9   4   77.95   12.53
  -3  -9   4    1.27    6.57
  -3  -9   4    9.33    7.79
  -1  -9   4   13.02    7.87
   1  -9   4   43.04   11.48
  -3   9  -4    2.55    7.79
  -5   9  -4   -5.85    9.24
  -7   9  -4   -6.64    9.79
  -9   9  -4   69.35   17.33
 -11   9  -4   18.05   15.32
 -13   9  -4    0.87   14.42
 -15   9  -4   -1.82   16.04
 -17   9  -4   -2.40   17.77
 -26  -8   4  305.21   33.55
 -24  -8   4   17.24   16.80
 -22  -8   4  733.57   46.01
 -20  -8   4  341.40   30.11
 -18  -8   4  290.08   26.41
 -16  -8   4 1787.32   61.47
  16   8  -4 1791.68   54.30
 -14  -8   4  611.53   33.46
  14   8  -4  635.17   28.55
 -12  -8   4  272.83   21.35
  12   8  -4  262.35   16.96
  10   8  -4 2005.48   46.77
 -10  -8   4 1994.59   44.76
 -10  -8   4 1989.52   57.76
  -8  -8   4  483.57   20.86
   8   8  -4  490.62   18.63
  -8  -8   4  476.17   25.66
  -6  -8   4 1418.37   45.24
  -6  -8   4 1488.73   40.34
   6   8  -4 1409.48   32.18
  -4  -8   4 3771.99   81.78
  -4  -8   4 3810.02   77.27
  -2  -8   4  222.35   17.95
   0  -8   4 1891.58   54.10
  -2   8  -4 1450.12   47.04
  -4   8  -4   -7.67    6.89
  -6   8  -4 1441.33   51.71
  -8   8  -4 1297.14   51.40
 -10   8  -4   -6.95   10.10
 -12   8  -4 1431.58   60.52
 -14   8  -4  699.24   45.07
 -16   8  -4  149.46   29.78
 -18   8  -4  787.75   53.88
 -27  -7   4    3.82   17.55
 -25  -7   4  255.63   34.93
 -23  -7   4  205.16   30.72
 -21  -7   4   53.94   17.43
 -19  -7   4 1066.96   49.21
  17   7  -4  845.04   37.20
 -17  -7   4  860.81   41.59
 -15  -7   4   64.33   14.65
  15   7  -4   69.85   13.15
  13   7  -4 1043.99   35.54
 -13  -7   4 1003.94   40.14
  11   7  -4  400.12   19.73
 -11  -7   4  379.71   23.33
   9   7  -4  593.55   21.62
  -9  -7   4  572.49   20.22
  -9  -7   4  585.60   27.80
   7   7  -4 1037.42   27.27
  -7  -7   4  943.79   34.84
  -7  -7   4  998.53   29.13
  -5  -7   4   17.01    6.90
  -5  -7   4   27.95    8.57
  -3  -7   4  345.42   20.31
  -1  -7   4  723.49   29.84
   1  -7   4  203.28   16.33
  -3   7  -4  835.72   34.10
  -7   7  -4  218.66   20.61
 -11   7  -4  333.88   28.10
 -13   7  -4   16.29   16.41
 -15   7  -4  446.44   37.11
 -17   7  -4  158.15   30.32
 -19   7  -4   65.13   25.87
 -28  -6   4  133.83   30.97
 -26  -6   4  106.79   25.12
 -24  -6   4    4.52   15.11
 -22  -6   4  250.35   26.97
 -20  -6   4  338.32   28.67
 -18  -6   4   50.42   15.86
  18   6  -4   73.22   14.88
  16   6  -4  819.59   35.33
 -16  -6   4  842.47   38.41
 -14  -6   4  292.21   21.65
  14   6  -4  302.20   20.09
 -12  -6   4   -5.34    5.94
  12   6  -4    2.28    6.06
 -10  -6   4  670.35   28.72
  10   6  -4  664.24   24.14
  -8  -6   4   66.00   11.30
   8   6  -4   91.40    8.73
   6   6  -4  731.98   21.92
  -6  -6   4  759.46   28.67
  -4  -6   4 1463.30   41.22
   4   6  -4 1454.08   32.12
  -2  -6   4  151.56   13.19
   0  -6   4  492.59   23.08
  -2   6  -4  488.88   24.48
  -4   6  -4  137.69   15.49
  -6   6  -4  390.98   24.46
  -8   6  -4  345.02   25.40
 -10   6  -4   15.32   13.48
 -12   6  -4  402.66   31.31
 -14   6  -4  246.27   30.98
 -16   6  -4   74.62   22.59
 -18   6  -4  320.09   40.92
 -20   6  -4    8.31   20.06
 -27  -5   4   -6.26   15.06
 -25  -5   4  726.90   46.83
 -23  -5   4  522.63   37.84
 -21  -5   4    5.75   10.60
 -19  -5   4 2244.32   70.81
  19   5  -4 2093.90   65.55
  17   5  -4  547.17   29.60
 -17  -5   4  598.77   33.08
  15   5  -4  795.12   33.10
 -15  -5   4  843.31   36.33
  13   5  -4 3891.19   80.20
 -13  -5   4 3866.91   83.32
  11   5  -4  495.49   21.75
 -11  -5   4  515.17   24.68
   9   5  -4 2853.42   57.18
  -9  -5   4 2806.63   62.03
   7   5  -4 6595.72  105.57
  -7  -5   4 6528.34  111.09
   5   5  -4  879.63   24.03
  -5  -5   4  903.35   29.43
  -3  -5   4 4947.65   88.01
  -1  -5   4 7114.83  117.22
  -1   5  -4  485.47   22.28
  -3   5  -4 4857.02   92.82
  -5   5  -4 3451.31   76.16
  -7   5  -4    1.31    7.93
  -9   5  -4 2832.79   74.78
 -13   5  -4   -4.48   10.85
 -15   5  -4 1094.39   53.61
 -17   5  -4  407.78   36.44
 -19   5  -4  254.47   36.95
 -21   5  -4  967.16   59.32
 -28  -4   4   22.99   19.03
 -26  -4   4    0.38   14.28
 -24  -4   4   -2.62   12.43
 -22  -4   4   15.53   13.02
 -20  -4   4   53.86   15.68
  20   4  -4   40.92   14.13
 -18  -4   4   10.80   12.23
  18   4  -4   40.70   12.52
 -16  -4   4   77.21   14.06
  16   4  -4   70.09   13.45
  14   4  -4   28.34    9.42
 -14  -4   4   23.55    8.84
 -12  -4   4  114.52   12.62
  12   4  -4  128.99   12.01
  10   4  -4  265.66   15.00
 -10  -4   4  274.13   16.70
  -8  -4   4  479.11   20.70
   8   4  -4  481.48   18.66
   6   4  -4  549.14   18.57
  -6  -4   4  489.83   19.96
  -4  -4   4  263.42   14.14
  -2  -4   4  252.12   14.19
  -2   4  -4  665.52   25.38
  -4   4  -4   91.16   12.64
  -6   4  -4  308.06   20.91
  -8   4  -4  144.44   16.27
 -10   4  -4   37.52   13.15
 -12   4  -4  230.16   23.32
 -14   4  -4   -1.22   11.55
 -16   4  -4    9.67   15.23
 -18   4  -4   29.32   18.57
 -20   4  -4    5.43   18.51
 -29  -3   4  455.09   40.06
 -27  -3   4   23.51   17.36
 -25  -3   4  903.43   50.67
 -23  -3   4  818.89   45.41
  21   3  -4   32.55   13.57
 -21  -3   4   41.12   15.20
 -19  -3   4 1157.39   48.61
  19   3  -4 1258.61   48.63
  17   3  -4  629.49   31.32
 -17  -3   4  577.42   31.38
  15   3  -4  942.99   35.75
 -15  -3   4 1008.63   38.21
  13   3  -4 4620.17   90.68
 -13  -3   4 4749.74   92.15
  11   3  -4  213.39   14.34
 -11  -3   4  203.04   14.24
  -9  -3   4 4657.89   81.59
   9   3  -4 4586.11   82.10
  -7  -3   4 4047.62   71.65
   7   3  -4 4172.89   72.56
  -5  -3   4 1404.96   32.97
  -3  -3   4  451.98   16.93
  -1  -3   4 6271.77   97.83
  -1   3  -4    6.61    4.39
  -3   3  -4 3853.56   73.02
  -5   3  -4 4001.26   79.42
  -7   3  -4  114.55   15.06
  -9   3  -4 2799.22   71.22
 -11   3  -4 1367.64   50.56
 -13   3  -4  137.72   22.37
 -15   3  -4 1423.49   59.06
 -17   3  -4  547.31   38.65
 -19   3  -4  181.87   29.10
 -21   3  -4  664.66   46.54
 -28  -2   4  349.99   34.37
 -26  -2   4  258.89   29.24
 -24  -2   4  -10.87   10.53
 -22  -2   4  766.67   43.00
 -20  -2   4  202.43   22.08
  20   2  -4  200.41   21.03
  18   2  -4  203.89   19.18
 -18  -2   4  177.89   19.18
 -16  -2   4 1655.21   52.37
  16   2  -4 1633.23   50.62
  14   2  -4  543.83   25.44
 -14  -2   4  515.57   25.76
  12   2  -4  105.69   10.82
 -12  -2   4   95.79   10.70
  10   2  -4 3051.78   62.24
 -10  -2   4 3134.44   61.33
  -8  -2   4    4.34    3.80
   8   2  -4    6.74    3.69
   6   2  -4  510.31   17.92
  -6  -2   4  524.23   16.95
  -4  -2   4 4153.03   66.91
  -2  -2   4    2.35    2.77
   0   2  -4 3733.32   63.73
  -2   2  -4 4280.73   74.30
  -4   2  -4  259.14   15.48
  -6   2  -4 2236.87   54.59
  -8   2  -4 1325.62   43.69
 -10   2  -4  185.62   22.11
 -12   2  -4  778.28   39.26
 -14   2  -4  109.48   20.90
 -16   2  -4   44.99   17.45
 -18   2  -4  723.83   43.34
 -20   2  -4  200.87   30.23
 -22   2  -4   76.99   24.94
 -29  -1   4   85.20   23.69
 -27  -1   4   20.91   15.57
 -25  -1   4  126.61   23.96
 -23  -1   4   81.04   20.28
 -21  -1   4   -6.99    8.83
  21   1  -4   -9.48    8.36
  19   1  -4   56.37   14.27
 -19  -1   4   70.49   15.80
  17   1  -4  189.87   17.78
 -17  -1   4  171.53   18.63
 -15  -1   4   23.37    9.16
  15   1  -4   29.47    9.40
 -13  -1   4  435.65   22.25
  13   1  -4  394.51   20.86
  11   1  -4 1373.83   38.10
 -11  -1   4 1478.88   38.71
   9   1  -4  925.31   27.63
  -9  -1   4  862.10   25.03
  -7  -1   4 1024.18   24.39
   7   1  -4 1035.99   19.90
   7   1  -4 1018.29   27.76
   5   1  -4   82.77    5.41
  -5  -1   4   94.31    6.08
  -3  -1   4 1418.52   26.93
   1   1  -4   94.16    6.45
  -1   1  -4  198.83   10.76
  -3   1  -4  363.09   16.56
  -5   1  -4  784.75   28.45
  -7   1  -4    2.75    7.83
  -9   1  -4  365.43   24.00
 -11   1  -4   91.44   17.11
 -13   1  -4  236.32   23.34
 -15   1  -4  172.69   24.76
 -17   1  -4  147.55   24.08
 -19   1  -4    9.09   14.23
 -21   1  -4  136.43   26.96
 -28   0   4  473.97   38.89
 -26   0   4  283.00   29.97
 -24   0   4   87.96   20.71
 -22   0   4 2241.59   74.03
  22   0  -4 2281.44   74.50
  20   0  -4 1110.61   47.40
 -20   0   4 1179.03   49.15
  18   0  -4  619.39   32.48
 -18   0   4  665.55   34.49
 -16   0   4 2814.12   71.64
  14   0  -4 2604.99   62.38
 -14   0   4 2597.97   63.66
 -12   0   4 1378.61   39.51
  12   0  -4 1401.61   26.20
  12   0  -4 1346.36   38.77
  10   0  -4 7643.48  107.28
 -10   0   4 7812.33  120.35
  10   0  -4 7490.39  124.86
  -8   0   4  605.19   18.30
   8   0  -4  605.26   15.49
   8   0  -4  584.24   20.64
  -6   0   4 1019.68   21.02
   6   0  -4 1027.82   21.78
   6   0  -4 1020.01   27.11
   2   0  -4   17.12    3.07
   2   0  -4    9.75    4.51
   0   0  -4 6253.42   92.18
  -2   0  -4 4476.95   75.28
  -4   0  -4  119.78   11.28
  -6   0  -4 2973.46   66.20
  -8   0  -4 2304.20   59.92
 -10   0  -4  292.39   22.55
 -12   0  -4 2702.13   73.59
 -12   0  -4 2787.71   68.02
 -14   0  -4 2028.87   65.76
 -14   0  -4 2261.18   61.66
 -16   0  -4   12.59   11.98
 -16   0  -4   22.33   11.63
 -18   0  -4 1191.12   54.48
 -20   0  -4  226.09   31.93
 -22   0  -4  112.55   24.72
 -29   1   4   67.70   22.21
 -27   1   4    8.75   15.06
 -25   1   4  122.15   23.72
 -23   1   4   96.77   20.48
  21  -1  -4  -10.47    8.64
 -21   1   4   -6.60    9.57
 -19   1   4   45.34   14.58
  19  -1  -4   31.84   12.55
 -17   1   4  210.03   20.14
  17  -1  -4  190.94   18.09
  15  -1  -4   16.49    8.17
 -15   1   4   18.82   10.15
  13  -1  -4  401.03   14.29
  13  -1  -4  388.51   20.67
 -13   1   4  409.64   22.70
  11  -1  -4 1437.78   29.55
  11  -1  -4 1415.09   38.65
 -11   1   4 1448.16   39.14
  -9   1   4  868.06   25.40
   9  -1  -4  844.97   26.62
   9  -1  -4  895.08   21.36
   7  -1  -4 1044.85   24.64
   7  -1  -4  993.32   27.58
  -7   1   4 1065.40   23.72
   5  -1  -4  100.94    7.16
   3  -1  -4 1377.45   29.79
   1  -1  -4   97.27    6.44
  -1  -1  -4  181.04   11.20
  -1  -1  -4  202.19   11.27
  -3  -1  -4  375.07   17.07
  -3  -1  -4  378.54   17.48
  -5  -1  -4  803.55   28.74
  -5  -1  -4  776.82   26.86
  -7  -1  -4   -6.56    5.10
  -7  -1  -4    1.78    6.56
  -9  -1  -4  398.23   21.82
  -9  -1  -4  393.43   24.28
 -11  -1  -4   63.35   13.40
 -11  -1  -4   84.38   15.92
 -13  -1  -4  220.08   19.34
 -13  -1  -4  226.69   22.05
 -15  -1  -4  182.97   18.68
 -15  -1  -4  200.77   25.99
 -17  -1  -4  129.83   22.28
 -19  -1  -4   25.97   15.40
 -21  -1  -4  158.46   27.66
 -28   2   4  335.42   33.26
 -26   2   4  288.51   30.00
 -24   2   4    2.81   13.43
 -22   2   4  773.08   42.63
 -20   2   4  217.36   23.07
  20  -2  -4  215.57   21.98
 -18   2   4  225.46   21.34
  18  -2  -4  211.22   19.91
 -16   2   4 1676.69   52.95
  16  -2  -4 1597.31   50.29
  16  -2  -4 1651.61   38.40
  14  -2  -4  556.08   25.80
  14  -2  -4  527.43   18.84
 -14   2   4  538.52   27.44
  12  -2  -4  108.18   10.99
 -12   2   4  118.64   14.57
  12  -2  -4   99.59    8.37
  10  -2  -4 3269.14   56.99
  10  -2  -4 3202.85   64.65
 -10   2   4 3258.52   64.54
   8  -2  -4    4.14    3.33
  -8   2   4    3.14    3.94
   8  -2  -4   -0.39    2.79
  -6   2   4  524.09   14.34
   6  -2  -4  524.26   18.02
   4  -2  -4 4049.84   67.95
   2  -2  -4    0.55    3.05
   0  -2  -4 3651.29   56.80
   0  -2  -4 3558.11   63.93
  -2  -2  -4 4325.02   72.15
  -2  -2  -4 4311.28   75.69
  -4  -2  -4  233.69   14.60
  -4  -2  -4  238.98   14.69
  -6  -2  -4 2186.69   53.40
  -6  -2  -4 2307.21   53.05
  -8  -2  -4 1381.17   40.91
  -8  -2  -4 1394.19   44.17
 -10  -2  -4  180.99   21.01
 -10  -2  -4  161.77   15.56
 -12  -2  -4  856.58   38.88
 -12  -2  -4  837.13   34.82
 -14  -2  -4  120.30   20.49
 -14  -2  -4   94.26   16.56
 -16  -2  -4   68.52   17.99
 -18  -2  -4  771.64   43.92
 -20  -2  -4  189.27   27.70
 -22  -2  -4   73.56   21.09
 -29   3   4  418.07   38.12
 -27   3   4   17.50   16.07
 -25   3   4  999.47   53.05
 -23   3   4  873.42   47.34
 -21   3   4   22.91   14.56
  21  -3  -4   44.03   14.99
  19  -3  -4 1246.76   49.79
 -19   3   4 1298.20   52.03
 -17   3   4  658.97   34.10
  17  -3  -4  632.09   31.96
  17  -3  -4  621.22   24.16
 -15   3   4 1026.24   40.04
  15  -3  -4 1013.30   37.52
  15  -3  -4 1033.20   30.53
 -13   3   4 4756.71   95.21
  13  -3  -4 4905.46   94.02
  13  -3  -4 4888.04   82.93
  11  -3  -4  224.00   12.81
  11  -3  -4  214.99   14.18
 -11   3   4  209.79   14.84
   9  -3  -4 4805.53   80.95
  -9   3   4 4844.09   81.76
   9  -3  -4 4794.28   85.19
   7  -3  -4 4055.03   71.33
   7  -3  -4 4066.20   72.21
  -7   3   4 4079.47   65.21
   5  -3  -4 1479.94   35.74
  -5   3   4 1406.38   25.95
   3  -3  -4  435.24   17.69
   3  -3  -4  461.61   11.16
   1  -3  -4 6356.62  102.49
   1  -3  -4 6587.19   92.40
  -1  -3  -4    0.86    3.14
  -1  -3  -4   -0.10    4.39
  -3  -3  -4 3983.92   69.67
  -3  -3  -4 3950.88   73.79
  -5  -3  -4 3837.88   73.68
  -5  -3  -4 3942.54   75.55
  -7  -3  -4   96.92   12.97
  -7  -3  -4  116.64   12.43
  -9  -3  -4 2836.49   65.28
  -9  -3  -4 2847.90   68.96
 -11  -3  -4 1391.99   44.54
 -11  -3  -4 1399.94   48.61
 -13  -3  -4  106.61   16.09
 -13  -3  -4  115.18   19.04
 -15  -3  -4 1360.88   53.66
 -17  -3  -4  580.33   36.99
 -19  -3  -4  152.66   24.99
 -21  -3  -4  691.64   45.12
 -28   4   4   28.23   19.52
 -26   4   4   -1.87   15.68
 -24   4   4   -0.24   15.05
 -22   4   4   37.17   15.26
 -20   4   4   65.97   19.07
  20  -4  -4   42.06   14.30
  18  -4  -4   54.70   10.78
  18  -4  -4   30.78   11.44
 -18   4   4   44.93   15.05
  16  -4  -4   77.24   13.87
  16  -4  -4   86.42   11.32
 -16   4   4   81.21   16.02
  14  -4  -4   31.56    9.67
  14  -4  -4   30.20    9.16
 -14   4   4   30.36   10.70
  12  -4  -4  139.69   13.14
  12  -4  -4  146.59   11.84
 -12   4   4  131.63   13.64
  10  -4  -4  275.43   15.42
 -10   4   4  254.12   15.10
  10  -4  -4  272.02   15.31
   8  -4  -4  486.58   19.13
  -8   4   4  484.01   17.64
   8  -4  -4  478.81   20.11
  -6   4   4  473.63   14.93
   6  -4  -4  454.36   17.06
   6  -4  -4  457.17   19.57
   4  -4  -4  247.35    9.52
   4  -4  -4  247.14   14.59
   2  -4  -4  239.13    9.83
   2  -4  -4  233.80   14.67
   0  -4  -4    5.25    3.22
   0  -4  -4    3.25    4.36
  -2  -4  -4  639.04   24.26
  -2  -4  -4  634.85   20.33
  -4  -4  -4   86.99   10.37
  -4  -4  -4   54.78   10.54
  -6  -4  -4  281.41   17.64
  -6  -4  -4  301.84   18.46
  -8  -4  -4  174.60   15.46
  -8  -4  -4  132.88   14.15
 -10  -4  -4   52.50   13.09
 -10  -4  -4   41.04   10.89
 -12  -4  -4  208.34   19.27
 -12  -4  -4  198.00   20.78
 -14  -4  -4   -6.31    8.85
 -16  -4  -4   -4.18   12.73
 -18  -4  -4   41.11   18.16
 -20  -4  -4    6.80   15.23
 -27   5   4   -0.68   16.04
 -25   5   4  844.16   49.27
 -23   5   4  677.91   43.13
 -21   5   4   18.68   15.33
 -19   5   4 2088.07   70.00
  19  -5  -4 2258.29   69.51
 -17   5   4  568.26   32.84
  17  -5  -4  560.26   30.74
  17  -5  -4  579.40   26.74
  15  -5  -4  793.03   30.18
 -15   5   4  797.84   35.28
  15  -5  -4  819.00   34.31
 -13   5   4 4029.92   83.96
  13  -5  -4 4021.32   79.38
  13  -5  -4 4210.33   84.31
  11  -5  -4  546.15   23.62
  11  -5  -4  502.49   21.86
 -11   5   4  520.03   23.09
   9  -5  -4 2879.53   61.09
  -9   5   4 2773.70   56.58
   9  -5  -4 2929.68   58.35
   7  -5  -4 6445.62  109.48
  -7   5   4 6336.95  100.17
   7  -5  -4 6568.31  104.87
   5  -5  -4  825.01   28.98
   5  -5  -4  877.54   22.53
   3  -5  -4 4798.70   75.33
   3  -5  -4 4843.58   88.21
   1  -5  -4 6954.41  104.62
   1  -5  -4 7050.20  118.20
  -1  -5  -4  498.17   22.51
  -1  -5  -4  486.25   17.71
  -3  -5  -4 4585.16   79.24
  -3  -5  -4 4491.18   85.73
  -5  -5  -4 3312.81   67.36
  -5  -5  -4 3389.39   71.03
  -7  -5  -4    8.85    6.87
  -7  -5  -4   -2.05    5.59
  -9  -5  -4 2687.29   65.59
  -9  -5  -4 2737.15   67.62
 -11  -5  -4  818.68   34.79
 -11  -5  -4  793.85   36.53
 -13  -5  -4   -3.00   11.06
 -15  -5  -4 1167.04   50.94
 -17  -5  -4  424.13   32.94
 -19  -5  -4  219.98   29.72
 -21  -5  -4  875.93   50.96
 -28   6   4  164.75   30.81
 -26   6   4  137.20   28.85
 -24   6   4  -15.88   13.59
 -22   6   4  281.73   29.27
 -20   6   4  341.41   30.76
  18  -6  -4   72.17   13.91
 -18   6   4   52.62   16.33
  18  -6  -4   36.59   13.23
  16  -6  -4  926.16   35.25
  16  -6  -4  861.18   37.53
 -16   6   4  913.86   39.93
  14  -6  -4  297.14   19.65
 -14   6   4  327.47   21.97
  14  -6  -4  303.55   20.58
  12  -6  -4   -1.61    6.03
 -12   6   4   -2.68    6.76
  12  -6  -4   -2.70    5.24
  10  -6  -4  702.45   28.13
  10  -6  -4  650.15   24.27
 -10   6   4  641.49   25.43
   8  -6  -4   93.04    9.08
  -8   6   4  103.65   10.03
   8  -6  -4  104.76   13.21
   6  -6  -4  696.63   28.03
   6  -6  -4  733.93   22.22
  -6   6   4  728.12   22.99
   4  -6  -4 1455.68   33.60
   4  -6  -4 1509.24   42.90
   2  -6  -4  193.31   15.11
   2  -6  -4  193.86   11.18
   0  -6  -4  471.48   23.58
   0  -6  -4  541.00   19.52
  -2  -6  -4  473.72   23.86
  -2  -6  -4  483.14   19.73
  -4  -6  -4  153.94   14.45
  -4  -6  -4  139.98   12.41
  -6  -6  -4  384.88   20.84
  -6  -6  -4  397.53   23.14
  -8  -6  -4  328.86   21.40
  -8  -6  -4  353.35   22.89
 -10  -6  -4   -0.16    9.62
 -10  -6  -4   -3.20    8.55
 -12  -6  -4  412.29   28.35
 -14  -6  -4  235.59   23.43
 -16  -6  -4   73.89   20.76
 -18  -6  -4  265.83   28.27
 -20  -6  -4   -6.39   17.02
 -27   7   4    7.75   19.47
 -25   7   4  324.44   34.20
 -23   7   4  166.77   29.29
 -21   7   4   46.91   20.24
  19  -7  -4  989.86   40.89
 -19   7   4 1062.94   49.11
 -17   7   4  935.07   43.42
  17  -7  -4  976.16   42.01
  17  -7  -4  966.05   38.99
 -15   7   4   73.18   15.64
  15  -7  -4   59.15   13.84
  15  -7  -4   61.16   12.73
 -13   7   4 1046.13   38.65
  13  -7  -4 1061.20   38.46
  13  -7  -4 1083.58   36.96
  11  -7  -4  412.91   20.27
 -11   7   4  419.82   22.50
  11  -7  -4  402.06   23.34
  -9   7   4  620.39   25.04
   9  -7  -4  632.57   22.68
   9  -7  -4  573.54   26.95
   7  -7  -4 1014.50   27.40
   7  -7  -4  965.85   35.52
  -7   7   4  974.20   29.74
   5  -7  -4   28.75    8.85
   5  -7  -4   29.62    6.00
   5  -7  -4   36.38    7.47
   3  -7  -4  306.64   20.41
   3  -7  -4  326.31   15.64
   1  -7  -4  754.92   31.15
   1  -7  -4  781.56   25.10
  -1  -7  -4  208.98   13.76
  -1  -7  -4  220.62   17.84
  -3  -7  -4  770.07   27.74
  -3  -7  -4  851.41   34.32
  -5  -7  -4  996.11   33.87
  -5  -7  -4  977.00   37.91
  -7  -7  -4  161.65   17.39
  -7  -7  -4  171.33   15.59
  -9  -7  -4  921.08   38.62
  -9  -7  -4  935.75   38.06
 -11  -7  -4  373.30   26.68
 -11  -7  -4  371.42   25.78
 -13  -7  -4   13.05   12.38
 -15  -7  -4  457.29   33.25
 -17  -7  -4  202.03   28.94
 -19  -7  -4   56.93   21.64
 -26   8   4  329.84   37.11
 -24   8   4    3.97   18.91
 -22   8   4  823.73   48.73
  20  -8  -4  357.63   26.37
 -20   8   4  338.92   31.07
  18  -8  -4  278.53   23.50
 -18   8   4  247.05   24.99
  16  -8  -4 1852.33   57.43
 -16   8   4 1826.72   60.18
  14  -8  -4  678.85   32.70
  14  -8  -4  626.23   29.57
 -14   8   4  689.33   33.24
  12  -8  -4  236.60   19.19
 -12   8   4  261.69   19.83
  12  -8  -4  288.04   18.27
  10  -8  -4 2127.74   48.67
 -10   8   4 1987.79   52.69
  10  -8  -4 2124.88   58.75
   8  -8  -4  473.36   25.94
  -8   8   4  477.85   22.17
   8  -8  -4  518.85   19.33
   6  -8  -4 1448.49   46.85
   6  -8  -4 1412.45   38.29
   6  -8  -4 1508.03   33.97
   4  -8  -4 3522.44   79.88
   4  -8  -4 3559.46   68.39
   2  -8  -4  197.37   13.50
   2  -8  -4  183.41   16.92
   0  -8  -4 1910.49   54.81
   0  -8  -4 1876.34   45.63
  -2  -8  -4 1527.04   48.29
  -2  -8  -4 1421.57   40.34
  -4  -8  -4    0.65    6.03
  -4  -8  -4   -4.09    6.93
  -6  -8  -4 1383.09   48.30
  -6  -8  -4 1351.50   43.21
  -8  -8  -4 1263.20   47.21
  -8  -8  -4 1234.03   43.84
 -10  -8  -4  -11.82    7.81
 -10  -8  -4    5.46   10.84
 -12  -8  -4 1386.07   52.95
 -14  -8  -4  666.30   39.63
 -16  -8  -4  167.19   26.84
 -18  -8  -4  826.92   49.63
 -25   9   4   -1.70   19.72
 -23   9   4   -4.83   17.04
 -21   9   4  -16.48   14.13
 -19   9   4   29.05   15.87
  19  -9  -4   35.80   13.89
 -17   9   4    3.37   12.62
  17  -9  -4    4.47   10.35
 -15   9   4   -8.46    9.60
  15  -9  -4  -15.63    7.99
  13  -9  -4  -11.47    6.76
 -13   9   4   -0.26    8.31
 -11   9   4   -5.80    7.15
  11  -9  -4   -3.48    7.54
  -9   9   4   -5.14    5.36
   9  -9  -4   -7.37    6.68
  -7   9   4   79.90   11.80
   7  -9  -4   47.59   12.35
   5  -9  -4   90.02   12.06
   5  -9  -4   54.97   13.24
   3  -9  -4   11.11    6.79
   3  -9  -4    5.52    8.16
   1  -9  -4    7.25    8.37
   1  -9  -4   11.52    6.35
  -1  -9  -4   66.67   14.27
  -1  -9  -4   67.02   11.08
  -3  -9  -4    7.62    8.13
  -3  -9  -4    6.13    9.18
  -5  -9  -4    3.18    8.12
  -5  -9  -4    2.00    7.66
  -7  -9  -4   -4.29    8.58
  -7  -9  -4    8.98    9.82
  -9  -9  -4   32.51   13.20
  -9  -9  -4   86.00   15.67
 -11  -9  -4   28.56   12.76
 -13  -9  -4   -6.67   11.60
 -15  -9  -4   -7.20   12.86
 -17  -9  -4   -8.42   14.30
 -24  10   4    0.23   18.82
 -22  10   4  575.87   43.43
  20 -10  -4  528.09   35.07
 -20  10   4  493.60   38.30
  18 -10  -4  203.20   25.20
 -18  10   4  142.76   23.92
  16 -10  -4  913.44   43.36
 -16  10   4  943.20   44.03
 -14  10   4  130.12   20.65
  14 -10  -4  161.00   22.22
 -12  10   4  568.28   30.04
  12 -10  -4  568.40   32.51
 -10  10   4 1400.58   45.35
  10 -10  -4 1337.04   49.98
  -8  10   4  388.83   21.95
   8 -10  -4  400.74   26.96
   6 -10  -4  592.19   32.26
   6 -10  -4  587.34   26.13
   4 -10  -4 2167.44   53.78
   4 -10  -4 2131.49   64.19
   2 -10  -4   51.18   10.68
   2 -10  -4   32.72   11.63
   0 -10  -4  895.54   39.73
   0 -10  -4  896.21   33.05
  -2 -10  -4 1870.86   59.56
  -2 -10  -4 1861.11   51.33
  -4 -10  -4   -6.00    6.76
  -4 -10  -4  -10.55    8.65
  -6 -10  -4 1075.38   45.17
  -6 -10  -4 1010.38   39.83
  -8 -10  -4  841.54   37.92
  -8 -10  -4  830.99   40.50
 -10 -10  -4   26.91   14.17
 -12 -10  -4  818.17   42.82
 -14 -10  -4  505.13   36.49
 -16 -10  -4   49.11   19.06
 -23  11   4  183.74   32.25
  21 -11  -4   68.74   19.72
 -21  11   4   23.14   19.04
  19 -11  -4  711.04   41.58
 -19  11   4  726.95   43.51
 -17  11   4  470.24   33.60
  17 -11  -4  451.74   32.92
  15 -11  -4   47.79   15.59
 -15  11   4   36.61   14.34
 -13  11   4  792.43   37.82
  13 -11  -4  789.13   40.51
  11 -11  -4  183.27   20.40
 -11  11   4  185.42   18.31
   9 -11  -4  285.50   24.76
  -9  11   4  245.47   19.69
  -7  11   4  840.98   33.26
   7 -11  -4  828.62   40.43
   5 -11  -4   80.70   17.89
   5 -11  -4   98.81   14.38
   3 -11  -4  126.90   20.00
   3 -11  -4  139.76   14.51
   1 -11  -4  677.08   29.50
   1 -11  -4  764.13   38.35
  -1 -11  -4   -8.94    6.90
  -1 -11  -4    3.25   10.18
  -3 -11  -4  770.36   33.38
  -3 -11  -4  767.97   38.82
  -5 -11  -4  812.36   36.27
  -5 -11  -4  841.44   41.51
  -7 -11  -4   25.31   13.49
  -7 -11  -4   46.54   13.36
  -9 -11  -4  799.30   39.70
 -11 -11  -4  458.17   31.83
 -13 -11  -4    2.13   14.31
 -15 -11  -4  440.92   36.84
 -22  12   4   45.96   21.88
 -20  12   4   46.32   20.49
  20 -12  -4   40.06   18.32
  18 -12  -4   -6.35   13.33
 -18  12   4  -17.86   13.58
  16 -12  -4  135.09   24.65
 -16  12   4  116.81   22.58
 -14  12   4   29.65   15.00
  14 -12  -4   42.82   15.72
 -12  12   4   43.66   14.73
  12 -12  -4   51.68   16.70
 -10  12   4  307.39   23.17
  10 -12  -4  311.18   27.09
  -8  12   4  147.58   16.30
   8 -12  -4  122.67   21.22
   6 -12  -4  131.16   14.75
   6 -12  -4  131.38   22.85
   4 -12  -4   56.91   16.95
   4 -12  -4   87.42   14.54
   2 -12  -4  -16.36    9.48
   2 -12  -4   -6.83    6.75
   0 -12  -4   53.75   12.46
   0 -12  -4   49.39   15.61
  -2 -12  -4   24.12   13.52
  -2 -12  -4   53.19   13.43
  -4 -12  -4  -11.03    8.09
  -4 -12  -4   -6.40   10.46
  -6 -12  -4  154.02   24.10
  -6 -12  -4  164.55   20.93
  -8 -12  -4  100.91   20.22
 -10 -12  -4    8.96   13.60
 -12 -12  -4  117.39   23.08
  21 -13  -4   37.69   19.46
 -21  13   4   31.47   21.82
  19 -13  -4  694.34   45.25
 -19  13   4  745.47   45.44
 -17  13   4  219.86   30.90
  17 -13  -4  210.13   29.72
 -15  13   4  147.67   25.16
  15 -13  -4  206.53   28.28
 -13  13   4  990.95   44.43
  13 -13  -4  929.03   49.01
 -11  13   4  331.70   25.87
  11 -13  -4  342.76   29.61
   9 -13  -4  470.83   34.16
  -9  13   4  453.40   28.00
  -7  13   4 1714.89   53.98
   7 -13  -4 1693.30   64.65
   5 -13  -4   64.74   17.21
   5 -13  -4   48.70   14.08
   3 -13  -4 1687.37   63.45
   3 -13  -4 1557.24   51.03
   1 -13  -4 1525.20   50.27
   1 -13  -4 1467.95   59.12
  -1 -13  -4   14.63   11.44
  -1 -13  -4    9.09   11.82
  -3 -13  -4  900.65   39.84
  -3 -13  -4  974.31   48.43
  -5 -13  -4  995.52   49.06
  -5 -13  -4 1062.23   44.50
  -7 -13  -4    1.69   10.79
  18 -14  -4   -8.84   14.49
  16 -14  -4   50.99   20.89
 -16  14   4   37.70   16.92
 -14  14   4   34.06   15.08
  14 -14  -4   56.77   19.08
  12 -14  -4   94.49   22.15
 -12  14   4   61.50   17.00
 -10  14   4   71.43   15.79
  10 -14  -4   97.13   21.83
   8 -14  -4  -13.54   10.74
  -8  14   4   -4.61    8.52
   6 -14  -4   21.33   14.82
   4 -14  -4   33.05   16.21
   2 -14  -4   23.62   14.04
   0 -14  -4   35.63   16.17
  -2 -14  -4   56.62   18.45
  -4 -14  -4    1.22   12.62
  17 -15  -4  161.63   31.18
  15 -15  -4  187.68   31.75
  13 -15  -4  726.48   47.42
  11 -15  -4   90.98   22.62
   9 -15  -4  211.47   30.23
   7 -15  -4  384.55   34.28
   5 -15  -4   73.18   20.78
   3 -15  -4  238.58   32.35
   1 -15  -4  685.95   44.31
  -1 -15  -4   -2.64   12.35
  -3 -15  -4  395.36   35.02
  14 -16  -4  107.25   26.00
  12 -16  -4   73.71   21.68
  10 -16  -4  507.77   40.89
   8 -16  -4   56.82   21.43
   6 -16  -4  220.65   32.24
   4 -16  -4  526.78   41.41
   2 -16  -4   -4.01   14.89
   0 -16  -4  367.85   35.18
  -2 -16  -4  480.18   39.39
   9 -17  -4   16.88   19.07
   7 -17  -4    6.41   15.86
   5 -17  -4   -2.27   15.26
   3 -17  -4   26.58   19.31
   1 -17  -4   12.89   18.56
  -1 -17  -4  -25.72   14.95
  -9 -17   5   30.35   17.75
  -7 -17   5  234.42   32.81
  -5 -17   5  475.29   37.67
  -3 -17   5    7.43   15.95
 -14 -16   5  165.18   28.80
 -12 -16   5   34.10   18.01
 -10 -16   5   43.12   18.10
  -8 -16   5  215.02   30.00
  -6 -16   5   -9.50   13.03
  -4 -16   5  206.86   29.40
  -2 -16   5  162.36   26.92
   0  16  -5    1.89   16.15
  -2  16  -5  171.59   31.22
  -4  16  -5   99.79   24.96
 -17 -15   5  189.26   30.74
 -15 -15   5   85.18   20.82
 -13 -15   5   89.82   22.21
 -11 -15   5  240.22   31.69
  -9 -15   5   29.72   16.28
  -7 -15   5  162.98   25.59
  -5 -15   5  342.94   30.77
  -3 -15   5  -10.36   11.13
  -1 -15   5  199.22   27.88
  -1  15  -5  215.81   33.09
  -3  15  -5   -3.97   12.75
  -5  15  -5  188.61   29.60
  -7  15  -5  117.77   27.07
 -18 -14   5  166.89   28.79
 -16 -14   5  263.81   28.39
 -14 -14   5  893.76   49.41
 -12 -14   5  124.57   23.28
 -10 -14   5  266.11   26.46
  -8 -14   5  986.98   48.90
  -6 -14   5  114.48   21.75
  -4 -14   5  448.91   33.58
  -2 -14   5  977.07   49.06
  -2  14  -5  719.77   43.86
  -4  14  -5  793.01   45.90
  -6  14  -5   -8.16   12.87
  -8  14  -5  482.08   38.84
 -10  14  -5  238.44   34.60
 -21 -13   5    2.59   17.40
 -19 -13   5   39.66   17.60
 -17 -13   5  -17.08   11.01
 -15 -13   5  -17.32   10.29
 -13 -13   5    2.30   12.24
 -11 -13   5    8.00   11.90
  -9 -13   5   17.87   12.08
  -7 -13   5   54.78   15.64
  -5 -13   5    4.87   11.16
  -3 -13   5   -3.20   10.00
  -1 -13   5   -1.46    9.65
  -1  13  -5   10.03   11.50
  -3  13  -5   10.05   12.62
  -5  13  -5    6.61   11.69
  -7  13  -5   12.16   14.43
  -9  13  -5  -14.64   12.42
 -11  13  -5   20.28   18.96
 -22 -12   5   41.57   19.24
 -20 -12   5  627.81   43.75
 -18 -12   5  334.40   31.60
 -16 -12   5   68.64   20.21
 -14 -12   5  962.11   47.54
 -12 -12   5  205.26   22.57
 -10 -12   5  638.82   37.41
  -8 -12   5 1186.17   49.81
  -6 -12   5   30.38   13.90
  -4 -12   5 1582.98   58.30
  -2 -12   5 1673.54   60.37
   0 -12   5   -6.54    9.16
  -2  12  -5  874.82   43.65
  -4  12  -5  581.01   36.19
  -6  12  -5   -9.28   11.20
  -8  12  -5  792.71   45.57
 -12  12  -5   40.78   20.87
 -23 -11   5  301.20   38.05
 -21 -11   5  104.91   25.23
 -19 -11   5   80.04   20.04
 -17 -11   5  258.65   26.38
 -15 -11   5   15.02   12.59
 -13 -11   5  419.05   30.68
 -11 -11   5 1152.61   48.74
  -9 -11   5  232.03   22.08
  -7 -11   5  553.46   32.19
  -5 -11   5  570.57   32.66
  -3 -11   5   -0.54    8.78
  -1 -11   5  517.72   31.71
  -1  11  -5  382.92   27.57
  -3  11  -5    4.53    9.07
  -5  11  -5  718.31   40.28
  -7  11  -5  409.28   31.96
  -9  11  -5    1.58   12.40
 -13  11  -5  190.18   33.27
 -15  11  -5   86.01   27.83
 -24 -10   5   74.84   22.80
 -22 -10   5    3.28   13.61
 -20 -10   5  133.25   24.75
 -18 -10   5   17.34   12.25
 -16 -10   5   11.23   11.87
 -14 -10   5  194.42   25.61
 -12 -10   5   40.94   12.92
 -10 -10   5  169.56   21.28
  -8 -10   5  438.90   27.86
  -6 -10   5    3.97    8.85
  -4 -10   5   78.59   15.81
  -2 -10   5  138.28   18.65
   0 -10   5    5.20    8.21
  -2  10  -5  167.12   18.50
  -4  10  -5  358.19   26.67
  -6  10  -5   -4.17    9.97
  -8  10  -5  683.69   40.76
 -10  10  -5  289.54   30.34
 -12  10  -5    4.65   15.98
 -14  10  -5  174.12   31.59
 -16  10  -5   38.87   24.14
 -25  -9   5   47.59   22.23
 -23  -9   5  898.04   52.61
 -21  -9   5  562.16   39.81
 -19  -9   5  230.46   28.36
 -17  -9   5 1751.90   63.21
 -15  -9   5  428.86   29.64
 -13  -9   5  481.32   30.22
 -11  -9   5 1785.19   57.52
  -9  -9   5  320.04   23.21
  -7  -9   5 1630.39   52.35
  -5  -9   5 2291.96   63.20
  -3  -9   5   33.52   10.92
  -1  -9   5 1945.23   58.42
  -1   9  -5 1494.24   50.32
  -3   9  -5   -6.50    8.12
  -5   9  -5 1747.26   59.68
  -7   9  -5  860.66   42.78
  -9   9  -5   81.92   20.82
 -13   9  -5  587.12   42.90
 -15   9  -5   26.88   19.83
 -17   9  -5  463.03   43.75
 -26  -8   5   60.55   22.81
 -24  -8   5   10.39   16.05
 -22  -8   5   16.80   14.72
  20   8  -5  178.44   20.23
 -20  -8   5  211.75   27.61
  18   8  -5    4.14   10.19
 -18  -8   5    8.85   11.45
  16   8  -5   60.33   13.67
 -16  -8   5   34.82   13.58
  14   8  -5  154.46   14.61
 -14  -8   5  143.04   20.03
  12   8  -5   18.96    8.02
 -12  -8   5   17.71    9.46
  10   8  -5   25.91    7.35
 -10  -8   5   15.21    8.56
   8   8  -5   14.07    5.77
  -8  -8   5    2.03    6.62
   6   8  -5    1.47    4.43
  -6  -8   5    2.78    6.31
  -4  -8   5  390.79   23.37
   4   8  -5  375.55   15.37
  -2  -8   5   75.49   13.05
   0  -8   5   38.80   10.68
  -2   8  -5  442.33   26.07
  -4   8  -5  228.19   20.50
  -6   8  -5  -19.76    8.59
  -8   8  -5  336.85   27.91
 -10   8  -5  162.61   25.18
 -12   8  -5    3.50   14.80
 -14   8  -5  174.54   30.81
 -16   8  -5   35.84   22.59
 -18   8  -5   21.76   23.73
 -27  -7   5  339.36   36.81
 -25  -7   5   10.26   15.09
 -23  -7   5  399.37   34.35
  21   7  -5  208.27   21.72
 -21  -7   5  193.85   26.39
  19   7  -5  735.80   36.56
 -19  -7   5  790.36   42.19
 -17  -7   5 1105.51   47.48
  17   7  -5 1083.21   41.55
 -15  -7   5  496.10   30.05
  15   7  -5  535.16   26.33
 -13  -7   5  240.51   19.90
  13   7  -5  247.51   16.81
  11   7  -5 2593.43   56.71
 -11  -7   5 2514.97   65.20
   9   7  -5  103.34    9.85
  -9  -7   5   84.68   13.35
   7   7  -5 1943.12   43.05
  -7  -7   5 1991.31   53.75
   5   7  -5 1783.96   39.92
  -5  -7   5 1911.48   51.53
  -3  -7   5    1.54    5.87
  -1  -7   5  653.55   29.06
  -1   7  -5 1549.76   47.60
  -3   7  -5    3.34    7.58
  -5   7  -5 1360.14   48.92
  -7   7  -5 1486.42   54.15
  -9   7  -5  159.30   23.43
 -11   7  -5 1346.03   57.02
 -13   7  -5  390.81   34.45
 -15   7  -5  180.69   31.97
 -17   7  -5  795.42   53.23
 -28  -6   5   32.28   20.83
 -26  -6   5  461.50   39.17
 -24  -6   5  309.74   31.64
  22   6  -5  170.89   20.29
 -22  -6   5  198.45   27.22
 -20  -6   5 1326.91   55.07
  20   6  -5 1228.62   49.20
 -18  -6   5  958.97   43.58
  18   6  -5  903.21   38.99
  16   6  -5  120.19   16.03
 -16  -6   5  126.49   19.19
 -14  -6   5 2057.47   59.50
  14   6  -5 2086.15   53.90
  12   6  -5  384.95   19.92
 -12  -6   5  390.70   23.27
  10   6  -5  973.92   30.31
 -10  -6   5  999.30   35.79
   8   6  -5 2240.64   49.06
  -8  -6   5 2383.89   57.32
   6   6  -5   35.90    7.29
  -6  -6   5   32.14    8.18
  -4  -6   5 3169.11   68.18
  -2  -6   5 6510.35  114.32
   0   6  -5   10.30    7.20
  -2   6  -5 2495.05   61.82
  -4   6  -5 1609.69   50.30
  -6   6  -5   33.75   11.50
  -8   6  -5 1163.92   47.81
 -10   6  -5 1331.70   53.64
 -12   6  -5   37.53   17.42
 -14   6  -5  990.83   52.43
 -16   6  -5  235.90   33.65
 -18   6  -5  117.07   29.28
 -29  -5   5   27.92   21.23
 -27  -5   5    7.35   15.01
 -25  -5   5   -1.84   13.19
  23   5  -5   83.61   19.16
 -23  -5   5   71.64   19.25
  21   5  -5   94.98   18.89
 -21  -5   5   83.60   18.59
 -19  -5   5    3.42   10.94
  19   5  -5    8.41    9.46
 -17  -5   5   54.46   13.23
  17   5  -5   64.48   13.02
 -15  -5   5   23.35    9.44
  15   5  -5   14.33    8.28
 -13  -5   5   14.38    8.02
  13   5  -5   15.39    7.65
  11   5  -5   50.69    9.43
 -11  -5   5   29.78    8.80
   9   5  -5   18.27    6.18
  -9  -5   5    2.09    4.96
  -7  -5   5  489.12   22.03
   7   5  -5  522.00   19.72
  -5  -5   5   98.74   10.41
  -3  -5   5   27.72    7.50
  -1  -5   5 2287.80   52.70
  -1   5  -5  453.21   22.38
  -3   5  -5   48.19   10.99
  -5   5  -5    6.39    7.68
  -7   5  -5   38.07   12.30
  -9   5  -5   85.40   17.26
 -11   5  -5  192.39   25.24
 -13   5  -5    2.46   14.38
 -15   5  -5    4.34   15.26
 -17   5  -5   20.14   19.16
 -19   5  -5    2.69   18.77
 -28  -4   5  -10.46   14.87
 -26  -4   5  804.88   49.60
 -24  -4   5  606.29   41.06
 -22  -4   5   78.65   18.73
  22   4  -5   86.13   19.33
  20   4  -5 2765.87   77.15
 -20  -4   5 2685.50   79.75
 -18  -4   5  446.31   28.78
  18   4  -5  450.89   26.94
 -16  -4   5 1394.07   47.84
  16   4  -5 1376.69   45.01
  14   4  -5 4318.74   87.39
 -14  -4   5 4304.34   89.53
  12   4  -5  696.33   26.74
 -12  -4   5  712.58   28.67
 -10  -4   5 2376.23   54.52
  10   4  -5 2358.33   52.68
   8   4  -5 7232.51  117.61
  -8  -4   5 7146.27  117.14
  -6  -4   5 1972.13   45.38
  -4  -4   5 1030.26   30.09
  -2  -4   5 5427.17   92.40
   0   4  -5  278.07   16.12
  -2   4  -5 4300.05   82.90
  -4   4  -5 3471.40   74.68
  -6   4  -5   26.99   10.74
  -8   4  -5 2639.02   70.06
 -10   4  -5  812.00   39.71
 -12   4  -5   47.34   17.26
 -14   4  -5 1444.81   61.24
 -16   4  -5  450.87   37.24
 -18   4  -5  332.58   34.12
 -20   4  -5  991.90   57.52
 -29  -3   5  139.78   28.04
 -27  -3   5   80.22   23.49
 -25  -3   5   -2.76   12.21
  23   3  -5   44.87   15.52
 -23  -3   5   32.55   15.96
  21   3  -5    1.32   10.07
 -21  -3   5   26.72   14.20
 -19  -3   5   19.13   10.90
  19   3  -5   24.06   11.00
  17   3  -5  975.84   38.65
 -17  -3   5  947.63   39.95
 -15  -3   5  130.80   16.94
  15   3  -5  178.90   15.47
  13   3  -5  286.51   17.76
 -13  -3   5  283.59   18.18
 -11  -3   5  588.84   23.82
  11   3  -5  597.97   23.98
   9   3  -5  688.96   24.38
  -9  -3   5  712.08   24.58
  -7  -3   5  550.39   20.24
   7   3  -5  556.07   20.62
  -5  -3   5 2801.36   53.68
  -3  -3   5   40.90    6.62
   1   3  -5   48.65    8.20
  -1   3  -5  661.52   24.35
  -3   3  -5   91.11   12.70
  -5   3  -5  743.26   30.03
  -7   3  -5  290.97   20.99
  -9   3  -5  250.36   22.07
 -11   3  -5  242.08   23.25
 -13   3  -5   65.02   18.41
 -15   3  -5   54.10   18.77
 -17   3  -5  368.91   34.32
 -19   3  -5   38.18   18.84
 -30  -2   5  185.41   31.98
 -28  -2   5   23.58   17.90
 -26  -2   5  545.65   39.67
 -24  -2   5  353.91   31.36
  24   2  -5  315.53   28.07
 -22  -2   5   -7.39    9.90
  22   2  -5    0.57   10.02
  20   2  -5 1009.92   43.55
 -20  -2   5  938.34   44.04
  18   2  -5  527.60   28.80
 -18  -2   5  525.94   30.34
  16   2  -5  247.11   18.51
 -16  -2   5  223.28   19.15
 -14  -2   5 1214.44   39.11
  14   2  -5 1211.21   38.79
  12   2  -5  823.50   29.35
 -12  -2   5  820.38   28.69
 -10  -2   5 1256.50   33.54
  10   2  -5 1249.21   35.38
  10   2  -5 1290.63   22.66
   8   2  -5 2644.12   42.71
   8   2  -5 2631.03   54.89
  -8  -2   5 2649.79   50.84
  -6  -2   5  649.87   19.54
  -4  -2   5 1401.15   30.68
   2   2  -5  659.16   20.05
   0   2  -5  203.27   12.01
  -2   2  -5 2632.96   54.51
  -4   2  -5 1358.57   38.78
  -6   2  -5   -0.90    6.57
  -8   2  -5 2138.90   59.74
 -10   2  -5  750.14   36.82
 -12   2  -5   74.99   17.93
 -14   2  -5  767.13   42.49
 -16   2  -5  302.51   29.43
 -18   2  -5  126.73   25.06
 -20   2  -5  308.69   32.71
 -29  -1   5  592.16   44.47
 -27  -1   5  341.87   33.70
 -25  -1   5   92.39   21.82
  23   1  -5 1388.62   56.98
 -23  -1   5 1273.99   55.96
 -21  -1   5  415.87   30.25
  21   1  -5  420.89   29.44
 -19  -1   5  170.02   22.37
  19   1  -5  181.43   18.45
 -17  -1   5 2063.62   60.18
  17   1  -5 2037.22   58.22
 -15  -1   5  553.90   26.94
  15   1  -5  532.83   25.93
 -13  -1   5 1531.29   42.56
  13   1  -5 1536.08   43.19
  11   1  -5 5051.51   94.23
 -11  -1   5 5292.70   89.43
  11   1  -5 5313.37   75.75
   9   1  -5   13.79    5.45
   9   1  -5   21.15    3.85
  -9  -1   5   16.92    4.86
  -7  -1   5 1163.52   26.06
   7   1  -5 1153.09   24.20
   5   1  -5 2708.48   47.51
  -5  -1   5 2731.33   45.86
   1   1  -5 5567.81   85.25
  -1   1  -5 4410.21   74.61
  -3   1  -5    6.78    6.38
  -5   1  -5 2179.03   53.64
  -7   1  -5 1660.86   49.38
  -9   1  -5  579.74   31.78
 -11   1  -5 1540.29   54.69
 -13   1  -5  552.18   34.30
 -15   1  -5  203.46   27.00
 -15   1  -5  177.44   19.39
 -17   1  -5 1143.44   54.09
 -19   1  -5  246.36   31.46
 -21   1  -5  188.20   32.62
 -30   0   5  -16.92   16.41
 -28   0   5   -7.78   13.14
 -26   0   5   -8.17   11.71
 -24   0   5   -8.26   12.58
  24   0  -5   -5.11   10.27
  22   0  -5  -10.46    9.26
 -22   0   5   -7.40   10.11
  20   0  -5   -8.90    7.33
 -20   0   5  -16.54    7.96
 -18   0   5   -2.57    7.48
  18   0  -5  -11.55    6.08
 -16   0   5   -5.36    6.37
  16   0  -5   -7.50    5.51
  14   0  -5    2.59    3.13
  14   0  -5   -2.54    4.73
 -14   0   5   -1.62    5.65
  12   0  -5    0.09    2.80
  12   0  -5    0.63    4.61
 -12   0   5   -2.71    4.30
  10   0  -5   19.30    4.29
 -10   0   5   -0.70    3.35
  10   0  -5   -2.69    3.22
   8   0  -5    4.55    4.58
   8   0  -5   10.34    3.79
  -8   0   5   -0.13    2.89
  -6   0   5    0.97    2.20
   6   0  -5    3.29    3.56
  -4   0   5    5.42    1.85
   4   0  -5   -1.96    2.37
   2   0  -5   12.36    3.42
   2   0  -5   -2.10    3.12
   0   0  -5   11.42    5.29
   0   0  -5    1.74    3.90
  -2   0  -5   -2.47    4.05
  -2   0  -5   -1.15    4.93
  -4   0  -5   -2.46    5.39
  -4   0  -5   -5.53    4.39
  -6   0  -5    1.44    5.86
  -6   0  -5   -7.28    7.02
  -8   0  -5    2.39    6.38
  -8   0  -5   -0.02    8.46
 -10   0  -5   14.88   11.92
 -10   0  -5   -4.76    7.77
 -12   0  -5   -1.62    9.02
 -12   0  -5   -4.57    8.04
 -14   0  -5  -10.16    7.77
 -14   0  -5   -7.19    9.77
 -16   0  -5   -8.52   11.33
 -18   0  -5   12.71   15.57
 -20   0  -5    1.64   15.76
 -29   1   5  635.68   45.35
 -27   1   5  283.06   29.68
 -25   1   5   83.19   19.78
  23  -1  -5 1424.95   58.32
 -23   1   5 1373.02   57.21
  21  -1  -5  498.63   31.99
 -21   1   5  466.85   31.71
  19  -1  -5  202.68   19.26
 -19   1   5  192.67   20.41
 -17   1   5 2075.29   61.07
  17  -1  -5 2131.81   59.81
  15  -1  -5  577.54   26.88
 -15   1   5  505.89   26.79
  15  -1  -5  574.31   17.81
 -13   1   5 1432.65   42.01
  13  -1  -5 1542.20   43.25
  13  -1  -5 1544.08   32.00
 -11   1   5 5198.14   89.36
  11  -1  -5 5188.92   94.61
  11  -1  -5 5180.30   80.70
  -9   1   5   26.38    4.97
   9  -1  -5   20.13    4.78
   9  -1  -5   10.63    5.21
   7  -1  -5 1137.31   27.24
  -7   1   5 1131.55   21.85
   5  -1  -5 2701.87   49.43
   3  -1  -5    9.99    4.26
   1  -1  -5 5849.37   94.23
   1  -1  -5 5683.45   86.59
  -1  -1  -5 4440.51   79.34
  -1  -1  -5 4420.66   75.10
  -3  -1  -5    4.48    5.52
  -3  -1  -5   14.00    6.94
  -5  -1  -5 2315.90   55.16
  -5  -1  -5 2297.74   55.27
  -7  -1  -5 1765.42   50.19
  -7  -1  -5 1772.07   49.14
  -9  -1  -5  523.01   27.11
  -9  -1  -5  543.75   29.26
 -11  -1  -5 1597.43   50.91
 -11  -1  -5 1552.61   53.18
 -13  -1  -5  586.81   31.01
 -13  -1  -5  601.17   34.86
 -15  -1  -5  169.20   18.97
 -15  -1  -5  152.23   23.70
 -17  -1  -5 1200.82   54.75
 -19  -1  -5  266.52   27.93
 -21  -1  -5  216.49   32.50
 -30   2   5  146.37   29.01
 -28   2   5   53.12   19.66
 -26   2   5  589.42   41.18
  24  -2  -5  354.01   30.07
 -24   2   5  334.99   30.23
 -22   2   5   -5.64   11.12
  22  -2  -5  -10.80    9.03
  20  -2  -5  990.00   44.03
 -20   2   5 1045.68   45.81
 -18   2   5  520.41   31.10
  18  -2  -5  570.20   30.21
 -16   2   5  244.25   19.93
  16  -2  -5  227.34   12.80
  16  -2  -5  226.75   17.91
  14  -2  -5 1246.13   30.73
 -14   2   5 1260.99   40.46
  14  -2  -5 1164.99   38.52
  12  -2  -5  848.33   30.01
 -12   2   5  841.27   29.61
  12  -2  -5  877.89   24.59
 -10   2   5 1295.56   33.60
  10  -2  -5 1351.03   32.05
  10  -2  -5 1315.34   36.62
   8  -2  -5 2679.13   51.51
  -8   2   5 2633.96   46.44
   8  -2  -5 2563.33   54.63
   6  -2  -5  622.95   20.82
   4  -2  -5 1378.66   32.99
   2  -2  -5  665.54   14.28
   2  -2  -5  664.79   22.29
   0  -2  -5  214.67   10.35
   0  -2  -5  209.73   13.18
  -2  -2  -5 2696.35   52.98
  -2  -2  -5 2673.68   57.11
  -4  -2  -5 1358.57   39.11
  -4  -2  -5 1288.23   36.65
  -6  -2  -5    0.40    6.25
  -6  -2  -5    0.29    6.71
  -8  -2  -5 2193.55   57.71
  -8  -2  -5 2201.90   59.17
 -10  -2  -5  776.61   36.24
 -10  -2  -5  750.24   33.39
 -12  -2  -5   76.37   16.81
 -12  -2  -5   42.45   13.48
 -14  -2  -5  852.88   42.01
 -14  -2  -5  869.24   39.13
 -16  -2  -5  310.76   27.80
 -18  -2  -5  117.93   22.75
 -20  -2  -5  316.03   30.87
 -29   3   5  142.00   27.36
 -27   3   5  115.24   25.08
 -25   3   5  -29.54   13.02
  23  -3  -5   36.05   15.63
  21  -3  -5    9.03   11.02
 -21   3   5   39.22   15.35
  19  -3  -5   16.84   11.22
 -19   3   5    6.97   11.20
  17  -3  -5 1023.96   40.14
 -17   3   5 1021.85   42.26
  17  -3  -5 1026.08   31.17
  15  -3  -5  166.18   15.77
 -15   3   5  169.05   19.87
  15  -3  -5  170.15   12.17
  13  -3  -5  314.70   18.65
 -13   3   5  335.59   20.66
  13  -3  -5  343.83   16.35
  11  -3  -5  652.16   25.45
  11  -3  -5  654.39   22.79
 -11   3   5  605.51   24.33
   9  -3  -5  724.10   25.32
   9  -3  -5  719.30   24.15
  -9   3   5  718.29   22.42
   7  -3  -5  581.93   21.68
  -7   3   5  563.71   15.46
   5  -3  -5 2778.99   56.12
   3  -3  -5   42.80    7.63
   1  -3  -5   37.41    4.72
   1  -3  -5   18.74    6.50
  -1  -3  -5  636.75   24.32
  -1  -3  -5  648.46   19.70
  -3  -3  -5   80.11    8.97
  -3  -3  -5   75.22   11.19
  -5  -3  -5  809.41   29.20
  -5  -3  -5  839.85   31.16
  -7  -3  -5  294.05   19.47
  -7  -3  -5  283.78   19.13
  -9  -3  -5  208.65   18.50
  -9  -3  -5  243.24   19.81
 -11  -3  -5  264.69   22.76
 -11  -3  -5  229.57   20.16
 -13  -3  -5   83.36   17.02
 -13  -3  -5   60.20   13.56
 -15  -3  -5   68.23   17.18
 -17  -3  -5  369.76   31.78
 -19  -3  -5   26.48   17.24
 -28   4   5   18.87   18.02
 -26   4   5  857.92   49.83
 -24   4   5  752.82   44.73
 -22   4   5   58.43   17.94
  22  -4  -5   86.34   18.96
  20  -4  -5 2860.74   80.65
 -20   4   5 2913.68   82.69
 -18   4   5  464.62   30.53
  18  -4  -5  433.11   26.97
  18  -4  -5  491.18   22.93
 -16   4   5 1346.98   47.98
  16  -4  -5 1449.18   39.66
  16  -4  -5 1347.27   45.15
  14  -4  -5 4410.14   81.08
 -14   4   5 4376.12   89.96
  14  -4  -5 4328.95   88.53
  12  -4  -5  724.88   28.02
  12  -4  -5  731.63   25.95
 -12   4   5  744.05   28.10
  10  -4  -5 2469.84   53.55
 -10   4   5 2423.43   50.33
  10  -4  -5 2363.74   53.70
   8  -4  -5 7197.03  117.79
   8  -4  -5 7132.03  117.99
  -8   4   5 7271.32  107.51
   6  -4  -5 1947.75   46.50
  -6   4   5 1937.49   34.56
   4  -4  -5 1013.78   20.61
   4  -4  -5 1006.82   31.63
   2  -4  -5 5490.54   80.42
   2  -4  -5 5401.71   94.91
   0  -4  -5  268.14   16.19
   0  -4  -5  261.18   11.58
  -2  -4  -5 4195.86   72.05
  -2  -4  -5 4165.68   80.64
  -4  -4  -5 3401.59   66.74
  -4  -4  -5 3394.74   71.96
  -6  -4  -5   11.46    7.42
  -6  -4  -5   19.49    8.36
  -8  -4  -5 2818.27   68.33
  -8  -4  -5 2763.18   68.20
 -10  -4  -5  884.01   37.29
 -10  -4  -5  855.81   37.48
 -12  -4  -5   26.88   12.48
 -12  -4  -5   24.14   12.01
 -14  -4  -5 1416.30   55.29
 -16  -4  -5  482.14   34.17
 -18  -4  -5  302.83   29.71
 -20  -4  -5  978.33   54.08
 -29   5   5   11.05   17.62
 -27   5   5  -14.72   14.42
 -25   5   5   -8.02   15.09
  23  -5  -5   83.73   19.30
 -23   5   5   69.52   20.08
  21  -5  -5   41.11   14.99
 -21   5   5   69.28   19.52
  19  -5  -5    6.46    7.84
 -19   5   5   -9.33   11.86
  19  -5  -5    2.73    9.42
 -17   5   5   53.22   15.48
  17  -5  -5   59.75   13.72
  17  -5  -5   75.22   12.56
 -15   5   5    6.53    9.94
  15  -5  -5   14.60    8.25
  15  -5  -5   16.03    9.13
  13  -5  -5   10.79    6.98
 -13   5   5   15.51    8.10
  13  -5  -5   20.83    7.76
 -11   5   5   26.42    7.37
  11  -5  -5   27.70    7.79
  11  -5  -5   55.92   10.63
  -9   5   5    1.67    5.05
   9  -5  -5    4.44    5.00
   9  -5  -5   -0.13    5.09
   7  -5  -5  468.09   19.20
  -7   5   5  491.90   16.48
   7  -5  -5  475.37   22.44
   5  -5  -5  108.16   13.24
   5  -5  -5  111.72    7.62
   3  -5  -5   33.74    5.34
   3  -5  -5   25.57    8.07
   1  -5  -5 2229.86   42.41
   1  -5  -5 2265.84   54.18
  -1  -5  -5  409.13   16.66
  -1  -5  -5  406.76   21.32
  -3  -5  -5   56.27   11.85
  -3  -5  -5   57.32    9.16
  -5  -5  -5   -1.88    5.76
  -5  -5  -5    7.50    6.26
  -7  -5  -5   41.00   12.18
  -7  -5  -5   62.07   12.44
  -9  -5  -5  119.11   17.82
  -9  -5  -5  107.83   16.45
 -11  -5  -5  205.81   19.96
 -11  -5  -5  193.73   20.56
 -13  -5  -5   13.57   11.94
 -15  -5  -5   21.50   15.71
 -17  -5  -5   33.68   17.40
 -19  -5  -5   -3.32   15.70
 -28   6   5   24.98   20.16
 -26   6   5  537.91   40.30
 -24   6   5  417.29   36.32
  22  -6  -5  185.10   25.48
 -22   6   5  183.40   27.42
  20  -6  -5 1347.65   53.66
 -20   6   5 1299.94   55.27
  20  -6  -5 1359.51   45.85
 -18   6   5 1032.74   44.95
  18  -6  -5 1009.05   42.56
  18  -6  -5 1046.09   38.52
  16  -6  -5  140.01   15.55
 -16   6   5  155.86   17.58
  16  -6  -5  126.71   14.30
  14  -6  -5 2205.14   56.56
 -14   6   5 2076.02   56.31
  14  -6  -5 2125.28   55.02
 -12   6   5  415.96   21.50
  12  -6  -5  387.79   21.65
  12  -6  -5  440.66   21.40
  10  -6  -5  959.78   31.01
 -10   6   5 1039.34   31.10
  10  -6  -5 1030.12   35.54
   8  -6  -5 2377.82   51.20
   8  -6  -5 2321.70   57.32
  -8   6   5 2351.80   48.28
   6  -6  -5   30.19    8.89
   4  -6  -5 3228.35   70.17
   4  -6  -5 3098.14   55.36
   2  -6  -5 6430.95  115.41
   2  -6  -5 6364.15   98.53
   0  -6  -5   23.09    8.67
   0  -6  -5   18.22    5.66
  -2  -6  -5 2434.94   60.76
  -2  -6  -5 2482.59   52.07
  -4  -6  -5 1531.33   40.92
  -4  -6  -5 1504.46   46.39
  -6  -6  -5   32.53    8.72
  -6  -6  -5   12.10    8.47
  -8  -6  -5 1159.23   41.73
  -8  -6  -5 1176.04   42.83
 -10  -6  -5 1370.02   48.38
 -10  -6  -5 1381.97   49.51
 -12  -6  -5   14.64   12.36
 -14  -6  -5  904.92   45.43
 -16  -6  -5  254.05   31.43
 -18  -6  -5   95.18   23.22
 -27   7   5  351.65   35.77
 -25   7   5    9.67   18.01
 -23   7   5  445.51   37.12
  21  -7  -5  206.47   19.90
  21  -7  -5  193.20   22.01
 -21   7   5  205.72   29.11
  19  -7  -5  776.73   39.56
 -19   7   5  755.46   41.18
  19  -7  -5  827.74   36.59
  17  -7  -5 1138.06   44.49
 -17   7   5 1127.10   46.26
  17  -7  -5 1244.97   43.78
  15  -7  -5  571.41   28.57
 -15   7   5  514.98   28.50
  15  -7  -5  522.70   27.74
 -13   7   5  271.07   19.57
  13  -7  -5  277.44   19.90
  13  -7  -5  258.18   18.00
  11  -7  -5 2659.76   58.72
  11  -7  -5 2632.14   64.83
 -11   7   5 2529.86   58.49
   9  -7  -5   59.92   11.88
  -9   7   5   71.27   10.58
   9  -7  -5   84.39    9.52
   7  -7  -5 2010.85   54.72
  -7   7   5 2016.79   44.40
   7  -7  -5 1975.79   44.65
   5  -7  -5 1921.10   53.32
   5  -7  -5 1907.84   41.53
   3  -7  -5   14.52    5.14
   3  -7  -5    0.60    6.32
   1  -7  -5  624.21   21.98
   1  -7  -5  633.05   29.25
  -1  -7  -5 1493.05   47.53
  -1  -7  -5 1515.07   38.49
  -3  -7  -5    2.59    7.06
  -3  -7  -5    6.54    5.58
  -5  -7  -5 1295.86   39.79
  -5  -7  -5 1214.76   44.27
  -7  -7  -5 1441.23   45.59
  -7  -7  -5 1365.15   48.33
  -9  -7  -5  131.66   18.66
  -9  -7  -5   63.27   15.29
 -11  -7  -5 1325.79   50.31
 -11  -7  -5 1083.79   44.92
 -13  -7  -5  348.70   28.61
 -15  -7  -5  190.60   27.36
 -17  -7  -5  797.06   47.22
 -19  -7  -5  155.32   28.16
 -26   8   5   46.20   21.57
 -24   8   5   22.55   18.87
 -22   8   5    8.41   17.07
  20  -8  -5  210.43   21.38
 -20   8   5  207.09   27.55
  18  -8  -5    0.58    8.96
 -18   8   5   26.89   14.89
 -16   8   5   43.41   13.42
  16  -8  -5   83.05   16.31
  14  -8  -5  161.49   16.96
  14  -8  -5  179.44   16.47
 -14   8   5  170.79   17.75
  12  -8  -5    8.81    8.64
 -12   8   5   21.05    8.86
  12  -8  -5   15.12    8.22
  10  -8  -5   10.02    8.14
 -10   8   5    6.54    6.84
  10  -8  -5   14.55    7.20
   8  -8  -5    3.13    5.00
   8  -8  -5    2.55    7.23
  -8   8   5    3.59    5.57
   6  -8  -5   -5.77    4.42
   6  -8  -5   -3.03    6.03
   6  -8  -5   -0.33    4.75
   4  -8  -5  401.18   18.12
   4  -8  -5  375.11   23.83
   2  -8  -5   66.25   13.05
   2  -8  -5   68.05    9.65
   0  -8  -5   74.16   10.57
   0  -8  -5   26.90   10.27
  -2  -8  -5  449.54   26.57
  -2  -8  -5  443.22   21.18
  -4  -8  -5  208.30   16.35
  -4  -8  -5  215.63   19.72
  -6  -8  -5  -10.89    9.18
  -6  -8  -5   -1.93    7.36
  -8  -8  -5  318.52   25.19
  -8  -8  -5  287.92   22.16
 -10  -8  -5  145.01   20.65
 -10  -8  -5   77.02   18.24
 -12  -8  -5  -11.54   11.57
 -14  -8  -5  197.39   26.81
 -16  -8  -5   29.64   18.41
 -18  -8  -5    6.08   18.97
 -25   9   5   37.11   22.79
 -23   9   5  957.66   54.05
 -21   9   5  591.51   40.52
  21  -9  -5  533.86   33.97
  19  -9  -5  230.05   22.31
 -19   9   5  227.79   28.96
  17  -9  -5 2019.63   63.69
 -17   9   5 2003.62   64.36
 -15   9   5  455.18   28.51
  15  -9  -5  498.22   29.73
 -13   9   5  529.28   28.38
  13  -9  -5  509.58   29.66
 -11   9   5 1839.52   51.19
  11  -9  -5 1892.09   58.58
  -9   9   5  298.03   18.43
   9  -9  -5  307.02   23.19
  -7   9   5 1660.59   43.01
   7  -9  -5 1601.36   52.92
   5  -9  -5 2336.08   65.29
   5  -9  -5 2343.02   53.03
   3  -9  -5   41.71   12.34
   3  -9  -5   56.71    9.99
   1  -9  -5 1988.80   59.54
   1  -9  -5 1915.03   47.64
  -1  -9  -5 1496.89   42.49
  -1  -9  -5 1626.08   53.41
  -3  -9  -5   -6.84    6.10
  -3  -9  -5   -4.03    7.88
  -5  -9  -5 1780.50   51.47
  -5  -9  -5 1743.40   58.08
  -7  -9  -5  835.11   36.27
  -7  -9  -5  800.50   39.69
  -9  -9  -5  109.29   21.04
  -9  -9  -5  117.14   18.75
 -11  -9  -5 1524.02   56.88
 -13  -9  -5  539.73   35.25
 -15  -9  -5   47.99   19.01
 -17  -9  -5  487.82   38.63
 -24  10   5  131.31   29.77
 -22  10   5    2.49   18.56
  22 -10  -5    4.25   12.53
 -20  10   5  125.56   26.06
  20 -10  -5  172.88   24.02
  18 -10  -5   11.23   12.00
 -18  10   5    6.21   12.34
 -16  10   5    7.68   12.07
  16 -10  -5   19.78   13.18
  14 -10  -5  213.93   21.46
 -14  10   5  209.21   20.97
  12 -10  -5   34.40   12.86
 -12  10   5   32.19   10.54
  10 -10  -5  160.47   21.06
 -10  10   5  149.08   15.49
   8 -10  -5  388.99   26.88
  -8  10   5  399.28   21.63
   6 -10  -5    5.69    7.14
   6 -10  -5   -5.89    8.54
   4 -10  -5   53.43   14.69
   4 -10  -5   91.03   12.75
   2 -10  -5   88.45   16.53
   2 -10  -5  110.36   12.15
   0 -10  -5   -8.61    8.27
   0 -10  -5   13.28    7.09
  -2 -10  -5  199.92   21.01
  -2 -10  -5  200.99   16.72
  -4 -10  -5  339.45   26.86
  -4 -10  -5  294.85   21.21
  -6 -10  -5    6.67   10.34
  -6 -10  -5   20.98   10.15
  -8 -10  -5  702.57   38.03
  -8 -10  -5  698.19   35.41
 -10 -10  -5  298.02   26.59
 -12 -10  -5   27.69   14.21
 -23  11   5  342.38   34.90
  21 -11  -5  106.21   22.12
 -21  11   5   75.09   23.11
  19 -11  -5  172.02   26.06
 -19  11   5  134.36   23.76
  17 -11  -5  306.05   26.67
 -17  11   5  301.42   27.17
 -15  11   5    4.88   10.88
  15 -11  -5   12.15   11.90
 -13  11   5  476.62   28.02
  13 -11  -5  490.72   32.66
  11 -11  -5 1259.50   51.75
 -11  11   5 1289.89   44.72
  -9  11   5  238.74   18.62
   9 -11  -5  257.84   24.44
   7 -11  -5  572.98   33.89
   5 -11  -5  574.00   34.17
   5 -11  -5  622.00   27.77
   3 -11  -5    1.10    7.06
   3 -11  -5    0.93    9.26
   1 -11  -5  515.81   32.21
   1 -11  -5  517.03   25.64
  -1 -11  -5  452.47   30.84
  -1 -11  -5  425.66   23.99
  -3 -11  -5    1.20    7.10
  -3 -11  -5  -14.12   10.31
  -5 -11  -5  725.45   34.45
  -5 -11  -5  743.67   39.56
  -7 -11  -5  367.81   29.13
  22 -12  -5   60.49   19.78
  20 -12  -5  701.58   43.63
  18 -12  -5  362.70   31.42
 -18  12   5  341.70   30.16
  16 -12  -5   96.04   22.57
 -16  12   5   60.80   19.03
 -14  12   5 1189.78   47.53
  14 -12  -5 1035.07   49.57
 -12  12   5  210.47   20.81
  12 -12  -5  218.19   24.06
  10 -12  -5  610.55   37.43
 -10  12   5  637.31   31.22
  -8  12   5 1190.87   41.85
   8 -12  -5 1236.32   52.59
   6 -12  -5   17.71   11.91
   4 -12  -5 1592.06   60.16
   2 -12  -5 1632.35   60.54
   0 -12  -5   10.22   11.15
  -2 -12  -5  904.95   45.06
  -4 -12  -5  648.70   38.26
  -6 -12  -5  -21.72   11.18
  21 -13  -5  -14.42   13.66
  19 -13  -5  -13.06   11.46
  17 -13  -5   -2.38   12.23
  15 -13  -5    6.38   12.32
  13 -13  -5    2.62   11.98
  11 -13  -5    8.59   12.84
   9 -13  -5   22.46   13.80
   7 -13  -5   36.19   15.93
   5 -13  -5    4.26   11.77
   3 -13  -5   -3.24   10.52
   1 -13  -5  -10.22   11.53
  -1 -13  -5   -0.97   10.40
  -3 -13  -5   -1.99   13.59
  -5 -13  -5    4.79   14.27
  20 -14  -5  587.11   43.42
  18 -14  -5  200.37   32.33
  16 -14  -5  284.32   29.84
  14 -14  -5  982.50   52.98
  12 -14  -5  166.26   27.73
  10 -14  -5  301.06   30.04
   8 -14  -5 1093.83   54.39
   6 -14  -5  144.29   24.45
   4 -14  -5  475.35   35.77
   2 -14  -5  973.60   50.36
   0 -14  -5   -3.32   11.68
  -2 -14  -5  767.07   45.63
  -4 -14  -5  889.10   49.07
  17 -15  -5  217.78   33.99
  15 -15  -5   64.81   20.92
  13 -15  -5   62.37   20.84
  11 -15  -5  221.85   32.30
   9 -15  -5   41.36   17.68
   7 -15  -5  200.50   29.35
   5 -15  -5  343.33   32.33
   3 -15  -5   -5.07   11.91
   1 -15  -5  211.82   31.64
  -1 -15  -5  125.76   24.22
  -3 -15  -5  -12.60   12.83
  14 -16  -5  201.65   31.42
  12 -16  -5   39.51   20.14
  10 -16  -5   17.63   17.25
   8 -16  -5  220.80   32.96
   6 -16  -5  -13.76   13.19
   4 -16  -5  287.07   37.89
   2 -16  -5  165.09   28.24
   0 -16  -5    5.46   16.51
  -2 -16  -5  112.22   26.79
   9 -17  -5   13.72   18.10
   7 -17  -5  208.94   32.89
   5 -17  -5  441.35   40.02
   3 -17  -5    4.81   16.41
   1 -17  -5  421.03   38.99
  -1 -17  -5  352.02   35.80
  -7 -17   6   -2.26   14.64
  -5 -17   6   33.99   18.24
  -3 -17   6    5.53   16.24
 -14 -16   6  108.12   26.37
 -12 -16   6  391.04   35.51
 -10 -16   6   18.47   16.55
  -8 -16   6  347.04   33.31
  -6 -16   6  437.87   36.33
  -4 -16   6   -4.27   13.03
  -2 -16   6  362.80   33.23
   0  16  -6  361.74   38.80
  -2  16  -6   30.55   20.28
 -17 -15   6  161.06   30.11
 -15 -15   6  379.98   35.02
 -13 -15   6   62.90   19.34
 -11 -15   6  200.90   28.29
  -9 -15   6  515.45   37.66
  -7 -15   6   29.71   16.44
  -5 -15   6  324.06   30.68
  -3 -15   6  353.48   31.69
  -1  15  -6  418.88   36.65
  -3  15  -6  462.97   38.38
  -5  15  -6   -5.98   16.13
 -20 -14   6   14.36   17.12
 -18 -14   6   71.54   22.23
 -16 -14   6  -12.89   13.11
 -14 -14   6    8.98   13.76
 -12 -14   6  143.28   24.74
 -10 -14   6   12.36   13.38
  -8 -14   6   16.12   13.38
  -6 -14   6   54.09   17.67
  -4 -14   6  -19.04    9.94
  -2 -14   6   30.29   14.81
   0  14  -6   77.43   20.25
  -2  14  -6    4.86   14.30
  -4  14  -6   15.61   16.43
  -6  14  -6   19.95   17.01
  -8  14  -6   -3.84   15.33
 -21 -13   6  560.72   43.85
 -19 -13   6  240.27   32.87
 -17 -13   6  103.67   23.23
 -15 -13   6 1153.43   55.63
 -13 -13   6  198.94   26.85
 -11 -13   6  512.22   35.51
  -9 -13   6 1238.35   53.98
  -7 -13   6   -4.58   10.36
  -5 -13   6  688.90   39.83
  -3 -13   6  862.31   45.26
  -1 -13   6  -13.03    9.61
  -1  13  -6  730.21   42.55
  -3  13  -6  763.24   44.19
  -5  13  -6    4.68   14.24
  -7  13  -6  697.88   44.97
  -9  13  -6  333.06   33.68
 -22 -12   6   12.71   17.69
 -20 -12   6   19.91   16.69
 -18 -12   6   95.52   22.00
 -16 -12   6   -9.04   12.59
 -14 -12   6  222.08   27.65
 -12 -12   6  215.30   23.25
 -10 -12   6    4.21   10.68
  -8 -12   6  216.20   22.54
  -6 -12   6  422.79   30.63
  -4 -12   6   -4.89    9.63
  -2 -12   6  165.48   23.32
   0  12  -6   64.89   17.25
  -2  12  -6   16.09   11.92
  -4  12  -6  215.16   23.98
  -6  12  -6  142.16   24.88
  -8  12  -6   -0.10   14.27
 -10  12  -6  199.64   32.31
 -12  12  -6   -7.62   18.47
 -25 -11   6  177.06   31.81
 -23 -11   6    9.36   16.66
 -21 -11   6  371.45   34.25
 -19 -11   6   52.10   19.09
 -17 -11   6  266.76   27.27
 -15 -11   6  412.38   31.38
 -13 -11   6   34.60   13.40
 -11 -11   6  227.73   23.12
  -9 -11   6  745.02   38.57
  -7 -11   6   88.24   17.60
  -5 -11   6 1072.57   46.11
  -3 -11   6 1667.36   58.90
  -1 -11   6   -8.37    8.90
  -1  11  -6  611.86   35.59
  -3  11  -6  341.03   27.83
  -5  11  -6   44.91   17.35
  -7  11  -6  672.68   41.31
  -9  11  -6  293.13   30.75
 -11  11  -6  -20.59   16.18
 -13  11  -6  303.82   39.05
 -26 -10   6   60.22   23.98
 -24 -10   6  669.85   47.37
 -22 -10   6  196.09   28.97
 -20 -10   6  203.91   29.47
 -18 -10   6  802.58   44.18
 -16 -10   6  176.80   25.82
 -14 -10   6  728.75   39.27
 -12 -10   6 1688.44   59.07
 -10 -10   6   -0.92    8.83
  -8 -10   6  784.35   37.58
  -6 -10   6  910.61   40.28
  -4 -10   6    8.21    8.80
  -2 -10   6 1501.61   53.58
   0  10  -6 1292.17   49.48
  -2  10  -6  108.13   18.09
  -4  10  -6 1601.10   59.12
  -6  10  -6  577.53   36.66
  -8  10  -6  111.18   22.62
 -10  10  -6  972.50   53.24
 -12  10  -6  290.34   32.49
 -14  10  -6   85.35   27.78
 -27  -9   6  -18.56   16.34
 -25  -9   6    9.64   15.26
 -23  -9   6  -12.65   13.00
 -21  -9   6    7.20   12.70
 -19  -9   6   12.22   12.69
 -17  -9   6   -9.98    8.66
 -15  -9   6  -13.98    7.77
 -13  -9   6    9.53    9.47
 -11  -9   6   77.85   14.93
  -9  -9   6   19.71    9.99
  -7  -9   6    2.25    7.66
  -5  -9   6    2.77    7.78
  -3  -9   6   23.60    9.92
  -1  -9   6   -3.02    6.76
  -1   9  -6   -7.24    7.66
  -3   9  -6   16.55   12.33
  -5   9  -6   -9.73    9.64
  -7   9  -6   95.58   21.00
  -9   9  -6    6.55   14.53
 -11   9  -6  -15.22   14.86
 -13   9  -6  -15.74   15.55
 -15   9  -6  -19.76   17.81
 -28  -8   6  274.00   39.17
 -26  -8   6   44.42   21.99
 -24  -8   6  778.75   49.46
  22   8  -6  223.05   23.12
 -22  -8   6  194.05   28.45
  20   8  -6  506.82   31.20
 -20  -8   6  512.51   35.66
  18   8  -6 1524.66   51.00
 -18  -8   6 1483.03   57.80
 -16  -8   6  414.62   28.94
  16   8  -6  434.82   24.80
 -14  -8   6  538.64   31.00
  14   8  -6  507.85   24.61
  12   8  -6 2019.02   50.34
 -12  -8   6 2075.60   61.84
  10   8  -6   47.63    9.03
 -10  -8   6   32.01   10.34
  -8  -8   6 1975.28   57.11
   8   8  -6 1939.01   45.28
   6   8  -6 1603.81   38.70
  -6  -8   6 1549.82   49.23
  -4  -8   6    0.21    7.16
  -2  -8   6 2670.59   68.71
   0   8  -6 1258.73   44.57
  -2   8  -6   30.62   11.09
  -4   8  -6 1924.11   61.49
  -6   8  -6  936.83   43.93
  -8   8  -6  175.30   25.34
 -10   8  -6 1928.38   71.27
 -12   8  -6  376.77   35.12
 -14   8  -6  126.84   28.72
 -16   8  -6  620.33   49.48
 -27  -7   6  271.58   37.20
 -25  -7   6  129.62   26.38
 -23  -7   6   43.46   16.99
  23   7  -6   34.69   14.99
 -21  -7   6  459.22   33.99
  21   7  -6  389.87   28.04
 -19  -7   6   32.24   14.60
  19   7  -6   65.98   15.66
  17   7  -6  178.98   17.06
 -17  -7   6  175.69   23.07
  15   7  -6  769.77   31.41
 -15  -7   6  780.14   36.84
 -13  -7   6   79.50   14.53
  13   7  -6  100.28   13.38
  11   7  -6   39.51    8.85
 -11  -7   6   46.97   11.33
  -9  -7   6  678.43   30.58
   9   7  -6  722.02   25.67
   7   7  -6   13.68    5.77
  -7  -7   6    0.56    6.03
  -5  -7   6 1736.66   50.00
  -3  -7   6 1815.15   51.65
  -1  -7   6    0.38    6.35
  -1   7  -6  775.01   33.75
  -3   7  -6  551.24   30.02
  -5   7  -6   -6.13    8.93
  -7   7  -6  840.88   41.73
  -9   7  -6  323.43   28.41
 -11   7  -6   44.77   18.28
 -13   7  -6  597.94   43.46
 -15   7  -6  158.90   30.97
 -17   7  -6   34.21   22.85
 -28  -6   6  119.33   29.19
 -26  -6   6   13.71   17.59
  24   6  -6  195.33   22.65
 -24  -6   6  235.12   32.19
 -22  -6   6   14.13   12.42
  22   6  -6   19.82   13.12
  20   6  -6  531.46   31.13
 -20  -6   6  507.32   33.85
  18   6  -6  486.81   27.97
 -18  -6   6  479.20   31.07
  16   6  -6  109.56   15.69
 -16  -6   6   72.82   14.30
  14   6  -6  204.37   16.21
 -14  -6   6  191.35   18.08
  12   6  -6  643.86   26.10
 -12  -6   6  659.20   30.16
  10   6  -6  117.77   11.41
 -10  -6   6   81.77   13.14
  -8  -6   6 1077.95   36.77
   8   6  -6 1086.57   32.04
  -6  -6   6 1229.10   38.81
  -4  -6   6   -1.73    5.15
  -2  -6   6 1572.05   45.20
   0   6  -6  648.16   28.53
  -2   6  -6   -4.04    6.02
  -4   6  -6  278.29   21.28
  -6   6  -6  386.65   27.81
  -8   6  -6   89.54   18.90
 -10   6  -6  499.54   34.34
 -12   6  -6   25.36   16.36
 -14   6  -6  180.08   30.08
 -16   6  -6  527.62   44.13
 -18   6  -6  117.79   30.38
 -29  -5   6   23.51   19.18
 -27  -5   6  744.15   49.29
  25   5  -6  447.16   33.34
 -25  -5   6  383.69   34.19
 -23  -5   6   76.33   19.26
  23   5  -6  121.08   20.64
  21   5  -6 1533.49   55.83
 -21  -5   6 1540.37   60.38
 -19  -5   6  846.32   41.57
  19   5  -6  879.05   38.24
  17   5  -6  446.40   25.22
 -17  -5   6  426.45   27.10
  15   5  -6 3164.84   72.26
 -15  -5   6 3198.91   77.12
 -13  -5   6  850.38   34.22
  13   5  -6  881.60   31.71
 -11  -5   6 2736.60   63.80
  11   5  -6 2765.85   60.85
  -9  -5   6 4911.12   92.46
   9   5  -6 4905.57   89.58
   7   5  -6  353.12   17.19
  -7  -5   6  333.74   18.52
  -5  -5   6 1781.46   45.61
  -3  -5   6 2276.79   53.53
   1   5  -6    9.31    6.30
  -1   5  -6 1699.71   47.57
  -3   5  -6 1848.41   52.50
  -5   5  -6   85.46   15.89
  -7   5  -6 2849.80   75.94
  -9   5  -6 1185.58   49.34
 -11   5  -6  297.11   27.84
 -13   5  -6 1342.21   60.36
 -15   5  -6  330.21   33.51
 -17   5  -6  284.09   39.63
 -30  -4   6   11.78   19.39
 -28  -4   6   -8.28   14.87
 -26  -4   6   -6.52   12.88
  26   4  -6   10.66   12.21
 -24  -4   6    1.04   13.28
  24   4  -6   -2.22   10.49
 -22  -4   6   -3.38   10.55
  22   4  -6   -3.19    9.69
 -20  -4   6  237.97   24.02
  20   4  -6  272.42   23.23
 -18  -4   6  194.20   19.46
  18   4  -6  201.01   18.03
 -16  -4   6   -1.31    8.20
  16   4  -6   -2.05    6.71
  14   4  -6   84.20   12.54
 -14  -4   6   68.78   12.05
  12   4  -6   18.51    3.41
 -12  -4   6   -1.91    5.30
  12   4  -6    6.14    5.80
  10   4  -6   90.08    9.81
 -10  -4   6   95.13   10.51
  -8  -4   6   16.87    6.59
   8   4  -6   21.01    6.89
  -6  -4   6  497.94   20.76
  -4  -4   6   35.88    7.89
   0   4  -6  238.53   16.04
  -2   4  -6    9.83    7.39
  -4   4  -6   69.86   13.04
  -6   4  -6    6.78    8.17
  -8   4  -6    2.54   10.41
 -10   4  -6   -8.59   11.51
 -12   4  -6  177.70   27.02
 -14   4  -6    2.03   15.69
 -16   4  -6    6.06   18.96
 -18   4  -6    4.80   19.65
 -29  -3   6  -10.62   16.13
 -27  -3   6  527.40   40.52
  25   3  -6  370.87   30.68
 -25  -3   6  364.45   32.07
 -23  -3   6  130.99   22.38
  23   3  -6  164.85   23.31
 -21  -3   6 1704.21   61.85
  21   3  -6 1724.40   59.13
 -19  -3   6  100.16   17.70
  19   3  -6  167.47   17.33
  17   3  -6  742.91   32.85
 -17  -3   6  808.70   35.82
  15   3  -6 1908.38   52.49
 -15  -3   6 1953.45   54.12
 -13  -3   6  438.07   21.89
  13   3  -6  462.28   22.53
  11   3  -6 1725.97   30.15
 -11  -3   6 1746.65   44.05
  11   3  -6 1707.17   45.11
   9   3  -6 5899.85   88.27
   9   3  -6 6184.70  105.74
  -9  -3   6 5908.61   99.44
  -7  -3   6 1208.07   32.10
  -5  -3   6  998.62   28.05
  -3  -3   6 4967.08   82.88
   1   3  -6   29.04    7.46
  -1   3  -6 3737.12   72.62
  -3   3  -6 1874.82   49.19
  -5   3  -6   59.28   12.11
  -7   3  -6 2381.38   65.01
  -9   3  -6 1142.99   46.10
 -11   3  -6  161.16   23.50
 -13   3  -6 1286.93   56.60
 -15   3  -6  299.37   30.37
 -17   3  -6  253.02   33.58
 -19   3  -6  559.88   43.34
 -30  -2   6  334.17   36.01
 -28  -2   6  220.60   33.69
  26   2  -6   92.62   20.95
 -26  -2   6   93.13   22.69
 -24  -2   6  652.54   41.51
  24   2  -6  673.59   39.62
 -22  -2   6  508.58   34.77
  22   2  -6  532.63   33.06
  20   2  -6  432.87   27.71
 -20  -2   6  416.13   28.96
  18   2  -6 1549.35   50.43
 -18  -2   6 1575.16   52.28
 -16  -2   6  373.26   23.14
  16   2  -6  376.32   22.37
  14   2  -6 1121.43   37.60
 -14  -2   6 1164.86   37.40
  12   2  -6 1534.01   42.99
  12   2  -6 1566.27   28.02
 -12  -2   6 1506.00   40.19
 -10  -2   6   38.82    7.69
  10   2  -6   49.06    5.20
  10   2  -6   52.78    9.16
  -8  -2   6 1660.66   37.00
   8   2  -6 1586.36   32.30
  -6  -2   6 3418.87   59.67
  -4  -2   6  147.51    9.20
   2   2  -6 3646.73   64.12
   0   2  -6 3613.91   66.54
  -2   2  -6  616.39   24.45
  -4   2  -6 1774.20   47.77
  -6   2  -6  698.73   31.72
  -8   2  -6  169.81   21.15
 -10   2  -6  291.64   25.97
 -12   2  -6  746.74   40.61
 -14   2  -6  121.18   23.23
 -16   2  -6  819.43   42.86
 -16   2  -6  769.76   45.70
 -18   2  -6  100.56   23.87
 -31  -1   6   -3.34   16.96
 -29  -1   6   -6.27   15.65
 -27  -1   6  165.43   28.04
  27   1  -6  200.50   29.00
 -25  -1   6   98.06   21.42
  25   1  -6   72.68   18.54
  23   1  -6   -5.57    9.14
 -23  -1   6   -0.53   10.71
 -21  -1   6  344.15   27.84
  21   1  -6  364.42   26.59
 -19  -1   6    0.21    8.72
  19   1  -6    3.29    8.09
 -17  -1   6    1.99    7.44
  17   1  -6   -5.51    5.45
 -15  -1   6  507.68   24.94
  15   1  -6  452.56   23.87
 -13  -1   6   10.85    5.88
  13   1  -6   31.44    8.43
  13   1  -6   25.62    4.26
  11   1  -6  475.72   21.83
 -11  -1   6  485.14   19.35
  11   1  -6  502.96   15.00
   9   1  -6 2174.76   50.89
   9   1  -6 2114.54   39.31
  -9  -1   6 2187.82   43.04
  -7  -1   6   67.30    6.24
  -5  -1   6  416.03   13.34
   5   1  -6  417.85   16.21
   3   1  -6  323.01   12.41
   3   1  -6  286.30   14.56
   1   1  -6  229.63   12.15
  -1   1  -6 1753.01   40.75
  -3   1  -6  202.50   15.17
  -5   1  -6   -9.31    6.86
  -7   1  -6  648.31   31.93
  -9   1  -6  511.35   30.71
 -11   1  -6  199.00   24.73
 -13   1  -6  226.19   22.35
 -13   1  -6  235.06   28.59
 -15   1  -6   52.22   15.55
 -15   1  -6   74.54   19.19
 -17   1  -6    1.63   15.05
 -19   1  -6   51.80   22.59
 -30   0   6 1001.68   57.36
 -28   0   6  275.35   30.51
  26   0  -6  135.48   24.70
 -26   0   6  121.47   24.18
 -24   0   6 1113.37   52.55
  24   0  -6  995.91   48.94
 -22   0   6 1092.95   49.20
  22   0  -6 1179.87   49.65
 -20   0   6   28.46   11.74
  20   0  -6   51.69   13.04
 -18   0   6 4009.23   92.27
  18   0  -6 4217.37   92.95
 -16   0   6  226.91   18.09
  16   0  -6  214.82   17.24
  14   0  -6 1411.12   28.59
  14   0  -6 1394.72   42.63
 -14   0   6 1389.23   40.64
 -12   0   6 4035.75   73.37
  12   0  -6 3994.24   80.72
  12   0  -6 3971.12   64.70
  10   0  -6   26.31    5.52
  10   0  -6   19.24    6.61
 -10   0   6   12.30    4.38
  -8   0   6  863.95   20.59
   8   0  -6  919.22   23.55
  -6   0   6 3445.10   52.01
   6   0  -6 3321.25   59.20
   4   0  -6  285.02   14.07
   4   0  -6  263.54    9.11
   2   0  -6 5468.70   82.98
   2   0  -6 5579.25   93.19
   0   0  -6 5676.27   91.08
   0   0  -6 5734.84   98.48
  -2   0  -6  103.41   12.24
  -2   0  -6   82.42   11.71
  -4   0  -6 2852.56   65.19
  -4   0  -6 2846.32   64.28
  -6   0  -6 1651.93   48.83
  -6   0  -6 1645.01   49.53
  -8   0  -6  429.28   25.41
  -8   0  -6  439.08   26.67
 -10   0  -6 1933.71   58.83
 -10   0  -6 1898.02   60.44
 -12   0  -6  188.12   23.58
 -12   0  -6  172.39   18.97
 -14   0  -6  465.77   32.94
 -14   0  -6  517.22   32.12
 -16   0  -6 1746.91   66.71
 -18   0  -6  206.37   29.76
 -31   1   6   -6.19   17.31
 -29   1   6   12.85   17.51
 -27   1   6  186.19   29.77
  27  -1  -6  187.64   28.13
  25  -1  -6   88.32   21.06
 -25   1   6   83.95   20.33
  23  -1  -6   -0.28   10.32
 -23   1   6   -0.28   13.02
 -21   1   6  389.46   28.82
  21  -1  -6  361.87   26.76
  19  -1  -6    5.76    8.63
 -19   1   6   -4.30    9.18
  17  -1  -6   -2.79    5.91
 -17   1   6    1.83    7.03
 -15   1   6  467.37   24.19
  15  -1  -6  482.41   24.69
  15  -1  -6  485.35   16.77
  13  -1  -6    7.04    6.31
 -13   1   6   43.96    8.56
  13  -1  -6   29.57    5.99
 -11   1   6  484.31   18.32
  11  -1  -6  470.25   21.78
  11  -1  -6  452.43   16.88
   9  -1  -6 2233.00   44.48
   9  -1  -6 2109.64   50.58
  -9   1   6 2186.12   39.19
   7  -1  -6   61.95    8.26
   5  -1  -6  434.48   17.40
   3  -1  -6  288.05   14.92
   3  -1  -6  318.12   10.49
   1  -1  -6  231.32   14.62
   1  -1  -6  241.70   12.23
  -1  -1  -6 1798.67   45.89
  -1  -1  -6 1814.95   41.95
  -3  -1  -6  176.67   14.56
  -3  -1  -6  204.93   15.15
  -5  -1  -6   -2.86    4.92
  -5  -1  -6   -0.72    7.79
  -7  -1  -6  631.33   29.75
  -7  -1  -6  655.10   30.68
  -9  -1  -6  535.16   30.43
  -9  -1  -6  522.45   28.66
 -11  -1  -6  199.89   19.53
 -11  -1  -6  192.00   20.64
 -13  -1  -6  217.00   22.02
 -13  -1  -6  221.44   23.53
 -15  -1  -6   95.42   20.71
 -15  -1  -6   48.26   17.64
 -17  -1  -6   16.30   16.16
 -19  -1  -6   72.37   21.61
 -30   2   6  306.24   33.07
 -28   2   6  226.50   32.09
  26  -2  -6  102.01   21.98
 -26   2   6  101.08   21.66
 -24   2   6  755.63   43.02
  24  -2  -6  712.84   41.61
 -22   2   6  499.74   33.94
  22  -2  -6  579.19   35.01
 -20   2   6  408.45   29.55
  20  -2  -6  447.63   28.69
  18  -2  -6 1561.63   51.35
 -18   2   6 1718.31   54.93
  16  -2  -6  390.38   16.62
  16  -2  -6  403.22   23.38
 -16   2   6  403.05   23.91
 -14   2   6 1101.80   36.48
  14  -2  -6 1134.39   29.93
  14  -2  -6 1166.39   38.50
 -12   2   6 1399.84   37.67
  12  -2  -6 1495.15   42.48
  12  -2  -6 1528.80   35.88
 -10   2   6   38.68    6.31
  10  -2  -6   30.64    7.68
  10  -2  -6   51.64    8.33
  -8   2   6 1608.97   27.96
   8  -2  -6 1526.33   37.36
   6  -2  -6 3168.46   59.97
   4  -2  -6  137.04   10.60
   2  -2  -6 3679.86   56.33
   2  -2  -6 3617.06   69.64
   0  -2  -6 3606.06   71.78
   0  -2  -6 3731.71   63.25
  -2  -2  -6  658.97   26.89
  -2  -2  -6  656.76   23.55
  -4  -2  -6 1770.37   49.14
  -4  -2  -6 1740.95   45.86
  -6  -2  -6  794.83   32.15
  -6  -2  -6  698.84   31.57
  -8  -2  -6  158.21   16.99
  -8  -2  -6  195.04   19.17
 -10  -2  -6  307.80   23.93
 -10  -2  -6  326.62   24.57
 -12  -2  -6  872.24   40.14
 -12  -2  -6  824.69   40.09
 -14  -2  -6   87.87   18.79
 -14  -2  -6  136.94   22.46
 -16  -2  -6  820.53   44.70
 -18  -2  -6  117.03   23.13
 -29   3   6   36.53   18.58
 -27   3   6  634.94   43.16
  25  -3  -6  395.87   32.76
 -25   3   6  372.77   32.38
 -23   3   6  236.34   29.34
  23  -3  -6  169.97   24.45
  21  -3  -6 1782.88   61.34
 -21   3   6 1813.68   62.94
 -19   3   6  156.04   20.76
  19  -3  -6  162.08   18.14
  17  -3  -6  766.95   33.94
 -17   3   6  810.99   36.02
  17  -3  -6  864.06   27.71
  15  -3  -6 1963.05   53.84
  15  -3  -6 1977.80   45.39
 -15   3   6 1959.51   54.21
 -13   3   6  462.13   22.55
  13  -3  -6  478.26   19.88
  13  -3  -6  426.25   22.39
 -11   3   6 1735.27   41.30
  11  -3  -6 1792.53   46.11
  11  -3  -6 1672.51   41.62
  -9   3   6 6009.10   93.16
   9  -3  -6 6039.48  106.22
   9  -3  -6 6139.51  101.83
   7  -3  -6 1261.91   35.08
   5  -3  -6  926.60   29.07
   3  -3  -6 5253.62   74.66
   3  -3  -6 5175.74   90.94
   1  -3  -6   28.39    4.86
   1  -3  -6   21.22    8.14
  -1  -3  -6 3907.74   67.17
  -1  -3  -6 3830.12   77.44
  -3  -3  -6 1940.04   45.32
  -3  -3  -6 1841.80   50.29
  -5  -3  -6   42.65   11.48
  -5  -3  -6   39.37    9.68
  -7  -3  -6 2486.37   64.54
  -7  -3  -6 2374.37   61.59
  -9  -3  -6 1211.07   44.34
  -9  -3  -6 1170.23   43.81
 -11  -3  -6  179.33   19.54
 -11  -3  -6  170.37   19.04
 -13  -3  -6 1270.44   51.63
 -13  -3  -6 1380.76   51.33
 -15  -3  -6  269.48   26.87
 -17  -3  -6  211.84   29.74
 -19  -3  -6  559.48   41.23
 -30   4   6    8.45   17.21
 -28   4   6    8.69   16.68
 -26   4   6   -8.24   15.04
  26  -4  -6   -3.73   12.41
 -24   4   6   -4.25   12.33
  24  -4  -6  -12.08   10.28
  22  -4  -6   -5.35   10.08
 -22   4   6   -1.92   11.40
 -20   4   6  287.97   25.18
  20  -4  -6  264.77   23.44
 -18   4   6  260.10   22.53
  18  -4  -6  213.10   15.47
  18  -4  -6  202.54   18.54
  16  -4  -6    1.08    6.58
 -16   4   6   -3.14    8.84
  16  -4  -6   14.54    7.47
  14  -4  -6   76.60   11.72
 -14   4   6   69.82   12.47
  14  -4  -6   61.79   11.87
  12  -4  -6   12.49    7.09
  12  -4  -6    8.63    6.82
 -12   4   6   -1.05    5.79
  10  -4  -6   52.96    9.57
 -10   4   6   74.85    9.91
  10  -4  -6  104.00   12.22
  -8   4   6   15.69    4.43
   8  -4  -6   25.12    7.68
  -6   4   6  482.76   12.08
   6  -4  -6  482.42   22.20
   4  -4  -6   50.37    4.43
   4  -4  -6   51.84    9.63
   2  -4  -6   86.98    6.41
   2  -4  -6   99.43   10.95
   0  -4  -6  244.36   16.62
   0  -4  -6  231.42   11.77
  -2  -4  -6    2.66    6.42
  -2  -4  -6   11.32    6.10
  -4  -4  -6   56.93   11.47
  -4  -4  -6   87.19   11.77
  -6  -4  -6    3.13    7.74
  -6  -4  -6    2.90    8.04
  -8  -4  -6    4.81    9.30
  -8  -4  -6    4.90    8.97
 -10  -4  -6    8.93   10.21
 -10  -4  -6   12.66   11.81
 -12  -4  -6  168.34   22.77
 -12  -4  -6  184.82   24.21
 -14  -4  -6   20.19   14.14
 -16  -4  -6   19.00   16.42
 -18  -4  -6    4.43   15.44
 -29   5   6   12.19   16.68
 -27   5   6  764.22   47.76
  25  -5  -6  458.24   35.59
 -25   5   6  434.49   34.95
 -23   5   6   81.08   20.38
  23  -5  -6   54.78   17.25
 -21   5   6 1623.32   60.89
  21  -5  -6 1562.17   57.89
 -19   5   6  923.93   43.27
  19  -5  -6  954.76   34.80
  19  -5  -6  969.88   41.58
  17  -5  -6  497.13   27.81
  17  -5  -6  488.66   24.15
 -17   5   6  502.77   30.05
  15  -5  -6 3260.48   74.79
  15  -5  -6 3136.63   69.09
 -15   5   6 3268.80   75.09
 -13   5   6  843.79   31.16
  13  -5  -6  908.05   32.09
  13  -5  -6  916.31   33.13
  11  -5  -6 2857.02   62.88
 -11   5   6 2742.27   56.68
  11  -5  -6 2800.24   62.99
  -9   5   6 4577.32   76.74
   9  -5  -6 4851.24   90.71
   9  -5  -6 4737.92   88.13
  -7   5   6  343.51   12.58
   5  -5  -6 1761.67   32.49
   5  -5  -6 1761.42   47.72
   3  -5  -6 2218.47   55.13
   3  -5  -6 2247.64   40.04
   1  -5  -6   21.28    5.37
   1  -5  -6   -2.11    5.56
  -1  -5  -6 1693.43   38.03
  -1  -5  -6 1658.37   47.31
  -3  -5  -6 1756.45   50.43
  -3  -5  -6 1826.36   43.79
  -5  -5  -6   80.26   12.28
  -5  -5  -6   46.46   11.75
  -7  -5  -6 2748.81   71.32
  -7  -5  -6 2848.07   68.05
  -9  -5  -6 1184.22   45.67
  -9  -5  -6 1200.10   44.62
 -11  -5  -6  281.80   23.39
 -11  -5  -6  282.92   24.35
 -13  -5  -6 1373.02   55.10
 -15  -5  -6  365.59   31.02
 -17  -5  -6  306.89   35.26
 -28   6   6  106.96   28.24
 -26   6   6  -10.83   13.26
 -24   6   6  197.20   30.13
  24  -6  -6  215.78   25.06
 -22   6   6    6.92   12.47
  22  -6  -6   -2.28   10.64
  20  -6  -6  574.02   29.10
  20  -6  -6  638.52   35.75
 -20   6   6  549.57   35.58
  18  -6  -6  565.07   27.86
 -18   6   6  517.15   31.80
  18  -6  -6  560.90   31.01
  16  -6  -6  114.63   15.89
  16  -6  -6   81.15   15.04
 -16   6   6   77.62   15.53
  14  -6  -6  202.85   16.95
  14  -6  -6  216.64   17.05
 -14   6   6  225.40   18.26
  12  -6  -6  618.34   26.45
 -12   6   6  644.80   25.41
  12  -6  -6  631.35   28.52
  10  -6  -6  107.27   14.29
 -10   6   6  101.83   10.19
  10  -6  -6  101.90   11.02
   8  -6  -6 1033.12   36.61
   8  -6  -6 1107.55   32.90
  -8   6   6 1058.72   27.41
   6  -6  -6 1232.05   40.11
   6  -6  -6 1256.96   28.39
   4  -6  -6   27.24    5.59
   4  -6  -6   15.08    7.59
   2  -6  -6 1529.48   33.63
   2  -6  -6 1491.64   45.88
   0  -6  -6  650.92   29.50
   0  -6  -6  658.21   21.69
  -2  -6  -6    1.22    6.74
  -2  -6  -6    1.87    5.10
  -4  -6  -6  246.29   19.67
  -4  -6  -6  259.63   16.73
  -6  -6  -6  378.97   24.89
  -6  -6  -6  399.65   23.20
  -8  -6  -6  113.62   17.53
  -8  -6  -6   88.93   16.79
 -10  -6  -6  465.31   30.09
 -10  -6  -6  496.59   30.63
 -12  -6  -6   28.71   14.21
 -14  -6  -6  119.07   23.26
 -16  -6  -6  511.73   37.46
 -18  -6  -6  185.93   30.56
 -27   7   6  227.59   32.74
 -25   7   6  193.49   32.02
 -23   7   6   31.80   18.78
  23  -7  -6   14.56   14.02
 -21   7   6  553.71   37.31
  21  -7  -6  495.27   33.26
  21  -7  -6  477.75   28.81
  19  -7  -6   43.66   13.03
 -19   7   6   58.90   16.47
  19  -7  -6   42.26   13.76
 -17   7   6  177.37   19.93
  17  -7  -6  169.23   18.25
  17  -7  -6  183.54   17.41
  15  -7  -6  782.20   34.02
 -15   7   6  871.93   35.50
  15  -7  -6  819.98   33.93
  13  -7  -6   82.10   14.22
  13  -7  -6   91.86   13.65
 -13   7   6   86.64   12.87
  11  -7  -6   71.69   11.36
 -11   7   6   61.56   10.40
  11  -7  -6   65.95   12.70
   9  -7  -6  715.11   31.68
  -9   7   6  741.85   24.86
   9  -7  -6  753.18   27.09
   7  -7  -6    5.89    7.48
  -7   7   6    5.58    4.59
   5  -7  -6 1773.15   38.56
   5  -7  -6 1843.41   52.88
   3  -7  -6 1789.44   52.56
   3  -7  -6 1817.84   39.35
   1  -7  -6   -1.48    6.79
   1  -7  -6    3.73    5.04
  -1  -7  -6  785.77   26.59
  -1  -7  -6  839.98   35.90
  -3  -7  -6  508.21   28.33
  -3  -7  -6  548.20   23.74
  -5  -7  -6   -6.55    8.76
  -5  -7  -6   -8.18    6.38
  -7  -7  -6  822.90   34.85
  -7  -7  -6  776.18   37.57
  -9  -7  -6  343.18   24.73
  -9  -7  -6  316.97   25.00
 -11  -7  -6   41.86   14.50
 -13  -7  -6  582.33   36.97
 -15  -7  -6  191.91   27.90
 -28   8   6  242.12   37.37
 -26   8   6   20.53   19.93
 -24   8   6  899.42   51.68
 -22   8   6  266.65   33.18
 -20   8   6  505.40   34.22
  20  -8  -6  525.31   31.20
  18  -8  -6 1658.08   54.65
 -18   8   6 1621.85   57.21
 -16   8   6  451.36   27.15
  16  -8  -6  424.35   25.65
  16  -8  -6  429.28   26.73
  14  -8  -6  553.13   26.49
 -14   8   6  534.09   27.35
  14  -8  -6  538.12   29.39
  12  -8  -6 2265.96   55.01
 -12   8   6 2243.67   55.13
  12  -8  -6 2062.19   60.37
  10  -8  -6   44.69   12.76
 -10   8   6   44.81   10.10
  10  -8  -6   33.96    8.83
  -8   8   6 1994.81   45.39
   8  -8  -6 1969.51   47.15
   8  -8  -6 1958.48   57.45
   6  -8  -6 1620.58   51.49
   6  -8  -6 1645.47   39.16
   4  -8  -6    0.75    5.02
   4  -8  -6   -1.10    7.51
   2  -8  -6 2581.80   53.61
   2  -8  -6 2592.95   67.91
   0  -8  -6 1227.12   45.27
   0  -8  -6 1249.61   35.41
  -2  -8  -6   48.16   13.28
  -2  -8  -6   57.72   10.28
  -4  -8  -6 1805.04   49.74
  -4  -8  -6 1890.91   60.13
  -6  -8  -6  967.98   37.36
  -6  -8  -6  890.21   41.40
  -8  -8  -6  180.67   18.46
  -8  -8  -6  104.27   19.72
 -10  -8  -6 1713.69   61.45
 -10  -8  -6 1924.69   61.84
 -25   9   6   -9.63   18.67
 -23   9   6    9.46   16.78
  21  -9  -6    0.75   11.29
 -21   9   6    0.34   14.83
  19  -9  -6   37.11   15.02
 -19   9   6   35.62   16.25
  17  -9  -6  -12.09    8.53
 -17   9   6  -10.93   10.13
  15  -9  -6   -4.22    8.48
 -15   9   6  -13.79    7.37
  13  -9  -6    6.90   10.54
 -13   9   6    8.90    8.80
  11  -9  -6   84.33   15.55
 -11   9   6   51.93   11.32
  -9   9   6   13.60    7.83
   9  -9  -6   -1.03    9.49
   7  -9  -6   14.16    9.47
   5  -9  -6   -3.86    7.59
   3  -9  -6   17.57   10.13
   1  -9  -6   -1.94    8.47
  -1  -9  -6    8.84    9.70
  -3  -9  -6   34.30   12.50
  -5  -9  -6   -6.18    9.69
  -7  -9  -6   55.15   16.75
  -9  -9  -6    6.60   12.22
  22 -10  -6  235.70   28.60
  20 -10  -6  225.06   22.84
 -18  10   6 1044.22   46.72
  18 -10  -6  971.79   45.25
 -16  10   6  209.96   21.17
  16 -10  -6  214.57   21.70
 -14  10   6  809.19   35.81
  14 -10  -6  789.88   39.41
 -12  10   6 1804.32   51.36
  12 -10  -6 1773.05   59.88
  10 -10  -6   11.14   10.17
   8 -10  -6  782.94   38.40
   6 -10  -6  912.49   41.25
   4 -10  -6  -11.93    7.65
   2 -10  -6 1564.93   55.23
   0 -10  -6 1531.09   55.02
  -2 -10  -6  100.05   18.56
  -4 -10  -6 1680.26   59.60
  -6 -10  -6  585.37   35.62
  -8 -10  -6   90.60   19.43
  23 -11  -6   27.17   17.82
  21 -11  -6  386.17   31.55
  19 -11  -6  113.24   21.71
  17 -11  -6  283.34   25.71
  15 -11  -6  452.00   32.17
  13 -11  -6   31.00   13.57
  11 -11  -6  234.16   23.41
   9 -11  -6  757.86   39.53
   7 -11  -6  100.13   19.20
   5 -11  -6 1085.78   47.44
   3 -11  -6 1628.72   58.54
   1 -11  -6   -6.29    9.51
  -1 -11  -6  654.88   37.61
  -3 -11  -6  381.37   29.28
  -5 -11  -6    7.71   13.80
  -7 -11  -6  586.98   37.44
  22 -12  -6    7.27   14.18
  20 -12  -6   38.90   17.06
  18 -12  -6  120.70   23.15
  16 -12  -6   -4.44   12.10
  14 -12  -6  246.01   25.09
  12 -12  -6  219.49   24.30
  10 -12  -6    4.02   11.31
   8 -12  -6  207.28   22.87
   6 -12  -6  419.03   30.82
   4 -12  -6   -9.46    9.09
   2 -12  -6  171.28   23.92
   0 -12  -6   44.92   15.73
  -2 -12  -6    7.81   13.32
  -4 -12  -6  243.24   26.54
  -6 -12  -6   78.59   21.59
  21 -13  -6  669.55   44.55
  19 -13  -6  241.35   27.02
  17 -13  -6  126.19   25.59
  15 -13  -6 1200.25   55.91
  13 -13  -6  201.37   27.81
  11 -13  -6  535.71   36.89
   9 -13  -6 1392.25   58.88
   7 -13  -6    9.82   12.29
   5 -13  -6  753.92   42.69
   3 -13  -6  761.96   43.65
   1 -13  -6   -9.92   11.67
  -1 -13  -6  804.05   44.36
  -3 -13  -6  819.32   45.76
  -5 -13  -6    5.76   13.34
  20 -14  -6   14.98   18.38
  18 -14  -6   80.37   21.99
  16 -14  -6   13.27   15.50
  14 -14  -6   32.90   17.09
  12 -14  -6  132.34   25.43
  10 -14  -6   27.58   15.41
   8 -14  -6   11.20   12.96
   6 -14  -6   77.64   20.34
   4 -14  -6   -5.25   12.24
   2 -14  -6   42.91   17.68
   0 -14  -6   76.34   19.84
  -2 -14  -6   12.79   15.25
  -4 -14  -6  -12.20   13.31
  17 -15  -6  141.25   26.93
  15 -15  -6  400.62   35.85
  13 -15  -6   41.82   19.23
  11 -15  -6  204.10   30.03
   9 -15  -6  407.28   35.21
   7 -15  -6   31.51   15.86
   5 -15  -6  316.67   31.04
   3 -15  -6  414.92   35.37
   1 -15  -6   -5.71   13.17
  -1 -15  -6  510.41   39.66
  -3 -15  -6  478.09   39.08
  14 -16  -6  158.21   28.93
  12 -16  -6  438.52   38.15
  10 -16  -6   32.88   18.76
   8 -16  -6  291.90   32.13
   6 -16  -6  512.56   41.35
   4 -16  -6  -19.48   13.98
   2 -16  -6  345.97   34.33
   0 -16  -6  263.68   35.09
  -2 -16  -6   23.28   18.33
   7 -17  -6   -6.42   15.05
   5 -17  -6    9.74   18.58
   3 -17  -6   -6.31   16.70
 -14 -16   7    1.27   16.13
 -12 -16   7   76.74   22.74
 -10 -16   7   90.42   23.10
  -8 -16   7    0.69   14.58
  -6 -16   7  132.18   26.90
  -4 -16   7  121.39   24.79
   2  16  -7   21.16   20.36
   0  16  -7  226.93   35.96
 -17 -15   7   26.02   17.57
 -15 -15   7  208.76   31.58
 -13 -15   7  253.74   28.76
 -11 -15   7   19.34   15.43
  -9 -15   7  121.65   24.70
  -7 -15   7  146.46   25.54
  -5 -15   7   -0.35   14.19
  -3 -15   7  183.64   28.33
   1  15  -7  224.05   36.18
  -1  15  -7   25.59   18.05
  -3  15  -7  275.26   31.30
 -20 -14   7  115.68   26.09
 -18 -14   7   93.04   24.13
 -16 -14   7  476.34   37.70
 -14 -14   7   81.11   21.12
 -12 -14   7  402.91   34.12
 -10 -14   7  648.65   41.54
  -8 -14   7   14.16   14.02
  -6 -14   7  624.04   40.31
  -4 -14   7  484.48   35.87
   0  14  -7  896.20   50.95
  -2  14  -7  530.08   39.97
  -4  14  -7   -1.39   14.14
  -6  14  -7  569.81   42.89
 -21 -13   7   -5.13   17.02
 -19 -13   7  -17.52   13.39
 -17 -13   7  -12.39   12.14
 -15 -13   7   28.35   15.68
 -13 -13   7    1.56   13.05
 -11 -13   7   -1.16   11.79
  -9 -13   7   10.34   11.91
  -7 -13   7   11.19   11.36
  -5 -13   7  -10.26    9.22
  -3 -13   7   -5.78   10.72
   1  13  -7    7.98   13.54
  -1  13  -7    0.96   13.53
  -3  13  -7   11.54   14.41
  -5  13  -7  -10.17   13.50
  -7  13  -7    5.13   15.18
  -9  13  -7   -6.58   17.29
 -22 -12   7  460.48   40.17
 -20 -12   7   90.56   24.67
 -18 -12   7  396.65   34.18
 -16 -12   7 1053.60   52.65
 -14 -12   7  145.34   24.18
 -12 -12   7  607.13   37.99
 -10 -12   7 1084.22   49.63
  -8 -12   7  -19.86    8.46
  -6 -12   7  700.56   39.30
  -4 -12   7  660.20   38.52
  -2 -12   7  -11.29   10.09
   0  12  -7  632.65   38.53
  -2  12  -7  597.48   38.09
  -4  12  -7   34.15   16.67
  -6  12  -7  760.26   45.60
  -8  12  -7  306.43   32.78
 -10  12  -7   68.76   22.49
 -25 -11   7  384.46   38.40
 -23 -11   7   52.71   20.33
 -21 -11   7   92.59   22.78
 -19 -11   7  293.50   29.78
 -17 -11   7   14.03   14.82
 -15 -11   7  371.66   30.01
 -13 -11   7  662.52   38.49
 -11 -11   7   -0.97    9.89
  -9 -11   7  588.59   34.88
  -7 -11   7 1251.96   51.07
  -5 -11   7   19.88   12.77
  -3 -11   7  627.31   36.38
   1  11  -7  316.44   26.64
  -1  11  -7   54.34   17.07
  -3  11  -7  503.96   34.27
  -5  11  -7  267.47   27.92
  -7  11  -7  104.73   22.92
  -9  11  -7  411.36   37.45
 -11  11  -7   88.70   26.19
 -26 -10   7   42.12   21.56
 -24 -10   7   -1.68   16.27
 -22 -10   7  117.33   24.92
 -20 -10   7    4.42   13.71
 -18 -10   7   66.95   18.32
 -16 -10   7  157.40   23.71
 -14 -10   7   -6.14    8.67
 -12 -10   7  149.21   21.49
 -10 -10   7  298.12   24.55
  -8 -10   7   -1.57    8.18
  -6 -10   7  236.71   21.78
  -4 -10   7  890.83   41.01
  -2 -10   7  122.95   19.42
   0  10  -7  283.32   24.07
  -2  10  -7  138.34   22.36
  -4  10  -7   39.10   14.92
  -6  10  -7  228.56   24.51
  -8  10  -7   73.14   21.13
 -10  10  -7   -7.91   16.68
 -12  10  -7  164.96   31.22
 -27  -9   7   37.04   22.52
 -25  -9   7  841.47   53.17
 -23  -9   7  183.24   29.26
 -21  -9   7  309.98   30.40
 -19  -9   7 1248.14   55.65
 -17  -9   7  139.20   23.46
 -15  -9   7  700.34   38.18
 -13  -9   7 1814.96   60.42
 -11  -9   7   17.78   10.17
  -9  -9   7  855.20   38.56
  -7  -9   7 1342.85   48.66
  -5  -9   7  269.92   22.00
  -3  -9   7 2329.92   67.01
   1   9  -7 1195.48   45.80
  -1   9  -7   93.23   16.96
  -5   9  -7 1323.59   54.00
  -7   9  -7  251.56   27.37
  -9   9  -7 1461.43   64.15
 -11   9  -7  227.55   32.93
 -13   9  -7  125.50   30.82
 -28  -8   7   59.68   24.19
 -26  -8   7   57.66   21.08
 -24  -8   7  -11.93   12.70
  24   8  -7   -4.91   10.42
  22   8  -7   12.83   11.76
 -22  -8   7   -1.64   12.09
  20   8  -7   -6.40    9.68
 -20  -8   7  -12.24   10.15
  18   8  -7   58.27   13.43
 -18  -8   7   27.36   14.53
 -16  -8   7  183.51   20.45
  16   8  -7  167.95   16.34
  14   8  -7   -6.59    5.69
 -14  -8   7   -8.56    8.31
 -12  -8   7   31.65   10.57
  12   8  -7   59.36   11.17
  10   8  -7   96.90   11.98
 -10  -8   7   57.81   13.80
   8   8  -7   14.57    6.77
  -8  -8   7    9.73    8.69
  -6  -8   7  134.16   18.27
  -4  -8   7  979.11   39.30
  -2  -8   7   92.30   16.02
   0   8  -7   42.91   12.47
  -2   8  -7  287.07   23.17
  -4   8  -7   33.33   15.78
  -6   8  -7   -1.00   11.52
  -8   8  -7  -12.73   12.99
 -10   8  -7    0.13   16.54
 -12   8  -7   51.49   21.06
 -14   8  -7  -32.56   15.06
 -29  -7   7  143.29   30.26
 -27  -7   7   68.83   26.32
  25   7  -7  530.47   35.78
 -25  -7   7  504.39   41.11
 -23  -7   7   59.62   19.34
  23   7  -7   60.75   15.77
 -21  -7   7  137.93   24.43
  21   7  -7  187.10   23.80
 -19  -7   7 1358.47   55.21
  19   7  -7 1252.87   46.66
  17   7  -7  320.79   21.81
 -17  -7   7  351.97   26.45
  15   7  -7  604.00   27.75
 -15  -7   7  619.39   32.86
 -13  -7   7 1686.92   54.33
  13   7  -7 1675.12   46.74
  11   7  -7    2.03    5.87
 -11  -7   7   -1.28    6.51
  -9  -7   7 1256.84   43.22
   9   7  -7 1281.04   37.25
  -7  -7   7 1166.91   40.66
   7   7  -7 1130.12   34.21
  -5  -7   7   35.61   10.26
  -3  -7   7 2425.30   62.84
   1   7  -7 1464.57   47.13
  -1   7  -7   -3.91    7.08
  -3   7  -7 1255.98   47.54
  -5   7  -7  463.29   30.54
  -7   7  -7  289.79   26.38
  -9   7  -7 1063.57   51.14
 -11   7  -7  126.53   26.63
 -13   7  -7  156.71   29.69
 -15   7  -7  466.75   43.38
 -28  -6   7  421.74   40.13
 -26  -6   7  278.42   31.27
  26   6  -7  244.51   26.14
 -24  -6   7   54.23   18.67
  24   6  -7   64.57   17.05
 -22  -6   7 1069.46   51.27
  22   6  -7 1080.53   46.85
 -20  -6   7  116.26   21.35
  20   6  -7  177.66   22.03
  18   6  -7  535.07   28.49
 -18  -6   7  552.51   33.00
 -16  -6   7 1771.48   56.83
  16   6  -7 1692.51   50.46
  14   6  -7  381.10   21.52
 -14  -6   7  378.35   24.44
 -12  -6   7 1048.36   39.25
  12   6  -7 1073.76   35.30
 -10  -6   7 2193.57   57.00
  10   6  -7 2015.07   50.90
   8   6  -7   -5.52    4.98
  -8  -6   7   -2.29    5.37
  -6  -6   7 1977.10   52.32
  -4  -6   7 1362.17   42.39
   2   6  -7   -3.63    6.02
   0   6  -7 1561.39   47.56
  -2   6  -7 1370.25   46.83
  -4   6  -7   71.76   16.20
  -6   6  -7 1422.04   53.62
  -8   6  -7  396.46   29.84
 -10   6  -7  149.52   24.89
 -12   6  -7  896.41   50.33
 -14   6  -7  318.33   33.28
 -16   6  -7  157.89   33.84
 -29  -5   7   12.39   17.69
  27   5  -7  -10.78   10.80
 -27  -5   7  -15.55   14.39
 -25  -5   7   50.92   19.65
  25   5  -7   48.41   17.64
 -23  -5   7  -11.21   10.77
  23   5  -7   -1.05    9.61
 -21  -5   7   94.41   19.16
  21   5  -7   96.05   17.79
 -19  -5   7  258.46   23.02
  19   5  -7  260.21   20.81
  17   5  -7   -0.32    6.41
 -17  -5   7   -0.17    7.75
 -15  -5   7   15.32    9.15
  15   5  -7    0.76    6.35
 -13  -5   7  437.03   24.08
  13   5  -7  464.08   23.23
  11   5  -7   17.41    7.07
 -11  -5   7    0.98    5.79
   9   5  -7   22.99    7.26
  -9  -5   7   11.20    7.40
  -7  -5   7  127.00   12.15
  -5  -5   7   -0.22    5.20
  -3  -5   7   -3.78    5.02
   1   5  -7  120.33   13.16
  -1   5  -7    4.75    7.96
  -3   5  -7   99.45   15.71
  -5   5  -7  117.87   18.51
  -7   5  -7    6.10   12.05
  -9   5  -7    1.25   11.72
 -11   5  -7   -6.47   14.56
 -13   5  -7  -28.81   14.26
 -15   5  -7  134.52   27.65
 -17   5  -7   27.59   23.72
 -30  -4   7   29.74   19.24
 -28  -4   7  949.05   55.75
  28   4  -7  858.32   49.35
 -26  -4   7  249.77   32.66
  26   4  -7  242.07   25.90
  24   4  -7  186.82   21.92
 -24  -4   7  195.59   27.40
 -22  -4   7 1650.14   62.85
  22   4  -7 1638.14   58.18
  20   4  -7  435.11   27.46
 -20  -4   7  478.95   31.67
  18   4  -7  265.50   20.21
 -18  -4   7  236.44   21.38
 -16  -4   7 1831.89   54.26
  16   4  -7 1705.59   50.90
  14   4  -7   77.16   12.22
 -14  -4   7   56.73   11.75
  12   4  -7 1721.99   47.40
 -12  -4   7 1773.91   47.65
  12   4  -7 1706.12   32.34
  10   4  -7 3915.01   79.34
 -10  -4   7 3954.49   77.62
  -8  -4   7  330.04   17.56
  -6  -4   7 1592.54   40.89
  -4  -4   7 4324.83   79.72
   2   4  -7    0.70    5.68
   0   4  -7 3350.99   70.99
  -2   4  -7 1049.28   37.27
  -4   4  -7  156.42   17.25
  -6   4  -7 2638.29   70.88
  -8   4  -7  748.02   38.81
 -10   4  -7  377.03   29.75
 -12   4  -7 1596.94   64.70
 -14   4  -7  211.06   31.89
 -16   4  -7  307.23   38.77
 -31  -3   7  130.48   29.18
 -29  -3   7   17.75   19.87
 -27  -3   7   23.48   16.94
  27   3  -7   11.12   14.35
 -25  -3   7  301.07   30.00
  25   3  -7  278.42   27.33
 -23  -3   7   52.16   17.06
  23   3  -7  112.66   19.50
 -21  -3   7  492.96   32.74
  21   3  -7  469.28   29.55
 -19  -3   7 1668.25   56.29
  19   3  -7 1656.88   53.65
 -17  -3   7   22.84   10.32
  17   3  -7   56.85   12.07
 -15  -3   7  586.81   27.52
  15   3  -7  612.53   28.03
  13   3  -7 1044.70   35.97
 -13  -3   7 1004.58   34.06
  13   3  -7 1020.11   21.52
  11   3  -7  377.67   13.17
  11   3  -7  336.10   19.31
 -11  -3   7  305.96   17.34
   9   3  -7  214.34   11.02
   9   3  -7  211.88   15.18
  -9  -3   7  211.35   13.54
  -7  -3   7  815.90   25.66
  -5  -3   7   31.84    6.26
   3   3  -7 1949.47   44.51
   1   3  -7  344.65   18.11
  -1   3  -7   84.91   12.76
  -3   3  -7  929.94   34.51
  -5   3  -7  114.25   16.49
  -7   3  -7   14.42   12.33
  -9   3  -7  859.33   42.10
 -11   3  -7  202.20   27.62
 -13   3  -7   57.33   21.11
 -15   3  -7  328.80   33.54
 -17   3  -7   22.10   16.95
 -17   3  -7   11.04   19.34
 -30  -2   7   59.50   20.78
 -28  -2   7  329.12   33.84
  28   2  -7  334.69   31.45
  26   2  -7  174.63   26.29
 -26  -2   7  185.80   28.13
  24   2  -7   75.53   17.99
 -24  -2   7   50.65   16.20
 -22  -2   7  646.05   37.57
  22   2  -7  681.29   36.63
  20   2  -7  656.96   33.67
 -20  -2   7  670.08   35.45
 -18  -2   7  207.42   19.72
  18   2  -7  266.20   20.12
  16   2  -7  969.13   36.88
 -16  -2   7  971.85   36.41
 -14  -2   7  115.12   12.22
  14   2  -7  122.87   13.03
  12   2  -7 1480.36   29.82
  12   2  -7 1498.43   43.56
 -12  -2   7 1464.99   39.15
  10   2  -7 1706.00   34.47
  10   2  -7 1696.55   45.93
 -10  -2   7 1682.18   39.49
   8   2  -7    4.81    4.03
  -8  -2   7    6.86    4.61
   6   2  -7  524.78   19.70
  -6  -2   7  529.84   18.27
   4   2  -7 1783.08   38.56
   2   2  -7   75.13    9.55
   0   2  -7  903.95   28.98
  -2   2  -7 1334.91   39.15
  -4   2  -7   61.76   12.30
  -6   2  -7 1543.03   49.95
  -8   2  -7  791.03   38.03
 -10   2  -7  108.80   21.89
 -12   2  -7  223.57   28.64
 -14   2  -7   53.05   21.17
 -14   2  -7   42.09   17.77
 -16   2  -7  106.69   22.80
 -16   2  -7   97.61   23.09
 -18   2  -7  376.98   35.63
 -31  -1   7  478.70   42.46
  29   1  -7  274.74   30.56
 -29  -1   7  286.06   31.87
 -27  -1   7  155.12   26.81
  27   1  -7  148.62   25.31
 -25  -1   7  894.54   48.32
  25   1  -7  908.07   46.72
 -23  -1   7  549.97   36.24
  23   1  -7  536.24   33.54
  21   1  -7 1369.84   50.81
 -21  -1   7 1349.08   52.72
 -19  -1   7 1846.76   58.22
 -17  -1   7   57.83   11.73
  17   1  -7   44.88   11.15
  15   1  -7 1825.66   51.96
 -15  -1   7 1821.39   48.86
  13   1  -7 3482.43   58.32
  13   1  -7 3452.84   75.69
 -13  -1   7 3476.33   68.44
 -11  -1   7  342.47   15.75
  11   1  -7  357.65   19.91
  11   1  -7  344.23   13.58
   9   1  -7 5318.66   84.64
  -9  -1   7 5373.80   84.75
  -7  -1   7 4724.89   74.26
   7   1  -7 4814.26   79.95
   5   1  -7    5.59    4.34
   3   1  -7 6616.27  110.53
   3   1  -7 6781.81  101.45
   1   1  -7 3753.13   74.18
   1   1  -7 3604.12   65.67
  -1   1  -7  675.75   28.30
  -1   1  -7  709.65   25.59
  -3   1  -7 3144.61   68.25
  -5   1  -7 1436.68   46.03
  -7   1  -7  183.54   22.49
  -7   1  -7  181.09   18.06
  -9   1  -7 1705.43   58.64
  -9   1  -7 1772.74   58.05
 -11   1  -7  771.67   38.97
 -11   1  -7  730.32   40.03
 -13   1  -7  605.00   37.41
 -13   1  -7  611.89   36.29
 -15   1  -7 1457.62   58.99
 -15   1  -7 1414.82   60.97
 -17   1  -7  140.73   26.84
 -30   0   7   -0.27   16.76
 -28   0   7   -9.80   13.24
  28   0  -7   -6.97   11.38
 -26   0   7  -12.60   11.35
  26   0  -7    8.87   13.12
 -24   0   7   -3.94   10.77
  24   0  -7  -10.20    8.83
  22   0  -7   -5.54    9.36
 -22   0   7  -10.74    8.93
  20   0  -7   -1.19    7.65
 -20   0   7   -6.15    7.90
  18   0  -7  -10.01    6.26
 -18   0   7   -2.20    7.38
  16   0  -7  -12.25    4.87
 -16   0   7    1.60    5.95
  14   0  -7   -1.06    3.79
 -14   0   7    4.83    5.35
  14   0  -7   -1.49    5.69
  12   0  -7    1.43    5.62
 -12   0   7   -2.12    4.29
  12   0  -7   -2.36    3.81
  10   0  -7    8.35    5.70
  10   0  -7   -1.07    4.09
 -10   0   7    4.58    3.67
   8   0  -7   -6.99    3.85
  -8   0   7   -1.57    2.61
   6   0  -7   -0.84    3.63
   4   0  -7    3.14    5.02
   4   0  -7    5.15    3.22
   2   0  -7   -4.64    4.52
   2   0  -7   -3.08    4.15
   0   0  -7   -4.37    4.16
   0   0  -7    2.95    5.48
  -2   0  -7   -7.20    5.14
  -2   0  -7    3.93    6.80
  -4   0  -7   -9.47    6.13
  -4   0  -7    4.53    8.68
  -6   0  -7    0.59    6.83
  -6   0  -7    1.13    9.22
  -8   0  -7   -2.62    8.49
  -8   0  -7    5.38   11.39
 -10   0  -7   -9.33    9.30
 -10   0  -7   -8.68    9.27
 -12   0  -7   -8.26   10.18
 -12   0  -7   19.06   13.23
 -14   0  -7   -1.72   12.91
 -14   0  -7    1.11   13.51
 -16   0  -7    3.79   14.23
 -18   0  -7   12.29   16.30
 -31   1   7  498.22   41.94
  29  -1  -7  288.19   31.18
 -29   1   7  269.72   30.06
 -27   1   7  148.34   26.76
  27  -1  -7  129.66   24.16
  25  -1  -7  953.67   48.20
 -25   1   7  926.26   48.06
 -23   1   7  515.11   34.13
  23  -1  -7  591.20   35.30
  21  -1  -7 1395.92   51.61
 -21   1   7 1316.78   51.68
 -19   1   7 1829.87   57.95
  19  -1  -7 2022.04   59.71
  17  -1  -7   58.16   12.39
 -17   1   7   47.76   11.74
  15  -1  -7 1773.52   38.39
 -15   1   7 1724.82   46.74
  15  -1  -7 1797.20   51.46
 -13   1   7 3512.61   67.05
  13  -1  -7 3602.48   77.45
  13  -1  -7 3501.84   63.69
 -11   1   7  331.54   13.73
  11  -1  -7  343.54   19.54
  11  -1  -7  332.50   15.89
   9  -1  -7 5128.35   86.91
  -9   1   7 5453.75   78.09
   7  -1  -7 4773.82   81.70
   5  -1  -7   -0.22    4.30
   3  -1  -7 6685.70   98.44
   1  -1  -7 3731.09   66.04
   1  -1  -7 3763.20   75.57
  -1  -1  -7  726.94   26.11
  -1  -1  -7  719.01   29.35
  -3  -1  -7 3175.97   68.08
  -3  -1  -7 3128.43   72.41
  -5  -1  -7 1448.22   47.80
  -5  -1  -7 1493.58   45.78
  -7  -1  -7  149.25   20.43
  -7  -1  -7  173.17   17.65
  -9  -1  -7 1898.86   60.44
  -9  -1  -7 1863.57   59.20
 -11  -1  -7  762.03   38.88
 -11  -1  -7  781.39   38.99
 -13  -1  -7  720.88   39.79
 -13  -1  -7  681.44   39.75
 -15  -1  -7 1475.10   60.46
 -17  -1  -7  134.14   26.24
 -30   2   7   47.63   20.38
  28  -2  -7  355.62   33.81
 -28   2   7  330.29   32.61
  26  -2  -7  169.67   26.35
 -26   2   7  235.03   26.34
  24  -2  -7   53.39   16.44
 -24   2   7   75.37   19.48
  22  -2  -7  646.15   36.45
 -22   2   7  665.66   37.60
  20  -2  -7  681.57   34.58
 -20   2   7  652.72   34.80
  18  -2  -7  246.79   19.86
 -18   2   7  243.65   20.69
  16  -2  -7  943.49   36.77
  16  -2  -7  916.72   27.27
 -16   2   7  827.41   33.33
  14  -2  -7   74.00   12.70
  14  -2  -7   90.80    9.50
 -14   2   7  110.96   11.71
  12  -2  -7 1458.02   43.33
 -12   2   7 1445.11   34.69
  12  -2  -7 1424.40   36.72
  10  -2  -7 1679.88   45.88
  10  -2  -7 1685.32   41.50
 -10   2   7 1738.76   32.35
   8  -2  -7    9.62    5.86
   6  -2  -7  513.03   20.97
   4  -2  -7 1734.32   43.45
   2  -2  -7   66.11    6.72
   2  -2  -7   57.75   10.43
   0  -2  -7  938.31   33.18
   0  -2  -7  962.50   27.06
  -2  -2  -7 1403.05   43.56
  -2  -2  -7 1353.92   37.43
  -4  -2  -7   65.34   12.49
  -4  -2  -7   66.52   13.06
  -6  -2  -7 1700.24   53.71
  -6  -2  -7 1768.94   51.76
  -8  -2  -7  870.54   37.84
  -8  -2  -7  878.42   39.53
 -10  -2  -7   88.28   17.02
 -10  -2  -7   51.07   14.83
 -12  -2  -7  160.72   23.30
 -12  -2  -7  108.74   19.78
 -14  -2  -7   55.52   18.74
 -14  -2  -7  137.03   23.37
 -16  -2  -7   95.82   21.38
 -18  -2  -7  433.19   35.68
 -31   3   7  144.85   30.06
 -29   3   7   30.77   19.38
 -27   3   7   15.48   14.89
  27  -3  -7    1.33   13.65
  25  -3  -7  259.56   26.48
 -25   3   7  332.95   29.77
  23  -3  -7   75.10   17.78
 -23   3   7   76.42   18.81
 -21   3   7  513.10   32.52
  21  -3  -7  530.34   31.71
  19  -3  -7 1656.38   54.55
 -19   3   7 1738.08   56.37
  17  -3  -7   34.30   10.43
  17  -3  -7   44.69    8.96
 -17   3   7   42.02   12.71
  15  -3  -7  629.18   24.03
 -15   3   7  553.71   25.91
  15  -3  -7  594.52   28.18
  13  -3  -7  999.33   35.58
 -13   3   7  927.36   30.32
  13  -3  -7 1035.29   31.61
  11  -3  -7  321.42   17.69
 -11   3   7  342.59   14.79
  11  -3  -7  315.74   18.89
   9  -3  -7  244.70   15.93
   7  -3  -7  699.39   25.90
   5  -3  -7   44.86    9.62
   3  -3  -7 1888.59   31.97
   3  -3  -7 1951.33   48.55
   1  -3  -7  351.33   13.47
   1  -3  -7  303.89   18.55
  -1  -3  -7   84.52    9.92
  -1  -3  -7   54.06   11.43
  -3  -3  -7  913.64   30.68
  -3  -3  -7  889.22   35.45
  -5  -3  -7  127.29   15.67
  -5  -3  -7   82.70   14.85
  -7  -3  -7    7.73    9.52
  -7  -3  -7   26.43   10.47
  -9  -3  -7  810.35   38.52
  -9  -3  -7  813.78   37.72
 -11  -3  -7  202.83   24.72
 -11  -3  -7  224.54   22.67
 -13  -3  -7  105.52   20.34
 -13  -3  -7   39.21   17.46
 -15  -3  -7  262.31   27.65
 -17  -3  -7   29.22   18.34
 -30   4   7   66.22   21.75
  28  -4  -7  990.44   54.60
 -28   4   7 1019.97   54.82
  26  -4  -7  262.27   28.52
 -26   4   7  281.28   33.77
  24  -4  -7  217.46   28.46
 -24   4   7  231.49   25.01
 -22   4   7 1779.55   63.37
  22  -4  -7 1716.42   61.06
 -20   4   7  489.80   30.65
  20  -4  -7  479.67   29.44
  18  -4  -7  265.63   16.94
  18  -4  -7  229.69   19.46
 -18   4   7  242.28   21.55
  16  -4  -7 1817.51   53.59
  16  -4  -7 1849.35   47.32
 -16   4   7 1931.55   54.67
 -14   4   7   86.88   12.85
  14  -4  -7   60.87   11.05
  14  -4  -7   58.98   10.89
  12  -4  -7 1684.86   45.39
  12  -4  -7 1761.50   48.46
 -12   4   7 1774.48   42.90
  10  -4  -7 3868.75   78.83
 -10   4   7 3871.18   65.87
  10  -4  -7 3782.10   76.11
   8  -4  -7  327.06   19.00
   6  -4  -7 1679.31   45.17
   4  -4  -7 4117.50   60.90
   4  -4  -7 4193.74   81.94
   2  -4  -7    8.89    6.57
   2  -4  -7    5.85    3.42
   0  -4  -7 3126.67   70.53
   0  -4  -7 3136.87   56.39
  -2  -4  -7 1146.77   32.35
  -2  -4  -7 1101.90   39.63
  -4  -4  -7  199.87   17.94
  -4  -4  -7  185.51   15.26
  -6  -4  -7 2659.25   71.35
  -6  -4  -7 2761.07   66.52
  -8  -4  -7  682.20   33.31
  -8  -4  -7  694.05   35.50
 -10  -4  -7  381.21   27.58
 -10  -4  -7  386.18   27.81
 -12  -4  -7 1652.56   59.78
 -12  -4  -7 1626.62   59.87
 -14  -4  -7  242.12   25.26
 -16  -4  -7  325.12   30.49
 -29   5   7   26.27   18.32
 -27   5   7   -1.61   16.31
  27  -5  -7   -2.60   13.29
  25  -5  -7   53.80   17.83
 -25   5   7   74.66   21.48
 -23   5   7    6.19   13.22
  23  -5  -7   -4.18   10.06
  21  -5  -7   68.65   16.81
 -21   5   7   91.16   20.30
  19  -5  -7  266.45   18.58
  19  -5  -7  213.18   19.95
 -19   5   7  271.49   24.18
  17  -5  -7   -5.38    6.49
  17  -5  -7   -5.99    6.67
 -17   5   7    4.08    9.72
  15  -5  -7    9.02    7.96
  15  -5  -7   10.94    7.66
 -15   5   7   13.54    9.86
 -13   5   7  452.64   22.13
  13  -5  -7  454.31   23.95
  13  -5  -7  449.05   23.40
  11  -5  -7    7.18    6.16
 -11   5   7    7.60    6.06
  11  -5  -7   13.57    8.06
  -9   5   7   13.81    4.81
   9  -5  -7   21.31    7.85
  -7   5   7  136.72    7.24
   7  -5  -7  122.66   13.40
   5  -5  -7   -3.31    5.62
   5  -5  -7    5.52    3.18
   3  -5  -7    5.66    3.51
   3  -5  -7    8.54    6.43
   1  -5  -7  110.42    9.02
   1  -5  -7  132.46   16.08
  -1  -5  -7    5.82    5.08
  -1  -5  -7   -0.49    6.99
  -3  -5  -7   92.16   12.29
  -3  -5  -7   79.42   14.04
  -5  -5  -7  103.89   14.75
  -5  -5  -7   77.46   15.48
  -7  -5  -7   37.85   11.56
  -7  -5  -7    9.98   11.68
  -9  -5  -7   -6.33    9.60
  -9  -5  -7   15.36   11.42
 -11  -5  -7    4.85   12.01
 -11  -5  -7    6.48   11.45
 -13  -5  -7    9.50   15.26
 -28   6   7  473.71   39.68
  26  -6  -7  245.49   27.31
 -26   6   7  273.79   30.25
  24  -6  -7   42.04   16.46
 -24   6   7   43.44   17.84
 -22   6   7 1152.48   51.34
  22  -6  -7 1077.03   48.57
  20  -6  -7  159.68   18.70
 -20   6   7  139.91   22.83
  20  -6  -7  184.67   17.67
 -18   6   7  590.91   33.14
  18  -6  -7  562.45   30.69
  18  -6  -7  583.96   28.55
 -16   6   7 1689.81   51.75
  16  -6  -7 1728.55   50.52
  16  -6  -7 1749.47   52.67
  14  -6  -7  418.94   23.59
 -14   6   7  448.96   23.73
  14  -6  -7  403.60   23.71
  12  -6  -7 1062.59   38.07
 -12   6   7 1087.69   32.57
  12  -6  -7 1066.82   36.41
 -10   6   7 2148.20   44.66
  10  -6  -7 2096.65   52.84
  10  -6  -7 2191.18   57.27
  -8   6   7    3.37    4.11
   8  -6  -7   -2.33    5.82
   6  -6  -7 1961.00   54.20
   4  -6  -7 1220.44   41.78
   2  -6  -7   -2.20    6.29
   0  -6  -7 1497.13   48.02
  -2  -6  -7 1300.38   35.85
  -2  -6  -7 1283.39   45.07
  -4  -6  -7   15.05   10.08
  -4  -6  -7   24.67    8.98
  -6  -6  -7 1282.88   48.83
  -6  -6  -7 1418.77   45.01
  -8  -6  -7  415.91   28.99
 -10  -6  -7  158.63   23.68
 -27   7   7   56.37   21.48
  25  -7  -7  581.05   40.05
 -25   7   7  552.84   39.80
 -23   7   7   39.02   18.23
  23  -7  -7   31.15   15.57
  21  -7  -7  118.43   19.97
 -21   7   7  134.91   24.01
  21  -7  -7  168.15   17.37
 -19   7   7 1360.23   52.20
  19  -7  -7 1364.08   49.95
  19  -7  -7 1373.46   47.41
  17  -7  -7  364.76   23.69
  17  -7  -7  324.09   22.86
 -17   7   7  350.88   24.95
 -15   7   7  677.98   30.59
  15  -7  -7  657.34   31.21
  15  -7  -7  662.12   30.58
 -13   7   7 1883.91   47.91
  13  -7  -7 1750.31   53.43
  13  -7  -7 1819.80   50.79
  11  -7  -7    1.46    7.67
 -11   7   7    6.66    6.56
  11  -7  -7   -0.97    5.62
   9  -7  -7 1293.21   44.38
   9  -7  -7 1353.57   39.39
   7  -7  -7 1146.37   41.26
   5  -7  -7   21.92    9.83
   3  -7  -7 2402.87   64.64
   1  -7  -7 1448.55   49.00
  -1  -7  -7   11.51    8.70
  -3  -7  -7 1192.45   46.21
  -5  -7  -7  416.77   28.14
  -7  -7  -7  260.04   24.00
  -9  -7  -7 1082.88   47.68
  22  -8  -7   21.63   12.91
  20  -8  -7   -4.35    9.55
  18  -8  -7   37.93   13.81
  16  -8  -7  193.49   19.94
  16  -8  -7  216.41   19.10
  14  -8  -7    3.40    8.20
  14  -8  -7  -13.45    6.42
  12  -8  -7   53.98   11.16
  12  -8  -7   36.62   12.13
  10  -8  -7   82.50   16.09
  10  -8  -7  106.54   13.53
   8  -8  -7   20.20   11.14
   6  -8  -7  149.33   16.78
   4  -8  -7 1014.07   40.44
   2  -8  -7  114.17   18.41
   0  -8  -7   60.55   14.07
  -2  -8  -7  285.68   24.12
  -4  -8  -7   15.62   11.26
  -6  -8  -7    4.17   10.87
  -8  -8  -7   -0.57   10.83
  21  -9  -7  358.89   27.29
  19  -9  -7 1381.68   52.32
  17  -9  -7  205.93   20.89
  15  -9  -7  829.95   39.12
  13  -9  -7 1751.26   57.69
  11  -9  -7   35.40   12.50
   9  -9  -7  872.30   39.18
   7  -9  -7 1411.37   50.23
   5  -9  -7  259.48   22.45
   3  -9  -7 2301.43   67.14
   1  -9  -7 1227.57   47.47
  -1  -9  -7  127.08   19.70
  -3  -9  -7 1984.02   65.53
  -5  -9  -7 1306.81   53.45
  -7  -9  -7  242.18   25.12
  -9  -9  -7 1329.78   56.55
  22 -10  -7  131.79   22.88
  20 -10  -7   28.02   14.80
  18 -10  -7   76.17   18.63
  16 -10  -7  160.10   23.03
  14 -10  -7   -8.16    9.39
  12 -10  -7  174.82   19.65
  10 -10  -7  290.65   24.66
   8 -10  -7    1.46    9.75
   6 -10  -7  222.54   21.29
   4 -10  -7  960.89   43.07
   2 -10  -7  128.27   20.63
   0 -10  -7  333.66   26.56
  -2 -10  -7  145.95   22.10
  -4 -10  -7   29.69   14.06
  -6 -10  -7  186.36   26.01
  -8 -10  -7   25.18   17.26
  23 -11  -7   83.48   21.07
  21 -11  -7  121.36   21.97
  19 -11  -7  363.82   29.93
  17 -11  -7   62.59   16.39
  15 -11  -7  407.24   31.07
  13 -11  -7  595.69   35.89
  11 -11  -7   10.20   10.85
   9 -11  -7  600.51   36.04
   7 -11  -7 1271.92   51.98
   5 -11  -7    0.53   10.50
   3 -11  -7  612.98   36.05
   1 -11  -7  327.83   27.02
  -1 -11  -7   32.86   14.82
  -3 -11  -7  618.11   37.96
  -5 -11  -7  234.69   25.73
  -7 -11  -7   61.45   20.66
  24 -12  -7   52.14   19.36
  22 -12  -7  501.38   37.78
  20 -12  -7  125.97   23.55
  18 -12  -7  430.37   33.03
  16 -12  -7 1055.07   50.93
  14 -12  -7  161.54   24.33
  12 -12  -7  606.77   37.63
  10 -12  -7 1167.35   51.88
   8 -12  -7   -1.96    9.87
   6 -12  -7  851.52   43.97
   4 -12  -7  627.81   37.65
   2 -12  -7   -7.76   10.18
   0 -12  -7  625.60   38.38
  -2 -12  -7  722.17   41.52
  -4 -12  -7   53.25   18.25
  -6 -12  -7  823.33   46.54
  21 -13  -7    4.61   14.46
  19 -13  -7   14.85   14.90
  17 -13  -7    3.93   13.54
  15 -13  -7    4.23   13.09
  13 -13  -7   -5.38   11.64
  11 -13  -7   -5.78   10.96
   9 -13  -7   11.34   12.16
   7 -13  -7  -15.30   10.01
   5 -13  -7   -2.41   11.66
   3 -13  -7   -6.40   11.80
   1 -13  -7    6.48   11.83
  -1 -13  -7  -13.57   11.46
  -3 -13  -7   15.37   16.09
  -5 -13  -7   -0.96   13.59
  20 -14  -7  137.17   28.30
  18 -14  -7   71.66   22.21
  16 -14  -7  522.43   39.71
  14 -14  -7   49.64   18.53
  12 -14  -7  397.73   33.92
  10 -14  -7  722.58   44.30
   8 -14  -7    0.95   13.28
   6 -14  -7  657.28   41.63
   4 -14  -7  520.32   37.56
   2 -14  -7  -10.51   12.26
   0 -14  -7  822.12   47.47
  -2 -14  -7  575.10   40.92
  -4 -14  -7   28.32   16.46
  17 -15  -7   32.01   18.88
  15 -15  -7  158.48   28.56
  13 -15  -7  265.76   29.72
  11 -15  -7   28.59   18.31
   9 -15  -7  132.61   25.30
   7 -15  -7  161.40   26.92
   5 -15  -7   -9.98   13.65
   3 -15  -7  238.82   32.60
   1 -15  -7  191.39   30.86
  -1 -15  -7   11.42   16.47
  -3 -15  -7  218.88   31.86
  14 -16  -7   -5.55   15.09
  12 -16  -7  103.94   25.80
  10 -16  -7  111.39   25.38
   8 -16  -7  -20.98   12.93
   6 -16  -7  112.10   24.91
   4 -16  -7  111.61   27.54
   2 -16  -7  -13.27   12.97
   0 -16  -7  256.01   34.46
 -12 -16   8  -17.75   13.23
 -10 -16   8  231.35   33.14
  -8 -16   8  274.31   31.00
  -6 -16   8   -4.06   16.03
 -17 -15   8  217.60   33.75
 -15 -15   8   -8.63   16.47
 -13 -15   8  222.68   31.66
 -11 -15   8  376.28   33.78
  -9 -15   8  -16.75   11.42
  -7 -15   8  401.74   35.06
  -5 -15   8  278.38   29.67
   3  15  -8   10.52   18.72
   1  15  -8  781.38   52.25
  -1  15  -8  298.30   32.93
 -20 -14   8   31.89   19.55
 -18 -14   8   17.47   16.84
 -16 -14   8   -6.29   14.16
 -14 -14   8   40.26   17.23
 -12 -14   8  -11.28   11.34
 -10 -14   8   22.47   16.08
  -8 -14   8    4.79   12.25
  -6 -14   8    2.76   12.85
  -4 -14   8   43.06   17.95
   2  14  -8   50.21   21.10
   0  14  -8    2.09   15.07
  -2  14  -8   67.82   23.20
  -4  14  -8   30.29   17.97
 -21 -13   8   49.96   21.82
 -19 -13   8  402.78   36.52
 -17 -13   8  748.52   46.89
 -15 -13   8   13.16   14.86
 -13 -13   8  557.20   38.47
 -11 -13   8  671.98   41.60
  -9 -13   8   -8.90   11.90
  -7 -13   8  603.26   39.41
  -5 -13   8  688.83   42.01
   1  13  -8  900.03   49.63
  -1  13  -8  360.17   32.18
  -3  13  -8   90.75   24.07
  -5  13  -8  821.66   49.38
  -7  13  -8  301.34   37.14
 -24 -12   8    4.82   17.50
 -22 -12   8   -2.29   15.52
 -20 -12   8  105.07   25.51
 -18 -12   8   58.35   19.07
 -16 -12   8   49.56   18.44
 -14 -12   8  247.48   26.38
 -12 -12   8   -0.51   11.21
 -10 -12   8  241.70   24.89
  -8 -12   8  235.72   24.23
  -6 -12   8   -9.03    8.69
  -4 -12   8   19.36   13.36
   2  12  -8   61.13   17.51
   0  12  -8   11.82   12.88
  -2  12  -8  332.93   29.78
  -4  12  -8  101.81   22.77
  -6  12  -8   58.81   20.63
  -8  12  -8  153.28   29.95
 -25 -11   8    6.56   16.99
 -23 -11   8  222.98   32.22
 -21 -11   8   13.92   17.08
 -19 -11   8  146.18   25.82
 -17 -11   8  467.22   34.86
 -15 -11   8   92.17   19.83
 -13 -11   8  446.63   32.41
 -11 -11   8  537.25   34.32
  -9 -11   8    0.78   10.61
  -7 -11   8  552.49   34.28
  -5 -11   8  528.92   33.89
  -3 -11   8   -8.17    9.96
   1  11  -8  592.09   36.18
  -1  11  -8  210.67   23.01
  -3  11  -8   55.97   19.51
  -5  11  -8  530.16   37.39
  -7  11  -8  161.56   29.55
  -9  11  -8  104.80   26.59
 -26 -10   8  661.11   50.42
 -24 -10   8   83.10   23.38
 -22 -10   8  265.82   33.58
 -20 -10   8  886.22   49.27
 -18 -10   8   64.51   18.30
 -16 -10   8  735.76   41.31
 -14 -10   8 1076.94   49.01
 -12 -10   8   51.52   15.78
 -10 -10   8 1448.56   54.34
  -8 -10   8 1773.08   60.21
  -6 -10   8  -14.52    7.13
  -4 -10   8 1690.78   58.93
   2  10  -8  632.87   35.13
   0  10  -8   54.01   15.30
  -2  10  -8 1378.53   55.46
  -4  10  -8  538.81   36.12
  -6  10  -8  152.66   25.83
  -8  10  -8  846.56   49.83
 -10  10  -8  237.03   34.91
 -27  -9   8   -9.08   16.63
 -25  -9   8  -21.32   13.68
 -23  -9   8    3.69   14.39
 -21  -9   8   10.48   13.55
 -19  -9   8  -13.84    9.69
 -17  -9   8   -8.00   10.99
 -15  -9   8   -3.30    9.02
 -13  -9   8   11.88   10.85
 -11  -9   8   88.25   17.55
  -9  -9   8    3.08    8.77
  -7  -9   8    8.87    9.93
  -5  -9   8   23.35   11.83
  -3  -9   8    0.77    8.97
   1   9  -8    4.48    8.69
  -1   9  -8   32.21   13.30
  -3   9  -8  -13.14   10.26
  -5   9  -8   27.70   16.11
  -7   9  -8   -4.52   15.14
  -9   9  -8   -6.49   14.44
 -11   9  -8   26.91   19.86
 -13   9  -8  -15.15   18.47
  28   8  -8  100.40   22.94
 -28  -8   8  133.73   29.46
 -26  -8   8  718.11   49.41
  26   8  -8  647.28   40.21
 -24  -8   8  168.87   28.32
  24   8  -8  213.59   26.99
  22   8  -8  322.65   26.32
 -22  -8   8  355.55   32.44
 -20  -8   8 1532.71   61.56
  20   8  -8 1453.32   51.77
 -18  -8   8   58.90   16.35
  18   8  -8   97.35   16.62
  16   8  -8  982.05   37.27
 -16  -8   8  970.21   44.86
 -14  -8   8 2238.09   67.33
  14   8  -8 2177.02   57.01
 -12  -8   8    8.99    9.70
  12   8  -8   21.31    8.94
 -10  -8   8 1538.81   51.99
  10   8  -8 1625.38   44.85
   8   8  -8 1811.44   47.04
  -8  -8   8 1638.81   53.44
  -6  -8   8  277.12   21.66
  -4  -8   8 2235.11   63.55
   2   8  -8 2508.45   67.85
   0   8  -8    3.97    9.59
  -2   8  -8 1935.38   62.59
  -4   8  -8 1125.79   48.53
  -6   8  -8  309.93   28.77
  -8   8  -8 1073.22   53.22
 -10   8  -8  246.40   33.15
 -12   8  -8  188.88   34.18
 -29  -7   8  206.37   35.37
 -27  -7   8  134.45   28.68
  27   7  -8   84.21   21.03
  25   7  -8   52.68   17.02
 -25  -7   8   40.98   20.02
 -23  -7   8  163.46   26.63
  23   7  -8  193.66   24.05
 -21  -7   8   13.71   13.71
  21   7  -8   12.49   12.03
  19   7  -8  278.70   21.81
 -19  -7   8  281.66   25.39
 -17  -7   8  690.45   37.08
  17   7  -8  731.68   32.89
 -15  -7   8   39.21   13.49
  15   7  -8   92.11   14.08
  13   7  -8  443.08   23.55
 -13  -7   8  454.80   27.34
  11   7  -8  449.05   22.78
 -11  -7   8  420.09   25.51
   9   7  -8   -2.88    5.86
  -9  -7   8   -8.31    5.67
  -7  -7   8  600.10   29.14
  -5  -7   8  596.07   29.43
   1   7  -8  604.47   30.23
  -1   7  -8  380.55   25.66
  -3   7  -8   52.72   14.96
  -5   7  -8  457.34   31.54
  -7   7  -8  167.68   25.23
  -9   7  -8  223.44   29.82
 -11   7  -8  313.21   32.36
 -13   7  -8   11.87   18.88
 -30  -6   8  111.74   30.63
 -28  -6   8   52.76   21.51
  28   6  -8   56.50   18.63
 -26  -6   8  267.54   29.86
  26   6  -8  229.44   25.33
 -24  -6   8   53.46   19.88
  24   6  -8  113.27   21.11
  22   6  -8   56.27   15.51
 -22  -6   8   63.45   18.57
 -20  -6   8  821.45   42.30
  20   6  -8  762.53   36.43
 -18  -6   8   83.05   16.65
  18   6  -8  136.53   15.33
  16   6  -8  241.20   18.69
 -16  -6   8  211.80   20.00
  14   6  -8 1281.98   42.02
 -14  -6   8 1271.35   45.64
  12   6  -8   32.02    9.54
 -12  -6   8   18.38    8.42
 -10  -6   8  178.49   15.82
  10   6  -8  193.44   15.13
  -8  -6   8  443.76   23.98
  -6  -6   8    7.37    6.77
  -4  -6   8  380.89   22.15
   2   6  -8  838.76   33.63
   0   6  -8   71.13   14.68
  -2   6  -8  830.87   36.90
  -4   6  -8  221.53   22.07
  -6   6  -8  314.77   26.67
  -8   6  -8  464.75   33.68
 -10   6  -8   34.08   17.96
 -12   6  -8   79.63   24.56
 -14   6  -8  224.65   35.59
  29   5  -8  401.93   34.85
 -29  -5   8  415.37   39.69
  27   5  -8  121.14   23.90
 -27  -5   8  140.91   30.53
 -25  -5   8  349.38   32.98
  25   5  -8  363.09   30.01
 -23  -5   8 1320.93   57.64
  23   5  -8 1348.70   53.06
  21   5  -8  243.37   21.54
 -21  -5   8  232.57   23.81
 -19  -5   8  914.49   42.41
  19   5  -8  897.82   38.34
 -17  -5   8 2137.95   63.08
  17   5  -8 2042.81   58.50
 -15  -5   8   47.40   12.38
  15   5  -8   60.43   12.49
 -13  -5   8 1316.92   43.77
  13   5  -8 1389.87   43.35
  11   5  -8 2572.80   61.54
 -11  -5   8 2447.37   60.59
  -9  -5   8   -2.55    5.29
  -7  -5   8 1533.25   43.43
  -5  -5   8 2394.41   57.04
   3   5  -8  349.46   19.98
   1   5  -8 2411.23   60.07
  -1   5  -8 1244.64   42.70
  -3   5  -8  198.11   19.24
  -5   5  -8 1810.51   59.08
  -7   5  -8  780.96   40.54
  -9   5  -8  343.73   29.93
 -11   5  -8 1692.01   68.21
 -13   5  -8  323.33   33.38
 -15   5  -8  209.79   35.11
 -30  -4   8  -13.73   16.69
  30   4  -8  -10.96   13.19
  28   4  -8    4.09   14.01
 -28  -4   8  -10.23   15.94
 -26  -4   8   38.20   17.74
  26   4  -8   52.40   17.26
  24   4  -8   85.39   17.91
 -24  -4   8   71.90   19.35
 -22  -4   8   -6.64   10.97
  22   4  -8    0.18    9.58
 -20  -4   8  -11.91    8.22
  20   4  -8   -3.93    7.81
  18   4  -8    5.34    7.19
 -18  -4   8   -3.13    8.32
  16   4  -8    0.67    6.16
 -16  -4   8   -2.85    7.10
  14   4  -8  158.66   15.16
 -14  -4   8  160.83   14.79
 -12  -4   8    3.17    6.44
  12   4  -8    0.69    6.21
  12   4  -8    6.03    4.38
 -10  -4   8   32.59    7.90
  10   4  -8   56.00   10.92
  -8  -4   8   96.16   10.77
  -6  -4   8  140.39   12.10
   4   4  -8  126.81   12.06
   2   4  -8   79.76   11.49
   0   4  -8   11.17    7.42
  -2   4  -8   41.12   12.05
  -4   4  -8    2.67    9.33
  -6   4  -8   12.79   13.34
  -8   4  -8   73.45   18.04
 -10   4  -8    4.36   13.54
 -12   4  -8  -16.87   14.83
 -14   4  -8   -7.90   16.01
 -16   4  -8   19.02   21.63
 -16   4  -8   13.19   17.55
 -31  -3   8   88.49   26.14
  31   3  -8  105.31   25.30
 -29  -3   8  624.08   46.48
  29   3  -8  632.50   43.03
  27   3  -8  176.28   27.07
 -27  -3   8  172.92   28.01
  25   3  -8  200.30   26.09
 -25  -3   8  164.90   27.57
 -23  -3   8 1354.37   57.13
  23   3  -8 1444.11   54.99
 -21  -3   8  286.60   25.74
  21   3  -8  318.61   24.42
 -19  -3   8  513.07   29.96
  19   3  -8  483.63   28.12
 -17  -3   8  705.84   32.14
  17   3  -8  696.53   32.28
 -15  -3   8   90.55   12.88
  15   3  -8  119.39   13.49
  13   3  -8 1762.10   50.68
 -13  -3   8 1804.46   47.37
  13   3  -8 1827.29   35.75
  11   3  -8 3271.84   57.87
 -11  -3   8 3246.95   66.26
  11   3  -8 3283.78   73.33
  -9  -3   8   65.66    9.86
   9   3  -8   77.77    8.15
  -7  -3   8 2832.69   56.79
  -5  -3   8 2181.79   46.91
   3   3  -8    3.61    4.77
   1   3  -8 3146.43   65.75
  -1   3  -8 1037.07   35.95
  -3   3  -8  364.45   23.25
  -5   3  -8 2116.14   61.29
  -7   3  -8  619.28   34.66
  -9   3  -8   70.12   18.11
 -11   3  -8  509.61   37.44
 -13   3  -8  131.29   24.36
 -13   3  -8  148.22   28.28
 -15   3  -8  351.28   33.14
 -15   3  -8  364.17   35.70
  30   2  -8  171.87   29.25
 -30  -2   8  133.45   29.58
 -28  -2   8   43.39   18.04
  28   2  -8   54.58   19.05
 -26  -2   8  585.35   40.31
  26   2  -8  568.49   37.67
  24   2  -8  140.30   22.02
 -24  -2   8  134.57   24.81
 -22  -2   8  708.09   39.23
  22   2  -8  691.70   36.45
  20   2  -8 1582.43   53.78
 -20  -2   8 1640.53   55.91
  18   2  -8  124.11   17.03
 -18  -2   8   87.76   15.20
  16   2  -8  879.36   35.87
 -16  -2   8  850.88   33.05
 -14  -2   8 1855.99   48.30
  14   2  -8 1910.08   53.91
  14   2  -8 2002.60   38.10
  12   2  -8  145.84    9.81
 -12  -2   8  150.17   12.29
  12   2  -8  162.82   14.86
  10   2  -8 1750.35   38.28
 -10  -2   8 1707.41   39.71
   8   2  -8 1265.02   33.26
  -8  -2   8 1259.79   31.25
  -6  -2   8    5.02    4.15
   6   2  -8   33.22    7.38
   4   2  -8 3915.44   77.09
   4   2  -8 3966.23   69.66
   2   2  -8  681.98   23.98
   0   2  -8  105.35   13.12
  -2   2  -8 1143.75   38.04
  -4   2  -8  438.64   25.98
  -6   2  -8  183.48   22.90
  -8   2  -8 2367.55   71.59
 -10   2  -8  200.31   27.19
 -10   2  -8  146.81   23.28
 -12   2  -8  507.12   35.20
 -12   2  -8  507.09   37.12
 -14   2  -8  843.84   48.37
 -14   2  -8  835.73   46.27
 -16   2  -8   69.89   20.96
 -16   2  -8   83.00   23.52
  31   1  -8    5.65   13.79
 -31  -1   8   10.07   16.32
  29   1  -8   28.05   16.64
 -29  -1   8   30.92   19.47
 -27  -1   8   -1.07   13.66
  27   1  -8    5.00   12.33
  25   1  -8   30.54   14.44
 -25  -1   8   12.92   12.66
 -23  -1   8  267.73   26.00
  23   1  -8  274.92   24.61
  21   1  -8  181.29   19.13
 -21  -1   8  190.79   21.15
  19   1  -8  260.41   20.90
 -19  -1   8  243.30   20.54
  17   1  -8  351.40   22.98
 -17  -1   8  338.74   21.43
  15   1  -8    2.31    6.31
 -15  -1   8    5.80    5.66
 -13  -1   8  348.13   17.61
  13   1  -8  369.09   15.15
  13   1  -8  354.59   21.55
 -11  -1   8  111.32    9.39
  11   1  -8  112.05   12.55
  11   1  -8  107.32    9.04
   9   1  -8    1.58    4.63
  -9  -1   8    0.14    4.01
   7   1  -8  328.06   16.44
  -7  -1   8  290.17   11.93
   5   1  -8  470.25   21.42
   5   1  -8  499.89   16.54
   3   1  -8   52.85    7.97
   3   1  -8   38.49    9.30
   1   1  -8   73.96   12.26
   1   1  -8   79.85   10.43
  -1   1  -8  144.40   15.27
  -1   1  -8  156.57   14.10
  -3   1  -8   -6.11    7.51
  -3   1  -8   -6.36    7.83
  -5   1  -8  359.26   24.18
  -5   1  -8  355.34   24.69
  -7   1  -8  194.92   20.24
  -7   1  -8  218.86   22.56
  -9   1  -8   72.38   17.29
  -9   1  -8   53.21   17.70
 -11   1  -8   97.59   21.45
 -11   1  -8   88.54   18.42
 -13   1  -8    1.08   14.15
 -13   1  -8   12.92   13.20
 -15   1  -8   34.16   16.85
 -15   1  -8   60.58   20.88
 -30   0   8  452.74   39.46
  30   0  -8  423.49   36.89
 -28   0   8   69.12   21.85
  28   0  -8  105.55   22.29
 -26   0   8 1043.96   52.94
  26   0  -8 1008.50   50.50
  24   0  -8  158.32   23.38
 -24   0   8  173.53   25.63
 -22   0   8  795.14   41.26
  22   0  -8  876.79   41.18
  20   0  -8 1041.12   42.48
 -20   0   8  894.61   39.74
  18   0  -8  120.92   17.88
 -18   0   8  108.59   15.84
 -16   0   8 1432.53   42.34
  16   0  -8 1453.12   47.50
  14   0  -8 3876.38   68.82
 -14   0   8 3916.71   73.85
  14   0  -8 3950.30   85.58
 -12   0   8   -0.71    3.83
  12   0  -8   -2.76    5.35
  12   0  -8    7.15    4.86
  10   0  -8 9259.70  140.51
 -10   0   8 9551.28  134.32
   8   0  -8 4452.57   77.85
  -8   0   8 4202.54   64.88
   6   0  -8   12.03    3.67
   6   0  -8    7.08    5.61
   4   0  -8 6578.83   97.93
   4   0  -8 6627.56  113.24
   2   0  -8 1814.33   39.68
   2   0  -8 1779.06   48.19
   0   0  -8  515.93   25.98
   0   0  -8  516.21   21.97
  -2   0  -8 3465.85   79.76
  -2   0  -8 3502.58   73.92
  -4   0  -8 2257.23   59.73
  -4   0  -8 2173.13   62.35
  -6   0  -8  121.23   18.00
  -6   0  -8  129.88   18.71
  -8   0  -8 2676.51   76.23
  -8   0  -8 2545.52   72.25
 -10   0  -8  163.79   23.22
 -10   0  -8  205.31   22.70
 -12   0  -8  706.36   40.58
 -12   0  -8  680.38   40.24
 -14   0  -8 1225.38   56.10
 -14   0  -8 1200.88   54.88
 -16   0  -8  115.58   24.52
 -31   1   8   -1.36   16.04
  31  -1  -8   10.35   15.56
  29  -1  -8   16.90   15.84
 -29   1   8   30.40   18.28
  27  -1  -8    7.65   12.67
 -27   1   8   16.74   15.17
 -25   1   8    9.29   12.22
  25  -1  -8   34.65   14.41
 -23   1   8  252.87   25.61
  23  -1  -8  280.58   24.66
 -21   1   8  141.73   20.88
  21  -1  -8  190.43   19.96
 -19   1   8  245.55   20.51
  19  -1  -8  259.10   21.17
  17  -1  -8  318.19   22.07
 -17   1   8  363.57   21.54
  15  -1  -8   -5.00    5.69
  15  -1  -8   -0.28    4.99
 -15   1   8    5.62    5.58
  13  -1  -8  379.89   17.76
  13  -1  -8  362.36   21.87
 -13   1   8  358.38   16.21
  11  -1  -8  102.07   11.77
 -11   1   8  111.37    7.74
  11  -1  -8  107.32   12.23
   9  -1  -8    4.47    5.20
   7  -1  -8  271.95   15.59
   5  -1  -8  466.31   21.73
   5  -1  -8  489.42   13.41
   3  -1  -8   57.52   10.76
   3  -1  -8   69.95    8.63
   1  -1  -8   77.77   10.86
   1  -1  -8   86.35   12.63
  -1  -1  -8  165.54   16.27
  -1  -1  -8  162.43   14.13
  -3  -1  -8  -11.08    7.05
  -3  -1  -8   -4.49    7.75
  -5  -1  -8  368.85   23.70
  -5  -1  -8  391.78   26.38
  -7  -1  -8  242.75   23.03
  -7  -1  -8  224.21   21.38
  -9  -1  -8   83.12   17.69
  -9  -1  -8   74.03   19.00
 -11  -1  -8  119.85   21.73
 -11  -1  -8  101.12   20.94
 -13  -1  -8   -4.17   12.54
 -13  -1  -8  -17.11   12.96
 -15  -1  -8  101.77   22.72
 -30   2   8  149.28   29.74
  30  -2  -8  167.87   30.13
  28  -2  -8   46.34   18.07
 -28   2   8   54.66   18.07
  26  -2  -8  650.79   40.56
 -26   2   8  690.13   42.18
 -24   2   8  111.21   21.60
  24  -2  -8  166.47   24.19
  22  -2  -8  732.09   38.01
 -22   2   8  670.87   37.07
 -20   2   8 1474.95   51.84
  20  -2  -8 1575.48   53.79
  18  -2  -8   97.56   16.01
 -18   2   8   61.23   12.90
  16  -2  -8  845.62   27.63
  16  -2  -8  861.02   35.81
 -16   2   8  905.03   32.31
 -14   2   8 1955.49   45.02
  14  -2  -8 1939.25   54.74
  14  -2  -8 1988.90   46.37
  12  -2  -8  162.83   13.15
  12  -2  -8  156.60   14.75
 -12   2   8  164.31    9.89
  10  -2  -8 1660.55   42.20
   8  -2  -8 1253.84   35.57
   6  -2  -8   -8.56    4.25
   4  -2  -8 3911.60   57.75
   4  -2  -8 3829.21   77.70
   2  -2  -8  676.57   20.15
   2  -2  -8  707.55   29.18
   0  -2  -8  101.32   14.44
   0  -2  -8  108.56   10.88
  -2  -2  -8 1215.05   36.76
  -2  -2  -8 1206.14   42.93
  -4  -2  -8  410.75   25.94
  -4  -2  -8  438.62   24.19
  -6  -2  -8  189.21   18.75
  -6  -2  -8  180.25   19.25
  -8  -2  -8 2391.61   72.03
  -8  -2  -8 2512.79   69.59
 -10  -2  -8  145.49   20.98
 -10  -2  -8  110.14   19.75
 -12  -2  -8  494.89   34.30
 -12  -2  -8  540.97   34.18
 -14  -2  -8  817.10   44.83
  31  -3  -8   91.67   24.88
 -31   3   8  111.14   26.80
 -29   3   8  636.53   44.13
  29  -3  -8  668.29   45.21
  27  -3  -8  132.60   25.01
 -27   3   8  171.38   27.54
 -25   3   8  147.34   24.21
  25  -3  -8  189.14   22.52
  23  -3  -8 1481.54   56.78
 -23   3   8 1501.18   57.53
 -21   3   8  327.19   26.06
  21  -3  -8  319.66   24.94
 -19   3   8  548.99   30.15
  19  -3  -8  587.06   31.27
  17  -3  -8  744.41   27.11
 -17   3   8  710.73   31.45
  17  -3  -8  743.59   33.61
 -15   3   8   93.95   12.26
  15  -3  -8   85.72   12.04
  15  -3  -8   71.91   13.41
  13  -3  -8 1797.93   45.71
  13  -3  -8 1704.38   50.40
 -13   3   8 1791.30   39.85
 -11   3   8 3326.86   52.94
  11  -3  -8 3189.88   68.08
  11  -3  -8 3346.37   74.08
   9  -3  -8  106.42   11.83
   7  -3  -8 2751.92   60.70
   5  -3  -8 2318.41   55.46
   3  -3  -8   -3.35    5.17
   1  -3  -8 3215.63   56.63
   1  -3  -8 3181.80   72.75
  -1  -3  -8 1051.21   30.57
  -1  -3  -8  967.51   38.09
  -3  -3  -8  352.74   24.48
  -3  -3  -8  372.37   20.79
  -5  -3  -8 2199.60   57.55
  -5  -3  -8 2106.21   63.56
  -7  -3  -8  640.54   32.11
  -7  -3  -8  632.91   35.04
  -9  -3  -8   69.18   16.46
  -9  -3  -8   52.73   15.74
 -11  -3  -8  515.22   34.85
 -13  -3  -8  126.74   25.76
 -30   4   8    1.45   15.41
  30  -4  -8  -15.09   14.11
 -28   4   8   20.21   16.33
  28  -4  -8   -0.15   13.49
  26  -4  -8   66.50   19.23
 -26   4   8   68.79   20.41
  24  -4  -8   47.70   15.90
 -24   4   8   48.68   17.60
  22  -4  -8    2.81   10.06
 -22   4   8   -6.11   10.97
  20  -4  -8   -9.58    7.90
 -20   4   8  -12.49    9.01
 -18   4   8    0.50    8.67
  18  -4  -8   -0.22    6.54
  18  -4  -8    6.41    8.30
  16  -4  -8   -1.28    6.35
  16  -4  -8    1.87    5.94
 -16   4   8   -3.97    7.25
 -14   4   8  150.47   13.59
  14  -4  -8  189.16   15.29
  14  -4  -8  167.21   16.04
 -12   4   8    7.91    5.38
  12  -4  -8   -1.25    5.61
  12  -4  -8    5.70    7.08
  10  -4  -8   46.51   11.16
   8  -4  -8   65.78   11.51
   6  -4  -8  122.99   13.21
   4  -4  -8  131.29   13.48
   2  -4  -8   83.06   13.54
   0  -4  -8   -4.51    6.97
  -2  -4  -8   32.68   10.91
  -4  -4  -8    2.17    8.62
  -6  -4  -8   13.59   11.55
  -8  -4  -8   39.97   16.44
 -10  -4  -8   -5.98   11.32
 -12  -4  -8   -5.24   14.06
  29  -5  -8  455.64   38.97
  27  -5  -8  115.26   23.66
 -25   5   8  419.30   33.45
  25  -5  -8  361.61   30.83
 -23   5   8 1570.86   59.59
  23  -5  -8 1380.23   56.03
  21  -5  -8  238.42   22.25
 -21   5   8  295.89   25.50
  19  -5  -8  882.12   39.19
 -19   5   8  993.67   41.30
  19  -5  -8  918.49   34.73
  17  -5  -8 2225.24   57.05
 -17   5   8 2172.28   59.95
  17  -5  -8 2201.83   62.58
  15  -5  -8   85.28   13.07
  15  -5  -8   56.66   12.86
  13  -5  -8 1374.39   44.19
  13  -5  -8 1376.00   42.98
  11  -5  -8 2455.15   60.85
  11  -5  -8 2433.04   60.38
   9  -5  -8   10.47    7.98
   7  -5  -8 1462.96   45.24
   5  -5  -8 2394.42   60.68
   3  -5  -8  299.93   20.41
   1  -5  -8 2301.43   61.32
  -1  -5  -8 1123.85   42.14
  -3  -5  -8  196.61   19.55
  -5  -5  -8 1904.20   61.05
  -7  -5  -8  774.58   39.81
  -9  -5  -8  345.43   27.77
 -11  -5  -8 1744.43   64.15
  28  -6  -8   38.97   20.36
  26  -6  -8  281.72   29.22
  24  -6  -8   63.38   19.05
  22  -6  -8   43.37   15.21
  20  -6  -8  776.83   38.30
  20  -6  -8  816.83   34.69
  18  -6  -8  106.94   16.65
  18  -6  -8  147.04   15.43
  16  -6  -8  241.45   19.55
  16  -6  -8  246.02   19.44
  14  -6  -8 1301.68   43.70
  14  -6  -8 1258.75   43.06
  12  -6  -8   26.41    9.25
  12  -6  -8   26.38   10.72
  10  -6  -8  201.25   17.37
   8  -6  -8  398.79   24.04
   6  -6  -8   19.93    9.15
   4  -6  -8  335.89   22.73
   2  -6  -8  814.84   35.48
   0  -6  -8   61.00   13.86
  -2  -6  -8  783.50   36.59
  -4  -6  -8  233.87   21.90
  -6  -6  -8  269.39   25.15
  -8  -6  -8  408.91   30.53
 -10  -6  -8   38.26   17.77
  27  -7  -8   50.99   20.46
  25  -7  -8   24.63   15.44
  23  -7  -8  205.80   27.16
  21  -7  -8   33.95   12.33
  21  -7  -8   13.92   11.87
  19  -7  -8  310.29   23.71
  19  -7  -8  291.74   22.08
  17  -7  -8  757.05   34.67
  17  -7  -8  761.94   35.25
  15  -7  -8   66.94   13.85
  15  -7  -8   40.18   11.84
  13  -7  -8  428.76   24.14
  13  -7  -8  459.12   26.97
  11  -7  -8  461.93   24.10
  11  -7  -8  487.29   27.29
   9  -7  -8   -3.94    7.06
   7  -7  -8  585.16   29.92
   5  -7  -8  590.47   30.69
   3  -7  -8   23.50   11.32
   1  -7  -8  610.35   32.12
  -1  -7  -8  376.94   26.37
  -3  -7  -8   37.85   15.02
  -5  -7  -8  422.82   29.67
  -7  -7  -8  127.37   22.17
  -9  -7  -8  181.91   25.26
  22  -8  -8  413.99   28.89
  20  -8  -8 1563.83   54.37
  18  -8  -8   47.94   13.39
  18  -8  -8   59.02   15.55
  16  -8  -8 1002.31   39.44
  16  -8  -8  990.50   41.71
  14  -8  -8 2364.42   61.94
  14  -8  -8 2324.55   66.49
  12  -8  -8    7.35    8.40
  12  -8  -8   15.46   10.25
  10  -8  -8 1587.64   52.55
  10  -8  -8 1625.97   46.63
   8  -8  -8 1734.84   55.11
   6  -8  -8  256.64   21.69
   4  -8  -8 2166.85   64.08
   2  -8  -8 2491.97   70.85
   0  -8  -8    1.50    9.94
  -2  -8  -8 1897.47   63.07
  -4  -8  -8  952.78   44.89
  -6  -8  -8  300.47   27.30
  -8  -8  -8 1069.57   50.70
  21  -9  -8   -3.41   10.85
  19  -9  -8   -6.90    9.28
  17  -9  -8  -10.98   10.20
  15  -9  -8  -12.55    9.26
  13  -9  -8    3.48    9.75
  11  -9  -8  125.82   19.79
   9  -9  -8   11.26    9.84
   7  -9  -8   11.04    9.54
   5  -9  -8   11.07    9.85
   3  -9  -8   -0.79    8.72
   1  -9  -8   -2.13   10.22
  -1  -9  -8    5.18   12.48
  -3  -9  -8   -4.26   10.53
  -5  -9  -8   27.35   15.52
  -7  -9  -8   28.79   17.00
  22 -10  -8  272.44   26.71
  20 -10  -8  968.46   46.05
  18 -10  -8   44.84   15.07
  16 -10  -8  803.67   41.11
  14 -10  -8 1143.65   48.35
  12 -10  -8   78.98   16.84
  10 -10  -8 1632.33   57.86
   8 -10  -8 1816.71   61.06
   6 -10  -8  -11.96    8.56
   4 -10  -8 1697.37   59.52
   2 -10  -8  674.44   37.00
   0 -10  -8   36.21   14.33
  -2 -10  -8 1416.17   56.66
  -4 -10  -8  588.76   38.08
  -6 -10  -8   98.55   21.60
  -8 -10  -8  767.91   45.07
  23 -11  -8  230.49   25.50
  21 -11  -8   31.67   14.97
  19 -11  -8  206.90   27.45
  17 -11  -8  513.60   34.30
  15 -11  -8   91.09   19.80
  13 -11  -8  491.52   33.09
  11 -11  -8  492.43   32.87
   9 -11  -8   -0.58   10.67
   7 -11  -8  595.74   35.53
   5 -11  -8  535.81   34.07
   3 -11  -8   -0.12    9.66
   1 -11  -8  640.45   38.01
  -1 -11  -8  243.51   24.94
  -3 -11  -8   34.26   14.94
  -5 -11  -8  545.51   37.78
  -7 -11  -8  115.99   25.21
  24 -12  -8   24.53   19.15
  22 -12  -8  -13.04   12.67
  20 -12  -8  109.65   22.96
  18 -12  -8   56.61   19.18
  16 -12  -8   90.13   21.96
  14 -12  -8  237.53   25.57
  12 -12  -8    2.43   10.97
  10 -12  -8  222.86   24.27
   8 -12  -8  242.66   24.38
   6 -12  -8   -2.23   10.18
   4 -12  -8   27.92   14.42
   2 -12  -8   82.48   19.55
   0 -12  -8   -5.20   11.99
  -2 -12  -8  305.93   29.35
  -4 -12  -8   65.27   20.26
  -6 -12  -8   65.66   20.92
  21 -13  -8  100.85   25.00
  19 -13  -8  398.41   34.02
  17 -13  -8  877.87   48.56
  15 -13  -8   21.85   14.90
  13 -13  -8  562.50   38.13
  11 -13  -8  656.06   40.93
   9 -13  -8   -5.45   12.06
   7 -13  -8  588.75   38.66
   5 -13  -8  691.03   41.93
   3 -13  -8    7.51   13.94
   1 -13  -8  911.25   47.99
  -1 -13  -8  406.08   33.78
  -3 -13  -8   69.18   20.16
  -5 -13  -8  861.73   49.95
  20 -14  -8   36.82   20.34
  18 -14  -8  -16.92   13.82
  16 -14  -8    3.31   14.83
  14 -14  -8   34.63   17.62
  12 -14  -8   -4.91   11.84
  10 -14  -8    3.96   13.81
   8 -14  -8    8.20   13.12
   6 -14  -8  -15.87   12.48
   4 -14  -8   56.55   20.12
   2 -14  -8   61.75   18.91
   0 -14  -8    6.88   13.73
  -2 -14  -8   72.72   20.69
  -4 -14  -8   29.07   17.88
  17 -15  -8  236.68   34.58
  15 -15  -8    4.54   15.72
  13 -15  -8  253.38   35.53
  11 -15  -8  395.46   34.90
   9 -15  -8   -2.72   13.28
   7 -15  -8  391.27   34.14
   5 -15  -8  310.98   31.96
   3 -15  -8    4.16   14.33
   1 -15  -8  619.26   43.79
  -1 -15  -8  289.49   31.79
  12 -16  -8   -8.46   14.73
  10 -16  -8  298.59   36.91
   8 -16  -8  295.88   32.19
   6 -16  -8  -13.49   15.09
   4 -16  -8  324.18   33.76
   2 -16  -8  249.88   34.48
 -15 -15   9  123.67   28.49
 -13 -15   9  -23.94   13.15
 -11 -15   9  179.70   29.95
  -9 -15   9  240.89   33.31
  -7 -15   9  -12.35   12.90
  -5 -15   9  268.27   33.70
   3  15  -9   83.87   28.70
   1  15  -9   -9.02   16.25
 -20 -14   9  321.02   39.63
 -18 -14   9  498.97   40.91
 -16 -14   9   11.05   15.00
 -14 -14   9  446.30   37.32
 -12 -14   9  422.57   35.55
 -10 -14   9  -19.54   11.06
  -8 -14   9  560.57   39.79
  -6 -14   9  459.30   36.41
   4  14  -9   51.32   22.38
   2  14  -9  899.63   53.88
   0  14  -9  350.27   34.15
  -2  14  -9  116.19   26.41
 -21 -13   9   -2.15   15.29
 -19 -13   9    2.78   17.15
 -17 -13   9    6.45   15.39
 -15 -13   9   -4.97   12.19
 -13 -13   9   -7.38   12.36
 -11 -13   9   12.24   14.20
  -9 -13   9    6.64   13.40
  -7 -13   9  -20.88    9.37
  -5 -13   9    3.75   11.84
   3  13  -9  -14.51   13.35
   1  13  -9    3.45   13.88
  -1  13  -9   11.38   14.87
  -3  13  -9  -18.05   13.60
  -5  13  -9   46.84   20.05
 -24 -12   9  533.61   44.86
 -22 -12   9   17.02   19.91
 -20 -12   9  274.91   30.66
 -18 -12   9  740.19   46.87
 -16 -12   9   -5.19   11.95
 -14 -12   9  520.33   36.78
 -12 -12   9  709.06   41.89
 -10 -12   9  -12.14   10.16
  -8 -12   9  644.99   39.14
  -6 -12   9  542.90   36.02
   2  12  -9  641.31   40.25
   0  12  -9  178.38   26.08
  -2  12  -9   50.71   19.85
  -4  12  -9  749.62   45.95
  -6  12  -9  200.51   31.71
 -25 -11   9   37.35   22.80
 -23 -11   9   66.17   21.68
 -21 -11   9  507.70   39.87
 -19 -11   9   51.84   18.96
 -17 -11   9  253.47   27.10
 -15 -11   9  498.87   34.99
 -13 -11   9   -2.64    9.52
 -11 -11   9  591.91   36.54
  -9 -11   9  490.62   33.40
  -7 -11   9   25.00   12.79
  -5 -11   9  530.61   34.42
   3  11  -9  298.90   27.24
   1  11  -9   79.63   17.88
  -1  11  -9  932.04   47.24
  -3  11  -9  260.36   30.98
  -5  11  -9   71.65   20.90
  -7  11  -9  349.01   35.42
 -26 -10   9    6.39   17.89
 -24 -10   9   55.22   22.01
 -22 -10   9   37.81   18.78
 -20 -10   9   57.76   19.79
 -18 -10   9  160.86   24.80
 -16 -10   9   -1.29   12.64
 -14 -10   9   60.39   16.19
 -12 -10   9  225.96   22.69
 -10 -10   9   -1.91    8.48
  -8 -10   9  241.33   22.63
  -6 -10   9  210.29   21.60
  -4 -10   9   39.93   13.87
   2  10  -9  286.63   24.62
   0  10  -9   65.75   17.06
  -2  10  -9    8.57   12.27
  -4  10  -9  128.26   23.05
  -6  10  -9   16.93   16.73
  -8  10  -9   44.28   20.25
 -10  10  -9   46.42   23.33
 -27  -9   9  642.15   48.79
 -25  -9   9  105.16   25.76
 -23  -9   9  526.84   40.16
 -21  -9   9  944.69   50.78
 -19  -9   9    5.64   11.42
 -17  -9   9 1198.63   52.69
 -15  -9   9 1517.50   57.66
 -13  -9   9   -4.73    9.36
 -11  -9   9 1584.05   56.05
  -9  -9   9 1497.03   53.51
  -7  -9   9   35.21   12.55
  -5  -9   9 1451.03   52.92
   3   9  -9 1989.59   62.51
   1   9  -9   97.47   18.28
  -1   9  -9 2002.96   66.29
  -3   9  -9  358.34   29.47
  -5   9  -9  309.94   29.42
  -7   9  -9  774.77   47.12
  -9   9  -9  151.30   28.33
 -11   9  -9  356.10   38.41
  28   8  -9   -4.99   13.29
 -28  -8   9  -17.89   18.37
  26   8  -9    9.67   13.27
 -26  -8   9    9.26   17.38
 -24  -8   9   -1.35   13.67
  24   8  -9   20.74   13.39
  22   8  -9    0.98    9.27
 -22  -8   9   -3.29   11.99
 -20  -8   9   60.26   17.43
  20   8  -9  111.19   18.76
 -18  -8   9   57.87   17.45
  18   8  -9  122.31   17.93
  16   8  -9   37.93   11.37
 -16  -8   9   20.66   13.07
  14   8  -9   17.01    9.60
 -14  -8   9    9.23    9.87
 -12  -8   9  141.11   19.26
  12   8  -9  168.34   15.24
  10   8  -9    7.27    7.27
 -10  -8   9  -10.30    6.83
  -8  -8   9  434.19   26.77
  -6  -8   9    9.09    9.56
   2   8  -9  186.27   19.02
   0   8  -9   33.56   13.80
  -2   8  -9  -15.21    9.65
  -4   8  -9   93.00   21.04
  -6   8  -9    1.73   13.85
  -8   8  -9   39.35   19.72
 -10   8  -9   98.09   24.94
 -12   8  -9  -23.88   17.96
  29   7  -9   94.03   22.99
 -29  -7   9   84.33   26.85
 -27  -7   9  369.30   36.64
  27   7  -9  317.69   30.34
 -25  -7   9  172.76   30.24
  25   7  -9  171.35   24.49
 -23  -7   9  160.83   26.47
  23   7  -9  183.97   24.02
  21   7  -9  838.87   39.25
 -21  -7   9  919.28   46.83
  19   7  -9   76.94   15.18
 -19  -7   9   93.13   19.89
  17   7  -9  824.82   35.48
 -17  -7   9  865.92   41.80
  15   7  -9 1516.51   48.04
 -15  -7   9 1474.80   52.97
 -13  -7   9  101.91   16.87
  13   7  -9  146.34   15.07
 -11  -7   9 1255.49   45.09
  11   7  -9 1289.43   41.94
  -9  -7   9  547.03   28.57
  -7  -7   9  464.98   26.20
  -5  -7   9 2539.29   66.08
   3   7  -9 1160.99   42.52
   1   7  -9  145.96   19.25
  -1   7  -9 1390.47   51.28
  -3   7  -9  557.95   34.35
  -5   7  -9  128.49   22.16
  -7   7  -9  922.60   48.10
  -9   7  -9  249.87   33.87
 -11   7  -9  296.43   37.81
 -13   7  -9  515.14   44.76
  30   6  -9  405.60   35.34
 -30  -6   9  386.85   40.02
 -28  -6   9   64.49   25.72
  28   6  -9   87.50   21.22
  26   6  -9  211.80   29.28
 -26  -6   9  178.00   28.85
  24   6  -9  660.23   38.22
 -24  -6   9  781.31   46.34
  22   6  -9   30.18   12.50
 -22  -6   9   14.48   14.06
  20   6  -9  845.43   38.18
 -20  -6   9  843.04   42.91
 -18  -6   9  968.38   43.27
  18   6  -9  976.34   39.54
 -16  -6   9   -5.21    8.02
  16   6  -9    6.87    8.59
 -14  -6   9 1522.25   50.26
  14   6  -9 1571.58   48.61
 -12  -6   9 1282.47   44.24
  12   6  -9 1341.85   43.51
  10   6  -9   11.35    7.82
 -10  -6   9    1.53    5.90
  -8  -6   9 1546.50   46.98
  -6  -6   9  777.74   32.30
   4   6  -9   17.66    8.99
   2   6  -9 1428.39   46.24
   0   6  -9  558.76   29.97
  -2   6  -9  184.51   22.35
  -4   6  -9 1438.64   54.34
  -6   6  -9  193.53   25.77
  -8   6  -9  417.46   33.33
 -10   6  -9  953.70   52.38
 -12   6  -9  147.23   29.49
  31   5  -9   27.91   16.96
 -31  -5   9   57.39   23.63
  29   5  -9   52.49   19.07
 -29  -5   9    1.55   17.97
  27   5  -9   -7.69   12.72
 -27  -5   9    9.45   16.49
  25   5  -9    6.10   11.62
 -25  -5   9   -2.95   12.55
 -23  -5   9   72.90   19.42
  23   5  -9  123.04   19.43
  21   5  -9  127.46   18.93
 -21  -5   9  148.34   23.39
 -19  -5   9   -6.41   10.08
  19   5  -9    3.90    8.67
 -17  -5   9   74.97   14.61
  17   5  -9   85.29   14.84
  15   5  -9   55.07   12.55
 -15  -5   9   62.07   12.89
 -13  -5   9   21.41    9.14
  13   5  -9   31.51   10.06
  11   5  -9   58.67   11.83
 -11  -5   9   62.03   11.87
  -9  -5   9   70.60   12.10
  -7  -5   9   -1.68    5.41
   3   5  -9  149.26   14.21
   1   5  -9  144.90   18.02
  -1   5  -9  165.53   20.15
  -3   5  -9    5.57   10.76
  -5   5  -9   75.39   18.25
  -7   5  -9   83.59   20.17
  -9   5  -9  107.82   24.34
 -11   5  -9   28.71   21.14
 -13   5  -9   75.88   25.95
 -30  -4   9  450.88   41.10
  30   4  -9  514.04   40.27
 -28  -4   9  176.09   30.33
  28   4  -9  216.09   25.68
 -26  -4   9  355.67   32.79
  26   4  -9  338.97   28.97
 -24  -4   9 1249.23   56.13
  24   4  -9 1321.35   53.45
  22   4  -9  264.67   23.38
 -22  -4   9  271.80   25.70
 -20  -4   9 1102.52   46.60
  20   4  -9 1172.96   45.59
  18   4  -9  945.36   39.36
 -18  -4   9  928.02   39.60
 -16  -4   9   37.93   11.51
  16   4  -9   44.91   11.77
  14   4  -9 1663.69   51.09
 -14  -4   9 1683.23   48.89
  12   4  -9 2230.26   46.10
 -12  -4   9 2229.28   55.00
  12   4  -9 2191.52   59.43
 -10  -4   9   -4.08    5.06
  10   4  -9    1.02    4.95
  -8  -4   9 3110.33   65.18
  -6  -4   9 2233.03   51.75
   4   4  -9  306.55   18.25
   2   4  -9 2953.60   66.64
   0   4  -9  965.53   36.32
  -2   4  -9  532.73   29.12
  -4   4  -9 2004.13   61.56
  -6   4  -9  702.06   38.52
  -8   4  -9  491.43   34.10
 -10   4  -9  996.44   51.89
 -12   4  -9  125.69   26.99
 -14   4  -9  333.08   40.97
 -14   4  -9  229.40   32.39
  31   3  -9  138.36   28.19
 -31  -3   9   70.31   24.99
 -29  -3   9   90.19   24.62
  29   3  -9   87.54   21.67
 -27  -3   9  395.72   34.63
  27   3  -9  357.26   31.28
 -25  -3   9   57.84   18.25
  25   3  -9   85.92   18.79
 -23  -3   9   66.84   18.67
  23   3  -9   86.84   19.13
  21   3  -9   30.56   11.54
 -21  -3   9   15.72   13.05
 -19  -3   9   84.12   16.17
  19   3  -9  136.65   18.74
  17   3  -9  178.40   17.53
 -17  -3   9  165.68   16.34
  15   3  -9  909.86   36.89
 -15  -3   9  889.29   33.64
  13   3  -9   48.40   11.38
  13   3  -9   81.70    9.20
 -13  -3   9   59.35   11.03
  11   3  -9  432.76   18.27
 -11  -3   9  412.67   19.92
  -9  -3   9  237.81   14.61
   9   3  -9  228.04   14.50
   7   3  -9  211.26   14.88
  -7  -3   9  204.00   13.31
   5   3  -9 1069.17   31.69
   3   3  -9  364.44   19.27
   1   3  -9   96.22   13.27
  -1   3  -9  268.58   20.16
  -3   3  -9  373.38   25.00
  -5   3  -9  190.63   21.23
  -7   3  -9  748.79   40.38
  -9   3  -9  159.67   26.45
 -11   3  -9  166.39   28.22
 -11   3  -9  179.72   26.42
 -13   3  -9  252.11   28.34
 -13   3  -9  292.71   35.50
 -32  -2   9   -9.58   15.88
  30   2  -9  420.67   36.32
 -30  -2   9  397.86   38.34
 -28  -2   9   28.86   18.17
  28   2  -9   46.83   18.41
  26   2  -9   83.56   19.85
 -26  -2   9   63.36   18.62
 -24  -2   9  420.86   32.35
  24   2  -9  492.22   32.29
 -22  -2   9    5.49   11.50
  22   2  -9   -3.01    8.10
  20   2  -9   86.20   15.89
 -20  -2   9   70.15   16.49
 -18  -2   9  361.24   22.88
  18   2  -9  385.66   25.11
  16   2  -9   -4.12    6.92
 -16  -2   9    2.42    6.45
  14   2  -9 1236.02   30.27
 -14  -2   9 1232.31   36.93
  14   2  -9 1234.75   43.53
  12   2  -9 1682.96   38.56
  12   2  -9 1679.05   50.71
 -12  -2   9 1698.40   41.64
 -10  -2   9  350.34   16.31
  10   2  -9  387.74   17.84
   8   2  -9 2029.26   47.87
  -8  -2   9 1993.01   42.27
   6   2  -9 1078.87   29.14
   6   2  -9 1101.02   34.95
   4   2  -9   21.82    7.17
   4   2  -9   21.80    8.17
   2   2  -9  925.09   35.60
   2   2  -9  898.84   30.01
   0   2  -9   45.25   10.45
   0   2  -9   25.75   10.08
  -2   2  -9  162.00   18.12
  -2   2  -9  167.61   16.05
  -4   2  -9 1171.83   43.66
  -4   2  -9 1148.12   46.91
  -6   2  -9  311.06   25.29
  -6   2  -9  306.39   25.98
  -8   2  -9  190.21   26.78
  -8   2  -9  182.82   25.31
 -10   2  -9  837.76   44.91
 -10   2  -9  901.81   46.69
 -12   2  -9   25.15   15.74
 -12   2  -9    8.37   16.82
 -14   2  -9  320.77   33.01
 -14   2  -9  304.17   31.17
 -31  -1   9  136.62   30.81
  31   1  -9  136.47   26.75
  29   1  -9  132.52   25.52
 -29  -1   9   83.18   21.93
 -27  -1   9  814.25   47.50
  27   1  -9  864.10   46.66
 -25  -1   9   86.98   20.19
  25   1  -9  106.85   20.10
 -23  -1   9  653.47   38.12
  23   1  -9  688.39   37.50
 -21  -1   9 3170.17   82.72
  21   1  -9 3207.44   83.93
  19   1  -9  232.87   20.47
 -19  -1   9  221.62   19.05
  17   1  -9 1059.49   41.65
 -17  -1   9 1068.36   37.15
 -15  -1   9 3421.80   70.22
  15   1  -9 3441.89   62.81
  15   1  -9 3495.05   81.77
  13   1  -9   40.35    7.97
 -13  -1   9   27.66    7.33
  13   1  -9   50.25   11.38
  11   1  -9 2157.33   47.51
 -11  -1   9 2244.55   44.82
  -9  -1   9 3093.66   54.13
   9   1  -9 3116.83   62.38
   7   1  -9   -0.57    4.98
   7   1  -9    0.48    4.16
   5   1  -9 3721.50   75.86
   5   1  -9 3572.86   62.83
   3   1  -9 1811.15   50.67
   3   1  -9 1840.93   41.70
   1   1  -9   54.05   11.66
   1   1  -9   84.21   11.86
  -1   1  -9 3093.71   68.60
  -1   1  -9 3082.86   76.29
  -3   1  -9 1507.77   52.50
  -3   1  -9 1546.51   48.72
  -5   1  -9  263.95   23.37
  -5   1  -9  247.78   22.41
  -7   1  -9 1794.01   60.93
  -7   1  -9 1852.28   63.95
  -9   1  -9   38.96   14.59
  -9   1  -9   43.31   17.34
 -11   1  -9  226.74   25.25
 -11   1  -9  226.88   25.63
 -13   1  -9  888.68   49.07
 -13   1  -9  994.28   52.27
 -15   1  -9  102.97   24.06
 -15   1  -9   33.16   21.15
 -32   0   9   -6.37   18.89
  32   0  -9   -1.97   14.69
 -30   0   9  -13.28   17.40
  30   0  -9    9.51   14.53
  28   0  -9    1.03   12.35
 -28   0   9   -2.98   12.88
 -26   0   9   -1.14   12.13
  26   0  -9   -3.66   10.06
 -24   0   9  -10.72   10.77
  24   0  -9  -13.20    7.86
  22   0  -9    0.07    8.72
 -22   0   9  -11.95    9.98
  20   0  -9   -6.23    6.90
 -20   0   9   -6.79    8.10
 -18   0   9   -7.72    5.50
  18   0  -9    4.36    8.60
 -16   0   9   -2.70    5.78
  16   0  -9   -2.51    7.69
  16   0  -9   -0.21    5.58
  14   0  -9   -2.73    5.82
 -14   0   9   -4.15    4.49
  14   0  -9    9.64    5.80
 -12   0   9    3.98    4.30
  12   0  -9   -3.50    5.72
  12   0  -9    1.51    4.82
  10   0  -9    5.88    5.78
 -10   0   9   -1.13    3.29
   8   0  -9    0.89    3.41
   8   0  -9   -4.31    5.11
   6   0  -9   -4.31    4.83
   6   0  -9    4.02    3.80
   4   0  -9   -1.39    5.11
   4   0  -9   -4.23    5.42
   2   0  -9    5.74    6.77
   2   0  -9   -0.17    6.03
   0   0  -9   -0.89    6.87
   0   0  -9    7.03    8.25
  -2   0  -9    0.49    9.38
  -2   0  -9   -9.72    6.71
  -4   0  -9   -4.94    7.93
  -4   0  -9    3.27   10.20
  -6   0  -9  -17.25   10.00
  -6   0  -9   -4.93    9.51
  -8   0  -9   -6.57   11.40
  -8   0  -9    2.39   11.78
 -10   0  -9   -3.42   10.81
 -10   0  -9    0.78   13.92
 -12   0  -9   -2.27   12.62
 -14   0  -9  -10.09   16.44
  31  -1  -9  108.69   26.06
 -31   1   9  160.40   29.69
 -29   1   9  112.11   25.99
  29  -1  -9  123.85   24.56
 -27   1   9  830.40   47.10
  27  -1  -9  849.91   46.57
 -25   1   9  141.84   23.96
  25  -1  -9  119.41   20.73
  23  -1  -9  614.61   35.72
 -23   1   9  619.66   36.13
 -21   1   9 3050.56   80.10
  21  -1  -9 3314.48   85.23
  19  -1  -9  212.17   19.85
 -19   1   9  223.63   18.69
  17  -1  -9 1135.53   43.33
 -17   1   9 1076.11   35.78
  15  -1  -9 3382.72   65.70
  15  -1  -9 3285.48   79.53
 -15   1   9 3364.80   65.27
  13  -1  -9   50.98    9.38
  13  -1  -9   30.63   10.32
 -13   1   9   31.40    6.40
  11  -1  -9 2104.77   47.96
 -11   1   9 1956.31   35.16
   9  -1  -9 3073.80   63.69
   7  -1  -9    7.03    6.38
   5  -1  -9 3562.67   74.98
   3  -1  -9 1753.47   49.86
   1  -1  -9   86.80   14.10
  -1  -1  -9 3174.58   78.54
  -1  -1  -9 3257.99   69.16
  -3  -1  -9 1526.89   53.51
  -3  -1  -9 1690.22   49.09
  -5  -1  -9  240.07   23.05
  -5  -1  -9  254.37   21.19
  -7  -1  -9 1900.93   65.61
  -9  -1  -9   45.51   16.88
 -11  -1  -9  208.97   30.48
 -13  -1  -9  989.82   51.76
  32  -2  -9    1.70   17.00
 -30   2   9  402.48   37.24
  30  -2  -9  384.88   35.40
  28  -2  -9   37.70   17.10
 -28   2   9   51.45   19.86
 -26   2   9  107.90   22.66
  26  -2  -9  108.75   21.34
  24  -2  -9  415.82   30.38
 -24   2   9  460.16   31.84
 -22   2   9   -2.38    8.20
  22  -2  -9   -0.12    8.85
  20  -2  -9   86.65   16.18
 -20   2   9   65.82   14.44
 -18   2   9  406.58   23.13
  18  -2  -9  379.73   25.45
 -16   2   9    5.12    6.07
  16  -2  -9   -9.66    5.90
  16  -2  -9   -2.83    5.46
  14  -2  -9 1159.78   42.66
  14  -2  -9 1288.01   37.16
  12  -2  -9 1624.40   49.89
  12  -2  -9 1664.65   43.96
  10  -2  -9  351.14   19.17
   8  -2  -9 1949.60   49.08
   6  -2  -9 1094.83   36.33
   4  -2  -9   27.78    9.34
   2  -2  -9 1009.48   37.94
   0  -2  -9   34.51   11.00
  -2  -2  -9  170.21   18.19
  -4  -2  -9 1169.02   46.91
  -6  -2  -9  339.54   28.00
  -8  -2  -9  135.78   22.65
 -10  -2  -9  884.55   46.39
 -12  -2  -9    2.26   14.64
  31  -3  -9   94.75   24.40
  29  -3  -9   67.97   20.60
  27  -3  -9  343.09   30.81
  25  -3  -9  124.67   22.36
  23  -3  -9   88.18   19.39
  21  -3  -9   21.96   11.60
 -21   3   9   15.15   11.62
  19  -3  -9  127.50   18.96
  17  -3  -9  177.36   14.42
  17  -3  -9  168.08   17.35
  15  -3  -9  894.89   37.01
  15  -3  -9  932.73   32.18
  13  -3  -9   64.03   11.35
  13  -3  -9   66.88   12.81
  11  -3  -9  386.86   21.00
   9  -3  -9  219.21   16.19
   7  -3  -9  177.63   15.14
   5  -3  -9 1056.15   37.09
   3  -3  -9  336.24   21.59
   1  -3  -9   87.68   15.11
  -1  -3  -9  273.78   22.14
  -3  -3  -9  380.51   26.71
  -5  -3  -9  194.65   21.69
  -7  -3  -9  773.51   40.93
  -9  -3  -9   84.06   18.86
 -11  -3  -9  116.07   22.79
 -13  -3  -9  260.52   28.50
  30  -4  -9  583.81   43.25
  28  -4  -9  209.43   30.64
  26  -4  -9  358.67   30.63
  24  -4  -9 1378.64   56.06
  22  -4  -9  261.35   23.29
  20  -4  -9 1164.29   46.52
  18  -4  -9  972.70   34.70
  18  -4  -9  951.50   40.31
  16  -4  -9   27.05   10.50
  16  -4  -9   42.93   11.27
  14  -4  -9 1758.56   48.55
  14  -4  -9 1695.46   52.48
  12  -4  -9 2101.48   54.50
  12  -4  -9 2088.74   57.50
  10  -4  -9  -11.49    5.52
   8  -4  -9 2837.45   66.49
   6  -4  -9 2203.98   57.22
   4  -4  -9  306.12   20.59
   2  -4  -9 2785.52   69.97
   0  -4  -9  851.24   37.49
  -2  -4  -9  506.37   30.44
  -4  -4  -9 2114.55   66.23
  -6  -4  -9  680.61   38.10
  -8  -4  -9  491.10   33.43
 -10  -4  -9  949.96   48.25
 -12  -4  -9  161.10   27.55
  31  -5  -9   32.14   21.14
  29  -5  -9   12.03   15.17
  27  -5  -9   -5.71   12.06
  25  -5  -9   -6.30   11.36
  23  -5  -9  131.04   22.11
  21  -5  -9  115.81   18.88
  19  -5  -9   -0.71    6.66
  19  -5  -9   -1.51    7.92
  17  -5  -9   94.31   14.71
  17  -5  -9   84.55   15.89
  15  -5  -9   32.87   10.28
  15  -5  -9   76.55   13.04
  13  -5  -9   24.04    9.01
  13  -5  -9   35.87   11.21
  11  -5  -9   67.73   12.70
   9  -5  -9   93.10   14.75
   7  -5  -9   -5.09    6.48
   5  -5  -9    1.99    7.81
   3  -5  -9  170.76   16.91
   1  -5  -9  103.25   17.08
  -1  -5  -9  148.13   20.08
  -3  -5  -9   15.00   12.02
  -5  -5  -9   79.23   18.47
  -7  -5  -9   69.03   18.65
  -9  -5  -9   44.11   19.22
 -11  -5  -9   34.20   17.91
  30  -6  -9  444.43   39.47
  28  -6  -9   83.68   23.38
  26  -6  -9  221.05   26.38
  24  -6  -9  662.80   39.19
  22  -6  -9    7.59   11.20
  20  -6  -9  928.33   41.73
  20  -6  -9  940.88   38.15
  18  -6  -9 1059.74   39.92
  18  -6  -9 1038.93   42.68
  16  -6  -9    0.99    7.69
  16  -6  -9   -4.44    7.00
  14  -6  -9 1639.55   51.05
  14  -6  -9 1571.64   49.49
  12  -6  -9 1279.93   43.96
  12  -6  -9 1264.46   42.97
  10  -6  -9    9.81    7.82
   8  -6  -9 1460.59   48.22
   6  -6  -9  709.51   33.19
   4  -6  -9   22.91   10.06
   2  -6  -9 1400.70   49.29
   0  -6  -9  615.38   33.07
  -2  -6  -9  148.61   21.30
  -4  -6  -9 1362.56   53.33
  -6  -6  -9  174.76   24.45
  -8  -6  -9  375.40   31.67
 -10  -6  -9  897.73   48.01
  27  -7  -9  328.62   32.51
  25  -7  -9  168.62   26.75
  23  -7  -9  189.88   22.32
  21  -7  -9  882.04   38.83
  21  -7  -9  891.69   42.31
  19  -7  -9   54.43   15.58
  19  -7  -9   97.62   16.87
  17  -7  -9  792.63   36.05
  17  -7  -9  791.11   36.39
  15  -7  -9 1562.97   50.67
  15  -7  -9 1621.66   52.47
  13  -7  -9  148.94   16.07
  13  -7  -9  148.89   18.70
  11  -7  -9 1267.74   45.55
  11  -7  -9 1317.76   43.31
   9  -7  -9  571.98   29.93
   7  -7  -9  443.80   27.65
   5  -7  -9 2487.34   69.15
   3  -7  -9 1182.47   46.34
   1  -7  -9  124.38   19.39
  -1  -7  -9 1372.10   52.36
  -3  -7  -9  529.90   33.55
  -5  -7  -9   98.82   19.92
  -7  -7  -9  884.42   45.55
  -9  -7  -9  122.47   24.19
  22  -8  -9    1.88   11.35
  20  -8  -9  113.32   19.62
  18  -8  -9   69.62   15.93
  18  -8  -9  114.86   19.07
  16  -8  -9   16.26   10.13
  16  -8  -9   26.52   12.01
  14  -8  -9    0.58    9.92
  14  -8  -9    4.92    9.24
  12  -8  -9  164.80   20.64
  12  -8  -9  164.13   16.24
  10  -8  -9   -2.56    8.54
   8  -8  -9  423.33   27.65
   6  -8  -9   14.20   10.54
   4  -8  -9  332.18   25.76
   2  -8  -9  205.22   24.29
   0  -8  -9   22.26   13.53
  -2  -8  -9   -2.43   10.08
  -4  -8  -9   56.96   18.97
  -6  -8  -9   -7.32   13.89
  -8  -8  -9   -4.08   13.75
  21  -9  -9 1060.09   46.63
  19  -9  -9   39.71   15.20
  17  -9  -9 1271.86   50.46
  15  -9  -9 1666.31   57.87
  13  -9  -9   -0.37   10.20
  11  -9  -9 1689.32   57.22
   9  -9  -9 1503.91   53.91
   7  -9  -9   43.69   15.10
   5  -9  -9 1551.95   55.31
   3  -9  -9 2144.87   68.01
   1  -9  -9   90.10   19.03
  -1  -9  -9 2182.59   72.39
  -3  -9  -9  379.50   31.42
  -5  -9  -9  282.33   27.77
  -7  -9  -9  801.39   45.99
  22 -10  -9   51.30   17.17
  20 -10  -9   81.58   19.17
  18 -10  -9  181.10   25.02
  16 -10  -9   -0.64   12.69
  14 -10  -9   90.28   18.06
  12 -10  -9  231.74   22.76
  10 -10  -9    1.23   10.18
   8 -10  -9  246.79   23.07
   6 -10  -9  194.50   21.64
   4 -10  -9   56.41   15.93
   2 -10  -9  326.70   27.21
   0 -10  -9  107.05   20.87
  -2 -10  -9    8.19   13.21
  -4 -10  -9  148.16   26.26
  -6 -10  -9   36.78   19.78
  23 -11  -9  106.11   23.55
  21 -11  -9  629.79   39.61
  19 -11  -9   59.91   17.49
  17 -11  -9  283.85   26.87
  15 -11  -9  513.65   34.02
  13 -11  -9    8.40   11.11
  11 -11  -9  623.06   37.00
   9 -11  -9  558.67   34.81
   7 -11  -9   14.11   11.91
   5 -11  -9  555.20   35.08
   3 -11  -9  295.04   26.79
   1 -11  -9   74.50   18.47
  -1 -11  -9  954.26   48.11
  -3 -11  -9  162.56   25.25
  -5 -11  -9   64.18   21.51
  24 -12  -9  542.39   38.92
  22 -12  -9   67.77   20.77
  20 -12  -9  274.76   27.49
  18 -12  -9  865.80   46.79
  16 -12  -9    9.37   14.36
  14 -12  -9  586.02   38.16
  12 -12  -9  760.11   42.54
  10 -12  -9   -0.96    9.66
   8 -12  -9  566.71   36.44
   6 -12  -9  537.18   35.34
   4 -12  -9   34.86   15.62
   2 -12  -9  651.93   40.49
   0 -12  -9  239.64   26.38
  -2 -12  -9  123.37   24.06
  -4 -12  -9  851.40   48.66
  -6 -12  -9  174.49   29.18
  21 -13  -9  -21.24   13.17
  19 -13  -9   -2.09   13.31
  17 -13  -9    2.54   14.04
  15 -13  -9   -3.94   11.52
  13 -13  -9   -2.78   12.43
  11 -13  -9   19.96   14.05
   9 -13  -9    1.54   11.91
   7 -13  -9   -0.61   12.66
   5 -13  -9    4.08   12.88
   3 -13  -9    2.12   11.30
   1 -13  -9   -8.57   13.00
  -1 -13  -9   -5.74   13.79
  -3 -13  -9  -15.00   13.68
  -5 -13  -9   59.48   21.52
  20 -14  -9  292.46   31.85
  18 -14  -9  492.14   38.91
  16 -14  -9    4.99   15.48
  14 -14  -9  426.03   35.76
  12 -14  -9  456.62   36.25
  10 -14  -9   -6.34   11.92
   8 -14  -9  580.04   40.45
   6 -14  -9  517.76   38.28
   4 -14  -9   39.95   17.65
   2 -14  -9  959.55   52.45
   0 -14  -9  415.38   35.92
  -2 -14  -9   93.72   23.72
  17 -15  -9   61.53   21.99
  15 -15  -9  162.95   28.74
  13 -15  -9  -15.48   12.24
  11 -15  -9  161.35   28.51
   9 -15  -9  239.31   31.76
   7 -15  -9   -3.00   12.61
   5 -15  -9  287.32   36.21
   3 -15  -9   43.34   18.56
   1 -15  -9   22.38   17.74
   8 -16  -9  204.16   31.63
   6 -16  -9   88.79   23.53
 -15 -15  10  311.68   38.57
 -13 -15  10  165.32   30.59
 -11 -15  10   20.00   17.12
  -9 -15  10  426.04   37.52
  -7 -15  10  206.59   31.19
   5  15 -10   97.43   30.87
   3  15 -10  478.58   44.50
 -18 -14  10   46.74   22.31
 -16 -14  10   34.75   20.46
 -14 -14  10   -1.00   14.02
 -12 -14  10   57.52   19.41
 -10 -14  10   24.85   16.24
  -8 -14  10   -0.70   12.42
  -6 -14  10   58.01   18.69
   4  14 -10    5.65   17.37
   2  14 -10   30.25   19.89
   0  14 -10   38.54   20.87
 -21 -13  10  352.68   36.45
 -19 -13  10  472.98   39.33
 -17 -13  10   -5.32   14.10
 -15 -13  10  566.38   41.36
 -13 -13  10  478.74   37.67
 -11 -13  10   -4.46   12.67
  -9 -13  10  682.03   42.66
  -7 -13  10  494.99   36.90
   5  13 -10   41.73   19.76
   3  13 -10  822.12   48.86
   1  13 -10  444.87   36.70
  -1  13 -10  135.70   28.14
  -3  13 -10  696.25   46.40
 -24 -12  10   44.71   22.01
 -22 -12  10   84.89   23.93
 -20 -12  10    1.63   15.35
 -18 -12  10   55.74   19.02
 -16 -12  10   21.62   14.49
 -14 -12  10   -3.33   12.20
 -12 -12  10  179.11   26.01
 -10 -12  10   20.42   13.57
  -8 -12  10   -8.83   10.30
  -6 -12  10  226.87   24.67
   4  12 -10  141.08   26.05
   2  12 -10  106.64   22.53
   0  12 -10  202.00   28.81
  -2  12 -10   -1.15   16.30
  -4  12 -10   33.80   21.58
 -25 -11  10  380.69   39.97
 -23 -11  10   -0.23   17.67
 -21 -11  10  230.36   33.14
 -19 -11  10  406.56   35.40
 -17 -11  10   -5.24   11.59
 -15 -11  10  319.73   29.10
 -13 -11  10  495.07   35.22
 -11 -11  10   -7.77   10.87
  -9 -11  10  392.56   30.07
  -7 -11  10  395.22   30.67
   3  11 -10  709.32   40.89
   1  11 -10  108.84   20.97
  -1  11 -10  112.83   23.87
  -3  11 -10  367.09   33.16
  -5  11 -10   82.69   23.47
  -7  11 -10   63.15   25.04
 -26 -10  10   19.37   19.59
 -24 -10  10  249.34   36.94
 -22 -10  10  685.79   45.98
 -20 -10  10   21.91   15.97
 -18 -10  10  403.76   32.62
 -16 -10  10  878.54   45.56
 -14 -10  10   -7.37   11.31
 -12 -10  10 1001.12   46.64
 -10 -10  10 1260.54   52.27
  -8 -10  10   -4.85    9.62
  -6 -10  10  876.31   42.93
   4  10 -10  419.09   30.45
   2  10 -10  161.13   23.54
   0  10 -10  817.39   43.15
  -2  10 -10  252.35   26.94
  -4  10 -10  160.42   28.66
  -6  10 -10  684.78   45.36
  -8  10 -10   34.87   22.15
 -27  -9  10  -30.75   15.24
 -25  -9  10    0.94   15.62
 -23  -9  10  -14.23   12.63
 -21  -9  10  -14.05   12.82
 -19  -9  10  -13.65   11.75
 -17  -9  10    1.87   12.16
 -15  -9  10    0.78   10.32
 -13  -9  10   13.59   10.47
 -11  -9  10    1.03    8.83
  -9  -9  10   13.83    9.76
  -7  -9  10   30.41   12.03
   3   9 -10   -5.81    9.01
   1   9 -10  -13.87    8.62
  -1   9 -10   -7.25   12.51
  -3   9 -10   -7.17   12.17
  -5   9 -10  -10.87   13.55
  -7   9 -10   -4.06   13.84
  -9   9 -10   -6.15   18.40
 -28  -8  10  592.98   48.55
  28   8 -10  579.67   39.72
  26   8 -10  164.09   26.22
 -26  -8  10  170.76   31.79
  24   8 -10  286.71   25.79
 -24  -8  10  286.88   30.15
 -22  -8  10  795.95   46.04
  22   8 -10  803.49   39.07
 -20  -8  10    0.12   11.44
  20   8 -10    6.11    9.61
 -18  -8  10 1287.61   54.25
  18   8 -10 1309.86   47.04
 -16  -8  10 1393.61   54.05
  16   8 -10 1361.33   46.87
 -14  -8  10   -1.99    9.18
  14   8 -10   21.52   10.22
  12   8 -10 1083.93   39.51
 -12  -8  10 1050.37   43.80
 -10  -8  10  928.21   40.43
  10   8 -10  925.07   36.07
  -8  -8  10    6.72    9.40
  -6  -8  10 1585.48   53.15
   4   8 -10 1039.03   42.31
   2   8 -10  215.47   20.86
   0   8 -10 1664.78   58.54
  -2   8 -10  318.41   26.98
  -4   8 -10  177.50   26.03
  -6   8 -10  948.97   50.18
  -8   8 -10   58.94   23.44
 -10   8 -10  348.31   38.19
  29   7 -10   33.84   17.26
 -29  -7  10   -2.89   19.62
 -27  -7  10  108.52   26.44
  27   7 -10  128.97   24.06
  25   7 -10  320.56   27.66
 -25  -7  10  344.17   33.05
  23   7 -10   -5.98    9.91
 -23  -7  10  -14.31   11.32
 -21  -7  10  257.74   25.74
  21   7 -10  276.01   23.44
  19   7 -10  354.37   24.81
 -19  -7  10  348.92   29.00
  17   7 -10    3.67    8.16
 -17  -7  10    1.12    9.61
 -15  -7  10  772.91   37.57
  15   7 -10  699.80   33.18
  13   7 -10  556.74   28.40
 -13  -7  10  526.38   29.75
 -11  -7  10   65.58   14.34
  11   7 -10  119.72   16.00
  -9  -7  10  772.23   34.67
  -7  -7  10  159.73   16.85
   5   7 -10  183.89   17.20
   3   7 -10 1032.28   41.00
   1   7 -10  481.28   29.85
  -1   7 -10   76.38   17.41
  -3   7 -10  693.49   39.44
  -5   7 -10   15.49   16.18
  -7   7 -10  132.34   26.78
  -9   7 -10  384.34   37.02
 -11   7 -10   21.35   23.29
 -30  -6  10    7.63   22.05
  30   6 -10    6.45   15.05
  28   6 -10  188.72   28.21
 -28  -6  10  170.90   31.61
 -26  -6  10   49.44   20.69
  26   6 -10   54.72   17.80
 -24  -6  10   77.68   20.25
  24   6 -10  131.56   21.85
 -22  -6  10  379.87   30.71
  22   6 -10  392.46   27.80
 -20  -6  10    0.36   10.62
  20   6 -10   -5.57    8.01
  18   6 -10  358.19   24.94
 -18  -6  10  281.42   24.43
 -16  -6  10  277.90   23.23
  16   6 -10  331.71   22.93
  14   6 -10   50.33   13.28
 -14  -6  10   33.05   11.01
  12   6 -10  456.51   26.21
 -12  -6  10  439.95   25.58
 -10  -6  10   33.17   10.85
  -8  -6  10   97.46   14.71
  -6  -6  10 1702.15   50.03
   4   6 -10  605.14   29.32
   2   6 -10  201.48   18.74
   0   6 -10  933.48   39.94
  -2   6 -10   83.26   17.66
  -4   6 -10   -9.30   12.46
  -6   6 -10  447.29   34.44
  -8   6 -10  194.54   30.86
 -10   6 -10   77.10   23.61
 -31  -5  10  791.00   54.62
  31   5 -10  841.56   51.23
  29   5 -10   78.17   20.87
  27   5 -10  300.42   28.21
 -27  -5  10  321.70   32.91
 -25  -5  10  986.33   52.33
  25   5 -10  978.60   46.89
  23   5 -10   54.82   14.85
 -23  -5  10   27.13   15.67
  21   5 -10  598.82   33.38
 -21  -5  10  611.55   36.61
  19   5 -10 1036.59   42.69
 -19  -5  10  990.40   44.06
  17   5 -10   21.54   11.09
 -17  -5  10    6.59   10.21
 -15  -5  10 1934.90   56.55
  15   5 -10 2012.63   58.83
 -13  -5  10 1728.27   50.91
  13   5 -10 1825.47   54.98
 -11  -5  10   72.40   12.61
  -9  -5  10 2835.10   65.46
  -7  -5  10  594.44   26.66
   5   5 -10   61.88   11.96
   3   5 -10 2575.44   64.22
   1   5 -10  740.09   33.56
  -1   5 -10  306.18   23.55
  -3   5 -10 2547.83   73.10
  -5   5 -10  308.35   26.85
  -7   5 -10  568.24   38.60
  -9   5 -10  896.77   50.95
 -11   5 -10   24.93   20.32
 -30  -4  10   18.49   20.96
  30   4 -10   -2.26   13.92
 -28  -4  10   84.61   23.45
  28   4 -10   48.58   17.61
  26   4 -10    2.14   11.25
 -26  -4  10    3.43   13.50
 -24  -4  10    3.14   12.37
  24   4 -10   -9.39   10.15
  22   4 -10   27.44   12.98
 -22  -4  10   26.80   13.79
  20   4 -10    1.33    8.97
 -20  -4  10  -12.34    8.64
 -18  -4  10  157.79   17.64
  18   4 -10  157.70   18.33
 -16  -4  10   80.21   13.63
  16   4 -10  106.86   17.10
 -14  -4  10    2.13    7.00
  14   4 -10    1.12    7.15
 -12  -4  10    3.42    6.85
  12   4 -10   30.52    7.91
  12   4 -10    8.56    8.53
  10   4 -10   80.32   11.47
 -10  -4  10   47.04    9.88
  -8  -4  10   -4.56    5.17
   6   4 -10  209.79   15.57
   4   4 -10   36.61    9.73
   2   4 -10    6.93    8.71
   0   4 -10   22.85   11.52
  -2   4 -10   13.99   12.16
  -4   4 -10   29.01   14.02
  -6   4 -10   29.34   17.11
  -8   4 -10    4.27   16.93
 -10   4 -10    7.38   18.02
 -10   4 -10  -13.16   13.01
 -12   4 -10    5.12   20.45
 -12   4 -10   23.14   17.67
 -31  -3  10  517.82   44.19
  31   3 -10  643.32   44.91
 -29  -3  10   45.82   21.35
  29   3 -10   19.88   15.76
 -27  -3  10  363.18   34.26
  27   3 -10  361.39   30.81
 -25  -3  10  979.93   49.47
  25   3 -10  943.73   46.10
 -23  -3  10  185.11   25.22
  23   3 -10  212.15   21.48
  21   3 -10  609.70   33.90
 -21  -3  10  584.51   33.90
 -19  -3  10 1562.33   52.40
  19   3 -10 1663.54   55.93
 -17  -3  10   -0.43    6.74
  17   3 -10   -2.75    7.85
 -15  -3  10 1359.55   42.17
  15   3 -10 1365.07   48.09
  13   3 -10 1380.86   47.51
  13   3 -10 1403.13   35.70
 -13  -3  10 1421.92   40.38
 -11  -3  10  232.42   15.31
  11   3 -10  281.24   16.25
   9   3 -10 3008.51   64.42
  -9  -3  10 2912.96   59.88
   7   3 -10 1927.70   51.30
   7   3 -10 1934.75   45.36
   5   3 -10   74.23   11.13
   5   3 -10   61.09   12.53
   3   3 -10 1879.67   48.44
   1   3 -10  243.86   19.19
  -1   3 -10  392.18   24.76
  -3   3 -10 1705.72   55.53
  -5   3 -10  282.37   26.04
  -5   3 -10  306.56   27.09
  -7   3 -10  487.79   34.54
  -7   3 -10  545.39   36.83
  -9   3 -10 1061.45   52.60
  -9   3 -10 1072.00   53.92
 -11   3 -10   79.14   22.60
 -11   3 -10   79.07   23.28
 -13   3 -10  230.85   35.10
 -32  -2  10   66.74   25.44
  32   2 -10  137.83   28.12
 -30  -2  10   64.28   21.90
  30   2 -10   59.39   19.46
  28   2 -10  614.25   40.22
 -28  -2  10  565.68   40.73
  26   2 -10   66.87   17.69
 -26  -2  10   49.67   17.10
 -24  -2  10  312.13   27.32
  24   2 -10  317.13   26.69
 -22  -2  10  884.93   41.93
  22   2 -10  834.43   40.77
 -20  -2  10    5.54    8.94
  20   2 -10   27.39   11.48
 -18  -2  10  845.84   34.83
  18   2 -10  823.01   38.10
 -16  -2  10 1649.01   46.57
  16   2 -10 1726.60   55.18
  14   2 -10   35.53   11.16
 -14  -2  10   32.01    8.97
  14   2 -10   50.01    8.79
  12   2 -10 1131.88   32.62
 -12  -2  10 1143.87   32.27
  10   2 -10 2076.35   49.61
 -10  -2  10 2048.50   44.36
   8   2 -10   72.15   11.58
   6   2 -10 2014.73   53.81
   6   2 -10 2083.91   45.46
   4   2 -10 1119.55   40.39
   4   2 -10 1116.80   33.01
   2   2 -10  156.85   14.44
   2   2 -10  166.73   16.73
   0   2 -10 2036.24   54.24
   0   2 -10 2015.66   61.63
  -2   2 -10  816.16   35.66
  -2   2 -10  768.85   38.51
  -4   2 -10  357.42   28.33
  -4   2 -10  362.63   26.78
  -6   2 -10 1056.58   47.82
  -6   2 -10 1136.63   51.34
  -8   2 -10  117.58   23.02
 -10   2 -10  171.67   27.63
 -12   2 -10  649.28   44.41
 -31  -1  10   39.68   20.27
  31   1 -10   50.04   19.49
 -29  -1  10   34.93   17.89
  29   1 -10   38.41   16.86
 -27  -1  10   40.14   18.70
  27   1 -10   59.58   17.75
 -25  -1  10   50.38   17.00
  25   1 -10   66.30   17.63
 -23  -1  10   -6.11   10.55
  23   1 -10   -6.41    8.88
 -21  -1  10  367.35   26.78
  21   1 -10  340.46   26.31
  19   1 -10   64.95   14.99
 -19  -1  10   37.15   10.63
 -17  -1  10   25.54    8.95
  17   1 -10   23.65   10.58
  15   1 -10  420.04   18.73
  15   1 -10  390.18   25.47
 -15  -1  10  439.59   20.64
  13   1 -10  494.03   20.51
 -13  -1  10  453.38   18.56
  13   1 -10  422.71   25.75
 -11  -1  10   -2.82    4.12
  11   1 -10   -6.03    5.11
   9   1 -10  439.98   21.41
   7   1 -10  643.20   27.73
   5   1 -10    8.78    8.65
   3   1 -10  100.75   14.98
   1   1 -10  238.48   20.36
  -1   1 -10   71.70   16.09
  -3   1 -10  326.84   26.03
  -5   1 -10   27.86   13.66
  -7   1 -10  238.53   25.74
  -9   1 -10   71.55   19.25
 -11   1 -10    6.61   16.53
 -13   1 -10   65.82   22.84
  32   0 -10  213.56   33.31
  30   0 -10  205.10   30.47
 -28   0  10  522.05   38.93
  28   0 -10  499.76   36.81
 -26   0  10   16.51   13.86
  26   0 -10   48.26   16.11
 -24   0  10  936.35   44.97
  24   0 -10  961.49   45.55
 -22   0  10 2615.35   73.37
  22   0 -10 2617.00   76.73
 -20   0  10  566.40   29.32
  20   0 -10  565.01   32.46
 -18   0  10 1220.50   39.45
  18   0 -10 1209.68   46.91
  16   0 -10 3514.61   68.54
  16   0 -10 3543.17   86.35
  14   0 -10    5.78    6.28
  14   0 -10   11.44    8.21
  12   0 -10 2812.18   59.44
  10   0 -10 2295.68   53.80
   8   0 -10  283.79   17.98
   6   0 -10 1912.99   51.82
   4   0 -10 2257.40   60.19
   2   0 -10  498.17   27.92
   0   0 -10 2499.06   69.48
  -2   0 -10 1308.63   50.47
  -4   0 -10  682.50   38.27
  -6   0 -10 1619.54   61.70
  -8   0 -10  314.38   29.43
 -10   0 -10  572.31   39.77
 -12   0 -10 1116.37   57.66
  31  -1 -10   44.77   20.18
  29  -1 -10   38.06   16.39
  27  -1 -10   45.71   16.62
  25  -1 -10   66.91   17.48
  23  -1 -10   -7.86    9.19
  21  -1 -10  399.27   28.38
  19  -1 -10   57.53   14.38
  17  -1 -10   44.93   12.58
  15  -1 -10  383.51   25.19
  15  -1 -10  384.70   19.94
  13  -1 -10  422.04   25.61
  13  -1 -10  438.28   21.23
  11  -1 -10   -7.71    5.55
   9  -1 -10  406.75   21.49
   7  -1 -10  619.02   27.65
   5  -1 -10   20.88    9.06
   3  -1 -10  113.62   15.93
   1  -1 -10  242.25   21.24
  -1  -1 -10   69.33   16.17
  -3  -1 -10  325.50   25.91
  -5  -1 -10   30.17   14.34
  -7  -1 -10  214.93   24.11
  -9  -1 -10  106.58   23.62
 -11  -1 -10  -15.39   13.74
 -13  -1 -10   55.83   22.34
  32  -2 -10  133.72   28.30
  30  -2 -10   45.65   19.67
  28  -2 -10  614.59   40.70
  26  -2 -10   40.10   15.17
  24  -2 -10  311.01   26.57
  22  -2 -10  842.27   41.34
  20  -2 -10    4.42    9.24
  18  -2 -10  797.05   37.60
  16  -2 -10 1762.40   45.80
  16  -2 -10 1641.03   54.76
  14  -2 -10   51.09   11.24
  14  -2 -10    9.76    9.34
  12  -2 -10 1031.20   34.67
  10  -2 -10 2048.95   51.89
   8  -2 -10   75.99   12.77
   6  -2 -10 1978.64   54.15
   4  -2 -10 1080.63   40.23
   2  -2 -10  165.72   17.36
   0  -2 -10 2082.13   63.06
  -2  -2 -10  825.55   39.71
  -4  -2 -10  370.70   28.58
  -6  -2 -10 1071.45   49.56
  -8  -2 -10   93.37   21.97
 -10  -2 -10  223.39   31.93
 -12  -2 -10  642.77   43.53
  31  -3 -10  602.62   45.07
  29  -3 -10   26.34   17.18
  27  -3 -10  395.54   32.51
  25  -3 -10  988.04   48.15
  23  -3 -10  202.18   21.72
  21  -3 -10  599.22   34.55
  19  -3 -10 1553.93   54.78
  17  -3 -10    1.47    7.64
  17  -3 -10   -2.59    7.03
  15  -3 -10 1319.64   47.50
  15  -3 -10 1361.88   41.40
  13  -3 -10 1386.33   47.41
  13  -3 -10 1342.53   42.06
  11  -3 -10  233.07   17.37
   9  -3 -10 2722.27   64.35
   7  -3 -10 2049.62   55.19
   5  -3 -10   82.48   14.26
   3  -3 -10 1924.21   57.07
   1  -3 -10  263.63   22.32
  -1  -3 -10  399.68   27.96
  -3  -3 -10 1718.83   60.64
  -5  -3 -10  295.92   26.82
  -7  -3 -10  540.51   36.29
  -9  -3 -10 1150.66   55.16
 -11  -3 -10   56.19   22.57
  30  -4 -10   -1.82   14.33
  28  -4 -10   64.59   20.85
  26  -4 -10   -5.87   11.05
  24  -4 -10   -2.53   10.18
  22  -4 -10   26.34   11.98
  20  -4 -10   -4.79    7.75
  18  -4 -10  165.22   15.55
  18  -4 -10  152.65   17.94
  16  -4 -10   61.97   14.97
  16  -4 -10  105.84   15.28
  14  -4 -10    2.30    7.31
  14  -4 -10   -3.88    7.53
  12  -4 -10    9.16    7.98
  10  -4 -10   53.76   11.87
   8  -4 -10   -1.39    7.51
   6  -4 -10  232.17   19.25
   4  -4 -10   14.87    9.39
   2  -4 -10   -1.40    9.39
   0  -4 -10    9.48   10.63
  -2  -4 -10   37.73   14.35
  -4  -4 -10   22.36   15.14
  -6  -4 -10   14.59   12.44
  -8  -4 -10    3.86   13.22
 -10  -4 -10   -7.93   14.67
  31  -5 -10  850.92   53.17
  29  -5 -10   78.74   21.94
  27  -5 -10  320.82   30.08
  25  -5 -10 1012.20   48.87
  23  -5 -10   41.47   14.44
  21  -5 -10  573.18   33.91
  19  -5 -10 1022.79   43.71
  19  -5 -10 1091.27   39.66
  17  -5 -10    7.54    9.10
  17  -5 -10   16.92   10.50
  15  -5 -10 1972.41   59.67
  15  -5 -10 2025.41   56.30
  13  -5 -10 1777.94   52.36
  13  -5 -10 1799.49   54.96
  11  -5 -10  124.14   17.50
   9  -5 -10 2589.79   66.95
   7  -5 -10  543.18   28.74
   5  -5 -10   81.63   14.89
   3  -5 -10 2464.26   68.31
   1  -5 -10  763.00   37.16
  -1  -5 -10  295.66   24.82
  -3  -5 -10 2466.45   75.65
  -5  -5 -10  283.12   26.41
  -7  -5 -10  586.63   38.61
  -9  -5 -10  917.15   49.26
 -11  -5 -10    0.82   17.09
  30  -6 -10  -14.74   13.77
  28  -6 -10  108.85   24.57
  26  -6 -10   92.54   22.15
  24  -6 -10   75.64   20.58
  22  -6 -10  354.97   27.67
  20  -6 -10   -1.52    9.81
  20  -6 -10   -0.64    7.63
  18  -6 -10  317.59   24.70
  18  -6 -10  354.87   23.68
  16  -6 -10  359.54   23.67
  16  -6 -10  330.26   24.06
  14  -6 -10   27.85   10.60
  14  -6 -10   47.80   12.54
  12  -6 -10  436.16   25.90
  10  -6 -10   41.87   12.72
   8  -6 -10   77.76   15.17
   6  -6 -10 1591.97   53.02
   4  -6 -10  595.65   32.86
   2  -6 -10  164.67   21.57
   0  -6 -10  897.93   42.09
  -2  -6 -10   39.11   15.06
  -4  -6 -10   25.55   13.48
  -6  -6 -10  458.64   33.86
  -8  -6 -10  131.52   24.65
 -10  -6 -10   91.21   22.20
  29  -7 -10   14.43   16.95
  27  -7 -10  121.50   23.90
  25  -7 -10  353.19   30.42
  23  -7 -10    0.16   12.02
  21  -7 -10  243.58   23.76
  21  -7 -10  282.86   23.53
  19  -7 -10  382.83   25.54
  19  -7 -10  355.83   26.61
  17  -7 -10   -4.03    9.58
  17  -7 -10   -1.13    9.46
  15  -7 -10  704.21   34.09
  15  -7 -10  743.16   35.35
  13  -7 -10  539.54   30.10
  13  -7 -10  567.38   29.90
  11  -7 -10  101.39   16.90
   9  -7 -10  719.27   35.02
   7  -7 -10  171.08   18.73
   5  -7 -10  168.58   21.86
   3  -7 -10 1013.32   44.20
   1  -7 -10  462.74   31.10
  -1  -7 -10   74.69   18.26
  -3  -7 -10  664.82   39.46
  -5  -7 -10   23.92   15.56
  -7  -7 -10  149.31   26.11
  -9  -7 -10  379.83   34.12
  22  -8 -10  835.09   40.36
  20  -8 -10    5.45   11.58
  18  -8 -10 1395.98   51.73
  18  -8 -10 1407.59   51.10
  16  -8 -10 1487.23   50.95
  16  -8 -10 1388.57   51.35
  14  -8 -10   15.38   11.03
  14  -8 -10   -1.59    8.81
  12  -8 -10 1058.79   40.39
  12  -8 -10 1031.96   43.35
  10  -8 -10  887.32   40.04
   8  -8 -10    5.56    8.93
   6  -8 -10 1567.98   56.03
   4  -8 -10 1042.20   45.95
   2  -8 -10  184.89   21.02
   0  -8 -10 1641.54   61.50
  -2  -8 -10  359.95   29.51
  -4  -8 -10  179.27   26.84
  -6  -8 -10  886.76   48.51
  -8  -8 -10   20.01   19.47
  21  -9 -10   -6.25    9.57
  19  -9 -10   -9.24    9.82
  17  -9 -10  -12.04    9.51
  15  -9 -10    5.89   10.23
  13  -9 -10    2.21    9.32
  11  -9 -10   -7.13    9.35
   9  -9 -10   -1.67   11.21
   7  -9 -10   24.87   12.30
   5  -9 -10   24.61   11.97
   3  -9 -10  -15.26   10.36
   1  -9 -10  -12.71    9.87
  -1  -9 -10  -12.75   10.15
  -3  -9 -10   -9.02   12.00
  -5  -9 -10   -5.27   14.05
  -7  -9 -10   -4.84   17.37
  22 -10 -10  681.65   39.97
  20 -10 -10   34.48   15.33
  18 -10 -10  415.70   30.12
  16 -10 -10  861.60   42.92
  14 -10 -10   -5.29    9.56
  12 -10 -10  987.35   45.30
  10 -10 -10 1247.73   51.58
   8 -10 -10    8.59   10.61
   6 -10 -10  891.96   44.00
   4 -10 -10  378.85   29.10
   2 -10 -10  162.15   25.46
   0 -10 -10  888.67   47.03
  -2 -10 -10  251.49   32.62
  -4 -10 -10  177.68   28.48
  -6 -10 -10  791.13   49.04
  23 -11 -10   11.26   14.17
  21 -11 -10  234.31   25.35
  19 -11 -10  408.88   32.21
  17 -11 -10  -20.14    8.80
  15 -11 -10  296.93   26.86
  13 -11 -10  520.97   34.62
  11 -11 -10   -2.43    9.47
   9 -11 -10  353.72   28.33
   7 -11 -10  402.65   30.49
   5 -11 -10  114.54   21.17
   3 -11 -10  764.15   42.80
   1 -11 -10  149.56   24.91
  -1 -11 -10   81.89   20.40
  -3 -11 -10  411.90   35.40
  -5 -11 -10   93.63   25.07
  24 -12 -10   62.35   20.66
  22 -12 -10  114.16   24.94
  20 -12 -10   20.15   13.99
  18 -12 -10   68.53   19.84
  16 -12 -10   32.54   15.28
  14 -12 -10    2.45   12.81
  12 -12 -10  182.82   26.21
  10 -12 -10   62.78   17.96
   8 -12 -10   -0.51   11.39
   6 -12 -10  260.70   31.65
   4 -12 -10  129.85   24.31
   2 -12 -10   53.32   19.07
   0 -12 -10  188.55   28.20
  -2 -12 -10   10.66   16.28
  -4 -12 -10   40.12   19.12
  21 -13 -10  443.64   36.75
  19 -13 -10  550.38   39.79
  17 -13 -10    0.15   13.53
  15 -13 -10  537.23   38.24
  13 -13 -10  482.79   35.65
  11 -13 -10   -0.88   13.61
   9 -13 -10  642.51   40.79
   7 -13 -10  452.57   35.41
   5 -13 -10   45.72   17.65
   3 -13 -10  879.81   49.19
   1 -13 -10  484.53   37.43
  -1 -13 -10  189.78   30.77
  -3 -13 -10  751.06   48.07
  18 -14 -10   17.61   15.42
  16 -14 -10   47.19   18.59
  14 -14 -10  -20.29   11.83
  12 -14 -10   53.57   17.99
  10 -14 -10   67.34   19.48
   8 -14 -10  -11.02   12.03
   6 -14 -10   45.60   17.92
   4 -14 -10    8.94   14.25
   2 -14 -10   15.59   15.37
   0 -14 -10   61.64   21.11
  15 -15 -10  312.67   32.88
  13 -15 -10  160.55   27.43
  11 -15 -10   20.37   16.53
   9 -15 -10  479.62   38.49
   7 -15 -10  302.52   37.83
   5 -15 -10   47.75   19.80
   3 -15 -10  367.75   34.56
 -11 -15  11  189.86   31.92
  -9 -15  11  -26.85   14.46
 -18 -14  11   -1.85   16.63
 -16 -14  11  407.91   37.21
 -14 -14  11  370.47   35.83
 -12 -14  11   45.58   20.15
 -10 -14  11  827.70   50.02
  -8 -14  11  255.48   29.07
   6  14 -11  160.64   34.21
   4  14 -11  615.25   46.56
 -21 -13  11  -20.09   16.00
 -19 -13  11   -4.54   16.47
 -17 -13  11    1.75   14.15
 -15 -13  11  -13.18   13.73
 -13 -13  11    5.15   15.71
 -11 -13  11  -15.09   11.55
  -9 -13  11   -6.72   12.18
  -7 -13  11   63.57   19.20
   5  13 -11   33.56   18.64
   3  13 -11    0.08   15.69
   1  13 -11    2.19   14.86
 -22 -12  11  250.89   35.88
 -20 -12  11  367.14   34.81
 -18 -12  11   -5.78   13.45
 -16 -12  11  463.31   36.47
 -14 -12  11  296.75   28.96
 -12 -12  11  -12.63   11.62
 -10 -12  11  802.60   45.44
  -8 -12  11  418.91   33.56
   6  12 -11  256.78   33.71
   4  12 -11 1205.85   57.27
   2  12 -11  344.37   31.68
   0  12 -11   84.02   23.53
  -2  12 -11  471.48   37.86
 -25 -11  11  119.65   29.56
 -23 -11  11  210.10   32.36
 -21 -11  11    5.44   16.81
 -19 -11  11  244.43   33.00
 -17 -11  11  281.83   28.74
 -15 -11  11   23.27   14.90
 -13 -11  11  561.80   36.97
 -11 -11  11  295.89   26.90
  -9 -11  11    0.16   11.82
  -7 -11  11  464.70   32.98
   5  11 -11  144.28   25.01
   3  11 -11  120.74   22.13
   1  11 -11  356.04   30.94
  -1  11 -11   86.80   21.20
  -3  11 -11  131.59   26.47
 -26 -10  11  195.70   35.57
 -24 -10  11   13.76   16.08
 -22 -10  11   41.45   19.33
 -20 -10  11   53.83   19.34
 -18 -10  11  -10.66   10.90
 -16 -10  11  111.61   22.12
 -14 -10  11  206.90   27.10
 -12 -10  11   -3.67   10.15
 -10 -10  11  191.22   25.20
  -8 -10  11   83.61   18.92
   6  10 -11    7.62   10.64
   4  10 -11  176.08   23.61
   2  10 -11   47.82   16.58
   0  10 -11   58.11   17.69
  -2  10 -11  122.81   24.03
  -4  10 -11   33.60   18.76
  -6  10 -11   22.21   21.44
 -27  -9  11   26.56   20.03
 -25  -9  11  316.15   35.29
 -23  -9  11  499.46   39.41
 -21  -9  11    9.66   15.58
 -19  -9  11  573.06   38.29
 -17  -9  11  693.25   40.28
 -15  -9  11   13.66   11.42
 -13  -9  11 1271.12   51.42
 -11  -9  11 1174.17   48.63
  -9  -9  11   -7.64   10.87
  -7  -9  11 1678.99   58.39
   5   9 -11  403.77   28.15
   3   9 -11  276.45   24.66
   1   9 -11 1024.51   47.16
  -1   9 -11  342.77   29.43
  -3   9 -11  271.55   32.63
  -5   9 -11  930.53   52.13
  -7   9 -11   31.67   20.64
 -28  -8  11   56.63   23.41
  28   8 -11   34.16   16.82
  26   8 -11  140.72   23.53
  24   8 -11   -7.32    9.70
 -24  -8  11   -4.93   14.18
 -22  -8  11   60.62   19.88
  22   8 -11   94.18   17.88
  20   8 -11  135.16   19.54
 -20  -8  11  102.86   21.00
 -18  -8  11    3.01   12.16
  18   8 -11   -1.90    9.60
 -16  -8  11  327.49   26.78
  16   8 -11  301.73   22.60
  14   8 -11  101.21   16.53
 -14  -8  11   77.31   16.04
  12   8 -11   -2.17    7.99
 -12  -8  11   -4.01    9.13
 -10  -8  11   38.88   13.25
  -8  -8  11   -2.90    8.86
   6   8 -11   29.16   11.99
   4   8 -11  207.12   20.17
   2   8 -11   30.62   14.66
   0   8 -11   51.04   14.99
  -2   8 -11  106.36   21.96
  -4   8 -11   -9.84   15.87
  -6   8 -11   26.18   19.12
  -8   8 -11    9.05   18.97
  29   7 -11  537.25   39.24
 -29  -7  11  441.50   42.56
 -27  -7  11   63.19   22.60
  27   7 -11  115.97   23.51
  25   7 -11  194.45   22.67
 -25  -7  11  279.90   34.40
  23   7 -11  680.67   36.85
 -23  -7  11  589.76   40.78
  21   7 -11    0.14   10.01
 -21  -7  11   -9.61   11.33
 -19  -7  11  688.95   39.00
  19   7 -11  697.35   35.31
  17   7 -11 1331.92   48.63
 -17  -7  11 1314.42   51.73
  15   7 -11   -1.34    9.07
 -15  -7  11   -8.97    8.53
 -13  -7  11  685.77   34.33
  13   7 -11  703.79   33.82
  11   7 -11  796.87   35.82
 -11  -7  11  797.60   35.88
  -9  -7  11   10.53   10.09
   5   7 -11  537.08   29.56
   3   7 -11  167.79   21.27
   1   7 -11 1091.11   45.41
  -1   7 -11  284.93   25.68
  -3   7 -11   53.76   18.08
  -5   7 -11  845.47   46.73
  -7   7 -11   44.91   22.36
  -9   7 -11  149.61   32.07
 -30  -6  11    7.45   21.04
  30   6 -11   13.63   16.34
  28   6 -11  259.98   32.15
 -28  -6  11  264.11   35.66
  26   6 -11  586.82   37.15
 -26  -6  11  585.82   43.08
  24   6 -11   29.00   13.00
 -24  -6  11    5.86   14.73
 -22  -6  11  439.38   32.38
  22   6 -11  467.30   30.43
  20   6 -11 1245.92   48.98
 -20  -6  11 1245.79   52.03
 -18  -6  11   16.45   11.38
  18   6 -11   40.22   12.72
 -16  -6  11 1188.00   45.53
  16   6 -11 1152.29   44.98
  14   6 -11  897.53   38.98
 -14  -6  11  896.77   37.79
 -12  -6  11  152.71   15.87
  12   6 -11  158.77   17.83
 -10  -6  11  945.93   37.05
  -8  -6  11 1153.77   40.71
   6   6 -11  246.73   19.43
   4   6 -11 1905.67   55.93
   2   6 -11  607.69   32.03
   0   6 -11  245.45   23.55
  -2   6 -11 1212.68   50.69
  -4   6 -11  102.81   21.19
  -6   6 -11  329.46   32.00
  -8   6 -11  489.63   39.18
 -10   6 -11   15.41   21.92
  31   5 -11   -1.38   14.75
 -31  -5  11   -6.88   20.07
  29   5 -11   51.07   18.77
 -29  -5  11   28.40   20.18
  27   5 -11   -4.91   11.43
 -27  -5  11   -7.48   15.21
  25   5 -11   -0.22   10.91
 -25  -5  11   12.98   15.43
  23   5 -11   49.15   15.32
 -23  -5  11   48.74   16.48
  21   5 -11   42.15   13.81
 -21  -5  11   14.42   11.56
  19   5 -11   79.05   16.66
 -19  -5  11   59.67   15.34
 -17  -5  11    5.97   10.48
  17   5 -11   45.05   14.05
  15   5 -11   58.39   14.81
 -15  -5  11   18.89    9.53
 -13  -5  11   -4.97    6.73
  13   5 -11    0.84    8.37
 -11  -5  11    8.53    7.85
  11   5 -11    7.79    7.46
  -9  -5  11    1.24    6.69
   7   5 -11  702.86   29.47
   5   5 -11  214.83   17.85
   3   5 -11   21.82   11.21
   1   5 -11  106.43   18.55
  -1   5 -11   18.61   14.22
  -3   5 -11   24.28   16.53
  -5   5 -11   23.36   18.11
  -7   5 -11    0.62   17.72
  -9   5 -11    1.63   15.33
  30   4 -11   44.75   18.95
 -30  -4  11   35.66   19.18
  28   4 -11  352.88   31.00
 -28  -4  11  350.75   34.67
  26   4 -11  958.94   48.09
 -26  -4  11  966.12   51.79
  24   4 -11   22.82   13.52
 -24  -4  11   24.98   13.77
  22   4 -11  927.76   43.57
 -22  -4  11  906.98   43.61
 -20  -4  11 1299.98   49.75
  20   4 -11 1351.73   51.65
  18   4 -11   -5.98    8.70
 -18  -4  11  -11.98    8.20
  16   4 -11 1721.31   57.32
 -16  -4  11 1800.49   52.22
 -14  -4  11 1782.62   49.62
  14   4 -11 1728.15   56.77
  12   4 -11  448.21   21.63
 -12  -4  11  415.91   21.98
  10   4 -11 2903.38   65.87
 -10  -4  11 2858.89   63.12
   8   4 -11  929.31   35.78
   6   4 -11  143.29   14.14
   6   4 -11  178.95   17.50
   4   4 -11 2498.63   61.29
   2   4 -11  463.55   26.40
   0   4 -11  989.73   40.58
  -2   4 -11 2441.48   70.45
  -6   4 -11  600.71   41.03
  -8   4 -11 1243.56   60.57
 -10   4 -11   74.63   24.79
  31   3 -11   99.48   25.78
 -29  -3  11  143.43   26.98
  29   3 -11  139.65   26.04
  27   3 -11   17.95   13.06
 -27  -3  11    2.25   14.91
  25   3 -11   33.16   14.22
 -25  -3  11   31.25   14.64
  23   3 -11  158.68   24.24
 -23  -3  11  129.74   21.09
  21   3 -11   34.52   13.52
 -21  -3  11    9.10   11.85
  19   3 -11  271.75   23.30
 -19  -3  11  197.85   19.10
  17   3 -11  361.39   25.72
 -17  -3  11  344.83   22.24
  15   3 -11   -1.61    8.25
 -15  -3  11    9.18    7.76
  13   3 -11  648.04   25.09
 -13  -3  11  581.03   24.61
 -11  -3  11  610.32   24.16
  11   3 -11  600.96   26.11
  -9  -3  11  104.94   10.91
   9   3 -11  120.38   13.66
   7   3 -11  788.46   33.26
   5   3 -11  527.05   28.71
   3   3 -11   45.86   14.00
   1   3 -11  727.80   37.33
  -1   3 -11  210.28   22.24
  -3   3 -11  109.45   20.68
  -5   3 -11  178.28   26.52
  -7   3 -11    2.61   12.55
  -9   3 -11   93.45   23.24
 -11   3 -11  126.05   28.26
  32   2 -11  219.79   33.32
  30   2 -11   -7.59   12.14
  28   2 -11  208.97   24.72
  26   2 -11  382.44   30.75
  24   2 -11    1.15   10.50
  22   2 -11 1005.24   45.65
 -22  -2  11  754.90   38.23
  20   2 -11  684.87   36.60
  18   2 -11   -0.73    8.09
  16   2 -11  991.79   42.60
  14   2 -11  859.51   38.69
  14   2 -11  945.20   30.16
  12   2 -11   12.42    7.72
  10   2 -11 1602.73   45.37
   8   2 -11  814.64   32.64
   6   2 -11    4.57    7.44
   4   2 -11 1238.30   45.48
   2   2 -11  312.91   24.09
   0   2 -11  349.05   26.81
  -2   2 -11  750.08   40.31
  -4   2 -11   16.89   13.96
  -6   2 -11  412.57   33.59
  -8   2 -11  621.54   42.81
 -10   2 -11   85.16   23.24
  31   1 -11  218.64   33.18
  29   1 -11  694.14   44.32
  27   1 -11   26.59   14.99
  25   1 -11  462.30   32.64
  23   1 -11 1164.30   50.31
  21   1 -11   87.87   18.00
  19   1 -11 1041.92   45.22
  17   1 -11 1594.85   55.83
  15   1 -11   -0.52    6.07
  15   1 -11   -4.44    7.50
  13   1 -11 2245.26   52.47
  11   1 -11  981.93   33.82
   9   1 -11  332.51   20.26
   7   1 -11 2187.54   58.45
   5   1 -11 1198.58   43.52
   3   1 -11  336.49   24.05
   1   1 -11 2041.31   63.92
  -1   1 -11  629.98   35.86
  -3   1 -11  573.24   35.67
  -5   1 -11 1334.88   57.58
  -7   1 -11  137.83   26.23
  -9   1 -11  653.74   43.99
 -11   1 -11  764.95   50.28
  32   0 -11   -1.19   15.60
  30   0 -11   -5.99   12.19
  28   0 -11   -5.18   10.79
  26   0 -11   -4.01   10.36
  24   0 -11   -8.38    9.50
  22   0 -11   -3.05    9.36
  20   0 -11  -10.11    7.23
  18   0 -11   -5.34    7.27
  16   0 -11   -1.85    6.37
  16   0 -11   -0.50    7.95
  14   0 -11   -7.67    5.50
  14   0 -11   -2.10    7.16
  12   0 -11   -8.28    6.24
  10   0 -11    7.44    6.98
   8   0 -11   -7.23    5.97
   6   0 -11   -0.89    7.17
   4   0 -11    4.17    8.14
   2   0 -11  -11.55    7.59
   0   0 -11  -12.25    9.28
  -2   0 -11    0.10   10.13
  -4   0 -11  -21.66   10.17
  -6   0 -11   -5.94   12.75
  -8   0 -11  -12.56   14.15
 -10   0 -11   -3.17   14.59
  31  -1 -11  222.56   33.64
  29  -1 -11  711.94   44.52
  27  -1 -11   66.60   18.70
  25  -1 -11  487.45   33.71
  23  -1 -11 1095.65   48.82
  21  -1 -11   79.12   17.53
  19  -1 -11 1088.79   46.39
  17  -1 -11 1583.95   43.82
  17  -1 -11 1588.72   55.61
  15  -1 -11   -2.34    7.93
  15  -1 -11   -0.69    6.34
  13  -1 -11 2083.23   52.20
  11  -1 -11 1022.29   35.33
   9  -1 -11  329.45   20.72
   7  -1 -11 2160.14   58.99
   5  -1 -11 1209.73   43.94
   3  -1 -11  341.53   24.77
   1  -1 -11 2100.46   65.04
  -1  -1 -11  679.31   37.25
  -3  -1 -11  577.09   36.07
  -5  -1 -11 1349.31   57.76
  -7  -1 -11   87.77   21.76
  -9  -1 -11  630.97   43.80
 -11  -1 -11  712.69   46.80
  32  -2 -11  229.37   34.13
  30  -2 -11  -13.23   11.46
  28  -2 -11  118.28   23.69
  26  -2 -11  370.84   30.40
  24  -2 -11   14.00   11.96
  22  -2 -11  920.66   44.25
  20  -2 -11  659.39   36.10
  18  -2 -11   -3.75    7.50
  16  -2 -11 1015.55   35.52
  16  -2 -11  930.27   41.27
  14  -2 -11  858.19   38.46
  14  -2 -11  849.49   32.66
  12  -2 -11   21.47    8.85
  10  -2 -11 1482.32   45.18
   8  -2 -11  820.77   33.77
   6  -2 -11   14.22    8.93
   4  -2 -11 1244.73   46.34
   2  -2 -11  297.61   24.01
   0  -2 -11  393.65   28.42
  -2  -2 -11  734.63   39.86
  -4  -2 -11   38.68   15.35
  -6  -2 -11  427.95   33.34
  -8  -2 -11  573.02   40.87
 -10  -2 -11   62.53   23.11
  31  -3 -11   74.11   23.44
  29  -3 -11  173.18   28.35
  27  -3 -11   13.43   14.47
  25  -3 -11   38.16   14.26
  23  -3 -11  170.27   23.68
  21  -3 -11   26.09   12.87
  19  -3 -11  268.21   23.49
  17  -3 -11  337.09   21.13
  17  -3 -11  368.25   26.39
  15  -3 -11    7.59    8.69
  15  -3 -11   15.96   10.90
  13  -3 -11  535.10   26.61
  11  -3 -11  580.13   27.95
   9  -3 -11  134.82   16.84
   7  -3 -11  760.46   33.72
   5  -3 -11  518.80   29.07
   3  -3 -11   31.96   12.16
   1  -3 -11  695.20   36.99
  -1  -3 -11  211.86   23.61
  -3  -3 -11   79.27   19.74
  -5  -3 -11  165.85   26.23
  -7  -3 -11   -0.32   15.44
  -9  -3 -11   77.50   22.90
 -11  -3 -11  123.71   26.23
  30  -4 -11   35.12   19.11
  28  -4 -11  352.00   31.64
  26  -4 -11  943.04   48.36
  24  -4 -11   10.64   13.32
  22  -4 -11  901.36   43.85
  20  -4 -11 1330.03   52.21
  18  -4 -11   -2.66    8.42
  18  -4 -11   -1.26    7.98
  16  -4 -11 1873.86   60.14
  16  -4 -11 1798.17   52.26
  14  -4 -11 1595.45   49.68
  14  -4 -11 1734.55   55.81
  12  -4 -11  410.97   24.48
  10  -4 -11 2697.72   68.24
   8  -4 -11  929.84   37.72
   6  -4 -11  177.41   18.30
   4  -4 -11 2454.62   69.16
   2  -4 -11  440.65   29.46
   0  -4 -11  939.08   43.89
  -2  -4 -11 2465.02   77.10
  -4  -4 -11  246.68   25.77
  -6  -4 -11  582.22   39.00
  -8  -4 -11 1175.00   56.87
 -10  -4 -11   42.11   19.19
  31  -5 -11  -10.27   14.46
  29  -5 -11    6.74   15.09
  27  -5 -11   -5.09   11.67
  25  -5 -11    3.46   11.09
  23  -5 -11   51.27   15.72
  21  -5 -11   23.18   11.64
  19  -5 -11   73.88   14.43
  19  -5 -11   27.45   12.60
  17  -5 -11   16.25   10.25
  17  -5 -11   36.03   12.44
  15  -5 -11   39.23   13.22
  15  -5 -11   57.47   12.81
  13  -5 -11    8.52    8.96
  11  -5 -11   12.65   10.08
   9  -5 -11   13.29    9.80
   7  -5 -11  665.17   33.40
   5  -5 -11  218.52   21.35
   3  -5 -11    3.05   10.73
   1  -5 -11   86.61   17.88
  -1  -5 -11   19.10   14.33
  -3  -5 -11   49.46   18.15
  -5  -5 -11   62.46   19.10
  -7  -5 -11  -11.00   14.50
  -9  -5 -11    8.90   17.72
  30  -6 -11    5.20   17.54
  28  -6 -11  273.09   30.16
  26  -6 -11  626.58   39.93
  24  -6 -11   13.63   12.55
  22  -6 -11  410.25   29.80
  20  -6 -11 1229.79   50.15
  20  -6 -11 1310.21   47.16
  18  -6 -11   28.71   12.36
  18  -6 -11   19.05   11.35
  16  -6 -11 1207.36   46.96
  16  -6 -11 1233.27   45.25
  14  -6 -11  886.81   38.20
  14  -6 -11  897.12   39.34
  12  -6 -11  182.98   18.60
  10  -6 -11  880.10   39.03
   8  -6 -11 1123.50   44.76
   6  -6 -11  257.12   22.64
   4  -6 -11 1938.68   62.94
   2  -6 -11  590.06   34.51
   0  -6 -11  254.76   24.63
  -2  -6 -11 1127.07   51.71
  -4  -6 -11   78.47   19.97
  -6  -6 -11  346.58   32.79
  -8  -6 -11  499.10   39.50
 -10  -6 -11    4.79   18.56
  29  -7 -11  543.67   41.38
  27  -7 -11   68.25   19.92
  25  -7 -11  218.28   25.27
  23  -7 -11  658.99   38.22
  21  -7 -11  -13.68    9.35
  21  -7 -11  -11.04    8.98
  19  -7 -11  668.50   36.25
  19  -7 -11  738.27   36.41
  17  -7 -11 1404.48   50.55
  17  -7 -11 1372.97   50.83
  15  -7 -11  -11.20    7.44
  15  -7 -11   -6.63    7.95
  13  -7 -11  794.73   35.97
  13  -7 -11  718.54   35.64
  11  -7 -11  810.78   37.88
   9  -7 -11   24.94   12.28
   7  -7 -11  823.22   39.96
   5  -7 -11  557.18   33.47
   3  -7 -11  155.21   22.69
   1  -7 -11 1084.49   49.29
  -1  -7 -11  306.51   28.17
  -3  -7 -11   90.94   20.54
  -5  -7 -11  809.12   46.61
  -7  -7 -11   14.75   15.55
  -9  -7 -11  117.98   25.46
  22  -8 -11  108.79   19.47
  20  -8 -11  120.14   20.31
  20  -8 -11  135.22   20.10
  18  -8 -11    2.11   11.34
  18  -8 -11   12.66   11.57
  16  -8 -11  305.82   24.11
  16  -8 -11  264.32   23.95
  14  -8 -11  119.01   20.19
  14  -8 -11  118.67   18.46
  12  -8 -11   -6.08    8.17
  10  -8 -11   39.35   13.96
   8  -8 -11   10.69   11.20
   6  -8 -11   15.11   12.68
   4  -8 -11  221.34   23.86
   2  -8 -11   43.22   15.56
   0  -8 -11   30.06   15.75
  -2  -8 -11   87.71   21.00
  -4  -8 -11   -1.45   13.88
  -6  -8 -11   -9.13   17.29
  -8  -8 -11   -2.33   19.45
  21  -9 -11    3.41   11.71
  19  -9 -11  596.03   34.98
  17  -9 -11  701.77   37.73
  15  -9 -11   11.49   12.34
  13  -9 -11 1315.43   52.10
  11  -9 -11 1175.61   48.78
   9  -9 -11   14.96   12.76
   7  -9 -11 1627.06   59.37
   5  -9 -11  378.35   29.78
   3  -9 -11  274.28   26.90
   1  -9 -11 1085.99   52.34
  -1  -9 -11  324.60   31.12
  -3  -9 -11  232.91   32.03
  -5  -9 -11  997.00   54.82
  -7  -9 -11   38.44   19.09
  22 -10 -11   64.78   18.38
  20 -10 -11  107.51   20.45
  18 -10 -11  -12.69   10.41
  16 -10 -11  201.52   25.35
  14 -10 -11  229.67   23.17
  12 -10 -11  -12.13   10.04
  10 -10 -11  201.18   25.05
   8 -10 -11   82.52   19.77
   6 -10 -11   -3.99   10.42
   4 -10 -11  140.97   23.18
   2 -10 -11   22.44   14.93
   0 -10 -11   52.06   19.43
  -2 -10 -11  111.13   25.46
  -4 -10 -11   37.69   20.80
  -6 -10 -11   16.71   20.60
  23 -11 -11  316.05   30.26
  21 -11 -11   37.28   15.98
  19 -11 -11  290.60   27.96
  17 -11 -11  279.99   26.89
  15 -11 -11   35.36   16.85
  13 -11 -11  554.70   35.85
  11 -11 -11  308.70   26.95
   9 -11 -11    0.75   11.54
   7 -11 -11  491.98   34.29
   5 -11 -11  151.17   24.44
   3 -11 -11   72.68   19.14
   1 -11 -11  320.10   30.14
  -1 -11 -11   65.00   21.50
  -3 -11 -11  112.19   25.28
  22 -12 -11  270.60   29.30
  20 -12 -11  349.44   31.13
  18 -12 -11  -12.28   10.46
  16 -12 -11  498.84   35.88
  14 -12 -11  329.21   29.32
  12 -12 -11   -6.88   11.50
  10 -12 -11  828.00   44.72
   8 -12 -11  392.66   32.20
   6 -12 -11  193.14   27.61
   4 -12 -11 1033.84   52.90
   2 -12 -11  333.61   31.60
   0 -12 -11   98.89   24.01
  -2 -12 -11  533.70   40.55
  21 -13 -11    7.06   16.48
  19 -13 -11   -9.71   13.15
  17 -13 -11  -20.32   12.33
  15 -13 -11   -9.49   12.70
  13 -13 -11   -3.39   13.07
  11 -13 -11   10.36   13.70
   9 -13 -11   -8.92   11.73
   7 -13 -11   37.72   16.30
   5 -13 -11   -2.07   14.61
   3 -13 -11   -6.04   12.93
   1 -13 -11  -13.99   12.18
  18 -14 -11   -5.09   14.65
  16 -14 -11  494.88   37.87
  14 -14 -11  332.76   31.23
  12 -14 -11   41.24   17.90
  10 -14 -11  817.08   47.91
   8 -14 -11  261.05   29.13
   6 -14 -11  116.28   25.11
   4 -14 -11  622.29   42.96
 -16 -14  12    8.70   17.45
 -14 -14  12   27.98   19.44
 -12 -14  12   40.87   20.41
 -10 -14  12   -6.95   15.22
   8  14 -12   70.32   29.22
 -19 -13  12  -10.21   14.16
 -17 -13  12  467.78   40.16
 -15 -13  12  335.20   34.14
 -13 -13  12   94.34   23.71
 -11 -13  12 1054.09   55.33
  -9 -13  12  274.34   30.47
   7  13 -12  154.14   29.67
   5  13 -12 1203.89   61.86
   3  13 -12  173.86   29.92
 -22 -12  12  -20.33   15.12
 -20 -12  12   89.13   23.58
 -18 -12  12   43.82   20.06
 -16 -12  12   -9.70   12.46
 -14 -12  12   95.19   22.81
 -12 -12  12   59.62   17.95
 -10 -12  12   23.94   14.22
   6  12 -12   23.09   18.42
   4  12 -12   -9.78   15.61
   2  12 -12   31.77   20.27
   0  12 -12   27.82   18.37
 -25 -11  12   41.25   23.35
 -23 -11  12  113.76   28.58
 -21 -11  12  287.04   36.81
 -19 -11  12    4.43   14.24
 -17 -11  12  350.88   31.96
 -15 -11  12  342.78   30.35
 -13 -11  12    3.54   12.83
 -11 -11  12  512.50   35.31
  -9 -11  12   94.87   19.93
   7  11 -12   91.95   21.52
   5  11 -12  360.63   30.99
   3  11 -12  140.68   24.17
   1  11 -12   35.75   18.30
  -1  11 -12  446.46   36.00
 -26 -10  12  273.64   38.40
 -24 -10  12  420.34   38.28
 -22 -10  12   -8.67   12.76
 -20 -10  12  324.31   30.90
 -18 -10  12  537.56   37.69
 -16 -10  12   -1.04   13.09
 -14 -10  12  696.06   40.93
 -12 -10  12  506.35   33.99
 -10 -10  12   71.66   19.13
   6  10 -12  229.80   23.26
   4  10 -12  301.40   27.35
   2  10 -12  880.85   45.92
   0  10 -12   94.91   20.50
  -2  10 -12  282.04   33.56
  -4  10 -12  715.73   48.22
 -27  -9  12  -19.31   17.70
 -25  -9  12   -7.13   16.39
 -23  -9  12  -14.84   13.99
 -21  -9  12  -13.93   11.83
 -19  -9  12   -4.78   12.74
 -17  -9  12   -8.88   10.15
 -15  -9  12   -8.48   10.21
 -13  -9  12   -6.67   10.24
 -11  -9  12    3.70   11.13
  -9  -9  12   -5.57    8.87
   7   9 -12    8.85   10.69
   5   9 -12  -15.66    9.25
   3   9 -12   -0.24   11.08
   1   9 -12    0.08   13.24
  -1   9 -12   19.43   16.61
  -3   9 -12  -14.22   15.17
  -5   9 -12  -34.81   15.40
 -28  -8  12   -8.44   18.80
  28   8 -12   -5.47   12.36
  26   8 -12  376.23   30.37
 -26  -8  12  329.32   34.92
 -24  -8  12  619.18   43.77
  24   8 -12  590.67   35.89
 -22  -8  12   -5.41   13.83
  22   8 -12    2.07   11.31
 -20  -8  12  782.72   43.46
  20   8 -12  781.96   38.76
 -18  -8  12  766.16   41.51
  18   8 -12  794.40   38.33
 -16  -8  12    1.83   10.09
  16   8 -12   -2.06    9.11
  14   8 -12 1163.49   45.58
 -14  -8  12 1207.60   48.66
  12   8 -12  776.74   37.14
 -12  -8  12  871.17   40.51
 -10  -8  12    9.83   11.25
   6   8 -12  308.23   24.77
   4   8 -12  401.87   27.79
   2   8 -12 1355.23   53.40
   0   8 -12  246.53   26.25
  -2   8 -12  323.07   30.90
  -4   8 -12  879.14   49.85
 -29  -7  12   64.13   24.57
  29   7 -12  111.93   23.93
 -27  -7  12  320.08   35.77
  27   7 -12  309.91   29.29
  25   7 -12   20.31   12.82
 -25  -7  12  -10.63   15.97
  23   7 -12  277.31   24.96
 -23  -7  12  279.21   29.38
 -21  -7  12  312.19   28.27
  21   7 -12  311.14   25.41
 -19  -7  12   18.40   14.06
  19   7 -12   18.30   12.59
 -17  -7  12  614.52   34.66
  17   7 -12  667.10   35.27
 -15  -7  12  374.25   26.35
  15   7 -12  397.90   26.87
  13   7 -12    0.28    9.86
 -13  -7  12    4.23    8.76
 -11  -7  12  441.59   27.35
  -9  -7  12  255.48   21.14
   7   7 -12  144.11   18.03
   5   7 -12  641.27   32.80
   3   7 -12  204.81   24.31
   1   7 -12  198.91   25.94
  -1   7 -12  472.09   33.27
  30   6 -12  147.66   27.56
 -30  -6  12   75.88   26.15
 -28  -6  12    9.05   16.62
  28   6 -12   26.09   15.03
 -26  -6  12    9.57   16.41
  26   6 -12   52.96   17.78
  24   6 -12  211.99   22.91
 -24  -6  12  220.14   29.87
  22   6 -12   -5.67    9.66
 -22  -6  12  -18.29   11.84
 -20  -6  12  580.63   35.10
  20   6 -12  618.35   35.55
  18   6 -12  459.45   30.34
 -18  -6  12  479.44   30.45
 -16  -6  12  -12.65    7.94
  16   6 -12  -13.41    7.69
 -14  -6  12  387.63   25.03
  14   6 -12  419.27   27.71
 -12  -6  12  397.30   24.55
 -10  -6  12  137.09   17.80
   8   6 -12  384.44   23.82
  31   5 -12   67.92   21.84
  29   5 -12  394.95   33.77
  27   5 -12  674.03   41.23
 -25  -5  12   11.94   13.51
  25   5 -12    5.20   11.81
  23   5 -12  911.22   44.73
 -23  -5  12  991.72   47.58
 -21  -5  12  744.59   39.73
  21   5 -12  730.96   38.93
  19   5 -12   27.07   12.13
 -19  -5  12   11.97   11.59
  17   5 -12 1373.74   52.13
 -17  -5  12 1402.86   48.77
 -15  -5  12  989.57   38.33
  15   5 -12 1008.47   43.71
  13   5 -12  237.73   21.54
 -13  -5  12  163.39   16.52
  11   5 -12 3279.07   74.90
   9   5 -12 2407.01   64.79
   7   5 -12  339.27   24.85
  -5   5 -12  417.80   36.59
  -7   5 -12  853.35   53.22
  30   4 -12  -13.55   12.92
  28   4 -12   23.10   14.30
  26   4 -12    1.37   12.39
  24   4 -12   -1.67   10.98
  22   4 -12    6.85   10.83
  20   4 -12   46.18   15.35
  18   4 -12   47.82   13.90
  16   4 -12   -4.76    9.49
  14   4 -12  106.27   18.34
  12   4 -12   11.40    8.49
  10   4 -12   39.90   11.80
   8   4 -12  122.02   17.32
   6   4 -12   -9.31    8.19
   4   4 -12   12.03   11.65
   2   4 -12   56.58   15.78
   0   4 -12    6.27   12.11
  -2   4 -12   35.56   15.71
  -4   4 -12    5.87   15.15
  -6   4 -12   19.52   17.64
  -8   4 -12   -1.30   16.71
  31   3 -12   55.39   20.86
  29   3 -12  281.79   29.38
  27   3 -12  710.19   42.37
  25   3 -12    5.52   12.48
  23   3 -12 1100.22   49.94
  21   3 -12 1234.84   51.59
  19   3 -12   14.84   10.99
  17   3 -12 1280.26   50.89
  15   3 -12 1196.25   48.21
  13   3 -12  130.92   13.37
  11   3 -12 1626.40   48.09
   9   3 -12  952.33   37.52
   7   3 -12  296.18   22.79
   5   3 -12 1736.95   57.47
   3   3 -12  315.18   26.19
   1   3 -12  544.51   34.67
  -1   3 -12 1236.90   54.62
  -3   3 -12  219.33   28.90
  -5   3 -12  628.83   42.57
  -7   3 -12 1242.43   62.30
  -9   3 -12   43.13   19.93
  32   2 -12  286.02   36.70
  30   2 -12  252.86   29.05
  28   2 -12    3.71   13.66
  26   2 -12  229.62   24.67
  24   2 -12  392.74   30.26
  22   2 -12   68.69   17.57
  20   2 -12  458.32   31.23
  18   2 -12  774.47   39.56
  16   2 -12   14.38   10.81
  14   2 -12 1342.20   39.84
  12   2 -12  343.52   20.79
  10   2 -12  224.21   18.38
   8   2 -12 1138.54   42.06
   6   2 -12  900.94   39.08
   4   2 -12  277.78   23.07
   2   2 -12 1316.13   52.42
   0   2 -12  206.62   26.25
  -2   2 -12  359.36   30.29
  -4   2 -12  505.31   37.02
  -6   2 -12   22.19   16.13
  -8   2 -12  277.82   36.20
  31   1 -12    8.72   15.84
  29   1 -12   76.25   20.47
  27   1 -12  169.74   25.83
  25   1 -12   32.29   14.43
  23   1 -12    2.68   12.05
  21   1 -12  378.84   29.02
  19   1 -12   38.89   13.10
  17   1 -12  212.98   21.48
  15   1 -12  125.70   12.89
  15   1 -12  115.24   18.30
  13   1 -12   68.41   12.15
  11   1 -12  214.23   17.55
   9   1 -12   72.01   13.43
   7   1 -12    5.30    8.81
   5   1 -12  553.67   31.41
   3   1 -12   39.96   14.10
   1   1 -12  104.68   20.24
  -1   1 -12  167.50   24.59
  -3   1 -12    2.50   12.55
  -5   1 -12  154.65   27.04
  -7   1 -12  284.36   30.89
  -9   1 -12   16.40   20.55
  32   0 -12  101.30   24.36
  30   0 -12  585.74   41.24
  28   0 -12    8.75   13.77
  26   0 -12  481.17   35.18
  24   0 -12 1210.72   53.45
  22   0 -12   31.60   15.58
  20   0 -12 1860.01   64.68
  18   0 -12 1241.49   50.66
  16   0 -12   -5.06    8.02
  16   0 -12    3.57    7.23
  14   0 -12 1660.44   46.04
  12   0 -12  629.54   27.98
  10   0 -12  231.32   18.74
   8   0 -12 2663.80   68.49
   6   0 -12  613.44   31.88
   4   0 -12  309.74   24.37
   2   0 -12 3147.70   85.28
   0   0 -12  282.97   25.86
  -2   0 -12  550.03   36.57
  -4   0 -12 1426.99   61.77
  -6   0 -12   48.85   20.58
  -8   0 -12  497.56   41.16
  31  -1 -12    1.52   14.59
  29  -1 -12   81.49   20.64
  27  -1 -12  221.33   29.46
  25  -1 -12   14.48   13.87
  23  -1 -12    3.55   11.51
  21  -1 -12  367.05   28.74
  19  -1 -12    8.28   10.20
  17  -1 -12  226.28   21.93
  17  -1 -12  239.79   18.13
  15  -1 -12  128.02   13.41
  15  -1 -12  122.05   19.42
  13  -1 -12   46.70   11.74
  11  -1 -12  201.94   17.61
   9  -1 -12   55.31   13.57
   7  -1 -12    0.79    9.26
   5  -1 -12  535.83   30.89
   3  -1 -12   23.39   11.50
   1  -1 -12   94.42   18.86
  -1  -1 -12  202.37   26.45
  -3  -1 -12   -0.39   12.50
  -5  -1 -12  156.60   26.51
  -7  -1 -12  210.06   31.25
  -9  -1 -12   10.60   17.81
  32  -2 -12  237.77   34.75
  30  -2 -12  243.74   28.05
  28  -2 -12   20.12   16.25
  26  -2 -12  248.27   25.91
  24  -2 -12  374.47   30.48
  22  -2 -12   44.31   15.56
  20  -2 -12  471.83   31.78
  18  -2 -12  786.90   39.76
  16  -2 -12   18.09    9.37
  16  -2 -12   12.71    9.97
  14  -2 -12 1230.27   41.23
  12  -2 -12  337.09   21.76
  10  -2 -12  188.76   17.50
   8  -2 -12 1045.39   40.74
   6  -2 -12  844.24   38.00
   4  -2 -12  309.12   25.46
   2  -2 -12 1375.90   54.02
   0  -2 -12  176.02   24.75
  -2  -2 -12  293.86   28.24
  -4  -2 -12  442.41   34.52
  -6  -2 -12   13.47   16.86
  -8  -2 -12  266.94   35.51
  31  -3 -12   82.93   23.81
  29  -3 -12  278.91   29.20
  27  -3 -12  696.32   42.16
  25  -3 -12   -0.60   11.09
  23  -3 -12 1059.50   49.12
  21  -3 -12 1182.10   50.85
  19  -3 -12    3.99   10.32
  17  -3 -12 1229.94   49.57
  17  -3 -12 1220.36   41.79
  15  -3 -12 1276.26   43.79
  15  -3 -12 1250.07   48.85
  13  -3 -12  114.16   16.85
  11  -3 -12 1633.69   50.78
   9  -3 -12  896.72   37.49
   7  -3 -12  314.27   23.55
   5  -3 -12 1695.26   56.96
   3  -3 -12  323.84   25.92
   1  -3 -12  593.57   36.26
  -1  -3 -12 1257.98   55.31
  -3  -3 -12  198.77   28.09
  -5  -3 -12  676.95   43.91
  -7  -3 -12 1173.85   59.50
  -9  -3 -12   15.35   19.57
  30  -4 -12   -1.51   13.74
  28  -4 -12   -2.25   12.46
  26  -4 -12   17.46   13.60
  24  -4 -12   15.14   12.41
  22  -4 -12    4.09   10.32
  20  -4 -12   35.40   13.47
  18  -4 -12   59.70   15.59
  18  -4 -12   56.08   13.72
  16  -4 -12   10.18   10.16
  16  -4 -12   -4.85    9.46
  14  -4 -12   92.81   16.57
  12  -4 -12    8.61    9.62
  10  -4 -12   33.10   12.24
   8  -4 -12  109.64   17.10
   6  -4 -12    4.20    9.56
   4  -4 -12   12.61   11.08
   2  -4 -12   68.74   17.11
   0  -4 -12    4.57   10.64
  -2  -4 -12   38.86   15.71
  -4  -4 -12    3.08   14.27
  -6  -4 -12  -14.93   15.02
  -8  -4 -12   18.20   19.91
  29  -5 -12  409.87   35.25
  27  -5 -12  718.41   43.57
  25  -5 -12  -10.85   11.32
  23  -5 -12  980.78   47.74
  21  -5 -12  760.26   40.76
  19  -5 -12   21.12   12.09
  19  -5 -12   15.35   11.51
  17  -5 -12 1310.47   51.48
  17  -5 -12 1353.05   46.98
  15  -5 -12 1040.81   40.99
  15  -5 -12 1059.09   44.77
  13  -5 -12  214.26   19.85
  11  -5 -12 2919.54   76.08
   9  -5 -12 2063.09   62.59
   7  -5 -12  333.29   25.18
   5  -5 -12 2533.49   74.04
   3  -5 -12  480.51   31.88
   1  -5 -12  846.20   43.71
  -1  -5 -12 1251.26   55.58
  -3  -5 -12  167.66   26.53
  -5  -5 -12  361.37   34.48
  -7  -5 -12  734.50   48.53
  30  -6 -12  127.20   26.73
  28  -6 -12    7.20   14.00
  26  -6 -12   37.18   15.48
  24  -6 -12  204.38   23.32
  22  -6 -12   -8.79    9.04
  20  -6 -12  585.53   35.28
  20  -6 -12  643.52   33.19
  18  -6 -12  432.39   29.29
  18  -6 -12  436.93   27.85
  16  -6 -12   -4.66    8.41
  16  -6 -12   -0.35    8.59
  14  -6 -12  377.09   25.79
  14  -6 -12  416.18   27.37
  12  -6 -12  421.62   28.04
  10  -6 -12  139.02   21.11
   8  -6 -12  376.97   27.18
   6  -6 -12  119.09   20.35
   4  -6 -12   29.13   12.93
   2  -6 -12  406.13   30.62
   0  -6 -12  363.00   30.46
  -2  -6 -12   19.57   15.52
  -4  -6 -12  335.34   31.72
  -6  -6 -12    4.51   17.02
  -8  -6 -12  167.92   29.63
  29  -7 -12   93.57   23.68
  27  -7 -12  334.21   31.37
  25  -7 -12    1.67   12.79
  23  -7 -12  286.58   27.04
  21  -7 -12  331.47   25.83
  21  -7 -12  358.98   28.53
  19  -7 -12   24.23   12.65
  19  -7 -12   22.05   12.32
  17  -7 -12  618.45   34.03
  17  -7 -12  613.13   34.95
  15  -7 -12  425.61   28.76
  15  -7 -12  395.55   27.19
  13  -7 -12  -10.48    8.61
  11  -7 -12  454.97   29.94
   9  -7 -12  287.05   24.60
   7  -7 -12  138.91   21.43
   5  -7 -12  632.72   36.99
   3  -7 -12  181.35   25.35
   1  -7 -12  169.68   26.15
  -1  -7 -12  472.67   35.73
  -3  -7 -12   27.84   16.17
  -5  -7 -12  141.90   29.44
  -7  -7 -12  176.62   30.53
  22  -8 -12  -15.15    9.50
  20  -8 -12  847.49   41.26
  20  -8 -12  803.15   41.00
  18  -8 -12  839.56   40.87
  18  -8 -12  823.96   40.44
  16  -8 -12  -11.25    9.16
  16  -8 -12   -0.67   11.07
  14  -8 -12 1153.24   46.22
  14  -8 -12 1122.11   47.18
  12  -8 -12  797.16   39.63
  10  -8 -12   16.45   12.00
   8  -8 -12 1267.41   52.63
   6  -8 -12  313.24   27.33
   4  -8 -12  403.85   31.37
   2  -8 -12 1415.00   60.10
   0  -8 -12  247.31   27.15
  -2  -8 -12  366.24   33.46
  -4  -8 -12  816.45   49.67
  -6  -8 -12   54.53   22.38
  21  -9 -12   -8.52    9.84
  19  -9 -12   -4.52   10.74
  17  -9 -12   -3.22    9.11
  15  -9 -12    6.25   10.77
  13  -9 -12   -5.34    9.82
  11  -9 -12   31.48   13.70
   9  -9 -12   -8.13   10.41
   7  -9 -12   -2.87   11.43
   5  -9 -12   -0.66   11.93
   3  -9 -12   -3.24   12.18
   1  -9 -12   16.55   15.27
  -1  -9 -12   -1.01   13.33
  -3  -9 -12   -2.50   14.63
  -5  -9 -12  -12.38   14.82
  22 -10 -12   -6.60   11.91
  20 -10 -12  407.14   30.69
  18 -10 -12  597.55   36.94
  16 -10 -12   26.92   15.43
  14 -10 -12  727.28   39.95
  12 -10 -12  503.33   34.09
  10 -10 -12  102.74   20.11
   8 -10 -12 1094.72   50.45
   6 -10 -12  196.35   26.89
   4 -10 -12  326.03   30.58
   2 -10 -12  870.95   49.88
   0 -10 -12   90.91   23.98
  -2 -10 -12  297.93   38.49
  -4 -10 -12  675.29   47.49
  21 -11 -12  264.94   27.05
  19 -11 -12    6.50   12.53
  17 -11 -12  346.48   29.50
  15 -11 -12  338.12   28.99
  13 -11 -12   17.61   13.13
  11 -11 -12  532.94   36.05
   9 -11 -12  114.22   22.66
   7 -11 -12   78.57   21.66
   5 -11 -12  333.10   30.54
   3 -11 -12  111.14   23.68
   1 -11 -12   42.09   18.30
  -1 -11 -12  453.59   39.04
  22 -12 -12   -3.96   14.76
  20 -12 -12  125.25   24.77
  18 -12 -12   70.09   18.80
  16 -12 -12   10.71   12.49
  14 -12 -12   92.30   21.17
  12 -12 -12   67.30   18.55
  10 -12 -12   13.74   14.52
   8 -12 -12  194.02   27.82
   6 -12 -12   28.82   15.55
   4 -12 -12   -8.11   14.74
   2 -12 -12   40.69   19.94
   0 -12 -12   21.10   17.85
  19 -13 -12    6.07   15.35
  17 -13 -12  529.06   38.11
  15 -13 -12  408.86   33.96
  13 -13 -12  109.79   23.12
  11 -13 -12  983.75   51.61
   9 -13 -12  313.38   30.21
   7 -13 -12  105.73   24.47
   5 -13 -12 1154.84   58.49
   3 -13 -12  190.89   31.08
  16 -14 -12  -18.68   13.66
  14 -14 -12   35.13   17.72
  12 -14 -12   24.33   15.57
  10 -14 -12   -5.69   15.09
   8 -14 -12   26.64   17.42
 -17 -13  13   -6.82   13.11
 -15 -13  13    2.11   14.98
 -13 -13  13    0.16   15.86
 -11 -13  13  -15.09   13.13
   9  13 -13   11.66   22.97
   7  13 -13    6.46   19.29
 -20 -12  13   -7.97   14.70
 -18 -12  13  531.83   41.93
 -16 -12  13  474.53   38.64
 -14 -12  13   72.45   20.38
 -12 -12  13  842.25   48.76
 -10 -12  13  288.45   29.27
   8  12 -13  149.40   27.59
   6  12 -13  814.58   47.94
   4  12 -13  171.84   29.12
 -23 -11  13   -5.92   17.83
 -21 -11  13  316.67   34.01
 -19 -11  13  117.96   25.45
 -17 -11  13   76.68   21.98
 -15 -11  13  252.65   26.90
 -13 -11  13   81.94   20.13
 -11 -11  13  113.43   23.14
   7  11 -13  220.11   28.60
   5  11 -13   69.13   18.58
   3  11 -13  240.24   27.19
   1  11 -13   42.90   19.27
 -26 -10  13    3.91   19.07
 -24 -10  13   23.20   19.42
 -22 -10  13   95.44   24.75
 -20 -10  13  -14.13   12.86
 -18 -10  13   72.57   19.23
 -16 -10  13   45.56   17.31
 -14 -10  13   30.64   14.66
 -12 -10  13  186.73   24.71
 -10 -10  13   42.91   16.17
   8  10 -13  -10.05   11.39
   6  10 -13  154.78   25.29
   4  10 -13   19.58   15.49
   2  10 -13   36.08   16.18
 -27  -9  13  310.69   41.78
 -25  -9  13  618.53   45.06
 -23  -9  13  -10.13   14.55
 -21  -9  13  592.37   40.70
 -19  -9  13  563.79   38.35
 -17  -9  13   42.78   16.88
 -15  -9  13  969.36   46.76
 -13  -9  13  644.46   37.62
 -11  -9  13  255.62   25.45
   9   9 -13 1140.59   48.92
   7   9 -13  131.15   21.17
  28   8 -13   13.48   14.22
  26   8 -13    8.70   13.46
 -24  -8  13    6.54   15.25
  24   8 -13   18.00   13.34
  22   8 -13   -4.48   11.20
 -22  -8  13    8.01   14.22
  20   8 -13    0.61   10.81
 -20  -8  13   -6.50   12.49
 -18  -8  13   45.31   16.48
  18   8 -13   39.62   14.92
 -16  -8  13   52.06   15.28
  16   8 -13   55.77   16.40
 -14  -8  13  -10.69    9.74
  14   8 -13    4.63   10.80
  12   8 -13   39.93   15.03
 -12  -8  13   40.59   14.55
  29   7 -13  -11.86   13.57
  27   7 -13  301.39   29.57
  25   7 -13  344.43   29.22
  23   7 -13  -10.32    9.26
  21   7 -13  762.75   40.05
  19   7 -13  236.22   23.40
  17   7 -13   28.53   13.80
  15   7 -13  736.19   38.46
  13   7 -13  476.10   31.08
  11   7 -13   43.94   13.63
  30   6 -13  249.34   28.68
  28   6 -13  517.04   37.83
  26   6 -13   46.39   16.70
  24   6 -13  591.32   36.96
  22   6 -13  452.78   31.84
  20   6 -13   -8.53   10.56
  18   6 -13  918.60   43.27
  16   6 -13  670.90   36.66
  14   6 -13  132.49   21.96
  10   6 -13  423.39   27.66
   8   6 -13  208.30   21.57
  -4   6 -13  486.25   41.41
  31   5 -13   54.92   20.22
  29   5 -13   13.60   15.59
  27   5 -13   -3.77   11.07
  25   5 -13   13.33   14.90
  23   5 -13    5.85   12.12
  21   5 -13    1.80   11.39
  19   5 -13   59.34   15.76
  17   5 -13    6.84   10.67
  15   5 -13   76.28   16.58
  11   5 -13  169.85   18.46
   9   5 -13   23.26   11.51
   7   5 -13   -8.73    9.68
   5   5 -13   -1.73   10.23
   3   5 -13   90.18   20.45
   1   5 -13   21.26   14.91
  -1   5 -13   25.32   17.20
  -3   5 -13    3.92   13.63
  -5   5 -13   -1.97   17.26
  30   4 -13  451.53   36.42
  28   4 -13  641.24   41.39
  26   4 -13  -14.02   11.55
  24   4 -13 1013.68   49.37
  22   4 -13 1239.86   53.80
  20   4 -13    7.49   12.29
  18   4 -13 1591.54   59.37
  16   4 -13  876.52   42.69
  12   4 -13 2821.20   69.66
  10   4 -13 1205.88   44.82
   8   4 -13  193.08   19.92
   6   4 -13 2529.42   74.62
   4   4 -13  547.43   34.88
   2   4 -13  386.56   31.93
   0   4 -13 1357.06   60.60
  -2   4 -13  152.67   26.56
  -4   4 -13  678.16   46.60
  -6   4 -13 1010.53   58.67
  31   3 -13  115.75   24.57
  29   3 -13    1.37   14.39
  27   3 -13  158.97   25.42
  25   3 -13  190.02   26.89
  23   3 -13   -2.61   11.01
  21   3 -13  173.07   25.04
  19   3 -13  149.63   23.43
  17   3 -13   13.89   11.67
  15   3 -13  594.67   34.89
  13   3 -13  173.73   16.96
  11   3 -13   -0.24    8.32
   9   3 -13  665.98   33.49
   7   3 -13    5.82   10.57
   5   3 -13  293.93   25.47
   3   3 -13  574.11   36.21
   1   3 -13   -4.32   10.73
  -1   3 -13   47.89   18.39
  -3   3 -13  276.97   34.03
  -5   3 -13    7.88   15.35
  -7   3 -13   93.15   26.18
  32   2 -13   12.03   16.89
  30   2 -13  395.63   35.13
  28   2 -13  323.42   30.43
  26   2 -13    7.77   12.98
  24   2 -13  371.00   30.31
  22   2 -13  519.09   35.03
  20   2 -13   -7.07    9.62
  18   2 -13  355.76   28.12
  16   2 -13  562.42   34.13
  14   2 -13   69.22   13.52
  12   2 -13  959.13   36.85
  10   2 -13  323.25   23.27
   8   2 -13  655.23   34.38
   6   2 -13 1055.75   45.30
   4   2 -13  225.02   22.74
   2   2 -13  302.17   27.55
   0   2 -13  656.84   41.23
  -2   2 -13  119.40   24.34
  -4   2 -13  441.50   37.41
  -6   2 -13  578.66   43.92
  31   1 -13  457.24   37.76
  29   1 -13   43.76   17.43
  27   1 -13  360.28   31.49
  25   1 -13  601.93   39.07
  23   1 -13   14.09   12.71
  21   1 -13 1567.81   61.01
  19   1 -13 1174.31   51.43
  17   1 -13   57.80   15.39
  15   1 -13 1427.68   43.41
  13   1 -13  535.98   27.16
  11   1 -13  109.78   16.75
   9   1 -13 1635.60   53.15
   7   1 -13 1043.02   43.75
   5   1 -13  562.58   33.67
   3   1 -13 1874.39   65.69
   1   1 -13   44.40   18.45
  -1   1 -13  510.29   37.34
  -3   1 -13  943.60   52.22
  -5   1 -13   11.49   17.32
  -7   1 -13  426.12   39.26
  32   0 -13   -6.49   14.52
  30   0 -13    4.04   14.27
  28   0 -13  -16.15    9.70
  26   0 -13   -4.45   11.91
  24   0 -13  -13.76    9.71
  22   0 -13  -10.67    8.93
  20   0 -13  -13.19    9.17
  18   0 -13   -4.95    8.13
  16   0 -13   -4.70    6.74
  16   0 -13   -3.85    8.61
  14   0 -13   -6.64    7.58
  12   0 -13   -4.87    7.66
  10   0 -13  -11.97    7.90
   8   0 -13  -11.31    7.68
   6   0 -13    6.77   10.08
   4   0 -13  -11.55    9.76
   2   0 -13    4.37   11.18
   0   0 -13   15.59   13.04
  -2   0 -13   -3.29   13.21
  -4   0 -13    3.94   14.60
  -6   0 -13   -9.28   16.08
  31  -1 -13  452.20   38.19
  29  -1 -13   51.83   17.76
  27  -1 -13  372.83   32.03
  25  -1 -13  614.26   39.41
  23  -1 -13   -6.98   10.90
  19  -1 -13 1261.87   53.26
  17  -1 -13   82.45   13.71
  17  -1 -13   52.11   15.34
  15  -1 -13 1384.62   44.51
  13  -1 -13  499.11   26.71
  11  -1 -13  136.25   18.73
   9  -1 -13 1630.98   53.51
   7  -1 -13  931.07   41.58
   5  -1 -13  574.73   34.12
   3  -1 -13 1908.15   66.10
   1  -1 -13   70.84   18.92
  -1  -1 -13  541.10   37.45
  -3  -1 -13  930.37   51.01
  -5  -1 -13   -3.19   15.12
  -7  -1 -13  439.80   38.85
  32  -2 -13   11.53   16.64
  30  -2 -13  375.65   34.11
  28  -2 -13  312.57   30.74
  26  -2 -13   -6.06   12.77
  24  -2 -13  350.39   29.97
  22  -2 -13  453.76   32.85
  20  -2 -13   -8.40    9.73
  18  -2 -13  358.88   28.41
  16  -2 -13  564.04   28.85
  16  -2 -13  587.60   34.60
  14  -2 -13   62.01   13.96
  12  -2 -13  954.86   38.33
  10  -2 -13  289.63   22.49
   8  -2 -13  651.96   34.44
   6  -2 -13 1069.57   45.87
   4  -2 -13  217.24   23.26
   2  -2 -13  315.27   27.82
   0  -2 -13  621.33   40.17
  -2  -2 -13   67.25   20.12
  -4  -2 -13  432.77   36.52
  -6  -2 -13  568.59   44.22
  31  -3 -13  115.49   26.08
  29  -3 -13  -13.81   12.66
  27  -3 -13  124.58   23.94
  25  -3 -13  194.15   26.96
  23  -3 -13   -3.03   12.83
  21  -3 -13  163.93   24.63
  19  -3 -13  119.53   21.88
  17  -3 -13    3.46   10.41
  17  -3 -13    8.38   10.56
  15  -3 -13  612.38   31.10
  13  -3 -13  196.09   18.58
  11  -3 -13   -7.60    7.66
   9  -3 -13  630.14   33.37
   7  -3 -13   11.42   11.35
   5  -3 -13  248.79   23.82
   3  -3 -13  539.31   34.91
   1  -3 -13    6.16   12.47
  -1  -3 -13   31.87   17.55
  -3  -3 -13  281.24   30.35
  -5  -3 -13   -4.16   15.38
  -7  -3 -13   49.17   21.99
  30  -4 -13  389.12   34.62
  28  -4 -13  664.45   42.95
  26  -4 -13   -9.12   10.24
  24  -4 -13  985.13   49.25
  22  -4 -13 1265.52   54.72
  20  -4 -13    0.58    9.99
  18  -4 -13 1573.93   58.95
  18  -4 -13 1573.68   50.92
  16  -4 -13  866.30   37.96
  16  -4 -13  824.61   40.96
  14  -4 -13  187.77   19.48
  12  -4 -13 2624.06   71.38
  10  -4 -13 1087.79   44.38
   8  -4 -13  190.97   20.08
   6  -4 -13 2313.66   71.01
   4  -4 -13  491.92   32.95
   2  -4 -13  404.29   32.23
   0  -4 -13 1344.69   58.99
  -2  -4 -13  157.12   27.69
  -4  -4 -13  628.75   43.40
  -6  -4 -13  865.14   52.95
  31  -5 -13   25.70   17.77
  29  -5 -13   14.57   16.26
  27  -5 -13  -10.34   11.73
  25  -5 -13  -20.35   10.32
  23  -5 -13    1.94   11.61
  21  -5 -13   -8.12    9.65
  19  -5 -13   70.52   17.35
  19  -5 -13   44.89   14.27
  17  -5 -13   24.66   12.54
  17  -5 -13   14.02    9.94
  15  -5 -13  109.73   18.97
  15  -5 -13   85.92   17.69
  13  -5 -13   68.79   16.27
  11  -5 -13  161.70   21.75
   9  -5 -13   16.23   11.88
   7  -5 -13   -0.26   10.05
   5  -5 -13   -5.45   10.11
   3  -5 -13   97.68   20.31
   1  -5 -13   20.43   15.84
  -1  -5 -13    4.16   15.38
  -3  -5 -13   26.62   17.97
  -5  -5 -13  -11.29   16.07
  30  -6 -13  250.70   28.87
  28  -6 -13  584.22   41.11
  26  -6 -13   29.96   15.42
  24  -6 -13  544.85   37.15
  22  -6 -13  392.27   30.57
  20  -6 -13   -5.46    9.77
  20  -6 -13   -8.28   10.54
  18  -6 -13  952.15   44.68
  18  -6 -13  916.88   40.83
  16  -6 -13  670.83   34.94
  16  -6 -13  626.09   35.96
  14  -6 -13  132.03   19.99
  12  -6 -13 1458.66   53.99
  10  -6 -13  389.13   28.72
   8  -6 -13  172.14   23.81
   6  -6 -13  998.10   47.04
   4  -6 -13  211.77   23.43
   2  -6 -13  613.01   39.91
   0  -6 -13 1167.83   55.93
  -2  -6 -13   86.49   22.63
  -4  -6 -13  388.18   36.96
  29  -7 -13  -16.25   14.41
  27  -7 -13  292.27   29.38
  25  -7 -13  318.93   29.50
  23  -7 -13   -6.86   10.05
  21  -7 -13  691.41   39.32
  21  -7 -13  759.72   38.47
  19  -7 -13  260.37   23.27
  19  -7 -13  258.36   23.86
  17  -7 -13   23.83   13.44
  17  -7 -13    9.06   11.30
  15  -7 -13  737.29   37.93
  15  -7 -13  701.64   36.73
  13  -7 -13  542.78   32.87
  11  -7 -13   37.09   14.47
   9  -7 -13  687.32   38.93
   7  -7 -13  160.05   23.78
   5  -7 -13  279.96   26.83
   3  -7 -13  905.36   47.98
   1  -7 -13   92.00   21.95
  -1  -7 -13  234.74   32.21
  -3  -7 -13  442.08   37.69
  -5  -7 -13   21.04   18.65
  22  -8 -13   18.27   11.88
  20  -8 -13   -4.76   12.38
  20  -8 -13    2.29   11.27
  18  -8 -13   20.44   13.80
  18  -8 -13   54.17   16.21
  16  -8 -13   68.90   15.85
  16  -8 -13   77.69   17.41
  14  -8 -13   12.45   11.36
  14  -8 -13    3.53   10.53
  12  -8 -13   44.77   14.67
  10  -8 -13   36.29   15.15
   8  -8 -13   73.41   18.39
   6  -8 -13  130.26   24.31
   4  -8 -13    2.45   13.30
   2  -8 -13   15.57   14.97
   0  -8 -13   20.01   16.72
  -2  -8 -13   10.32   15.91
  -4  -8 -13   43.57   22.44
  21  -9 -13  615.79   36.92
  19  -9 -13  605.55   36.37
  17  -9 -13   57.88   16.10
  15  -9 -13  978.46   46.13
  13  -9 -13  595.90   36.75
  11  -9 -13  277.21   26.34
   9  -9 -13 1071.24   50.07
   7  -9 -13  149.98   24.64
   5  -9 -13  367.74   32.05
   3  -9 -13 1252.54   59.58
   1  -9 -13  145.39   28.87
  -1  -9 -13  495.66   41.17
  -3  -9 -13  825.67   53.19
  22 -10 -13  104.29   21.07
  20 -10 -13   -2.44   13.08
  18 -10 -13   70.88   19.52
  16 -10 -13   76.29   19.96
  14 -10 -13   29.93   15.37
  12 -10 -13  213.08   27.25
  10 -10 -13   60.68   18.52
   8 -10 -13   -3.69   10.81
   6 -10 -13  134.10   26.14
   4 -10 -13   19.26   15.80
   2 -10 -13   25.71   20.03
   0 -10 -13  127.05   27.46
  23 -11 -13    6.82   13.43
  21 -11 -13  327.40   30.43
  19 -11 -13  218.31   28.88
  17 -11 -13   64.78   18.54
  15 -11 -13  286.92   28.20
  13 -11 -13   68.23   19.74
  11 -11 -13  135.10   23.80
   9 -11 -13  396.84   33.39
   7 -11 -13  117.07   23.72
   5 -11 -13   68.74   21.24
   3 -11 -13  268.69   30.18
   1 -11 -13   28.03   19.19
  22 -12 -13  272.80   33.21
  20 -12 -13    2.82   14.49
  18 -12 -13  470.57   35.93
  16 -12 -13  487.23   36.57
  14 -12 -13  105.98   24.27
  12 -12 -13  820.45   46.13
  10 -12 -13  282.35   29.21
   8 -12 -13  147.46   26.23
   6 -12 -13  794.12   48.00
   4 -12 -13  116.44   25.66
  17 -13 -13   -3.87   12.81
  15 -13 -13    6.94   14.55
  13 -13 -13   -4.97   13.65
  11 -13 -13   12.48   15.80
   9 -13 -13  -12.52   12.24
   7 -13 -13   -6.93   14.34
 -18 -12  14   46.56   20.26
 -16 -12  14  155.61   26.74
 -14 -12  14   47.84   21.84
 -12 -12  14   25.17   16.66
  28   8 -14  368.24   32.10
  26   8 -14  518.04   35.66
  24   8 -14   -4.66   12.13
  22   8 -14  450.84   32.35
  20   8 -14  406.80   30.58
  18   8 -14   22.25   12.39
  16   8 -14  981.58   45.99
  14   8 -14  405.96   29.82
  29   7 -14   97.96   22.80
  27   7 -14  -11.64   12.16
  25   7 -14  241.66   25.90
  23   7 -14  166.38   24.00
  21   7 -14    8.15   11.37
  19   7 -14  432.41   31.05
  17   7 -14  169.19   24.43
  15   7 -14   24.87   14.27
  11   7 -14  284.18   24.62
   9   7 -14  122.45   21.41
  -1   7 -14   29.66   20.74
  28   6 -14  158.98   26.33
  26   6 -14  119.88   22.71
  24   6 -14   16.80   15.02
  22   6 -14  219.92   23.75
  20   6 -14  173.61   24.76
  18   6 -14   39.05   16.08
  16   6 -14  495.62   33.03
  14   6 -14  308.50   26.54
  10   6 -14  257.44   23.46
   8   6 -14   75.71   19.61
   6   6 -14   94.96   21.23
   4   6 -14  591.16   41.27
   2   6 -14   55.51   21.92
   0   6 -14   79.28   23.41
  -2   6 -14  269.85   38.72
  29   5 -14  439.62   35.78
  27   5 -14    0.66   13.32
  25   5 -14  733.59   43.28
  23   5 -14 1297.82   56.77
  21   5 -14   16.44   13.96
  19   5 -14 1151.81   51.63
  17   5 -14  796.11   42.23
  15   5 -14  157.46   24.39
  11   5 -14  524.40   30.57
   9   5 -14  263.23   24.89
   7   5 -14 1511.34   59.02
   5   5 -14  193.56   26.56
   3   5 -14  536.88   39.33
   1   5 -14 1211.65   60.59
  -1   5 -14   71.28   21.93
  -3   5 -14  615.84   47.70
  30   4 -14   -0.67   15.61
  28   4 -14   31.91   17.01
  26   4 -14   46.75   18.57
  24   4 -14   -8.24   13.18
  22   4 -14    9.30   13.18
  20   4 -14   -7.89    9.86
  18   4 -14   89.72   19.34
  16   4 -14   28.88   14.52
  12   4 -14   13.69   11.36
  10   4 -14  102.03   18.55
   8   4 -14   21.58   12.61
   6   4 -14   12.23   13.27
   4   4 -14   46.69   17.04
   2   4 -14  -25.84   12.46
   0   4 -14    6.28   16.44
  -2   4 -14   32.65   18.99
  -4   4 -14    8.65   18.29
  31   3 -14  381.66   35.07
  29   3 -14  500.20   38.24
  27   3 -14    5.22   13.84
  25   3 -14  549.01   37.65
  23   3 -14  378.95   31.16
  21   3 -14  -11.20    9.60
  19   3 -14  951.15   47.30
  17   3 -14  554.74   35.73
  13   3 -14 2024.42   58.35
  11   3 -14  358.24   25.67
   9   3 -14  148.63   22.25
   7   3 -14 1479.64   56.43
   5   3 -14  508.29   34.81
   3   3 -14  462.25   34.66
   1   3 -14  963.34   51.94
  -1   3 -14   20.07   16.98
  -3   3 -14  641.35   46.24
  30   2 -14   -0.41   13.26
  28   2 -14  297.43   29.98
  26   2 -14  342.33   31.24
  24   2 -14    5.98   13.53
  22   2 -14  997.42   50.00
  20   2 -14  414.97   32.78
  18   2 -14   67.79   18.14
  16   2 -14  887.90   44.60
  14   2 -14  472.17   27.00
  12   2 -14  187.39   19.26
  10   2 -14 1736.68   56.87
   8   2 -14   39.67   15.02
   6   2 -14 1055.18   48.21
   4   2 -14  837.66   45.02
   2   2 -14   60.75   18.96
   0   2 -14  198.71   29.27
  -2   2 -14  645.33   45.19
  -4   2 -14    3.56   18.64
  31   1 -14   20.33   17.35
  29   1 -14   79.87   21.97
  27   1 -14   10.78   14.46
  25   1 -14   68.85   19.11
  23   1 -14  141.18   24.44
  21   1 -14   -1.31   11.43
  19   1 -14  126.04   21.42
  17   1 -14   81.42   18.31
  15   1 -14   16.72    9.71
  13   1 -14  219.50   19.84
  11   1 -14    6.96    9.57
   9   1 -14  283.89   23.76
   7   1 -14  369.37   28.25
   5   1 -14   35.26   15.21
   3   1 -14   97.20   21.07
   1   1 -14  204.77   28.92
  -1   1 -14    8.32   17.13
  -3   1 -14   10.19   18.15
  -5   1 -14  116.56   28.99
  32   0 -14  783.33   50.65
  30   0 -14    6.22   14.60
  28   0 -14  569.26   40.60
  26   0 -14  440.72   35.09
  24   0 -14   59.58   20.05
  22   0 -14 1653.90   65.21
  20   0 -14  739.32   42.05
  18   0 -14  188.76   26.84
  16   0 -14 1296.61   54.41
  16   0 -14 1410.63   45.21
  14   0 -14  742.87   33.74
  12   0 -14  229.71   20.72
  10   0 -14 2445.13   69.99
   8   0 -14  636.69   35.53
   6   0 -14  688.98   38.74
   4   0 -14 1533.08   60.36
   2   0 -14   60.97   18.47
   0   0 -14  752.90   45.58
  -2   0 -14 1247.48   61.27
  -4   0 -14   -5.19   17.44
  31  -1 -14    8.16   16.74
  29  -1 -14   71.92   20.50
  27  -1 -14    8.06   12.92
  25  -1 -14   93.83   22.13
  23  -1 -14  127.87   23.25
  21  -1 -14    1.09   11.47
  19  -1 -14   88.50   18.75
  17  -1 -14   63.83   16.74
  17  -1 -14   78.37   14.81
  15  -1 -14    6.19    8.96
  13  -1 -14  173.61   18.58
  11  -1 -14    9.28   11.08
   9  -1 -14  283.05   24.44
   7  -1 -14  447.59   30.91
   5  -1 -14   41.25   16.05
   3  -1 -14  153.33   24.93
   1  -1 -14  210.36   28.82
  -1  -1 -14   24.10   15.98
  -3  -1 -14   44.68   19.98
  -5  -1 -14  182.27   31.87
  30  -2 -14  -14.62   11.22
  28  -2 -14  334.36   31.72
  26  -2 -14  398.55   33.52
  24  -2 -14    9.91   14.47
  22  -2 -14  909.16   47.59
  20  -2 -14  377.56   30.26
  18  -2 -14   78.80   17.92
  16  -2 -14  842.43   36.65
  14  -2 -14  441.21   26.69
  12  -2 -14  178.32   19.11
  10  -2 -14 1639.39   56.22
   8  -2 -14   45.07   15.13
   6  -2 -14  998.59   46.59
   4  -2 -14  856.94   45.12
   2  -2 -14   64.18   19.30
   0  -2 -14  227.73   31.42
  -2  -2 -14  623.53   43.79
  -4  -2 -14   14.76   18.68
  31  -3 -14  373.80   35.98
  29  -3 -14  441.83   36.39
  27  -3 -14    0.28   13.36
  25  -3 -14  564.76   38.55
  23  -3 -14  372.39   31.16
  21  -3 -14   -9.35   10.94
  19  -3 -14  907.44   45.65
  17  -3 -14  507.28   29.18
  17  -3 -14  542.34   34.68
  15  -3 -14  154.11   19.90
  13  -3 -14 1914.87   59.95
  11  -3 -14  340.82   25.41
   9  -3 -14  204.80   25.06
   7  -3 -14 1475.12   56.97
   5  -3 -14  522.57   34.80
   3  -3 -14  476.14   35.10
   1  -3 -14  893.57   49.44
  -1  -3 -14    3.05   13.68
  -3  -3 -14  579.94   43.71
  -5  -3 -14  580.64   44.41
  30  -4 -14    2.23   14.80
  28  -4 -14   31.63   17.48
  26  -4 -14   66.18   19.73
  24  -4 -14    7.17   13.88
  22  -4 -14    6.19   12.79
  20  -4 -14   -9.05   10.81
  18  -4 -14  101.52   19.88
  18  -4 -14   83.81   16.72
  16  -4 -14   42.76   14.55
  16  -4 -14   47.54   13.94
  14  -4 -14   13.51   12.17
  12  -4 -14   -9.46   10.01
  10  -4 -14  107.62   19.04
   8  -4 -14   18.25   13.09
   6  -4 -14   20.36   13.99
   4  -4 -14   36.76   15.58
   2  -4 -14   -7.35   12.71
   0  -4 -14    9.74   16.01
  -2  -4 -14   32.15   19.56
  -4  -4 -14   -0.06   18.97
  29  -5 -14  453.23   37.25
  27  -5 -14   -3.22   11.71
  25  -5 -14  749.76   44.21
  23  -5 -14 1188.49   54.54
  21  -5 -14   -4.72   10.99
  19  -5 -14 1076.68   50.09
  19  -5 -14 1216.12   46.54
  17  -5 -14  838.27   38.81
  17  -5 -14  737.13   40.37
  15  -5 -14  142.91   20.90
  13  -5 -14 1319.01   51.28
  11  -5 -14  453.63   30.55
   9  -5 -14  198.51   22.05
   7  -5 -14 1350.64   55.37
   5  -5 -14  127.33   22.90
   3  -5 -14  467.85   35.36
   1  -5 -14 1213.05   58.23
  -1  -5 -14   22.51   17.37
  -3  -5 -14  533.40   43.25
  28  -6 -14   73.13   21.00
  24  -6 -14    3.58   12.80
  22  -6 -14  218.55   24.48
  20  -6 -14  174.98   25.06
  20  -6 -14  150.39   22.55
  18  -6 -14   27.23   12.89
  18  -6 -14   25.13   14.15
  16  -6 -14  509.61   31.65
  16  -6 -14  503.31   33.27
  14  -6 -14  308.64   26.59
  12  -6 -14   35.36   14.62
  10  -6 -14  189.96   25.01
   8  -6 -14   34.53   16.07
   6  -6 -14  112.15   21.89
   4  -6 -14  514.78   36.87
   2  -6 -14   36.74   19.36
   0  -6 -14  137.42   27.00
  -2  -6 -14  202.52   31.40
  29  -7 -14   93.45   23.58
  27  -7 -14  -11.38   13.89
  25  -7 -14  245.30   27.40
  23  -7 -14  123.22   22.82
  21  -7 -14   -0.76   12.75
  21  -7 -14    3.92   12.66
  19  -7 -14  397.87   28.64
  19  -7 -14  398.51   31.11
  17  -7 -14  217.76   22.71
  17  -7 -14  184.17   21.91
  15  -7 -14   23.35   13.66
  15  -7 -14   21.46   13.73
  13  -7 -14  487.75   32.75
  11  -7 -14  211.35   23.06
   9  -7 -14  130.00   23.19
   7  -7 -14  542.47   36.58
   5  -7 -14   21.62   15.26
   3  -7 -14  284.00   35.63
   1  -7 -14  391.02   35.02
  -1  -7 -14   36.46   19.88
  20  -8 -14  415.80   30.16
  20  -8 -14  452.74   32.71
  18  -8 -14   22.72   15.76
  18  -8 -14   13.80   13.16
  16  -8 -14 1067.81   48.02
  16  -8 -14 1043.51   47.69
  14  -8 -14  390.48   29.50
  12  -8 -14  289.48   26.42
  10  -8 -14  766.47   43.13
   8  -8 -14  151.50   25.44
   6  -8 -14  384.50   33.71
   4  -8 -14 1126.69   57.14
   2  -8 -14   49.70   20.01
   0  -8 -14  411.79   38.56
  21  -9 -14   -6.54   12.03
  19  -9 -14   11.10   12.30
  17  -9 -14   -5.70   10.59
  15  -9 -14   -6.29   11.58
  13  -9 -14   14.40   12.34
  11  -9 -14    1.48   11.19
   9  -9 -14  -14.65   11.48
   7  -9 -14    2.23   12.50
   5  -9 -14   -6.70   15.21
   3  -9 -14   -0.28   16.48
   1  -9 -14    1.78   16.44
  22 -10 -14  466.63   34.65
  20 -10 -14  232.82   29.86
  18 -10 -14    7.11   14.21
  16 -10 -14  627.84   38.70
  14 -10 -14  138.94   24.01
  12 -10 -14  306.32   28.91
  10 -10 -14  741.64   43.55
   8 -10 -14  158.38   26.21
   6 -10 -14  259.57   34.34
   4 -10 -14  439.36   38.60
   2 -10 -14   20.78   18.76
  23 -11 -14  126.96   24.37
  21 -11 -14  -12.82   13.38
  19 -11 -14  397.52   32.57
  17 -11 -14  177.37   27.12
  15 -11 -14   82.51   19.53
  13 -11 -14  538.22   37.84
  11 -11 -14  233.47   30.37
   9 -11 -14   98.25   22.44
   7 -11 -14  455.14   37.39
   5 -11 -14   85.18   23.01
  20 -12 -14    7.26   15.63
  18 -12 -14   18.07   16.13
  16 -12 -14  203.95   28.84
  14 -12 -14   46.28   17.09
  12 -12 -14   24.40   17.29
  10 -12 -14  178.32   28.40
   8 -12 -14   57.38   20.16
  26   8 -15   38.61   18.15
  24   8 -15    6.84   13.09
  22   8 -15   61.32   18.57
  20   8 -15   46.41   15.96
  18   8 -15   48.29   16.30
  16   8 -15   -3.12    9.86
   8   8 -15  158.07   27.78
   6   8 -15  -11.97   15.61
   4   8 -15   27.94   20.70
   2   8 -15  186.01   33.78
  27   7 -15  251.92   27.77
  25   7 -15    3.28   14.69
  23   7 -15  531.39   36.74
  21   7 -15  181.70   25.97
  19   7 -15   57.38   16.88
  17   7 -15  826.28   44.31
  15   7 -15  291.03   27.92
   9   7 -15  166.25   25.96
   7   7 -15  450.66   36.53
   5   7 -15 1102.62   59.47
   3   7 -15   56.20   23.36
   1   7 -15  388.71   39.77
  28   6 -15   -3.25   12.84
  26   6 -15  606.93   40.56
  24   6 -15  380.15   31.84
  22   6 -15    3.81   13.18
  20   6 -15  629.67   39.13
  18   6 -15  225.42   25.07
  16   6 -15   82.60   21.94
  10   6 -15  261.54   25.53
   8   6 -15  958.00   49.97
   6   6 -15   52.13   18.63
   4   6 -15  411.46   36.82
   2   6 -15  622.67   46.18
   0   6 -15   11.95   18.22
  29   5 -15   25.74   17.77
  27   5 -15   19.55   15.99
  25   5 -15    0.85   12.94
  23   5 -15   96.63   22.97
  21   5 -15  123.90   22.38
  19   5 -15   12.19   13.13
  17   5 -15   92.92   19.97
  11   5 -15   -3.50   11.13
   9   5 -15  -11.51   10.12
   7   5 -15    8.42   13.00
   5   5 -15  156.47   27.08
   3   5 -15   -8.59   15.63
   1   5 -15   11.18   18.66
  -1   5 -15   46.37   21.99
  30   4 -15  419.02   36.38
  28   4 -15   -6.86   12.70
  26   4 -15  525.47   38.26
  24   4 -15  473.56   35.98
  22   4 -15   28.24   16.60
  20   4 -15  798.49   45.06
  18   4 -15  674.57   40.69
  16   4 -15  200.59   23.68
  12   4 -15  488.81   31.01
  10   4 -15  549.33   34.35
   8   4 -15 1446.93   58.65
   6   4 -15  210.81   29.03
   4   4 -15  507.49   38.80
   2   4 -15  901.67   52.36
   0   4 -15   -4.96   16.50
  31   3 -15   -5.19   14.09
  29   3 -15  278.17   30.88
  27   3 -15  193.40   29.71
  25   3 -15   -9.45   11.22
  23   3 -15  301.77   29.21
  21   3 -15  144.08   24.41
  19   3 -15  113.22   21.44
  17   3 -15  260.09   26.30
  13   3 -15  112.60   18.38
  11   3 -15  248.85   22.70
   9   3 -15   81.55   18.95
   7   3 -15  229.05   25.97
   5   3 -15  195.28   28.90
   3   3 -15    7.46   16.40
   1   3 -15  201.99   31.06
  -1   3 -15  189.25   33.48
  30   2 -15  346.29   34.31
  28   2 -15  -13.51   11.71
  26   2 -15  301.62   30.28
  24   2 -15  369.30   32.60
  22   2 -15   38.50   16.55
  20   2 -15  638.65   40.34
  18   2 -15   97.79   21.10
  14   2 -15  814.06   37.37
  12   2 -15  236.08   22.23
  10   2 -15   33.38   15.08
   8   2 -15 1221.72   52.37
   6   2 -15  235.20   29.48
   4   2 -15  228.42   30.84
   2   2 -15  445.20   36.74
   0   2 -15   22.21   18.81
  -2   2 -15  186.18   33.63
  31   1 -15   -1.07   14.24
  29   1 -15  326.79   32.71
  27   1 -15  354.95   33.41
  25   1 -15   84.09   22.08
  23   1 -15  976.71   51.50
  21   1 -15  441.74   34.46
  19   1 -15   31.13   15.19
  17   1 -15 1224.81   54.39
  15   1 -15  620.09   31.84
  13   1 -15  550.11   31.35
  11   1 -15 1518.74   54.97
   9   1 -15   13.64   12.50
   7   1 -15  810.76   43.25
   5   1 -15 1144.44   53.60
   3   1 -15   92.67   22.19
   1   1 -15  697.89   45.56
  -1   1 -15  935.92   54.88
  -3   1 -15   -1.73   17.70
  30   0 -15   -0.98   15.02
  28   0 -15   -3.02   13.13
  26   0 -15    1.00   13.35
  24   0 -15  -12.39   10.94
  22   0 -15  -17.82   10.75
  20   0 -15  -13.39    9.95
  18   0 -15  -11.79    9.79
  16   0 -15  -20.36    7.81
  14   0 -15    3.23    9.35
  12   0 -15    5.49   10.76
  10   0 -15   -0.81   11.09
   8   0 -15   -3.98   11.48
   6   0 -15   -2.73   11.31
   4   0 -15    0.91   13.24
   2   0 -15   10.15   12.74
   0   0 -15   -1.20   14.53
  -2   0 -15   -5.95   15.04
  31  -1 -15   -2.15   14.47
  29  -1 -15  339.00   32.99
  27  -1 -15  319.01   31.55
  25  -1 -15   49.85   19.22
  23  -1 -15  953.35   50.67
  21  -1 -15  435.69   34.14
  19  -1 -15   38.64   15.42
  17  -1 -15 1237.02   54.33
  17  -1 -15 1189.08   44.49
  15  -1 -15  635.62   32.41
  13  -1 -15  522.32   30.82
  11  -1 -15 1490.43   54.55
   9  -1 -15    0.04   10.76
   7  -1 -15  881.69   45.46
   5  -1 -15 1189.97   55.33
   3  -1 -15   81.27   21.38
   1  -1 -15  681.09   45.10
  -1  -1 -15  901.62   54.08
  -3  -1 -15    4.03   20.22
  30  -2 -15  334.40   33.35
  28  -2 -15  -16.00   11.24
  26  -2 -15  321.05   31.09
  24  -2 -15  360.92   32.03
  22  -2 -15   19.49   14.35
  20  -2 -15  708.24   42.39
  18  -2 -15   75.68   18.71
  16  -2 -15  126.97   18.65
  14  -2 -15  755.99   37.13
  12  -2 -15  254.92   23.66
  10  -2 -15   30.03   13.80
   8  -2 -15 1160.74   51.05
   6  -2 -15  211.52   28.08
   4  -2 -15  216.30   28.95
   2  -2 -15  413.58   35.19
   0  -2 -15   -4.53   17.20
  -2  -2 -15  238.21   37.09
  31  -3 -15    8.02   16.19
  29  -3 -15  265.22   30.50
  27  -3 -15  199.97   30.09
  25  -3 -15  -13.91   11.40
  23  -3 -15  284.53   28.92
  21  -3 -15  136.03   23.96
  19  -3 -15  140.40   24.25
  17  -3 -15  273.24   26.02
  17  -3 -15  299.77   24.32
  15  -3 -15  227.18   21.72
  13  -3 -15  127.34   20.81
  11  -3 -15  223.63   23.06
   9  -3 -15  106.70   21.70
   7  -3 -15  235.00   28.70
   5  -3 -15  199.04   27.89
   3  -3 -15    5.31   13.97
   1  -3 -15  201.76   32.72
  -1  -3 -15  168.84   30.58
  30  -4 -15  403.53   35.95
  28  -4 -15  -14.48   13.44
  26  -4 -15  464.39   36.06
  24  -4 -15  474.77   36.07
  22  -4 -15   32.86   14.98
  20  -4 -15  743.08   42.62
  18  -4 -15  655.80   39.22
  18  -4 -15  603.79   34.02
  16  -4 -15  194.75   24.33
  14  -4 -15 1587.27   56.87
  12  -4 -15  506.59   33.01
  10  -4 -15  534.05   34.25
   8  -4 -15 1326.54   55.91
   6  -4 -15  186.13   26.61
   4  -4 -15  427.76   34.87
   2  -4 -15  818.18   49.25
   0  -4 -15   16.59   17.24
  -2  -4 -15  512.24   42.81
  29  -5 -15    0.95   15.05
  27  -5 -15   15.37   15.17
  25  -5 -15  -15.66   11.84
  23  -5 -15   81.65   19.80
  21  -5 -15  109.88   22.53
  19  -5 -15    7.19   10.18
  19  -5 -15   -2.86   10.80
  17  -5 -15   60.58   16.96
  17  -5 -15  121.63   19.99
  15  -5 -15   38.35   14.96
  13  -5 -15   -1.77   11.17
  11  -5 -15  -13.82    9.71
   9  -5 -15   -7.75   10.82
   7  -5 -15    9.27   13.19
   5  -5 -15  102.22   22.17
   3  -5 -15  -25.00   13.71
   1  -5 -15   31.53   19.13
  -1  -5 -15   46.13   20.63
  28  -6 -15   -4.87   13.60
  26  -6 -15  599.11   41.46
  24  -6 -15  406.18   33.16
  22  -6 -15   -0.76   11.98
  20  -6 -15  695.68   41.51
  20  -6 -15  647.49   35.65
  18  -6 -15  269.47   26.14
  18  -6 -15  251.63   23.80
  16  -6 -15   95.10   19.67
  16  -6 -15   92.41   19.03
  14  -6 -15  869.06   43.99
  12  -6 -15  163.78   26.02
  10  -6 -15  193.04   26.45
   8  -6 -15  844.34   46.19
   6  -6 -15   26.28   16.47
   4  -6 -15  436.93   36.35
   2  -6 -15  538.34   40.93
   0  -6 -15   -2.43   15.98
  27  -7 -15  257.94   29.46
  25  -7 -15   -8.64   14.23
  23  -7 -15  489.33   36.36
  21  -7 -15  210.19   24.96
  21  -7 -15  158.77   25.03
  19  -7 -15   85.74   18.34
  19  -7 -15   76.24   19.85
  17  -7 -15  782.66   42.25
  17  -7 -15  804.72   41.42
  15  -7 -15  295.73   26.73
  13  -7 -15   61.74   19.02
  11  -7 -15  615.39   39.09
   9  -7 -15  139.59   24.93
   7  -7 -15  355.76   31.79
   5  -7 -15  957.32   52.78
   3  -7 -15   82.85   25.43
   1  -7 -15  330.76   34.56
  20  -8 -15   64.69   16.81
  18  -8 -15   12.86   13.56
  18  -8 -15   16.27   12.37
  16  -8 -15   -7.38   10.31
  16  -8 -15  -10.54   11.24
  14  -8 -15   93.98   19.65
  12  -8 -15   18.98   14.32
  10  -8 -15   10.20   14.27
   8  -8 -15  128.86   25.22
   6  -8 -15  -12.01   13.53
   4  -8 -15   42.40   19.78
   2  -8 -15  129.88   27.48
  21  -9 -15  528.59   36.06
  19  -9 -15   85.16   19.36
  17  -9 -15 1050.83   50.25
  15  -9 -15   76.33   19.96
  13  -9 -15  436.47   33.93
  11  -9 -15  985.87   50.58
   9  -9 -15  232.21   31.63
   7  -9 -15  381.10   34.73
   5  -9 -15  610.25   44.69
   3  -9 -15    9.35   18.88
  22 -10 -15   12.08   14.98
  20 -10 -15   50.73   19.34
  18 -10 -15   62.56   18.37
  16 -10 -15    4.90   15.21
  14 -10 -15  245.39   26.66
  12 -10 -15  109.63   22.49
  10 -10 -15   37.56   17.20
   8 -10 -15  121.10   25.13
   6 -10 -15   86.19   25.95
  19 -11 -15   28.76   16.40
  17 -11 -15  484.45   36.40
  15 -11 -15  110.43   23.53
  13 -11 -15  100.27   23.63
  11 -11 -15  538.23   39.39
   9 -11 -15   86.45   23.62
   7   9 -16   19.70   23.45
  24   8 -16  598.62   39.40
  22   8 -16  195.42   28.41
  20   8 -16  186.23   27.99
   8   8 -16  514.70   41.69
   6   8 -16  920.94   58.87
  27   7 -16  231.53   31.58
  25   7 -16  165.23   26.93
  23   7 -16   -8.28   12.05
  21   7 -16  208.18   28.16
  19   7 -16  217.25   29.68
  17   7 -16   83.17   21.76
  15   7 -16  269.26   28.77
   9   7 -16  441.52   36.53
   7   7 -16   12.59   18.77
   5   7 -16  245.30   37.75
  28   6 -16   99.96   23.35
  26   6 -16  -10.28   13.89
  24   6 -16  234.93   26.79
  22   6 -16  133.73   24.74
  20   6 -16   10.74   15.72
  18   6 -16  350.55   31.23
  16   6 -16   96.57   22.67
  10   6 -16    9.39   16.26
   8   6 -16  275.78   30.13
   6   6 -16  427.63   38.29
   4   6 -16    5.88   18.14
   2   6 -16  232.89   37.32
  29   5 -16   17.05   17.18
  27   5 -16  730.93   46.52
  25   5 -16  315.08   30.77
  23   5 -16   47.06   19.44
  21   5 -16  759.86   44.69
  19   5 -16  231.35   25.78
  17   5 -16  142.37   25.30
  11   5 -16  461.76   34.15
   9   5 -16 1170.01   55.43
   7   5 -16   93.89   25.27
   5   5 -16  614.16   44.14
   3   5 -16  661.90   48.55
  28   4 -16    6.59   15.46
  26   4 -16   -7.93   13.42
  24   4 -16    1.53   15.51
  22   4 -16   -5.18   11.10
  20   4 -16  -14.31   11.15
  18   4 -16   19.87   14.93
  12   4 -16  117.56   21.52
  10   4 -16    3.23   13.09
   8   4 -16    5.25   14.25
   6   4 -16   -3.59   13.97
   4   4 -16   11.73   16.35
   2   4 -16   31.60   18.65
  29   3 -16   20.27   16.88
  27   3 -16  314.00   31.62
  25   3 -16  391.71   34.44
  23   3 -16   24.40   16.35
  21   3 -16  582.44   40.17
  19   3 -16  217.74   25.31
  17   3 -16  133.89   23.90
  13   3 -16  221.07   26.51
  11   3 -16  611.50   37.12
   9   3 -16 1166.29   53.44
   7   3 -16   48.62   20.61
   5   3 -16  340.06   34.23
   3   3 -16  638.52   45.81
   1   3 -16    0.13   18.65
  30   2 -16  323.10   33.24
  28   2 -16  320.03   32.62
  26   2 -16    8.57   16.24
  24   2 -16  639.56   43.26
  22   2 -16  262.67   28.12
  20   2 -16   73.88   20.05
  18   2 -16 1037.99   52.21
  14   2 -16  185.54   21.09
  12   2 -16  585.49   35.51
  10   2 -16   25.25   14.52
   8   2 -16  131.80   23.65
   6   2 -16  595.74   41.29
   4   2 -16    7.38   16.81
   2   2 -16  534.51   42.07
   0   2 -16  521.20   43.53
  29   1 -16    0.66   14.25
  27   1 -16   61.32   21.55
  25   1 -16   39.94   18.93
  23   1 -16   19.16   15.30
  21   1 -16  113.10   22.63
  19   1 -16   64.65   19.38
  15   1 -16  234.43   22.38
  13   1 -16   84.72   17.73
  11   1 -16   29.95   14.66
   9   1 -16   18.14   14.04
   7   1 -16   32.59   17.21
   5   1 -16   50.69   19.27
   3   1 -16  107.24   25.26
   1   1 -16   -1.40   15.17
  30   0 -16  460.85   39.48
  28   0 -16  359.31   34.06
  26   0 -16   97.24   23.58
  24   0 -16  956.65   52.58
  22   0 -16  529.48   38.83
  20   0 -16  158.69   26.24
  18   0 -16 1159.50   54.68
  16   0 -16  542.98   31.35
  14   0 -16  534.50   32.01
  12   0 -16 1307.39   52.66
  10   0 -16  229.94   25.09
   8   0 -16 1256.63   56.34
   6   0 -16 1963.89   73.96
   4   0 -16   35.82   18.04
   2   0 -16  684.60   47.43
   0   0 -16  581.75   45.77
  29  -1 -16  -14.24   13.74
  27  -1 -16   33.07   18.41
  25  -1 -16   40.59   17.18
  23  -1 -16   14.33   14.95
  21  -1 -16   79.78   20.62
  19  -1 -16   80.63   20.14
  17  -1 -16   89.61   18.21
  15  -1 -16  246.13   22.95
  13  -1 -16   85.00   18.42
  11  -1 -16   21.19   15.08
   9  -1 -16    2.56   13.32
   7  -1 -16   26.18   15.40
   5  -1 -16   50.78   19.11
   3  -1 -16  127.80   26.29
   1  -1 -16   -4.03   16.40
  30  -2 -16  282.70   31.90
  28  -2 -16  353.48   34.07
  26  -2 -16   23.59   16.00
  24  -2 -16  623.81   42.36
  22  -2 -16  217.90   30.89
  20  -2 -16   46.32   17.76
  18  -2 -16 1117.25   53.21
  16  -2 -16  320.69   25.94
  14  -2 -16  198.88   21.27
  12  -2 -16  525.66   33.65
  10  -2 -16   23.58   14.42
   8  -2 -16  177.51   27.23
   6  -2 -16  593.59   40.38
   4  -2 -16   15.48   16.99
   2  -2 -16  516.21   41.30
   0  -2 -16  499.08   41.93
  29  -3 -16   -9.16   12.85
  27  -3 -16  334.85   33.29
  25  -3 -16  360.08   33.15
  23  -3 -16   29.59   15.42
  21  -3 -16  504.65   37.28
  19  -3 -16  236.50   25.70
  17  -3 -16  168.32   22.39
  15  -3 -16 1149.25   48.52
  13  -3 -16  202.25   22.26
  11  -3 -16  553.55   36.09
   9  -3 -16 1158.51   53.15
   7  -3 -16   43.89   19.52
   5  -3 -16  355.14   32.98
   3  -3 -16  611.26   44.16
   1  -3 -16  -16.76   15.12
  28  -4 -16  -14.96   13.32
  26  -4 -16   -6.96   14.42
  24  -4 -16   26.63   16.30
  22  -4 -16  -11.51   11.97
  20  -4 -16   -1.24   12.48
  18  -4 -16    5.92   12.26
  18  -4 -16   16.67   13.71
  16  -4 -16   -9.39   10.14
  14  -4 -16   32.36   15.09
  12  -4 -16   89.94   19.38
  10  -4 -16    7.25   13.39
   8  -4 -16    2.17   14.18
   6  -4 -16   -2.17   14.27
   4  -4 -16  -17.69   14.62
   2  -4 -16   -2.19   16.31
  29  -5 -16    0.52   14.61
  27  -5 -16  743.92   46.92
  25  -5 -16  267.45   28.54
  23  -5 -16   67.48   20.06
  21  -5 -16  764.24   44.58
  19  -5 -16  283.42   28.22
  19  -5 -16  260.82   24.31
  17  -5 -16  208.82   26.17
  17  -5 -16  148.41   24.87
  15  -5 -16 1040.55   48.75
  13  -5 -16  136.16   23.60
  11  -5 -16  357.25   30.57
   9  -5 -16 1111.74   54.17
   7  -5 -16   47.60   18.76
   5  -5 -16  567.09   41.81
   3  -5 -16  580.80   43.47
  28  -6 -16   56.46   19.77
  26  -6 -16   -5.69   13.52
  24  -6 -16  203.81   29.91
  22  -6 -16  148.05   24.50
  20  -6 -16   16.38   14.18
  20  -6 -16   46.17   16.17
  18  -6 -16  332.90   27.31
  18  -6 -16  325.89   29.73
  16  -6 -16   84.09   20.95
  14  -6 -16   14.15   13.59
  12  -6 -16  231.33   26.34
  10  -6 -16  -10.18   13.30
   8  -6 -16  192.51   28.77
   6  -6 -16  393.20   35.05
   4  -6 -16    6.51   18.06
  27  -7 -16  285.35   36.15
  25  -7 -16  117.00   26.35
  23  -7 -16    2.94   16.14
  21  -7 -16  144.24   25.61
  21  -7 -16  196.15   25.86
  19  -7 -16  212.14   26.94
  19  -7 -16  154.08   24.43
  17  -7 -16   64.31   18.05
  17  -7 -16   79.47   18.68
  15  -7 -16  282.50   26.52
  13  -7 -16   28.76   16.56
  11  -7 -16  177.96   28.09
   9  -7 -16  384.32   33.78
   7  -7 -16   -3.80   13.48
   5  -7 -16  133.91   28.76
  20  -8 -16  215.61   28.61
  18  -8 -16  883.73   46.65
  18  -8 -16  864.24   45.59
  16  -8 -16  128.08   23.01
  16  -8 -16  179.06   26.37
  14  -8 -16  301.35   28.19
  12  -8 -16 1149.26   56.07
  10  -8 -16  108.94   24.23
   8  -8 -16  376.67   35.51
   6  -8 -16  754.14   49.62
  21  -9 -16    8.07   13.94
  19  -9 -16  -22.74   10.41
  17  -9 -16   -6.22   12.60
  15  -9 -16    4.78   15.18
  13  -9 -16   -1.45   13.93
  11  -9 -16    3.36   14.80
   9  -9 -16   12.65   17.52
   7  -9 -16   47.91   20.50
  20 -10 -16  181.87   27.72
  18 -10 -16  666.97   42.03
  16 -10 -16  159.00   27.11
  14 -10 -16  171.21   28.00
  12 -10 -16  679.48   43.89
  10 -10 -16  127.59   25.71
  25   7 -17  276.26   29.96
  23   7 -17  243.17   32.85
  21   7 -17   81.09   21.45
  19   7 -17  425.33   34.93
  17   7 -17   93.93   23.44
  15   7 -17  247.96   33.51
   9   7 -17  315.94   33.27
   7   7 -17  715.65   51.03
  26   6 -17  215.97   31.33
  24   6 -17  188.97   31.16
  22   6 -17  524.99   38.76
  20   6 -17  143.84   26.21
  18   6 -17  194.47   31.14
  16   6 -17  478.29   37.67
  10   6 -17  800.39   49.09
   8   6 -17   10.66   18.16
   6   6 -17  289.92   38.77
  27   5 -17   -8.71   14.89
  25   5 -17   21.88   17.66
  23   5 -17   -8.39   12.91
  21   5 -17   28.31   18.80
  19   5 -17   13.12   14.80
  17   5 -17    8.60   14.64
  11   5 -17  -13.22   13.69
   9   5 -17   62.67   23.77
   7   5 -17   27.80   18.82
   5   5 -17   -3.69   19.36
  28   4 -17  563.82   42.45
  26   4 -17  355.75   34.00
  24   4 -17   54.11   20.64
  22   4 -17  814.76   48.91
  20   4 -17  322.79   31.42
  18   4 -17  259.60   29.36
  12   4 -17  497.62   36.00
  10   4 -17 1056.58   53.42
   8   4 -17  101.71   27.21
   6   4 -17  669.09   48.38
   4   4 -17  747.65   52.39
  29   3 -17   76.26   24.40
  27   3 -17   14.85   16.59
  25   3 -17  189.87   31.02
  23   3 -17   65.66   20.12
  21   3 -17    4.43   14.34
  19   3 -17  246.31   27.90
  17   3 -17   38.11   17.07
  13   3 -17  244.21   24.66
  11   3 -17   -7.00   13.77
   9   3 -17  102.59   23.93
   7   3 -17  199.93   31.01
   5   3 -17    4.70   16.19
  28   2 -17  309.16   32.86
  26   2 -17  190.97   32.10
  24   2 -17   24.05   16.64
  22   2 -17  333.42   32.10
  20   2 -17   92.13   21.90
  18   2 -17  132.18   26.30
  14   2 -17   96.78   19.02
  12   2 -17  156.83   25.17
  10   2 -17  277.40   32.98
   8   2 -17   16.73   14.44
   6   2 -17  292.90   37.61
   4   2 -17  329.19   34.54
  29   1 -17  345.06   35.09
  27   1 -17   28.68   18.48
  25   1 -17  701.08   46.89
  23   1 -17  191.56   30.04
  21   1 -17  222.76   31.35
  19   1 -17 1194.48   57.84
  15   1 -17  333.84   27.25
  13   1 -17 1158.77   50.66
  11   1 -17   95.42   22.04
   9   1 -17  751.37   44.86
   7   1 -17 1242.08   60.17
   5   1 -17   30.28   19.25
   3   1 -17  489.23   42.27
  28   0 -17  -17.76   14.14
  26   0 -17   -6.07   13.91
  24   0 -17    2.41   14.46
  22   0 -17   -2.82   13.24
  20   0 -17   -8.58   10.70
  18   0 -17   -7.63   12.66
  16   0 -17    2.54   11.65
  14   0 -17   -5.22   12.58
  12   0 -17   -9.95   11.86
  10   0 -17   -0.31   12.79
   8   0 -17  -23.38   13.93
   6   0 -17   -1.51   16.23
   4   0 -17    7.08   17.37
  29  -1 -17  281.74   32.20
  27  -1 -17    8.03   16.78
  25  -1 -17  784.32   49.02
  23  -1 -17  238.34   28.33
  21  -1 -17  228.55   30.87
  19  -1 -17 1160.52   56.55
  17  -1 -17  238.84   23.48
  15  -1 -17  341.82   27.44
  13  -1 -17 1159.08   51.12
  11  -1 -17   87.81   20.44
   9  -1 -17  728.50   44.20
   7  -1 -17 1175.80   58.06
   5  -1 -17   34.52   18.39
   3  -1 -17  518.58   42.59
  28  -2 -17  242.02   35.58
  26  -2 -17  126.10   26.84
  24  -2 -17   19.25   15.16
  22  -2 -17  271.55   28.84
  20  -2 -17   97.70   22.09
  18  -2 -17  133.58   23.63
  16  -2 -17  589.43   35.57
  14  -2 -17  106.60   20.63
  12  -2 -17  157.74   25.51
  10  -2 -17  234.88   31.38
   8  -2 -17    9.49   16.90
   6  -2 -17  264.53   29.93
   4  -2 -17  285.89   37.11
  29  -3 -17  105.87   26.46
  27  -3 -17   18.81   17.80
  25  -3 -17  163.93   28.29
  23  -3 -17   27.66   18.21
  21  -3 -17    9.63   13.36
  19  -3 -17  244.98   27.71
  17  -3 -17   31.35   14.29
  15  -3 -17  128.66   23.22
  13  -3 -17  220.07   28.55
  11  -3 -17    8.97   14.66
   9  -3 -17   64.15   21.66
   7  -3 -17  208.22   30.96
   5  -3 -17    1.20   15.80
  28  -4 -17  526.42   41.23
  26  -4 -17  340.55   33.87
  24  -4 -17   13.31   15.44
  22  -4 -17  826.23   48.41
  20  -4 -17  313.15   30.18
  18  -4 -17  269.52   25.98
  18  -4 -17  302.60   29.24
  16  -4 -17  990.78   47.55
  14  -4 -17   88.59   19.82
  12  -4 -17  476.62   34.98
  10  -4 -17  822.94   46.99
   8  -4 -17  106.22   23.71
   6  -4 -17  641.29   44.75
  27  -5 -17  -17.84   13.35
  25  -5 -17   34.29   18.03
  23  -5 -17   -2.27   13.33
  21  -5 -17   30.21   16.76
  19  -5 -17   25.89   15.14
  19  -5 -17    9.42   13.94
  17  -5 -17   22.78   15.77
  15  -5 -17    0.63   14.25
  13  -5 -17   14.13   14.64
  11  -5 -17  -16.87   12.75
   9  -5 -17   64.54   21.99
   7  -5 -17   14.21   18.34
   5  -5 -17   14.94   16.93
  26  -6 -17  230.12   32.24
  24  -6 -17  143.51   27.41
  22  -6 -17  441.01   36.33
  20  -6 -17  140.96   25.46
  20  -6 -17  136.63   22.47
  18  -6 -17  128.96   24.08
  18  -6 -17  124.47   22.60
  16  -6 -17  485.60   34.89
  14  -6 -17   40.85   17.33
  12  -6 -17  373.56   32.89
  10  -6 -17  650.86   43.33
   8  -6 -17   24.96   17.95
  25  -7 -17  232.24   32.77
  23  -7 -17  143.82   26.01
  21  -7 -17   73.70   20.40
  21  -7 -17   81.84   20.37
  19  -7 -17  373.93   32.10
  19  -7 -17  428.83   32.59
  17  -7 -17   88.89   21.26
  17  -7 -17  116.62   22.86
  15  -7 -17  268.85   28.82
  13  -7 -17  635.10   42.38
  11  -7 -17   13.53   16.45
   9  -7 -17  262.11   34.21
  20  -8 -17   26.08   14.96
  18  -8 -17   57.93   19.99
  16  -8 -17   54.38   19.27
  16  -8 -17   36.39   16.92
  14  -8 -17   -7.48   14.67
  12  -8 -17   80.42   22.75
  10  -8 -17    7.60   18.54
  19  -9 -17  658.29   41.53
  17  -9 -17  240.57   31.21
  15  -9 -17  134.48   25.11
  13  -9 -17  725.44   45.82
  21   7 -18   22.35   17.88
  19   7 -18  113.26   25.95
  17   7 -18  270.73   32.00
  24   6 -18   28.76   18.35
  22   6 -18   53.10   20.41
  20   6 -18  195.60   31.65
  18   6 -18   89.70   23.27
  16   6 -18  114.58   25.51
  10   6 -18  180.54   33.26
  25   5 -18  147.58   28.63
  23   5 -18  694.66   46.51
  21   5 -18  142.94   28.35
  19   5 -18  260.75   29.76
  17   5 -18  473.42   38.77
  11   5 -18  900.19   52.53
   9   5 -18  105.64   27.98
  26   4 -18   26.97   19.39
  24   4 -18   21.11   18.27
  22   4 -18    0.07   15.14
  20   4 -18    3.78   16.81
  18   4 -18   -0.94   14.07
  12   4 -18  -18.96   12.00
  10   4 -18   39.88   20.73
   8   4 -18   -8.26   15.96
  27   3 -18  284.53   32.48
  25   3 -18   64.62   22.16
  23   3 -18  537.67   41.72
  21   3 -18  118.60   24.94
  19   3 -18  273.23   30.03
  13   3 -18  402.84   33.88
  11   3 -18  555.21   39.90
   9   3 -18   -2.96   16.77
   7   3 -18  610.98   46.13
  26   2 -18  315.95   33.30
  24   2 -18  172.42   29.80
  22   2 -18  179.89   29.14
  20   2 -18  443.52   36.90
  18   2 -18   94.44   22.41
  14   2 -18  593.21   37.61
  12   2 -18   60.32   20.92
  10   2 -18  378.48   34.29
   8   2 -18  586.95   44.43
   6   2 -18    5.60   19.05
  27   1 -18    9.54   16.17
  25   1 -18    1.60   15.32
  23   1 -18  104.51   24.75
  21   1 -18   -2.53   14.46
  19   1 -18   34.12   17.12
  15   1 -18   16.63   14.66
  13   1 -18   25.39   15.58
  11   1 -18  264.58   29.00
   9   1 -18   -7.03   16.48
   7   1 -18  116.80   26.77
  26   0 -18  657.03   46.81
  24   0 -18  230.77   33.57
  22   0 -18  174.78   28.76
  20   0 -18 1491.05   66.89
  16   0 -18  263.72   26.11
  14   0 -18  927.92   47.01
  12   0 -18    4.40   13.42
  10   0 -18  420.30   36.14
   8   0 -18  674.57   45.91
   6   0 -18   -7.55   17.42
  27  -1 -18   -5.24   16.36
  25  -1 -18   -2.69   14.90
  23  -1 -18   68.93   22.05
  21  -1 -18   -1.64   13.08
  19  -1 -18   28.53   16.93
  15  -1 -18   14.73   14.19
  13  -1 -18    3.81   14.10
  11  -1 -18  222.03   30.69
   9  -1 -18    0.06   16.74
   7  -1 -18  130.64   28.64
  26  -2 -18  234.06   34.57
  24  -2 -18  150.14   27.83
  22  -2 -18  108.71   23.29
  20  -2 -18  448.71   36.90
  16  -2 -18  246.62   29.96
  14  -2 -18  605.92   38.63
  12  -2 -18   69.22   20.96
  10  -2 -18  315.15   32.83
   8  -2 -18  583.56   43.77
  27  -3 -18  242.30   34.94
  25  -3 -18   44.43   19.63
  23  -3 -18  660.63   44.81
  21  -3 -18  142.38   26.75
  19  -3 -18  255.76   28.21
  17  -3 -18  644.31   38.68
  15  -3 -18   59.82   18.96
  13  -3 -18  389.31   33.31
  11  -3 -18  556.57   39.73
   9  -3 -18    5.56   16.01
   7  -3 -18  502.93   41.09
  26  -4 -18   34.78   17.93
  24  -4 -18   -0.54   15.32
  22  -4 -18   -4.71   14.14
  20  -4 -18   -2.60   12.39
  18  -4 -18    3.45   13.75
  18  -4 -18  -19.78   12.85
  16  -4 -18   22.35   16.24
  14  -4 -18   25.80   15.78
  12  -4 -18  -22.18   13.64
  10  -4 -18   35.80   19.97
   8  -4 -18   -9.67   16.67
  25  -5 -18   71.35   22.10
  23  -5 -18  749.87   47.95
  21  -5 -18   83.11   21.21
  19  -5 -18  271.38   26.87
  19  -5 -18  256.48   32.28
  17  -5 -18  608.18   40.00
  15  -5 -18   21.33   15.00
  13  -5 -18  424.10   35.84
  11  -5 -18  796.02   48.50
   9  -5 -18   91.16   24.18
  24  -6 -18   11.56   17.64
  22  -6 -18   52.99   20.78
  20  -6 -18  105.20   23.10
  20  -6 -18  149.92   25.12
  18  -6 -18  111.88   24.24
  18  -6 -18  110.75   21.99
  16  -6 -18  169.91   27.22
  14  -6 -18  315.63   32.58
  12  -6 -18   17.95   15.91
  21  -7 -18   21.68   16.25
  19  -7 -18  125.57   25.72
  19  -7 -18  103.21   21.74
  17  -7 -18  287.85   29.28
  17  -7 -18  277.83   28.36
  15  -7 -18  -11.13   15.53
  13  -7 -18  133.27   29.09
  19   5 -19    0.44   16.21
  17   5 -19   23.53   18.82
  22   4 -19   81.78   24.71
  20   4 -19  141.47   28.56
  18   4 -19  618.71   45.40
  23   3 -19   24.57   18.42
  21   3 -19  113.91   26.36
  19   3 -19   -5.73   14.92
  13   3 -19   24.54   18.41
  24   2 -19  271.58   37.25
  22   2 -19   51.99   19.88
  20   2 -19  153.78   29.80
  14   2 -19  283.08   30.38
  12   2 -19  327.06   32.82
  25   1 -19  118.61   27.52
  23   1 -19  286.88   31.70
  21   1 -19  793.69   50.84
  19   1 -19  100.30   23.80
  15   1 -19  653.90   41.21
  13   1 -19   43.45   18.77
  11   1 -19  412.26   35.90
  24   0 -19   -6.72   17.01
  22   0 -19  -15.22   13.53
  20   0 -19  -13.84   14.49
  14   0 -19    7.32   15.23
  12   0 -19    1.47   15.92
  25  -1 -19  128.90   28.84
  23  -1 -19  269.37   31.32
  21  -1 -19  687.58   46.90
  19  -1 -19   92.65   23.88
  15  -1 -19  640.98   41.01
  13  -1 -19   26.58   20.12
  11  -1 -19  456.07   38.18
  24  -2 -19  212.49   33.61
  22  -2 -19   51.27   20.56
  20  -2 -19  128.86   27.14
  16  -2 -19   28.04   17.12
  14  -2 -19  258.65   27.84
  12  -2 -19  289.53   31.91
  23  -3 -19   34.85   19.08
  21  -3 -19  190.95   30.34
  19  -3 -19  -11.67   14.19
  17  -3 -19  113.13   25.18
  15  -3 -19  222.79   30.13
  13  -3 -19   11.03   16.06
  22  -4 -19   85.75   23.51
  20  -4 -19  139.95   26.41
  18  -4 -19  574.06   39.77
  16  -4 -19    6.71   15.85
  14  -4 -19  569.85   41.16
  19  -5 -19   10.44   14.28
  19  -5 -19  -12.12   14.13
  17  -5 -19   41.70   18.88
   0   0   0    0.00    0.00
;
_shelx_hkl_checksum              33356
loop_
_space_group_symop_operation_xyz
'x, y, z'
'-x, y, -z+1/2'
'x+1/2, y+1/2, z'
'-x+1/2, y+1/2, -z+1/2'
'-x, -y, -z'
'x, -y, z-1/2'
'-x+1/2, -y+1/2, -z'
'x+1/2, -y+1/2, z-1/2'
loop_
_atom_site_label
_atom_site_type_symbol
_atom_site_fract_x
_atom_site_fract_y
_atom_site_fract_z
_atom_site_U_iso_or_equiv
_atom_site_adp_type
_atom_site_occupancy
_atom_site_site_symmetry_order
_atom_site_calc_flag
_atom_site_refinement_flags_posn
_atom_site_refinement_flags_adp
_atom_site_refinement_flags_occupancy
_atom_site_disorder_assembly
_atom_site_disorder_group
O8 O 0.2630(2) 0.3710(4) 0.6333(4) 0.0329(11) Uani 1 1 d . . . . .
O6 O 0.3077(2) 0.5787(4) 0.9490(4) 0.0425(14) Uani 1 1 d . . . . .
O5 O 0.2243(2) 0.6675(3) 0.9172(3) 0.0256(10) Uani 1 1 d . . . . .
C16 C 0.2467(3) 0.5969(5) 0.8915(5) 0.0240(14) Uani 1 1 d . . . . .
O2 O -0.1031(3) 0.2374(5) 0.2767(4) 0.0494(15) Uani 1 1 d . . . . .
Tb1 Tb 0.16196(2) 0.19317(2) 0.40167(2) 0.01812(12) Uani 1 1 d . U . . .
O4 O 0.1620(2) 0.3022(4) 0.5235(4) 0.0341(12) Uani 1 1 d . . . . .
C15 C 0.2033(3) 0.3589(5) 0.5999(5) 0.0253(14) Uani 1 1 d . . . . .
O3 O -0.0175(2) 0.3973(4) 0.5420(4) 0.0432(14) Uani 1 1 d . . . . .
C10 C 0.1127(3) 0.4105(5) 0.6212(5) 0.0253(14) Uani 1 1 d . . . . .
H10 H 0.0837 0.3694 0.5626 0.030 Uiso 1 1 calc R U . . .
C13 C 0.2228(3) 0.4769(5) 0.7460(5) 0.0253(14) Uani 1 1 d . . . . .
H13 H 0.2676 0.4795 0.7721 0.030 Uiso 1 1 calc R U . . .
C14 C 0.1786(3) 0.4167(5) 0.6569(5) 0.0220(13) Uani 1 1 d . . . . .
C9 C 0.0889(3) 0.4643(5) 0.6709(5) 0.0261(14) Uani 1 1 d . . . . .
C2 C -0.1059(4) 0.2909(6) 0.4245(6) 0.0346(17) Uani 1 1 d . . . . .
C12 C 0.1995(3) 0.5328(5) 0.7952(5) 0.0231(13) Uani 1 1 d . . . . .
O7 O 0.0539(3) 0.1759(7) 0.3636(6) 0.098(3) Uani 1 1 d . . . . .
H7B H 0.0451 0.1149 0.3603 0.147 Uiso 1 1 d R U . . .
H7C H 0.0535 0.2024 0.4149 0.147 Uiso 1 1 d R U . . .
C7 C -0.0790(4) 0.3612(6) 0.5067(6) 0.0372(17) Uani 1 1 d . . . . .
C1 C -0.0701(4) 0.2537(6) 0.3760(6) 0.0370(17) Uani 1 1 d . . . . .
C8 C 0.0177(3) 0.4580(6) 0.6354(6) 0.0338(16) Uani 1 1 d . . . . .
H8A H 0.0161 0.4304 0.6939 0.041 Uiso 1 1 calc R U . . .
H8B H -0.0021 0.5231 0.6182 0.041 Uiso 1 1 calc R U . . .
O9 O 0.1157(3) 0.0382(4) 0.3167(5) 0.0569(12) Uani 1 1 d D U . . .
C3 C -0.1688(5) 0.2539(8) 0.3849(7) 0.055(2) Uani 1 1 d . . . . .
H3 H -0.1874 0.2065 0.3298 0.066 Uiso 1 1 calc R U . . .
C11 C 0.1328(3) 0.5274(5) 0.7576(5) 0.0240(14) Uani 1 1 d . . . . .
H11 H 0.1172 0.5659 0.7901 0.029 Uiso 1 1 calc R U . . .
C6 C -0.1147(4) 0.3956(7) 0.5468(7) 0.047(2) Uani 1 1 d . . . . .
H6 H -0.0965 0.4438 0.6009 0.056 Uiso 1 1 calc R U . . .
O1 O -0.0089(3) 0.2414(8) 0.4386(6) 0.102(3) Uani 1 1 d . . . . .
C5 C -0.1774(5) 0.3575(9) 0.5055(8) 0.068(3) Uani 1 1 d . . . . .
H5 H -0.2015 0.3803 0.5319 0.081 Uiso 1 1 calc R U . . .
C4 C -0.2044(5) 0.2855(10) 0.4249(9) 0.077(4) Uani 1 1 d . . . . .
H4 H -0.2461 0.2589 0.3982 0.093 Uiso 1 1 calc DR U . . .
N1 N 0.1053(5) -0.0870(7) 0.2172(8) 0.065(2) Uani 0.543(9) 1 d D U P A 1
C17 C 0.1284(6) -0.0478(7) 0.3144(9) 0.0573(17) Uani 0.543(9) 1 d D U P A 1
H17 H 0.1533 -0.0848 0.3784 0.069 Uiso 0.543(9) 1 calc R U P A 1
C19 C 0.1213(9) -0.1896(8) 0.2085(13) 0.087(3) Uani 0.543(9) 1 d D U P A 1
H19A H 0.1480 -0.2184 0.2803 0.130 Uiso 0.543(9) 1 calc R U P A 1
H19B H 0.1455 -0.1908 0.1759 0.130 Uiso 0.543(9) 1 calc R U P A 1
H19C H 0.0807 -0.2264 0.1637 0.130 Uiso 0.543(9) 1 calc R U P A 1
C18 C 0.0665(9) -0.0320(11) 0.1144(10) 0.087(3) Uani 0.543(9) 1 d D U P A 1
H18A H 0.0232 -0.0174 0.0976 0.131 Uiso 0.543(9) 1 calc R U P A 1
H18B H 0.0617 -0.0707 0.0563 0.131 Uiso 0.543(9) 1 calc R U P A 1
H18C H 0.0892 0.0283 0.1217 0.131 Uiso 0.543(9) 1 calc R U P A 1
C17' C 0.1182(6) -0.0224(8) 0.2599(10) 0.0573(17) Uani 0.457(9) 1 d D . P A 2
H17' H 0.1398 -0.0098 0.2264 0.069 Uiso 0.457(9) 1 calc R U P A 2
N1' N 0.0885(6) -0.1079(7) 0.2476(10) 0.065(2) Uani 0.457(9) 1 d D . P A 2
C18' C 0.0537(10) -0.1301(14) 0.2987(16) 0.087(3) Uani 0.457(9) 1 d D . P A 2
H18D H 0.0801 -0.1081 0.3735 0.131 Uiso 0.457(9) 1 calc R U P A 2
H18E H 0.0467 -0.1999 0.2967 0.131 Uiso 0.457(9) 1 calc R U P A 2
H18F H 0.0113 -0.0970 0.2593 0.131 Uiso 0.457(9) 1 calc R U P A 2
C19' C 0.0871(11) -0.1869(11) 0.1785(15) 0.087(3) Uani 0.457(9) 1 d D . P A 2
H19D H 0.1135 -0.1678 0.1525 0.130 Uiso 0.457(9) 1 calc R U P A 2
H19E H 0.0419 -0.1981 0.1171 0.130 Uiso 0.457(9) 1 calc R U P A 2
H19F H 0.1050 -0.2462 0.2208 0.130 Uiso 0.457(9) 1 calc R U P A 2
loop_
_atom_site_aniso_label
_atom_site_aniso_U_11
_atom_site_aniso_U_22
_atom_site_aniso_U_33
_atom_site_aniso_U_23
_atom_site_aniso_U_13
_atom_site_aniso_U_12
O8 0.023(2) 0.042(3) 0.029(3) -0.013(2) 0.013(2) 0.001(2)
O6 0.019(3) 0.049(3) 0.040(3) -0.026(3) 0.005(2) 0.003(2)
O5 0.024(2) 0.027(2) 0.019(2) -0.0070(19) 0.008(2) -0.0001(19)
C16 0.027(4) 0.026(3) 0.023(3) -0.006(3) 0.017(3) -0.002(3)
O2 0.039(3) 0.070(4) 0.019(3) -0.009(3) 0.005(2) 0.008(3)
Tb1 0.01760(18) 0.02115(18) 0.01196(17) -0.00108(12) 0.00638(13) 0.00016(12)
O4 0.030(3) 0.041(3) 0.034(3) -0.020(2) 0.020(2) -0.007(2)
C15 0.028(4) 0.028(3) 0.020(3) -0.005(3) 0.014(3) 0.001(3)
O3 0.027(3) 0.069(4) 0.035(3) -0.026(3) 0.019(2) -0.019(3)
C10 0.023(3) 0.030(3) 0.018(3) -0.010(3) 0.009(3) -0.004(3)
C13 0.019(3) 0.027(3) 0.023(3) -0.005(3) 0.008(3) 0.002(3)
C14 0.024(3) 0.021(3) 0.019(3) -0.005(3) 0.011(3) 0.003(3)
C9 0.023(3) 0.031(3) 0.019(3) -0.002(3) 0.010(3) -0.001(3)
C2 0.028(4) 0.041(4) 0.024(4) -0.003(3) 0.009(3) -0.004(3)
C12 0.024(3) 0.023(3) 0.017(3) -0.006(3) 0.009(3) -0.004(3)
O7 0.028(3) 0.177(9) 0.066(5) -0.070(5) 0.014(3) -0.010(4)
C7 0.027(4) 0.056(5) 0.022(4) -0.001(4) 0.010(3) -0.003(4)
C1 0.036(4) 0.040(4) 0.026(4) -0.009(3) 0.013(4) 0.000(3)
C8 0.024(4) 0.048(4) 0.028(4) -0.012(3) 0.014(3) -0.007(3)
O9 0.0501(19) 0.0453(18) 0.0443(18) -0.0086(17) 0.0092(16) -0.0063(17)
C3 0.052(6) 0.067(6) 0.042(5) -0.015(5) 0.024(4) -0.024(5)
C11 0.025(3) 0.025(3) 0.023(3) -0.006(3) 0.015(3) 0.001(3)
C6 0.038(4) 0.066(6) 0.043(5) -0.017(4) 0.027(4) -0.013(4)
O1 0.034(4) 0.186(9) 0.052(4) -0.058(5) 0.004(3) 0.019(5)
C5 0.041(5) 0.106(9) 0.062(6) -0.021(6) 0.033(5) -0.021(6)
C4 0.042(6) 0.135(11) 0.062(7) -0.027(7) 0.035(5) -0.042(6)
N1 0.056(3) 0.050(2) 0.051(2) -0.008(2) 0.008(2) -0.006(2)
C17 0.049(2) 0.044(2) 0.041(2) -0.0063(19) 0.0040(19) -0.004(2)
C19 0.063(4) 0.061(3) 0.062(3) -0.011(3) -0.007(3) 0.001(3)
C18 0.069(3) 0.064(3) 0.063(3) -0.009(3) -0.001(3) -0.004(3)
C17' 0.049(2) 0.044(2) 0.041(2) -0.0063(19) 0.0040(19) -0.004(2)
N1' 0.056(3) 0.050(2) 0.051(2) -0.008(2) 0.008(2) -0.006(2)
C18' 0.069(3) 0.064(3) 0.063(3) -0.009(3) -0.001(3) -0.004(3)
C19' 0.063(4) 0.061(3) 0.062(3) -0.011(3) -0.007(3) 0.001(3)
loop_
_atom_type_symbol
_atom_type_description
_atom_type_scat_dispersion_real
_atom_type_scat_dispersion_imag
_atom_type_scat_source
C C 0.0033 0.0016 'International Tables Vol C Tables 4.2.6.8 and 6.1.1.4'
H H 0.0000 0.0000 'International Tables Vol C Tables 4.2.6.8 and 6.1.1.4'
N N 0.0061 0.0033 'International Tables Vol C Tables 4.2.6.8 and 6.1.1.4'
O O 0.0106 0.0060 'International Tables Vol C Tables 4.2.6.8 and 6.1.1.4'
Tb Tb -0.1723 4.1537 'International Tables Vol C Tables 4.2.6.8 and 6.1.1.4'
loop_
_geom_angle_atom_site_label_1
_geom_angle_atom_site_label_2
_geom_angle_atom_site_label_3
_geom_angle
_geom_angle_site_symmetry_1
_geom_angle_site_symmetry_3
C15 O8 Tb1 138.3(4) . 7_556
C16 O6 Tb1 96.7(4) . 4_556
C16 O5 Tb1 161.0(4) . 6_566
C16 O5 Tb1 91.3(4) . 4_556
Tb1 O5 Tb1 104.18(16) 6_566 4_556
O6 C16 O5 119.9(6) . .
O6 C16 C12 120.2(6) . .
O5 C16 C12 119.8(6) . .
O6 C16 Tb1 57.9(3) . 4_556
O5 C16 Tb1 62.5(3) . 4_556
C12 C16 Tb1 170.3(5) . 4_556
C1 O2 Tb1 174.9(6) . 2
O2 Tb1 O4 117.3(2) 2 .
O2 Tb1 O8 83.6(2) 2 7_556
O4 Tb1 O8 139.03(16) . 7_556
O2 Tb1 O5 80.85(18) 2 6_565
O4 Tb1 O5 72.79(16) . 6_565
O8 Tb1 O5 76.99(17) 7_556 6_565
O2 Tb1 O7 82.9(3) 2 .
O4 Tb1 O7 75.6(2) . .
O8 Tb1 O7 144.7(2) 7_556 .
O5 Tb1 O7 132.2(3) 6_565 .
O2 Tb1 O9 79.8(2) 2 .
O4 Tb1 O9 139.4(2) . .
O8 Tb1 O9 75.36(19) 7_556 .
O5 Tb1 O9 147.7(2) 6_565 .
O7 Tb1 O9 70.3(2) . .
O2 Tb1 O6 153.1(2) 2 4_546
O4 Tb1 O6 80.4(2) . 4_546
O8 Tb1 O6 95.62(18) 7_556 4_546
O5 Tb1 O6 125.34(16) 6_565 4_546
O7 Tb1 O6 82.5(3) . 4_546
O9 Tb1 O6 74.0(2) . 4_546
O2 Tb1 O5 148.31(18) 2 4_546
O4 Tb1 O5 75.70(16) . 4_546
O8 Tb1 O5 70.50(15) 7_556 4_546
O5 Tb1 O5 75.82(16) 6_565 4_546
O7 Tb1 O5 128.8(2) . 4_546
O9 Tb1 O5 109.72(17) . 4_546
O6 Tb1 O5 51.48(15) 4_546 4_546
O2 Tb1 C16 163.5(2) 2 4_546
O4 Tb1 C16 78.66(18) . 4_546
O8 Tb1 C16 81.01(17) 7_556 4_546
O5 Tb1 C16 101.51(16) 6_565 4_546
O7 Tb1 C16 106.4(3) . 4_546
O9 Tb1 C16 90.39(19) . 4_546
O6 Tb1 C16 25.45(16) 4_546 4_546
O5 Tb1 C16 26.16(16) 4_546 4_546
O2 Tb1 Tb1 117.63(15) 2 7_556
O4 Tb1 Tb1 69.96(12) . 7_556
O8 Tb1 Tb1 69.10(11) 7_556 7_556
O5 Tb1 Tb1 39.69(10) 6_565 7_556
O7 Tb1 Tb1 145.19(16) . 7_556
O9 Tb1 Tb1 137.41(14) . 7_556
O6 Tb1 Tb1 86.65(11) 4_546 7_556
O5 Tb1 Tb1 36.13(10) 4_546 7_556
C16 Tb1 Tb1 61.98(13) 4_546 7_556
C15 O4 Tb1 136.9(4) . .
O8 C15 O4 125.6(6) . .
O8 C15 C14 117.4(6) . .
O4 C15 C14 117.0(6) . .
C7 O3 C8 120.1(5) . .
C14 C10 C9 121.2(6) . .
C12 C13 C14 119.5(6) . .
C10 C14 C13 119.9(6) . .
C10 C14 C15 120.4(6) . .
C13 C14 C15 119.6(6) . .
C10 C9 C11 118.8(6) . .
C10 C9 C8 122.7(6) . .
C11 C9 C8 118.5(6) . .
C7 C2 C3 118.3(7) . .
C7 C2 C1 122.9(7) . .
C3 C2 C1 118.8(7) . .
C13 C12 C11 120.2(6) . .
C13 C12 C16 119.9(6) . .
C11 C12 C16 119.9(5) . .
O3 C7 C2 116.5(7) . .
O3 C7 C6 122.6(7) . .
C2 C7 C6 120.9(7) . .
O2 C1 O1 123.5(8) . .
O2 C1 C2 118.5(7) . .
O1 C1 C2 118.0(7) . .
O3 C8 C9 107.9(5) . .
C17' O9 Tb1 140.9(7) . .
C17 O9 Tb1 144.6(6) . .
C4 C3 C2 121.7(9) . .
C12 C11 C9 120.3(6) . .
C5 C6 C7 119.5(8) . .
C6 C5 C4 120.2(9) . .
C3 C4 C5 119.3(8) . .
C17 N1 C18 123.4(8) . .
C17 N1 C19 120.5(8) . .
C18 N1 C19 116.0(7) . .
O9 C17 N1 117.5(9) . .
O9 C17' N1' 116.8(9) . .
C17' N1' C18' 123.1(8) . .
C17' N1' C19' 121.7(9) . .
C18' N1' C19' 115.2(7) . .
loop_
_geom_bond_atom_site_label_1
_geom_bond_atom_site_label_2
_geom_bond_distance
_geom_bond_site_symmetry_2
O8 C15 1.257(8) .
O8 Tb1 2.346(4) 7_556
O6 C16 1.245(8) .
O6 Tb1 2.454(5) 4_556
O5 C16 1.269(8) .
O5 Tb1 2.358(4) 6_566
O5 Tb1 2.554(4) 4_556
C16 C12 1.499(9) .
C16 Tb1 2.878(6) 4_556
O2 C1 1.232(9) .
O2 Tb1 2.257(5) 2
Tb1 O2 2.257(5) 2
Tb1 O4 2.343(4) .
Tb1 O8 2.346(4) 7_556
Tb1 O5 2.358(4) 6_565
Tb1 O7 2.378(7) .
Tb1 O9 2.381(5) .
Tb1 O6 2.454(5) 4_546
Tb1 O5 2.554(4) 4_546
Tb1 C16 2.878(6) 4_546
Tb1 Tb1 3.8773(8) 7_556
O4 C15 1.260(8) .
C15 C14 1.515(8) .
O3 C7 1.370(9) .
O3 C8 1.408(8) .
C10 C14 1.381(9) .
C10 C9 1.384(9) .
C13 C12 1.388(9) .
C13 C14 1.397(9) .
C9 C11 1.401(9) .
C9 C8 1.506(9) .
C2 C7 1.384(11) .
C2 C3 1.388(11) .
C2 C1 1.510(11) .
C12 C11 1.391(9) .
C7 C6 1.392(11) .
C1 O1 1.240(10) .
O9 C17' 1.207(9) .
O9 C17 1.215(8) .
C3 C4 1.378(14) .
C6 C5 1.385(12) .
C5 C4 1.386(15) .
N1 C17 1.327(8) .
N1 C18 1.461(8) .
N1 C19 1.472(8) .
C17' N1' 1.325(8) .
N1' C18' 1.465(9) .
N1' C19' 1.474(8) .
