#------------------------------------------------------------------------------
#$Date: 2019-10-28 05:08:59 +0200 (Mon, 28 Oct 2019) $
#$Revision: 219663 $
#$URL: file:///home/coder/svn-repositories/cod/cif/4/51/44/4514474.cif $
#------------------------------------------------------------------------------
#
# This file is available in the Crystallography Open Database (COD),
# http://www.crystallography.net/
#
# All data on this site have been placed in the public domain by the
# contributors.
#
data_4514474
loop_
_publ_author_name
'Mi, Xiuna'
'Sheng, Dafei'
'Yu, Yu'e'
'Wang, Yuhao'
'Zhao, Limin'
'Lu, Jing'
'Li, Yunwu'
'Li, Dacheng'
'Dou, Jianmin'
'Duan, Jingui'
'Wang, Suna'
_publ_section_title
;
 Tunable Light Emission and Multiresponsive Luminescent Sensitivities in
 Aqueous Solutions of Two Series of Lanthanide Metal-Organic Frameworks
 Based on Structurally Related Ligands.
;
_journal_issue                   8
_journal_name_full               'ACS applied materials &amp; interfaces'
_journal_page_first              7914
_journal_page_last               7926
_journal_paper_doi               10.1021/acsami.8b18320
_journal_volume                  11
_journal_year                    2019
_chemical_formula_sum            'C19 H18 Eu N O9'
_chemical_formula_weight         556.30
_space_group_crystal_system      monoclinic
_space_group_IT_number           15
_space_group_name_Hall           '-C 2yc'
_space_group_name_H-M_alt        'C 1 2/c 1'
_symmetry_space_group_name_Hall  '-C 2yc'
_symmetry_space_group_name_H-M   'C 1 2/c 1'
_atom_sites_solution_hydrogens   mixed
_audit_creation_method           SHELXL-2014/7
_cell_angle_alpha                90
_cell_angle_beta                 124.984(3)
_cell_angle_gamma                90
_cell_formula_units_Z            8
_cell_length_a                   24.4269(19)
_cell_length_b                   13.6018(9)
_cell_length_c                   14.9262(10)
_cell_measurement_reflns_used    3204
_cell_measurement_temperature    293(2)
_cell_measurement_theta_max      28.0740
_cell_measurement_theta_min      3.2290
_cell_volume                     4063.2(5)
_computing_cell_refinement       'Bruker FRAMBO'
_computing_data_collection       'Bruker FRAMBO'
_computing_data_reduction        'Bruker SAINT'
_computing_molecular_graphics    'Bruker SHELXTL'
_computing_publication_material  'Bruker SHELXTL'
_computing_structure_refinement  'SHELXL-2014/7 (Sheldrick, 2014)'
_computing_structure_solution    'SHELXL-2014/7 (Sheldrick, 2014)'
_diffrn_ambient_temperature      293(2)
_diffrn_measured_fraction_theta_full 0.999
_diffrn_measured_fraction_theta_max 0.999
_diffrn_measurement_device_type  'multiwire proportional'
_diffrn_measurement_method       'phi and omega scans'
_diffrn_radiation_type           MoK\a
_diffrn_radiation_wavelength     0.71073
_diffrn_reflns_av_R_equivalents  0.1054
_diffrn_reflns_av_unetI/netI     0.0957
_diffrn_reflns_Laue_measured_fraction_full 0.999
_diffrn_reflns_Laue_measured_fraction_max 0.999
_diffrn_reflns_limit_h_max       26
_diffrn_reflns_limit_h_min       -29
_diffrn_reflns_limit_k_max       16
_diffrn_reflns_limit_k_min       -16
_diffrn_reflns_limit_l_max       17
_diffrn_reflns_limit_l_min       -16
_diffrn_reflns_number            12729
_diffrn_reflns_point_group_measured_fraction_full 0.999
_diffrn_reflns_point_group_measured_fraction_max 0.999
_diffrn_reflns_theta_full        25.017
_diffrn_reflns_theta_max         25.017
_diffrn_reflns_theta_min         2.732
_exptl_absorpt_coefficient_mu    3.139
_exptl_absorpt_correction_T_max  0.6503
_exptl_absorpt_correction_T_min  0.5075
_exptl_absorpt_correction_type   multi-scan
_exptl_absorpt_process_details   sadabs
_exptl_crystal_colour            colorless
_exptl_crystal_density_diffrn    1.819
_exptl_crystal_description       'needle crystal'
_exptl_crystal_F_000             2192
_exptl_crystal_size_max          0.250
_exptl_crystal_size_mid          0.200
_exptl_crystal_size_min          0.150
_refine_diff_density_max         2.813
_refine_diff_density_min         -2.385
_refine_diff_density_rms         0.352
_refine_ls_extinction_method     none
_refine_ls_goodness_of_fit_ref   1.089
_refine_ls_hydrogen_treatment    constr
_refine_ls_matrix_type           full
_refine_ls_number_parameters     292
_refine_ls_number_reflns         3586
_refine_ls_number_restraints     417
_refine_ls_restrained_S_all      1.070
_refine_ls_R_factor_all          0.0808
_refine_ls_R_factor_gt           0.0606
_refine_ls_shift/su_max          0.006
_refine_ls_shift/su_mean         0.000
_refine_ls_structure_factor_coef Fsqd
_refine_ls_weighting_details
'w=1/[\s^2^(Fo^2^)+(0.1178P)^2^] where P=(Fo^2^+2Fc^2^)/3'
_refine_ls_weighting_scheme      calc
_refine_ls_wR_factor_gt          0.1618
_refine_ls_wR_factor_ref         0.2035
_reflns_Friedel_coverage         0.000
_reflns_number_gt                2778
_reflns_number_total             3586
_reflns_threshold_expression     'I > 2\s(I)'
_cod_data_source_file            am8b18320_si_005.cif
_cod_data_source_block           170223b
_cod_database_code               4514474
_shelx_shelxl_version_number     2014/7
_shelx_space_group_comment
; 
The symmetry employed for this shelxl refinement is uniquely defined 
by the following loop, which should always be used as a source of 
symmetry information in preference to the above space-group names. 
They are only intended as comments. 
;
_shelx_estimated_absorpt_t_min   0.508
_shelx_estimated_absorpt_t_max   0.650
_shelx_res_file
; 
  
    170223b.res created by SHELXL-2014/7 
  
TITL 170223b in  C2/c 
CELL  0.71073   24.4269   13.6018   14.9262    90.000   124.984    90.000 
ZERR 8           0.0019    0.0009    0.0010     0.000     0.003     0.000 
LATT 7 
SYMM             - X ,              Y ,    0.50000 - Z 
SFAC C  H  N  O  Eu 
UNIT 152 144 8 72 8 
OMIT  -1.00  50.04 
L.S. 16 
ACTA 
BOND $H 
FMAP 2 
PLAN 20 
eadp o2 o2' 
eadp o8 o8' 
eadp n1 n1' 
eadp c17 c17' 
eadp c18 c18' 
eadp c19 c19' 
eqiv $1 x,2-y,z-0.5 
dfix 2.16 0.01 h12 h17'_$1 
SIMU 0.01 0.02 3.8 o2 o8 o9 n1 c1 > c19 
DFIX 1.24 0.01 C17 O9 
DFIX 2.13 0.01 N1 O9 
DFIX 2.45 0.01 C17 C18 C17 C19 
DFIX 1.33 0.01 N1 C17 
DFIX 1.47 0.01 N1 C18 N1 C19 
DFIX 2.49 0.01 C18 C19 
DFIX 1.24 0.01 C17' O9 
DFIX 2.13 0.01 N1' O9 
DFIX 2.45 0.01 C17' C18' C17' C19' 
DFIX 1.33 0.01 N1' C17' 
DFIX 1.47 0.01 N1' C18' N1' C19' 
DFIX 2.49 0.01 C18' C19' 
flat 0.03 o9 n1' c17' c18' c19' 
flat 0.03 o9 n1 c17 c18 c19 
SIZE 0.25 0.20 0.15 
FREE Eu1  C17' 
FREE C17  C18 
FREE Eu1  C15 
FREE C19  C18 
WGHT    0.117800 
FVAR       0.09327   0.53950   0.47772   0.76275 
EU1   5    0.338965    1.193018    0.598858    11.00000    0.02074    0.02210 = 
         0.01677    0.00089    0.01058   -0.00018 
PART 1 
N1    3    0.404055    0.910340    0.786036    21.00000    0.10208    0.07320 = 
         0.10109    0.02580    0.03029   -0.00034 
PART 2 
N1'   3    0.393381    0.896839    0.760468   -21.00000    0.10208    0.07320 = 
         0.10109    0.02580    0.03029   -0.00034 
PART 0 
O1    4   -0.102911    0.736694   -0.221212    11.00000    0.03858    0.07682 = 
         0.02123   -0.01497    0.00400    0.00594 
PART 1 
O2    4   -0.007332    0.770922   -0.075177    31.00000    0.03969    0.07472 = 
         0.04143   -0.01547    0.01841   -0.00606 
PART 2 
O2'   4   -0.012016    0.724744   -0.053668   -31.00000    0.03969    0.07472 = 
         0.04143   -0.01547    0.01841   -0.00606 
PART 0 
O3    4   -0.017375    0.898263    0.041853    11.00000    0.03361    0.06397 = 
         0.03663   -0.02024    0.02187   -0.01706 
O4    4    0.223422    1.165817    0.416293    11.00000    0.02539    0.02255 = 
         0.02886   -0.01458    0.01059   -0.00392 
O5    4    0.306932    1.077147    0.448570    11.00000    0.02214    0.04698 = 
         0.04405   -0.01857    0.01107    0.00315 
O6    4    0.337783    1.300997    0.473470    11.00000    0.03602    0.04653 = 
         0.04079    0.02304    0.02644    0.00786 
O7    4    0.237551    1.371466    0.366059    11.00000    0.02732    0.04867 = 
         0.03459    0.01434    0.01833   -0.00476 
PART 1 
O8    4    0.446661    1.160671    0.630092    41.00000    0.03426    0.09243 = 
         0.06446    0.03025    0.02447    0.00649 
AFIX   3 
H8E   2    0.463520    1.195431    0.604322    41.00000   -1.20000 
H8F   2    0.474681    1.157691    0.699092    41.00000   -1.20000 
PART 2 
AFIX   0 
O8'   4    0.447790    1.223528    0.653669   -41.00000    0.03426    0.09243 = 
         0.06446    0.03025    0.02447    0.00649 
AFIX   3 
H8'C  2    0.464650    1.224538    0.617239   -41.00000   -1.20000 
H8'D  2    0.479560    1.223418    0.721269   -41.00000   -1.20000 
PART 0 
AFIX   0 
O9    4    0.383094    1.036089    0.683363    11.00000    0.07850    0.06085 = 
         0.07899    0.02391    0.04685    0.00849 
C1    1   -0.070020    0.755363   -0.124765    11.00000    0.03256    0.05546 = 
         0.03361   -0.01290    0.01565   -0.00608 
C2    1   -0.105703    0.791770   -0.075849    11.00000    0.03385    0.05754 = 
         0.03757   -0.00950    0.02003   -0.01145 
C3    1   -0.169106    0.755096   -0.117039    11.00000    0.04235    0.06606 = 
         0.04171   -0.01591    0.01743   -0.01606 
AFIX  43 
H3    2   -0.187209    0.706334   -0.170335    11.00000   -1.20000 
AFIX   0 
C4    1   -0.206581    0.791822   -0.078031    11.00000    0.04108    0.07832 = 
         0.05010   -0.01252    0.02262   -0.01912 
AFIX  43 
H4    2   -0.249807    0.769682   -0.107824    11.00000   -1.20000 
AFIX   0 
C5    1   -0.177460    0.860799    0.004719    11.00000    0.04310    0.07408 = 
         0.04706   -0.01707    0.02331   -0.01305 
AFIX  43 
H5    2   -0.200735    0.883491    0.032686    11.00000   -1.20000 
AFIX   0 
C6    1   -0.115518    0.895845    0.045695    11.00000    0.03650    0.06446 = 
         0.04136   -0.01290    0.02201   -0.01049 
AFIX  43 
H6    2   -0.097003    0.943055    0.100684    11.00000   -1.20000 
AFIX   0 
C7    1   -0.079079    0.861978    0.006407    11.00000    0.03399    0.05779 = 
         0.03639   -0.00811    0.01916   -0.00796 
C8    1    0.017150    0.958989    0.133570    11.00000    0.02903    0.04181 = 
         0.03158   -0.01009    0.01988   -0.00716 
AFIX  23 
H8A   2    0.015262    0.932039    0.191912    11.00000   -1.20000 
H8B   2   -0.002785    1.023985    0.115701    11.00000   -1.20000 
AFIX   0 
C9    1    0.088099    0.965035    0.169096    11.00000    0.02791    0.03263 = 
         0.02896   -0.00677    0.01981   -0.00315 
C10   1    0.112035    0.910001    0.121622    11.00000    0.02861    0.03453 = 
         0.03083   -0.00877    0.01802   -0.00464 
AFIX  43 
H10   2    0.083207    0.868263    0.063889    11.00000   -1.20000 
AFIX   0 
C11   1    0.178693    0.915526    0.158331    11.00000    0.02575    0.03037 = 
         0.02676   -0.01089    0.01758   -0.00083 
C12   1    0.222215    0.974997    0.246730    11.00000    0.02526    0.03146 = 
         0.02937   -0.00721    0.01925    0.00052 
AFIX  43 
H12   2    0.267243    0.976657    0.273651    11.00000   -1.20000 
AFIX   0 
C13   1    0.132383    1.027381    0.256594    11.00000    0.02555    0.02524 = 
         0.02919   -0.00958    0.01651    0.00288 
AFIX  43 
H13   2    0.116619    1.065886    0.288751    11.00000   -1.20000 
AFIX   0 
C14   1    0.198946    1.032197    0.295400    11.00000    0.02711    0.02987 = 
         0.02968   -0.00960    0.01816   -0.00397 
C15   1    0.246637    1.094627    0.392741    11.00000    0.03287    0.02946 = 
         0.02969   -0.00374    0.02277    0.00033 
C16   1    0.296328    1.356489    0.397346    11.00000    0.02975    0.02512 = 
         0.02551   -0.00261    0.01780   -0.00520 
PART 1 
C17   1    0.378387    0.947360    0.687965    21.00000    0.09512    0.07201 = 
         0.08881    0.03107    0.03551    0.00277 
AFIX  43 
H17   2    0.357857    0.907991    0.625838    21.00000   -1.20000 
AFIX   0 
C18   1    0.436283    0.970334    0.885739    21.00000    0.12495    0.10843 = 
         0.11189    0.04073    0.02290   -0.00215 
AFIX  33 
H18A  2    0.451325    0.928578    0.947622    21.00000   -1.50000 
H18B  2    0.473790    1.004414    0.895573    21.00000   -1.50000 
H18C  2    0.404801    1.017227    0.879194    21.00000   -1.50000 
AFIX   0 
C19   1    0.401015    0.803914    0.802575    21.00000    0.11953    0.08702 = 
         0.11220    0.03002    0.03954   -0.00078 
AFIX  33 
H19A  2    0.422171    0.790993    0.878935    21.00000   -1.50000 
H19B  2    0.355179    0.783292    0.762100    21.00000   -1.50000 
H19C  2    0.423721    0.768308    0.777436    21.00000   -1.50000 
PART 2 
AFIX   0 
C17'  1    0.374597    0.989431    0.742546   -21.00000    0.09512    0.07201 = 
         0.08881    0.03107    0.03551    0.00277 
AFIX  43 
H17'  2    0.355290    1.017891    0.774822   -21.00000   -1.20000 
AFIX   0 
C18'  1    0.424079    0.847806    0.712589   -21.00000    0.12495    0.10843 = 
         0.11189    0.04073    0.02290   -0.00215 
AFIX  33 
H18D  2    0.433654    0.780684    0.736755   -21.00000   -1.50000 
H18E  2    0.393936    0.849615    0.634302   -21.00000   -1.50000 
H18F  2    0.464827    0.880883    0.735233   -21.00000   -1.50000 
AFIX   0 
C19'  1    0.383945    0.835121    0.832520   -21.00000    0.11953    0.08702 = 
         0.11220    0.03002    0.03954   -0.00078 
AFIX  33 
H19D  2    0.400339    0.770001    0.836412   -21.00000   -1.50000 
H19E  2    0.408111    0.863324    0.904451   -21.00000   -1.50000 
H19F  2    0.337277    0.832080    0.803345   -21.00000   -1.50000 
PART 0 
AFIX   0 
HKLF 4 
  
REM  170223b in  C2/c 
REM R1 =  0.0606 for    2778 Fo > 4sig(Fo)  and  0.0808 for all    3586 data 
REM    292 parameters refined using    417 restraints 
  
END 
  
WGHT      0.1180      0.0000 
  
REM Highest difference peak  2.813,  deepest hole -2.385,  1-sigma level  0.352 
Q1    1   0.4390  1.3240  0.6666  11.00000  0.05    1.88 
Q2    1   0.4206  1.0323  1.0042  11.00000  0.05    1.76 
Q3    1   0.4782  1.3093  0.7016  11.00000  0.05    1.65 
Q4    1   0.3790  1.1928  0.6087  11.00000  0.05    1.24 
Q5    1   0.3367  1.2547  0.5859  11.00000  0.05    1.08 
Q6    1   0.3434  1.1232  0.6102  11.00000  0.05    0.94 
Q7    1  -0.0440  1.0860  0.1005  11.00000  0.05    0.94 
Q8    1  -0.1911  0.7452 -0.0546  11.00000  0.05    0.93 
Q9    1   0.3952  1.2557  0.6056  11.00000  0.05    0.93 
Q10   1   0.3076  1.0659  0.2895  11.00000  0.05    0.91 
Q11   1   0.4866  1.3641  0.7605  11.00000  0.05    0.87 
Q12   1   0.2997  1.1961  0.5894  11.00000  0.05    0.87 
Q13   1   0.2572  0.8629  0.7299  11.00000  0.05    0.87 
Q14   1   0.1612  1.0787  0.4047  11.00000  0.05    0.86 
Q15   1   0.2402  1.0881  0.1849  11.00000  0.05    0.85 
Q16   1   0.2290  1.0330  0.1220  11.00000  0.05    0.85 
Q17   1   0.0000  1.0646  0.2500  10.50000  0.05    0.84 
Q18   1   0.3024  0.8904  0.6984  11.00000  0.05    0.80 
Q19   1   0.4516  1.1054  0.6272  11.00000  0.05    0.80 
Q20   1  -0.2664  0.8019 -0.1562  11.00000  0.05    0.79 
;
_shelx_res_checksum              55328
_shelx_hkl_file
; 
  22  -2   3   65.56   28.61 
  23  -3   2  145.80   44.79 
  21  -3   4  113.51   38.95 
  24  -4   1  107.98   37.63 
  22  -4   3   91.06   31.82 
  25  -5   0  143.55   42.88 
  23  -5   2   64.19   25.93 
  22  -6   3   59.00   26.41 
  18   0   6    2.65    4.80 
  19  -1   5   11.12   12.95 
  19   1   5   17.84   15.00 
  20  -2   4    6.50    8.90 
  18  -2   6    3.42    6.74 
  21  -3   3   17.41   19.47 
  19  -3   5    3.92    7.11 
  22  -4   2  -11.14   11.70 
  20  -4   4  -21.48   15.94 
  18  -4   6   10.61   11.12 
  23  -5   1   -6.51    8.67 
  21  -5   3   15.78   13.41 
  19  -5   5  -22.78   16.22 
  22  -6   2   18.16   14.30 
  20  -6   4  -15.49   13.28 
  21  -7   3   58.28   28.10 
  19  -7   5    7.28    3.41 
  22   8   2   31.38   16.99 
  18   0   5  -38.11   21.43 
  16   0   7    9.57   12.75 
  19  -1   4    4.37    7.28 
  17   1   6   12.74    4.26 
  17  -1   6  -20.00   15.41 
  15  -1   8   20.36   15.35 
  15   1   8   16.36   13.32 
  18  -2   5   39.21   22.30 
  16  -2   7   30.31   18.53 
  16   2   7   18.96   15.07 
  19  -3   4   11.25   11.42 
  17  -3   6   41.13   19.35 
  20  -4   3   39.32   22.34 
  18  -4   5   70.84   28.80 
  16   4   7   34.87   19.03 
  16  -4   7   65.86   27.25 
  23  -5   0   18.10   13.47 
  21  -5   2   47.57   23.70 
  19  -5   4   46.58   23.13 
  17  -5   6   48.38   22.89 
  22  -6   1   38.89   20.44 
  20  -6   3   41.82   21.12 
  18  -6   5   43.74   21.62 
  16  -6   7   47.01   23.15 
  21  -7   2   10.73   10.49 
  21   7   2    8.68    8.52 
  19  -7   4   12.95   11.60 
  17  -7   6   -8.90    9.79 
  20   8   3    0.29    2.09 
  18  -8   5   -8.77    9.84 
  21   9   2   15.91   12.35 
  19   9   4  -15.09   11.93 
  16   0   6  290.56   59.63 
  14   0   8  141.23   40.94 
  17  -1   5  161.54   42.98 
  15   1   7  266.55   57.20 
  15  -1   7  195.69   48.27 
  13   1   9   84.88   30.88 
  13  -1   9  181.96   45.79 
  18  -2   4  128.60   39.84 
  16   2   6  204.74   49.85 
  16  -2   6  126.84   38.86 
  14   2   8   59.42   24.43 
  14  -2   8  137.47   39.39 
  19  -3   3   23.05   17.21 
  17  -3   5   50.96   22.97 
  15  -3   7   82.59   29.63 
  15   3   7   51.21   24.61 
  13   3   9   57.57   25.89 
  13  -3   9   57.19   26.29 
  20  -4   2    3.56    4.43 
  18  -4   4    4.13    8.96 
  16  -4   6   -0.61    2.84 
  14  -4   8    3.68    2.51 
  14   4   8  -13.17   12.63 
  21  -5   1    8.03    2.82 
  19  -5   3  -11.45   10.95 
  17  -5   5   32.13   17.75 
  15   5   7   53.49   26.73 
  15  -5   7    6.40    6.31 
  22  -6   0   43.19   21.50 
  20   6   2   41.22   19.13 
  20  -6   2   72.22   28.18 
  18  -6   4   56.76   23.38 
  16  -6   6   71.62   27.07 
  14   6   8   41.08   23.54 
  14  -6   8   68.44   26.89 
  19  -7   3   95.90   31.16 
  19   7   3  116.27   31.29 
  17  -7   5  122.56   34.98 
  15  -7   7   24.04   12.87 
  20   8   2  161.41   38.12 
  18  -8   4  121.01   35.15 
  18   8   4  120.07   32.21 
  16   8   6   65.36   23.43 
  16  -8   6   47.08   21.82 
  21   9   1  111.77   33.15 
  19   9   3  161.19   39.41 
  17   9   5   55.27   20.16 
  15  -9   7  136.46   38.57 
  16   0   5   -6.77    9.91 
  14   0   7   12.01   16.03 
  12   0   9  -20.65   14.96 
  15  -1   6    3.72    9.59 
  15   1   6    9.01    9.81 
  13  -1   8   -6.47    8.38 
  13   1   8   -2.57    7.99 
  11   1  10    3.71    8.37 
  11  -1  10  -20.18   14.76 
  16  -2   5   25.61   15.61 
  14   2   7    9.71   13.53 
  14  -2   7   -0.60   10.43 
  12  -2   9    6.46    8.48 
  12   2   9  -19.10   14.50 
  17  -3   4  120.44   35.83 
  15  -3   6   17.08   16.22 
  13  -3   8   18.67   16.60 
  13   3   8   -8.87   10.08 
  11   3  10  -23.09   16.00 
  11  -3  10   38.71   20.03 
  18  -4   3   63.89   26.79 
  16  -4   5   80.18   29.60 
  14  -4   7   28.45   18.57 
  14   4   7    5.76    6.90 
  12  -4   9    3.61    8.70 
  12   4   9    9.36    5.85 
  19  -5   2   39.02   19.13 
  17   5   4   66.73   21.21 
  17  -5   4   50.59   22.55 
  15  -5   6   25.92   15.55 
  13  -5   8   66.57   26.38 
  13   5   8   73.43   29.69 
  11   5  10   -3.86    6.73 
  22  -6  -1   38.65   17.87 
  20  -6   1   66.33   24.73 
  18   6   3   36.65   16.28 
  18  -6   3   14.85    8.74 
  16  -6   5   38.18   19.68 
  16   6   5   23.78   12.23 
  14  -6   7   36.92   19.02 
  12  -6   9    7.65    5.49 
  12   6   9   16.11   12.63 
  19  -7   2   35.43   16.38 
  19   7   2   46.44   19.55 
  17  -7   4   10.45    3.81 
  17   7   4   22.98   13.31 
  15  -7   6   10.80   11.47 
  15   7   6   22.71   13.15 
  13  -7   8   -1.97    7.88 
  13   7   8  -39.68   21.61 
  18  -8   3   -0.55    6.16 
  18   8   3   32.01   16.25 
  16  -8   5   -3.00    5.46 
  16   8   5   -0.50    2.37 
  14  -8   7    3.83    6.12 
  14   8   7  -13.63   10.52 
  19   9   2    5.28    6.95 
  17   9   4  -13.52   10.93 
  15   9   6    3.39    5.52 
  15  -9   6    8.68    6.82 
  13   9   8  -33.09   17.13 
  13  -9   8   -3.02   12.09 
  20  10   1   31.28   17.87 
  18  10   3   17.35   12.83 
  16  10   5   -6.78    8.14 
  14   0   6  158.55   41.69 
  12   0   8  212.16   47.85 
  10   0  10   71.48   27.58 
  15  -1   5   75.00   29.56 
  13  -1   7  117.31   36.07 
  13   1   7  138.69   37.91 
  11  -1   9   61.19   25.56 
  11   1   9   66.88   25.36 
   9  -1  11   82.17   29.74 
   9   1  11  159.01   42.02 
  16  -2   4    1.50    8.08 
  14   2   6   40.91   20.69 
  14  -2   6   23.84   13.96 
  12   2   8   61.53   24.73 
  12  -2   8   98.90   32.18 
  10   2  10   37.05   19.90 
  10  -2  10   25.67   15.98 
   8   2  12  116.72   35.43 
  17   3   3   19.02    9.96 
  17  -3   3   14.82   12.39 
  15  -3   5   26.01   15.68 
  13   3   7   21.89   16.11 
  13  -3   7   13.23   11.54 
  11  -3   9   30.70   20.86 
  11   3   9   12.81   10.34 
   9   3  11   27.44   17.66 
   9  -3  11   15.65   12.10 
  18  -4   2   11.18   12.50 
  16   4   4    5.44    5.54 
  16  -4   4  -23.74   14.98 
  14  -4   6    4.35   11.61 
  12  -4   8    0.67    3.13 
  12   4   8   10.08   11.92 
  10   4  10   16.05   11.98 
  10  -4  10  -20.86   14.37 
  19  -5   1    1.54    4.13 
  17   5   3   -0.34    1.78 
  17  -5   3    0.84    6.87 
  15   5   5   15.78    9.92 
  15  -5   5   38.56   18.80 
  13  -5   7  -15.41   12.17 
  11  -5   9    0.48    7.56 
  11   5   9   28.63   17.43 
   9   5  11   30.62   18.02 
  20  -6   0    3.03    5.30 
  18  -6   2    3.27    6.36 
  16  -6   4   22.33   13.12 
  16   6   4   28.73   13.32 
  14   6   6   37.67   16.90 
  14  -6   6   37.50   19.08 
  12   6   8   13.43   14.01 
  12  -6   8   10.11   13.32 
  10   6  10   -0.71    3.32 
  10  -6  10   13.28   10.42 
  19  -7   1   -2.78    5.03 
  17  -7   3   31.09   16.48 
  17   7   3   10.54    7.86 
  15  -7   5   39.72   18.41 
  15   7   5   37.44   16.24 
  13  -7   7   47.52   20.53 
  13   7   7   38.17   17.47 
  11   7   9   48.35   24.60 
  11  -7   9   58.17   24.65 
  18   8   2   18.88   13.30 
  16   8   4   23.50   14.63 
  16  -8   4   26.34   16.13 
  14  -8   6   41.65   19.33 
  14   8   6   35.02   15.92 
  12   8   8   35.35   16.73 
  12  -8   8   52.96   24.57 
  12   8   8   53.01   24.33 
  10   8  10   55.68   24.30 
  17   9   3   37.07   18.79 
  15   9   5    2.37    3.50 
  15  -9   5   25.06   14.57 
  13  -9   7   38.84   18.95 
  13   9   7   26.21   14.19 
  11   9   9   58.21   22.95 
  11   9   9  114.58   36.88 
  11  -9   9   96.44   31.35 
  18  10   2   -6.92    8.23 
  16  10   4   32.77   20.84 
  14  10   6   17.50   12.78 
  12  10   8   30.10   14.84 
  12 -10   8   22.43   12.96 
  19  11   1   -9.25    9.82 
  17  11   3   16.94   12.96 
  14   0   5    7.30    8.36 
  12   0   7   -2.04    9.42 
  10   0   9    2.97    6.33 
   8   0  11    0.16    9.42 
  13   1   6   27.28   14.65 
  13  -1   6   12.09   10.73 
  11   1   8    3.17    6.33 
  11  -1   8   43.15   19.97 
   9  -1  10   21.30   17.09 
   9   1  10   96.70   32.75 
   7  -1  12   38.25   17.03 
   7   1  12   30.29   17.25 
  16   2   3  158.06   28.13 
  14  -2   5  166.84   41.71 
  12   2   7   17.22   12.97 
  12  -2   7   44.41   20.89 
  10  -2   9   77.00   28.08 
  10   2   9  217.37   47.64 
   8  -2  11   73.34   27.37 
   8   2  11  126.71   35.31 
   6   2  13  105.71   31.76 
  15   3   4  274.76   39.94 
  15  -3   4  259.00   50.88 
  13  -3   6  158.71   40.06 
  11   3   8  119.63   34.35 
  11  -3   8   58.91   24.79 
   9   3  10  143.88   38.67 
   9  -3  10  160.02   39.30 
   7  -3  12  223.84   48.66 
   7   3  12  172.60   42.60 
  16   4   3  238.33   38.59 
  16  -4   3  172.71   42.15 
  14  -4   5  279.05   51.54 
  14   4   5  218.16   36.94 
  12  -4   7  214.05   46.53 
  12   4   7  448.00   69.72 
  10   4   9   95.96   31.62 
  10  -4   9  179.20   42.33 
   8   4  11  208.84   46.76 
   8  -4  11  208.53   46.59 
  17  -5   2  261.48   49.96 
  15   5   4  197.30   36.30 
  15  -5   4  201.97   44.34 
  13  -5   6  250.68   49.29 
  13   5   6  230.84   39.17 
  11  -5   8  377.41   60.59 
  11   5   8  255.36   54.54 
   9   5  10  114.39   34.90 
   9  -5  10  150.43   37.99 
   7   5  12   70.76   27.37 
  18  -6   1  282.90   52.21 
  16  -6   3  189.97   41.33 
  16   6   3  193.10   37.89 
  14   6   5  140.96   31.75 
  14  -6   5  180.33   40.90 
  12   6   7  129.45   29.98 
  12  -6   7  136.77   35.50 
  10   6   9  142.84   40.03 
  10  -6   9  189.28   42.93 
   8   6  11   58.31   25.07 
   8  -6  11   90.36   30.73 
  19  -7   0   39.53   18.52 
  17  -7   2   86.11   27.01 
  15  -7   4   77.27   25.82 
  15   7   4   83.42   24.82 
  13   7   6  111.08   28.65 
  13  -7   6   98.94   30.04 
  11   7   8   47.75   19.27 
  11   7   8   42.62   21.79 
  11  -7   8   84.47   28.06 
   9   7  10   69.87   26.53 
   9  -7  10   93.88   29.81 
   7   7  12   29.61   17.31 
  16  -8   3   24.05   13.72 
  16   8   3   14.53   10.73 
  14  -8   5   33.10   17.98 
  14   8   5    4.69    5.07 
  12  -8   7   21.07   13.36 
  12   8   7   18.86   12.66 
  10   8   9   17.62   12.35 
  10  -8   9   12.69   11.18 
  10   8   9    5.15    7.40 
   8   8  11   -5.64    7.78 
  17   9   2   -7.31    7.96 
  15   9   4  -15.57   11.36 
  15  -9   4   11.31    8.95 
  13   9   6  -16.93   11.92 
  13  -9   6   -0.69    9.06 
  11   9   8    0.38    2.07 
  11  -9   8   -9.59    9.52 
   9  -9  10    6.84    8.00 
   9   9  10    1.56    3.78 
  18  10   1   15.17    8.78 
  16  10   3    4.82    7.22 
  14  10   5   49.14   20.93 
  12  10   7   27.46   15.55 
  12 -10   7   11.35   13.40 
  10 -10   9   16.92    9.49 
  10  10   9    8.76    8.67 
  17  11   2   87.33   30.00 
  15  11   4   29.09   17.56 
  13  11   6   60.88   24.32 
  12   0   6   31.93   17.83 
  10   0   8   14.37   13.62 
   8   0  10   49.41   21.95 
   6   0  12    3.53    5.77 
  13  -1   5   51.19   22.91 
  11  -1   7  147.42   37.58 
  11   1   7   73.40   26.61 
   9  -1   9    8.47    5.15 
   9   1   9   -2.41    5.33 
   7   1  11   -4.77   11.10 
   7  -1  11   23.96   16.64 
   5  -1  13   -6.02    7.62 
   5   1  13   -6.89    8.18 
  14   2   4   14.08    7.67 
  14  -2   4    3.24    6.68 
  12  -2   6  141.66   36.67 
  10   2   8   13.16   10.90 
  10  -2   8   17.86   12.07 
   8   2  10    7.28   10.48 
   8  -2  10    3.16    7.56 
   6  -2  12   -1.45    3.72 
   6   2  12  -21.02   13.97 
  15  -3   3   -5.79    7.09 
  13  -3   5    9.32    8.02 
  13   3   5    1.73    3.30 
  11   3   7   50.65   21.86 
  11  -3   7   36.80   16.16 
   9  -3   9  -15.59   11.77 
   9   3   9   -5.18    4.72 
   7   3  11   -0.53    4.31 
   7  -3  11  -18.69   13.03 
   5   3  13   22.93   16.97 
   5  -3  13    9.90    9.86 
  16  -4   2   -3.15    5.21 
  14   4   4   -7.40    6.34 
  14  -4   4   -7.75    8.09 
  12   4   6   23.92   12.00 
  12  -4   6   32.68   15.65 
  10  -4   8    2.16    5.82 
  10   4   8  -15.55   12.38 
   8   4  10    7.46    8.42 
   8  -4  10   -2.11    9.35 
   6  -4  12   -9.46    9.45 
   6   4  12    8.79    8.09 
  17  -5   1   16.86    9.03 
  15  -5   3   43.48   20.72 
  15   5   3   12.00    8.81 
  13  -5   5    6.24    5.13 
  13   5   5  -12.75    8.60 
  11  -5   7  -10.28    9.49 
  11   5   7    0.68    2.17 
   9  -5   9   22.52   14.67 
   9   5   9   22.01   14.63 
   7  -5  11   13.22   10.99 
   7   5  11  -15.23   12.06 
   5   5  13   -3.33    5.57 
  18  -6   0   60.79   21.83 
  16  -6   2  102.96   29.12 
  14  -6   4    8.92    8.57 
  14   6   4   40.99   15.08 
  12   6   6    0.51    1.60 
  12  -6   6   -6.80   10.19 
  10  -6   8    2.18    4.58 
  10   6   8    3.52    4.85 
  10   6   8   12.31   11.03 
   8   6  10   11.71    6.78 
   8  -6  10   29.23   16.17 
   8   6  10   31.31   17.38 
   6  -6  12    9.64   10.44 
   6   6  12  -15.17   11.92 
  19  -7  -1  152.36   34.87 
  17  -7   1   68.41   22.91 
  15   7   3   99.49   26.87 
  15  -7   3   96.47   27.06 
  13  -7   5   73.03   23.59 
  13   7   5   44.31   17.75 
  11   7   7    5.96    5.69 
  11  -7   7    1.95    2.97 
   9   7   9    6.83   11.13 
   9  -7   9   26.34   15.56 
   9   7   9   26.40   13.74 
   7   7  11    5.40    2.54 
   7  -7  11   22.86   15.60 
   7   7  11   15.09   11.38 
   5   7  13   -0.31   10.12 
  16   8   2   72.82   24.63 
  16  -8   2   89.60   26.19 
  14  -8   4   59.53   21.52 
  14   8   4  113.97   29.45 
  12  -8   6   28.58   14.74 
  12   8   6   38.63   17.46 
  10  -8   8   53.88   22.27 
  10   8   8   47.07   20.21 
  10   8   8   24.77   15.51 
   8   8  10    4.50    8.54 
   8  -8  10    4.81   10.76 
   8   8  10   -3.57    5.92 
   6   8  12  -11.79   10.69 
  15   9   3   85.29   26.76 
  13   9   5   84.49   26.53 
  13  -9   5   69.71   23.15 
  11   9   7   33.67   16.86 
  11  -9   7   33.26   17.52 
   9   9   9   40.40   20.17 
   9   9   9   18.36   13.77 
   9  -9   9   28.87   16.14 
   7   9  11  -17.93   12.49 
  16  10   2   34.75   17.44 
  14  10   4   83.78   27.43 
  12  10   6   30.72   17.86 
  12 -10   6   51.08   20.77 
  10  10   8    6.27    8.48 
  10  10   8   66.87   24.28 
  10 -10   8   38.86   17.91 
   8  10  10    0.67    2.72 
   8 -10  10    6.04    7.58 
  17  11   1   38.01   19.77 
  15  11   3   33.57   15.40 
  13  11   5   19.92   13.23 
  11  11   7   28.10   16.11 
  18  12   0   11.12   10.83 
  16  12   2   16.72   12.33 
  14  12   4   12.65   11.16 
  10   0   7    4.04    6.07 
   8   0   9   -0.34    7.72 
   6   0  11   -2.24    6.44 
   4   0  13   31.43   16.81 
  13   1   4   60.62   15.18 
  11   1   6   33.01   16.91 
  11  -1   6   86.61   30.58 
   9   1   8  -11.16    9.90 
   9  -1   8   17.56   13.07 
   7   1  10   39.30   17.55 
   7  -1  10   35.94   19.00 
   5   1  12   62.36   24.25 
   5  -1  12   37.69   19.95 
   3  -1  14   16.65   13.93 
   3   1  14   32.34   17.20 
  12   2   5   27.99   10.76 
  12  -2   5   28.34   15.20 
  10  -2   7   38.24   16.30 
  10   2   7   18.66   14.68 
   8  -2   9   33.19   17.03 
   8   2   9   56.65   23.26 
   6   2  11   77.75   27.36 
   6  -2  11  101.26   29.25 
   4  -2  13  120.84   34.16 
   4   2  13   58.05   22.97 
  13   3   4   36.07   12.18 
  13  -3   4   61.89   22.04 
  11   3   6   55.30   16.13 
  11  -3   6   37.10   18.27 
   9  -3   8   24.13   15.03 
   9   3   8   21.15   14.32 
   7   3  10  107.21   31.35 
   7  -3  10  115.23   31.82 
   5  -3  12  121.55   33.90 
   5   3  12  119.46   32.69 
   3   3  14  129.48   34.96 
  14  -4   3    9.67    8.89 
  14   4   3   41.43   14.82 
  12   4   5    1.47    4.33 
  12  -4   5   -1.44    5.14 
  10   4   7  111.58   24.71 
  10   4   7   96.86   31.08 
  10  -4   7   77.32   25.76 
   8  -4   9  103.58   28.48 
   8   4   9  177.78   40.63 
   8   4   9  110.09   25.29 
   6  -4  11  117.19   32.70 
   6   4  11  192.79   43.12 
   4  -4  13  172.02   41.45 
   4   4  13  151.40   37.10 
  15  -5   2   28.91   14.10 
  13  -5   4   10.99    8.94 
  13   5   4   15.79   10.57 
  11  -5   6   98.22   28.56 
  11   5   6   70.97   20.94 
   9   5   8   74.71   27.88 
   9  -5   8   78.73   25.63 
   9   5   8   91.07   23.69 
   7  -5  10   90.03   28.73 
   7   5  10  146.62   36.59 
   7   5  10  154.35   31.73 
   5   5  12   90.38   28.70 
   5  -5  12   70.94   26.05 
   3   5  14  129.39   34.42 
  16  -6   1   22.95   13.00 
  14  -6   3   28.09   14.99 
  14   6   3   13.87    7.55 
  12   6   5    8.14    4.08 
  12  -6   5   16.35   10.68 
  10  -6   7   48.57   19.41 
  10   6   7   44.31   16.67 
   8   6   9   66.50   21.08 
   8  -6   9   67.24   24.73 
   8   6   9   76.38   26.51 
   6   6  11   63.81   23.81 
   6  -6  11   57.08   22.89 
   6   6  11   97.67   26.05 
   4   6  13   73.77   26.20 
  19  -7  -2   23.61   12.42 
  17  -7   0   10.31    3.90 
  15  -7   2   29.89   16.54 
  13  -7   4    7.82    7.85 
  13   7   4   27.64   14.27 
  11   7   6   23.22   13.71 
  11  -7   6    1.26    4.52 
   9  -7   8   32.68   15.36 
   9   7   8   28.55   13.22 
   9   7   8   30.22   17.12 
   7  -7  10   50.60   22.68 
   7   7  10   34.69   16.19 
   7   7  10   13.89   12.39 
   5   7  12   26.80   15.48 
   5  -7  12   48.89   21.26 
   5   7  12   33.10   16.03 
   3   7  14   53.91   21.37 
  16  -8   1   -1.62    5.89 
  14   8   3   -9.08    8.10 
  14  -8   3   15.13   10.10 
  12  -8   5   -2.42    4.39 
  12   8   5   -1.60    3.58 
  10   8   7    7.64    7.76 
  10  -8   7   14.34   11.14 
   8   8   9    8.44    7.95 
   8  -8   9   -0.55    3.13 
   8   8   9   19.57   13.03 
   6  -8  11   33.44   17.97 
   6   8  11   21.42   13.01 
   6   8  11   18.69   13.00 
   4   8  13   -0.74    3.09 
  15   9   2  -20.00   12.64 
  13  -9   4  -10.76    8.65 
  13   9   4   -4.30    5.87 
  11  -9   6  -22.51   13.03 
  11   9   6  -19.02   12.12 
   9  -9   8    0.70    6.69 
   9   9   8    8.59    5.28 
   9   9   8   12.94   11.25 
   7   9  10   11.31   11.97 
   7  -9  10   -0.40    2.26 
   7   9  10    8.10    8.69 
   5   9  12   25.10   14.85 
  14  10   3    8.04    7.30 
  12  10   5    0.44    5.69 
  10  10   7    0.82    4.71 
  10 -10   7  -14.38   10.61 
   8 -10   9   16.56   11.90 
   8  10   9   10.25   11.05 
   6  10  11    7.20    8.05 
  15  11   2    7.95    8.50 
  13  11   4   22.55   14.24 
  11  11   6    0.37    2.25 
   9  11   8   25.68   15.32 
   7 -11  10   23.05   14.31 
  16  12   1  -14.33   11.98 
  14  12   3  -10.48   10.12 
  12  12   5   12.53   13.30 
  12   0   4  449.99   42.66 
  10   0   6  281.22   50.15 
   8   0   8  386.19   59.14 
   6   0  10  249.46   46.94 
   4   0  12  220.10   44.01 
   2   0  14  187.41   41.63 
  13  -1   3  604.87   49.74 
  11  -1   5  346.40   54.19 
  11   1   5  293.01   35.12 
   9   1   7  253.37   48.85 
   9  -1   7  295.60   50.20 
   7   1   9  470.92   64.58 
   7  -1   9  301.68   52.00 
   5  -1  11  208.74   42.64 
   5   1  11  195.26   40.97 
   3  -1  13  178.54   40.47 
   3   1  13  167.90   39.04 
   1   1  15  177.21   41.18 
   1  -1  15  136.93   36.29 
  12  -2   4  252.64   47.02 
  12   2   4  131.95   24.16 
  10   2   6   42.62   13.22 
  10  -2   6   50.83   19.05 
   8  -2   8  556.86   69.95 
   8   2   8  419.92   47.61 
   8   2   8  431.96   64.38 
   6  -2  10  208.03   41.90 
   6   2  10  163.10   38.40 
   4   2  12   75.16   24.68 
   4  -2  12   82.67   26.18 
   2  -2  14  165.26   38.46 
   2   2  14   77.32   26.47 
  13  -3   3   -2.37    2.72 
  11  -3   5   87.95   25.76 
  11   3   5   55.81   15.77 
   9   3   7  144.01   35.58 
   9  -3   7  143.64   34.50 
   9   3   7  143.17   26.56 
   7  -3   9  187.35   39.11 
   7   3   9  135.64   26.66 
   7   3   9  129.33   33.99 
   5   3  11    3.14    4.05 
   5  -3  11   26.76   16.64 
   3  -3  13   48.96   20.18 
   3   3  13   29.48   15.81 
   1   3  15   21.99   15.75 
  14  -4   2    4.59    6.84 
  12   4   4   40.42   14.29 
  12  -4   4   51.45   19.87 
  10  -4   6   -2.61    9.23 
  10   4   6    0.14    4.78 
   8  -4   8   13.19   11.16 
   8   4   8   10.26   10.10 
   8   4   8    7.52    5.53 
   6   4  10    6.37    7.64 
   6  -4  10    5.65    9.23 
   6   4  10   13.87   10.70 
   4   4  12    7.97    8.08 
   4  -4  12    1.72    3.55 
   2   4  14  -10.61    9.62 
   2  -4  14    6.31    6.12 
  15  -5   1   69.99   24.16 
  13   5   3   14.10    9.74 
  13  -5   3    3.75    9.02 
  11   5   5   47.58   15.98 
  11  -5   5   78.35   24.33 
   9  -5   7    0.98    2.25 
   9   5   7    8.76    6.69 
   7  -5   9    0.95    5.14 
   7   5   9    2.07    6.20 
   5   5  11   21.04   10.74 
   5  -5  11   -1.95    4.44 
   5   5  11   18.00   10.82 
   3   5  13   -1.37    3.43 
   3  -5  13   -2.59    3.78 
   1   5  15   27.77   15.59 
  16  -6   0  193.91   38.03 
  14  -6   2   64.68   21.40 
  12  -6   4   77.13   23.33 
  12   6   4   80.95   22.45 
  10   6   6   83.22   22.98 
  10  -6   6  121.74   31.00 
   8   6   8   89.44   24.02 
   8   6   8   66.94   25.49 
   8  -6   8   46.96   19.01 
   6   6  10   59.54   22.51 
   6   6  10   75.29   22.23 
   6  -6  10   84.78   26.64 
   4   6  12   37.80   18.59 
   4   6  12   50.61   20.53 
   4  -6  12   46.23   19.18 
   2   6  14   22.41   15.48 
  17  -7  -1  146.51   31.37 
  15  -7   1  213.10   39.20 
  13  -7   3  162.68   33.19 
  13   7   3  125.78   29.52 
  11  -7   5  281.33   45.48 
  11   7   5  193.70   37.16 
   9  -7   7  197.71   39.88 
   9   7   7  223.38   39.54 
   7   7   9  163.38   34.40 
   7  -7   9  162.27   38.25 
   7   7   9  140.52   36.90 
   5  -7  11  137.92   35.75 
   5   7  11  137.21   34.42 
   5   7  11  123.00   30.82 
   3   7  13   84.08   26.16 
   3   7  13   73.90   25.04 
   3  -7  13   94.01   30.51 
  16  -8   0  243.17   40.91 
  14  -8   2  237.29   40.37 
  12   8   4  233.62   42.42 
  12  -8   4  274.07   45.29 
  10  -8   6  338.06   51.46 
  10   8   6  299.27   48.92 
   8   8   8  138.90   33.10 
   8  -8   8  178.86   38.36 
   8   8   8  245.09   47.71 
   6   8  10  176.92   40.31 
   6   8  10  121.95   31.23 
   6  -8  10  195.68   41.98 
   4   8  12  115.44   31.84 
   4   8  12  125.87   33.26 
   4  -8  12  188.22   42.22 
   2   8  14  107.48   31.66 
  13   9   3  222.98   42.31 
  13  -9   3  211.65   37.88 
  11  -9   5  277.44   47.01 
  11   9   5  322.46   52.02 
   9   9   7  272.98   48.07 
   9  -9   7  303.33   50.04 
   7   9   9  149.39   37.38 
   7   9   9   95.20   27.94 
   5   9  11  163.60   38.18 
   5  -9  11  215.83   44.19 
   3   9  13  135.13   36.17 
  14  10   2  181.00   40.42 
  12  10   4  140.92   34.80 
  10 -10   6  213.03   40.81 
  10  10   6  185.57   39.92 
   8 -10   8  165.90   37.33 
   8  10   8  109.98   31.99 
   8  10   8  153.30   40.22 
   6  10  10  144.84   36.32 
   6 -10  10  135.42   34.43 
  15  11   1   63.59   24.85 
  13  11   3   70.90   25.62 
  11  11   5  123.33   34.13 
   9  11   7   95.30   29.23 
   7 -11   9  104.88   28.36 
   7  11   9   60.74   23.30 
   5 -11  11   70.13   25.79 
  16  12   0   11.36   10.52 
  14  12   2   16.25   12.39 
  12  12   4    4.98    5.28 
  10  12   6    2.14    9.10 
  15  13   1   30.60   17.75 
  13  13   3   19.31   13.92 
  10   0   5    1.89    3.90 
  10   0   5    1.12    6.23 
   8   0   7    3.18    6.12 
   6   0   9    3.83    4.70 
   4   0  11    2.38    9.51 
   2   0  13   -0.49    3.13 
   0   0  15  -11.80   10.07 
  11  -1   4   13.53    5.66 
  11   1   4    7.74    5.34 
   9  -1   6   93.18   27.42 
   9   1   6   84.59   17.39 
   9   1   6  106.86   29.35 
   7   1   8   32.10   17.41 
   7  -1   8   22.67   12.02 
   7   1   8   39.11   12.01 
   5  -1  10   -0.82    2.67 
   5   1  10   -0.80    5.10 
   3  -1  12    5.19    6.28 
   3   1  12   -2.60    5.62 
   1   1  14    7.13    6.94 
   1  -1  14  -10.76    9.66 
  10  -2   5  125.41   30.76 
  10   2   5   95.23   19.43 
   8  -2   7  122.99   30.41 
   8   2   7  113.32   30.97 
   8   2   7  179.60   27.57 
   6   2   9   41.82   13.44 
   6  -2   9   57.48   22.05 
   4  -2  11   17.42   12.07 
   4   2  11    0.56    4.54 
   2  -2  13    5.20    7.51 
   2   2  13   11.27    8.23 
   0   2  15   -0.98    4.07 
   0  -2  15   10.29   10.57 
  11   3   4  219.74   32.31 
  11  -3   4  200.52   39.25 
   9   3   6  209.77   31.63 
   9  -3   6  179.77   37.79 
   7  -3   8   89.64   26.69 
   7   3   8   81.07   19.06 
   7   3   8   74.31   25.08 
   5   3  10   31.60   16.43 
   5   3  10   34.18   13.17 
   5  -3  10   48.33   18.23 
   3   3  12   25.63   14.75 
   3  -3  12   54.06   21.32 
   1   3  14   -0.13    7.13 
   1  -3  14    2.00    3.18 
  -1   3  16   -9.96    9.28 
  12  -4   3  402.94   56.35 
  10  -4   5  126.17   30.51 
  10   4   5  119.95   24.36 
   8   4   7  101.21   30.05 
   8  -4   7   91.55   25.70 
   8   4   7  104.99   22.97 
   6   4   9   56.38   17.19 
   6  -4   9  100.02   27.20 
   6   4   9   88.47   26.37 
   4  -4  11   21.19   11.03 
   4   4  11   16.12   11.70 
   4   4  11   32.06   14.47 
   2   4  13    6.48    7.22 
   2  -4  13   24.05   13.33 
   0   4  15    1.55    4.00 
  13  -5   2  368.62   52.91 
  11  -5   4  105.79   27.15 
  11   5   4  129.68   26.23 
   9  -5   6  182.58   36.82 
   9   5   6  176.18   31.79 
   7   5   8   97.78   28.99 
   7  -5   8  119.48   30.17 
   7   5   8  128.52   27.19 
   5   5  10   23.99   12.33 
   5   5  10   27.29   14.26 
   5  -5  10   33.22   15.32 
   3   5  12   27.08   13.34 
   3   5  12   32.47   15.79 
   3  -5  12   28.19   15.42 
   1   5  14    0.89    2.80 
   1  -5  14  -16.40   12.21 
  -1   5  16  -10.08    9.30 
  14  -6   1   88.87   24.52 
  12   6   3  166.80   31.80 
  12  -6   3  171.24   33.94 
  10  -6   5  262.64   43.16 
  10   6   5  192.65   34.83 
   8   6   7   65.79   19.76 
   8  -6   7   86.94   24.97 
   6  -6   9   37.99   17.17 
   6   6   9   43.46   20.18 
   6   6   9   32.35   14.58 
   4  -6  11   13.18    9.96 
   4   6  11    8.72    8.78 
   4   6  11   13.57   10.87 
   2  -6  13   13.48   11.25 
   2   6  13   14.40   10.66 
   2   6  13   23.38   13.79 
   0   6  15    6.54    7.39 
  17  -7  -2  168.26   33.23 
  15  -7   0   33.12   15.06 
  13  -7   2  147.13   30.99 
  11  -7   4   72.43   21.65 
  11   7   4   84.41   22.81 
   9   7   6   59.28   19.63 
   9  -7   6   50.03   19.29 
   7   7   8   10.91    9.86 
   7   7   8   10.11    7.31 
   7  -7   8   18.86    9.78 
   5   7  10   16.41   10.55 
   5  -7  10   17.88   11.78 
   5   7  10   11.83    9.69 
   3   7  12    1.31    3.48 
   3   7  12    1.84    3.80 
   3  -7  12   -1.05    7.89 
   1   7  14   -9.52    8.96 
  14  -8   1   12.69    8.32 
  12  -8   3    3.62    2.33 
  12   8   3   -3.55    4.99 
  10  -8   5   18.74    9.19 
  10   8   5   25.99   13.30 
   8   8   7   11.91   10.06 
   8  -8   7    2.73    4.53 
   6  -8   9    2.78    2.32 
   6   8   9    5.77    6.38 
   4   8  11    8.00    6.55 
   4   8  11    9.45   10.00 
   4  -8  11   17.83   12.07 
   2   8  13    7.40    7.84 
   2  -8  13   -0.72    3.38 
  13  -9   2    0.33    6.26 
  13   9   2   15.87   12.08 
  11   9   4    2.84    5.76 
  11  -9   4    7.26    5.11 
   9  -9   6    4.01    6.93 
   9   9   6    4.73    8.50 
   7  -9   8    6.07    8.37 
   7   9   8    0.83    2.58 
   7   9   8    7.10    7.75 
   5   9  10    0.92    5.56 
   5  -9  10    0.07    6.54 
   5   9  10    3.77    5.48 
   3  -9  12   22.69   14.29 
   3   9  12  -19.91   12.94 
  12  10   3   31.72   15.39 
  10 -10   5   37.50   15.36 
  10  10   5   47.55   19.47 
   8  10   7    1.87    1.98 
   8 -10   7   31.72   15.04 
   6  10   9   -0.51    2.27 
   6 -10   9    2.45    3.19 
   4  10  11   14.87   11.26 
   4 -10  11   -7.38    8.35 
  13  11   2   51.03   20.47 
  11  11   4   56.96   22.34 
   9  11   6   23.33   12.19 
   7  11   8   24.96   12.23 
   7 -11   8   29.47   14.44 
   5  11  10   13.75   10.52 
   5 -11  10   36.40   17.60 
  14  12   1   63.67   24.91 
  12  12   3   32.43   18.65 
  10  12   5   61.75   24.05 
   8  12   7   66.14   25.20 
  15  13   0  133.67   37.67 
  13  13   2   59.10   23.03 
  11  13   4  119.95   34.66 
  10   0   4   97.98   16.36 
   8   0   6  129.98   19.38 
   8   0   6  109.71   28.44 
   6   0   8   18.68   10.74 
   4   0  10  131.03   31.41 
   2   0  12   83.06   25.50 
   0   0  14  127.65   33.08 
  -2   0  16  144.85   36.43 
  11  -1   3   22.18    7.13 
   9   1   5  131.33   21.23 
   9  -1   5  151.20   18.58 
   9  -1   5  126.55   30.63 
   7   1   7   48.84   12.99 
   7   1   7   35.42   15.97 
   7  -1   7   36.49   14.90 
   5   1   9   76.03   17.68 
   5   1   9   65.90   21.60 
   5  -1   9   83.62   24.13 
   3   1  11  111.25   28.26 
   3  -1  11  116.24   29.57 
   1   1  13   92.62   27.50 
   1  -1  13  117.60   31.51 
  -1   1  15  128.37   32.88 
  -1  -1  15  107.86   30.06 
  10   2   4   53.69   13.75 
  10  -2   4   47.00   18.75 
  10  -2   4   41.28    7.83 
   8   2   6   23.30   12.72 
   8   2   6   40.10   11.80 
   8  -2   6   43.19   16.27 
   6   2   8   40.39   18.71 
   6  -2   8   72.80   22.64 
   6   2   8   43.84   13.19 
   4   2  10  122.11   29.37 
   4  -2  10   98.92   27.31 
   4   2  10   85.19   20.45 
   2   2  12   69.04   23.19 
   2  -2  12   76.62   24.84 
   0  -2  14   51.29   19.75 
   0   2  14   20.07   12.34 
  -2   2  16   86.80   27.98 
  11  -3   3   -0.37    7.70 
   9   3   5   42.11   12.83 
   9  -3   5   44.20   16.70 
   7   3   7    2.97    3.52 
   7   3   7    3.47    2.49 
   7  -3   7    9.19    9.58 
   5   3   9   39.91   16.60 
   5  -3   9   76.33   21.97 
   5   3   9   53.43   15.90 
   3  -3  11   34.61   16.42 
   3   3  11   21.62   11.26 
   3   3  11   32.72   14.21 
   1  -3  13   21.08   12.63 
   1   3  13   21.59   12.67 
  -1  -3  15   44.09   19.47 
  -1   3  15   51.24   19.75 
  12  -4   2   19.37   13.14 
  10  -4   4   16.73   10.96 
  10   4   4    9.69    4.58 
   8  -4   6  -11.46    8.73 
   8   4   6    7.88    4.29 
   6  -4   8    8.72    8.25 
   6   4   8   -3.16   10.28 
   6   4   8    8.53    5.78 
   4  -4  10  -11.18    8.90 
   4   4  10    8.05    8.39 
   4   4  10   13.95    9.27 
   2   4  12    9.51    7.57 
   2   4  12  -14.61   10.27 
   2  -4  12    6.89    8.69 
   0   4  14    2.12    4.61 
   0  -4  14    6.40    9.78 
  -2   4  16   14.13   10.70 
  13  -5   1   26.42   11.53 
  11   5   3   37.63   14.11 
  11  -5   3   19.36    9.66 
   9   5   5    7.55    5.17 
   9  -5   5   18.36    9.44 
   7   5   7   15.42   11.09 
   7  -5   7    9.55    4.50 
   7   5   7   21.88   13.43 
   5  -5   9   19.89    9.60 
   5   5   9   22.59   10.90 
   5   5   9   12.35    9.68 
   3   5  11   -5.45    5.79 
   3  -5  11   -1.37    4.74 
   3   5  11    4.77    1.99 
   1   5  13    6.51    8.58 
   1   5  13   19.73   11.97 
   1  -5  13   -1.54    3.17 
  -1   5  15    0.77    2.56 
  28  -6 -14   33.87   14.46 
  26  -6 -12    0.70    4.14 
  14  -6   0   44.36   16.72 
  12  -6   2    0.02    3.10 
  10  -6   4   -0.28    5.83 
  10   6   4    0.20    5.66 
   8  -6   6   26.03   12.93 
   8   6   6   48.48   16.46 
   6  -6   8  114.92   27.64 
   6   6   8   74.20   24.82 
   6   6   8   73.67   21.11 
   4  -6  10    2.64    5.83 
   4   6  10    7.28    4.54 
   4   6  10    8.15    7.02 
   2   6  12    3.89    4.59 
   2   6  12   13.70    9.06 
   0  -6  14   29.77   15.65 
   0   6  14   24.72   12.25 
   0   6  14   48.99   18.59 
  29  -7 -15   13.58    9.58 
  27  -7 -13   47.60   17.18 
  25  -7 -11   46.35   15.71 
  23  -7  -9   16.48    9.94 
  15  -7  -1   14.37   10.18 
  13  -7   1   27.43   12.97 
  11  -7   3    6.63    4.00 
  11   7   3    5.28    4.29 
   9  -7   5   22.31   10.84 
   9   7   5   40.40   16.59 
   7   7   7   67.49   21.35 
   7  -7   7  118.67   28.02 
   5   7   9   32.70   13.67 
   5  -7   9   62.73   21.97 
   5   7   9   44.29   19.75 
   3   7  11   17.64   11.82 
   3   7  11    2.82    4.74 
   3  -7  11   23.35   13.56 
   1   7  13   47.95   17.93 
   1  -7  13   75.17   25.62 
   1   7  13   68.58   23.37 
  -1   7  15   85.39   28.46 
  28  -8 -14   44.30   17.55 
  26  -8 -12   58.51   19.07 
  24  -8 -10   31.92   13.65 
  14  -8   0    3.46    4.12 
  12  -8   2   32.87   14.31 
  10   8   4   14.77    9.63 
  10  -8   4  -11.88    8.20 
   8  -8   6   38.52   15.55 
   8   8   6   46.39   17.44 
   6  -8   8  140.12   31.95 
   6   8   8   69.75   24.66 
   6   8   8   88.43   24.91 
   4   8  10   34.70   15.50 
   4  -8  10   40.58   18.81 
   4   8  10   37.27   16.98 
   2  -8  12   80.91   26.44 
   2   8  12   74.36   24.15 
   2   8  12   81.02   26.00 
   0   8  14   97.59   29.19 
  25  -9 -11   46.70   18.00 
  23  -9  -9   79.04   22.76 
  13  -9   1   -1.76    3.07 
  11   9   3    6.05    4.66 
  11  -9   3   21.50   10.88 
   9  -9   5   35.41   13.91 
   9   9   5   48.68   18.49 
   7   9   7   76.82   24.68 
   7  -9   7   70.28   21.11 
   5   9   9   66.39   22.36 
   5   9   9   63.76   22.26 
   5  -9   9   52.01   19.56 
   3  -9  11   40.30   16.99 
   3   9  11   76.90   25.43 
   1  -9  13  107.07   31.69 
   1   9  13   96.58   29.22 
  24 -10 -10   50.28   18.14 
  22 -10  -8   19.23   12.03 
  12  10   2    4.68    4.17 
  10  10   4    4.09    3.24 
  10 -10   4   19.43   10.46 
   8 -10   6   68.34   20.89 
   8  10   6   43.19   18.52 
   6  10   8   28.65   15.74 
   6  10   8   19.63   10.32 
   6 -10   8   22.37   12.43 
   4  10  10   33.66   15.87 
   4 -10  10   45.49   19.28 
   2 -10  12   67.86   24.37 
   2  10  12  100.32   30.24 
  23 -11  -9    4.16    4.80 
  21 -11  -7    8.94    5.74 
  13  11   1   19.79   12.49 
  11  11   3   -1.20    3.21 
   9  11   5   -1.03    3.08 
   7  11   7   28.98   15.48 
   7 -11   7   53.79   19.28 
   5  11   9   27.54   16.67 
   5 -11   9   46.30   19.17 
   3 -11  11   51.58   20.34 
   3  11  11   15.53   11.62 
  14  12   0   12.25   12.67 
  12  12   2    7.92    8.47 
  10  12   4   -9.52    9.18 
   8  12   6    6.87    5.09 
   6  12   8   13.83   10.21 
   4 -12  10   17.36   11.67 
  13  13   1   -5.77    7.46 
  11  13   3   -9.01    9.19 
   9  13   5   14.29   13.84 
   7  13   7    7.32    8.32 
  14  14   0   -1.73    2.91 
  12  14   2   13.37   11.62 
   8   0   5    0.50    1.94 
   8   0   5   -1.30    4.24 
   6   0   7    4.61    3.84 
   6   0   7   -1.55    7.66 
   4   0   9   -0.61    1.66 
   4   0   9   -1.06    3.56 
   2   0  11    1.85    2.05 
   0   0  13  -12.02    9.38 
  -2   0  15   -1.48    6.02 
   9   1   4  103.45   17.57 
   9  -1   4   81.99   13.04 
   7  -1   6  135.77   17.59 
   7  -1   6  117.52   28.40 
   7   1   6   97.27   26.05 
   7   1   6  136.09   21.09 
   5   1   8   56.87   19.29 
   5   1   8   84.97   17.26 
   5  -1   8   48.28   18.28 
   3  -1  10   55.24   20.01 
   3   1  10   82.99   19.14 
   3   1  10   55.66   20.17 
   1   1  12   44.43   17.18 
   1  -1  12   34.04   15.25 
  -1   1  14   35.55   17.18 
  -1  -1  14   41.91   15.49 
  -3   1  16   11.56    9.78 
  -3  -1  16   30.97   15.86 
  10  -2   3  195.75   19.35 
   8  -2   5  445.35   33.73 
   8   2   5  489.63   47.02 
   6  -2   7  281.78   46.07 
   6   2   7  362.13   40.52 
   4  -2   9  201.72   37.66 
   4   2   9  218.55   32.35 
   2   2  11  137.72   27.26 
   2   2  11  138.79   31.50 
   2  -2  11  121.29   29.94 
   0  -2  13  121.34   30.22 
   0   2  13  131.24   30.94 
  -2  -2  15   61.98   20.76 
  -2   2  15   77.58   24.48 
  -4   2  17   84.75   26.93 
   9  -3   4  563.29   66.14 
   9   3   4  640.53   58.09 
   7  -3   6  493.13   60.44 
   7   3   6  501.86   50.89 
   5   3   8  362.56   55.70 
   5   3   8  490.63   52.05 
   3   3  10  264.94   44.72 
   3   3  10  315.27   41.74 
   3  -3  10  292.85   47.43 
   1   3  12  165.11   32.58 
   1   3  12  187.78   37.10 
   1  -3  12  250.37   43.95 
  -1   3  14  176.45   37.12 
  -1  -3  14  167.33   37.84 
  -3   3  16  145.27   34.45 
  -3  -3  16   99.73   29.88 
  26  -4 -13   -4.41    4.89 
  24  -4 -11   13.24    6.89 
  10  -4   3  584.52   65.61 
   8  -4   5  477.25   58.05 
   8   4   5  447.08   49.52 
   6   4   7  500.13   65.17 
   6   4   7  591.03   58.23 
   6  -4   7  474.77   59.89 
   4   4   9  449.93   58.74 
   4  -4   9  343.60   51.76 
   4   4   9  394.29   48.04 
   2   4  11  506.43   58.02 
   2  -4  11  449.88   61.05 
   2   4  11  362.23   54.56 
   0   4  13  213.91   40.17 
   0  -4  13  235.67   44.32 
   0   4  13  196.56   37.92 
  -2   4  15  202.85   40.07 
  -2  -4  15  143.17   35.21 
  -4   4  17  142.96   34.73 
  27  -5 -14   18.12   10.77 
  25  -5 -12    4.32    3.45 
  23  -5 -10   27.81   11.88 
  11  -5   2  500.85   58.97 
   9  -5   4  517.96   59.67 
   9   5   4  472.38   53.47 
   7   5   6  659.50   64.83 
   7  -5   6  598.15   67.11 
   5  -5   8  336.63   50.00 
   5   5   8  423.47   57.99 
   5   5   8  433.83   51.17 
   3   5  10  530.05   61.07 
   3   5  10  425.94   60.51 
   1   5  12  244.54   41.90 
   1   5  12  270.79   45.23 
   1  -5  12  246.61   45.23 
  -1  -5  14  176.52   39.50 
  -1   5  14  259.74   46.07 
  -1   5  14  245.37   43.51 
  -3   5  16  108.99   29.39 
  26  -6 -13   18.90   10.42 
  24  -6 -11    5.92    5.75 
  22  -6  -9   13.37    8.26 
  12  -6   1  317.14   43.80 
  10  -6   3  720.61   67.89 
  10   6   3  406.20   53.29 
   8   6   5  177.67   31.67 
   8  -6   5  161.39   31.28 
   6  -6   7  242.54   40.17 
   6   6   7  258.02   39.50 
   4   6   9  239.67   42.79 
   4   6   9  262.23   40.72 
   4  -6   9  215.10   39.69 
   2   6  11  191.19   36.63 
   2  -6  11  203.82   40.16 
   2   6  11  269.08   44.00 
   0   6  13  180.99   36.42 
   0  -6  13  179.62   38.54 
   0   6  13  190.69   39.25 
  -2  -6  15   89.05   28.13 
  -2   6  15   80.30   27.14 
  -2   6  15   75.26   23.43 
  27  -7 -14    0.50    1.75 
  25  -7 -12    3.08    1.23 
  23  -7 -10    1.13    2.29 
  21  -7  -8   -1.31    4.94 
  15  -7  -2   44.43   14.93 
  13  -7   0  109.27   23.40 
  11  -7   2   79.42   20.33 
   9   7   4  160.82   31.86 
   9  -7   4  204.27   34.08 
   7  -7   6  188.50   34.53 
   7   7   6  159.06   31.58 
   5   7   8  123.16   30.48 
   5   7   8  106.81   26.05 
   5  -7   8  160.80   32.44 
   3  -7  10  146.55   32.99 
   3   7  10  146.89   31.68 
   3   7  10  128.76   31.59 
   1   7  12   98.86   27.84 
   1  -7  12  101.31   28.72 
   1   7  12  122.99   29.30 
  -1  -7  14   73.61   25.11 
  -1   7  14   65.50   23.61 
  -3   7  16   35.70   16.44 
  26  -8 -13    5.52    6.15 
  24  -8 -11    5.82    3.79 
  22  -8  -9    0.71    5.06 
  20  -8  -7    4.56    5.29 
  14  -8  -1   10.72    4.77 
  12  -8   1    2.00    5.57 
  10  -8   3   71.01   18.01 
  10   8   3   52.22   17.75 
   8   8   5   72.44   22.05 
   8  -8   5   72.97   20.70 
   6  -8   7    4.15    6.96 
   6   8   7   -3.47    4.82 
   4   8   9   26.64   12.49 
   4   8   9    3.93    7.64 
   4  -8   9   21.76   12.27 
   2   8  11    2.69    7.79 
   2   8  11    7.98    7.68 
   0   8  13   28.57   15.12 
   0  -8  13   10.38   12.01 
  -2   8  15   15.56   12.08 
  25  -9 -12   19.35   12.44 
  23  -9 -10    1.80    4.04 
  21  -9  -8    9.47    7.11 
  19  -9  -6   11.36    7.56 
  11  -9   2   11.20    7.98 
  11   9   2    5.49    6.91 
   9  -9   4   22.25   10.95 
   9   9   4    3.74    8.40 
   7   9   6   15.20   10.73 
   7  -9   6   19.76   10.18 
   5   9   8   16.34   13.45 
   5  -9   8   23.45   13.94 
   5   9   8    4.70    4.02 
   3   9  10    5.54    5.75 
   3  -9  10  -14.27   10.04 
   1   9  12   -5.49    6.80 
   1  -9  12    6.42    6.47 
  -1   9  14   -4.92    6.80 
  24 -10 -11   -2.02    2.92 
  22 -10  -9   24.16   12.08 
  20 -10  -7   24.15   12.92 
  10  10   3   63.79   21.90 
  10 -10   3   72.67   19.06 
   8  10   5  114.06   29.35 
   8 -10   5  186.27   33.07 
   6 -10   7   63.99   20.25 
   6  10   7   41.74   18.46 
   4 -10   9   45.43   17.90 
   4  10   9   33.22   15.67 
   2 -10  11   33.84   15.61 
   2  10  11   39.26   18.55 
   0  10  13    9.96    9.64 
   0 -10  13   47.07   20.20 
  23 -11 -10   14.42   14.58 
  21 -11  -8    5.46    5.66 
  19 -11  -6   33.60   14.33 
  11  11   2   64.88   23.62 
   9  11   4  169.42   37.22 
   7 -11   6  137.08   29.42 
   7  11   6  106.86   29.48 
   5 -11   8  153.65   32.55 
   5  11   8  153.04   36.99 
   3 -11  10  104.20   27.62 
   3  11  10   37.68   17.37 
   1 -11  12   97.76   29.13 
  20 -12  -7   30.59   13.77 
  12  12   1  179.95   40.69 
  10  12   3  148.42   36.67 
   8  12   5  132.62   34.32 
   6  12   7  180.67   40.53 
   4 -12   9  157.15   34.58 
   4  12   9  211.59   44.88 
   2 -12  11  177.84   39.19 
  19 -13  -6   53.38   20.21 
  13  13   0   96.80   30.52 
  11  13   2  131.43   34.97 
   9  13   4  108.83   31.85 
   7  13   6   92.77   29.29 
   5  13   8  126.11   34.70 
  14  14  -1   86.83   30.12 
  12  14   1  137.15   37.06 
  10  14   3  131.03   36.14 
   8  14   5   86.48   30.43 
   8   0   4  422.29   38.76 
   8   0   4  524.84   40.30 
   6   0   6  307.70   30.76 
   6   0   6  265.64   42.36 
   4   0   8  441.31   42.21 
   4   0   8  372.55   51.58 
   2   0  10  207.09   37.15 
   2   0  10  194.13   29.42 
   0   0  12   43.13   15.74 
  -2   0  14   17.30   11.79 
  -4   0  16   12.07    8.76 
   9  -1   3  383.87   32.46 
   7   1   5  360.46   29.92 
   7   1   5  302.99   33.05 
   7  -1   5  340.64   29.59 
   7  -1   5  285.63   43.57 
   5  -1   7  281.48   28.33 
   5   1   7  244.83   29.83 
   5   1   7  221.98   38.64 
   5  -1   7  244.28   39.63 
   3  -1   9  278.26   32.36 
   3   1   9  268.09   34.41 
   3  -1   9  295.58   44.13 
   3   1   9  229.27   39.83 
   1   1  11   98.80   24.97 
   1   1  11  116.07   23.92 
   1  -1  11  146.34   31.10 
  -1   1  13    2.74    3.04 
  -1  -1  13   11.86    9.04 
  -3  -1  15    6.14    6.13 
  -3   1  15   18.04   12.00 
  -5   1  17  -11.66    9.60 
  -5  -1  17    8.58    9.59 
   8   2   4  235.10   29.50 
   8  -2   4  226.46   38.05 
   8  -2   4  242.00   20.37 
   6  -2   6   90.27   24.19 
   6   2   6  153.91   23.58 
   6  -2   6  146.97   16.38 
   4   2   8   98.62   24.86 
   4   2   8   91.04   18.93 
   4  -2   8   57.30   17.97 
   2   2  10   88.62   24.22 
   2  -2  10  156.15   31.60 
   2   2  10  182.71   29.50 
   0   2  12   24.34   11.74 
   0   2  12   14.84    9.33 
   0  -2  12   15.82   12.18 
  -2  -2  14   20.50   14.20 
  -2   2  14   20.04   13.51 
  -4  -2  16   19.53   12.91 
  -4   2  16    6.75    7.13 
  25  -3 -13   24.68   10.86 
  23  -3 -11   51.73   14.86 
  11  -3   1  465.80   36.89 
   9  -3   3   73.23   20.56 
   7   3   5   39.44   12.53 
   7  -3   5   65.10   18.12 
   5  -3   7   19.44    9.54 
   5   3   7   15.71    7.85 
   5   3   7   19.40    8.96 
   3  -3   9  116.83   26.37 
   3   3   9   90.42   20.44 
   3   3   9   56.30   18.95 
   1  -3  11   35.07   14.95 
   1   3  11   39.21   14.43 
   1   3  11   27.08   13.27 
  -1   3  13   -0.15    4.74 
  -1   3  13    8.45    7.69 
  -1  -3  13    0.67    6.63 
  -3   3  15   -5.84    6.50 
  -3  -3  15    6.07    9.22 
  -5   3  17  -18.80   12.12 
  24  -4 -12   11.54    7.23 
  22  -4 -10   13.51    8.00 
  20  -4  -8    1.44    1.41 
  10  -4   2   65.73   19.46 
   8  -4   4   28.16   12.89 
   8   4   4   15.33    6.78 
   6   4   6   -8.26    5.84 
   6  -4   6   -2.03    6.82 
   4   4   8   -5.54    5.01 
   4  -4   8    7.05    5.28 
   4   4   8   -2.23    8.34 
   2   4  10   13.45    9.64 
   2  -4  10    8.71    6.72 
   2   4  10    1.58    3.40 
   0   4  12   -0.93    2.46 
   0  -4  12   -0.65    3.28 
   0   4  12    1.03    2.61 
  -2   4  14   -1.94    3.84 
  -2   4  14   -1.14    8.08 
  -2  -4  14   -1.06    7.11 
  -4  -4  16  -12.86   10.36 
  -4   4  16    8.58    7.89 
  25  -5 -13    2.00    3.40 
  23  -5 -11   12.92    6.82 
  21  -5  -9   23.43    9.81 
  19  -5  -7   52.78   15.23 
  11  -5   1   11.42    7.47 
   9  -5   3   21.06    9.59 
   9   5   3   14.89    7.25 
   7  -5   5   13.99    7.77 
   7   5   5   12.69    8.23 
   5  -5   7    9.29    9.08 
   5   5   7   13.82    5.90 
   5   5   7    3.49    6.92 
   3  -5   9    5.67    8.86 
   3   5   9   -9.75    7.87 
   3   5   9    9.41    6.41 
   1   5  11    1.32    5.42 
   1   5  11    0.48    3.55 
   1  -5  11    1.36    5.49 
  -1   5  13   -9.23    8.07 
  -1  -5  13   -1.29    8.72 
  -1   5  13    2.05    3.77 
  -3   5  15   -3.14    8.21 
  -3  -5  15  -14.82   10.89 
  -3   5  15    2.70    3.67 
  26  -6 -14   16.38   10.10 
  24  -6 -12   27.89   12.48 
  22  -6 -10   82.00   20.29 
  20  -6  -8  127.81   25.26 
  18  -6  -6   85.12   19.71 
  12  -6   0   52.18   15.67 
  10  -6   2  196.97   32.00 
   8   6   4   50.23   16.30 
   8  -6   4   72.64   19.25 
   6  -6   6   74.54   20.08 
   6   6   6   53.22   16.66 
   4  -6   8   33.54   14.41 
   4   6   8   52.77   18.73 
   4   6   8   54.53   17.82 
   2   6  10   22.81   12.61 
   2  -6  10   14.72    9.75 
   2   6  10   11.04    7.40 
   0   6  12   77.84   22.52 
   0   6  12   35.85   14.66 
   0  -6  12   90.58   26.71 
  -2   6  14   14.02    9.15 
  -2   6  14    8.98    8.80 
  -2  -6  14    3.77    6.83 
  -4   6  16   16.67   12.27 
  27  -7 -15   41.69   15.77 
  25  -7 -13   53.85   17.53 
  23  -7 -11  153.45   29.38 
  21  -7  -9  144.02   27.65 
  19  -7  -7  223.28   34.51 
  17  -7  -5  193.60   31.55 
  13  -7  -1  157.11   27.01 
  11  -7   1  195.75   30.69 
   9   7   3  186.22   33.72 
   9  -7   3  275.05   37.59 
   7  -7   5  294.87   40.70 
   7   7   5  220.00   37.25 
   5   7   7   94.58   23.35 
   5  -7   7   72.79   20.73 
   3   7   9   94.10   25.07 
   3  -7   9  112.59   27.12 
   3   7   9   92.15   24.94 
   1   7  11   48.36   18.26 
   1  -7  11   58.18   20.17 
   1   7  11   41.80   15.59 
  -1   7  13   44.73   17.14 
  -1  -7  13   35.24   16.34 
  -1   7  13   43.22   20.01 
  -3   7  15   29.67   15.50 
  -3  -7  15   23.12   13.59 
  26  -8 -14  130.13   29.07 
  24  -8 -12  180.51   33.07 
  22  -8 -10  172.86   31.58 
  20  -8  -8  268.47   39.37 
  18  -8  -6  295.01   41.19 
  14  -8  -2  429.91   45.36 
  12  -8   0  291.79   36.71 
  10   8   2  384.60   54.04 
  10  -8   2  529.35   53.37 
   8   8   4  200.84   36.26 
   8  -8   4  237.01   36.02 
   6  -8   6  212.78   34.96 
   6   8   6  136.54   30.31 
   4   8   8  163.79   34.61 
   4  -8   8  211.74   37.33 
   4   8   8  160.24   33.45 
   2  -8  10   45.90   17.57 
   2   8  10   67.55   21.33 
   2   8  10   38.54   15.01 
   0   8  12   18.55   10.55 
   0  -8  12   47.68   18.94 
  -2   8  14   18.39   14.64 
  -2  -8  14   27.21   18.32 
  25  -9 -13  126.91   28.95 
  23  -9 -11  150.72   30.62 
  21  -9  -9  208.73   35.67 
  19  -9  -7  218.00   36.04 
  17  -9  -5  334.86   44.98 
  11  -9   1  546.32   53.89 
   9   9   3  141.00   31.23 
   9  -9   3  194.43   31.24 
   7   9   5  140.21   31.03 
   7  -9   5  163.27   29.79 
   5  -9   7  305.12   44.74 
   5   9   7  247.76   43.23 
   3   9   9   28.86   14.14 
   3   9   9   47.25   18.43 
   1   9  11   61.14   22.76 
   1  -9  11   68.49   23.22 
  -1  -9  13   37.95   16.69 
  -1   9  13   27.81   14.10 
  24 -10 -12   80.90   23.04 
  22 -10 -10  121.85   27.45 
  20 -10  -8  248.37   40.22 
  18 -10  -6  158.38   30.21 
  16 -10  -4  166.50   31.35 
  10  10   2  185.44   37.60 
   8 -10   4  173.25   30.24 
   8  10   4  155.59   34.52 
   6  10   6  105.59   27.85 
   6 -10   6  139.70   28.09 
   4  10   8   68.22   22.81 
   4 -10   8  115.29   27.22 
   2 -10  10   40.49   15.99 
   2  10  10   38.74   17.28 
   0  10  12   22.17   14.29 
   0 -10  12   23.18   11.96 
  23 -11 -11   38.73   16.41 
  21 -11  -9  115.68   27.69 
  19 -11  -7   72.83   21.03 
  17 -11  -5   49.54   16.83 
  11  11   1  159.62   36.42 
   9  11   3   63.47   22.85 
   7 -11   5   61.27   17.58 
   7  11   5   52.59   20.43 
   5  11   7   59.94   21.24 
   5 -11   7   42.58   16.60 
   3  11   9   15.73   12.13 
   3 -11   9   40.43   16.94 
   1 -11  11   -2.71    4.37 
   1  11  11    7.62    8.08 
  20 -12  -8   21.00   12.21 
  18 -12  -6   19.05   11.55 
  16 -12  -4    8.90    5.91 
  12  12   0   41.99   17.07 
  10  12   2   34.88   16.95 
   8  12   4    9.60    8.06 
   6  12   6   24.60   13.62 
   4  12   8   14.79   11.26 
   4 -12   8   24.43   11.78 
   2 -12  10   -3.37    5.03 
   2  12  10    0.98    3.17 
   0 -12  12    0.47    4.76 
  19 -13  -7    6.97    7.45 
  17 -13  -5   -2.92    4.53 
  11  13   1    4.95    3.39 
   9  13   3   -3.79    6.21 
   7  13   5   -1.97    9.69 
   5  13   7   -7.82    8.50 
  16 -14  -4    4.83    5.07 
  12  14   0  -13.26   11.40 
  10  14   2   17.09   13.18 
   8  14   4    4.54    8.07 
   6  14   6   -3.81    6.13 
  13  15  -1   31.17   15.91 
  11  15   1   30.79   18.01 
   8   0   3    0.26    2.03 
   8   0   3    1.00    1.64 
   6   0   5    0.23    1.39 
   6   0   5    1.57    2.82 
   6   0   5   -0.08    2.25 
   4   0   7    3.97    4.75 
   4   0   7   -0.72    1.08 
   2   0   9   -7.58    5.09 
   2   0   9  -11.61    8.10 
   0   0  11    4.52    4.42 
   0   0  11   -6.53    6.52 
  -2   0  13    0.71    4.78 
  -4   0  15   -0.12    5.22 
  -6   0  17    0.06    1.74 
   7   1   4    1.74    1.18 
   7   1   4   -2.82    2.67 
   7  -1   4   -1.56    1.56 
   5   1   6    2.10    1.66 
   5  -1   6   -8.72    6.85 
   5   1   6    6.87    4.72 
   5  -1   6    1.40    1.53 
   5   1   6   -3.31    8.07 
   3   1   8   -0.43    1.48 
   3  -1   8    2.74    4.68 
   3  -1   8   -1.49    3.86 
   3   1   8   -3.55    4.72 
   1  -1  10   29.64   12.33 
   1   1  10   26.10   11.04 
   1  -1  10   20.59    8.95 
   1   1  10   24.61    9.86 
  -1   1  12   11.48    3.27 
  -1   1  12   27.23   13.67 
  -3   1  14   10.23   10.77 
  -3  -1  14   17.53    9.50 
  -5  -1  16    4.04    2.66 
  -5   1  16   19.47   10.81 
  22  -2 -11  188.99   28.54 
  20  -2  -9   13.77    6.23 
   8  -2   3   14.59    3.95 
   8   2   3    7.02    4.46 
   6  -2   5    3.20    3.80 
   6   2   5   -0.93    2.56 
   6  -2   5    0.01    0.91 
   4  -2   7   17.75    9.72 
   4   2   7    0.63    4.85 
   4   2   7   12.08    6.05 
   4  -2   7   19.26    5.57 
   2   2   9   61.71   18.70 
   2  -2   9   47.33   11.91 
   2   2   9   43.98   13.04 
   2  -2   9   62.97   18.56 
   0   2  11   66.76   20.39 
   0   2  11   98.47   22.76 
   0  -2  11  145.18   30.47 
  -2  -2  13   85.74   24.35 
  -2   2  13   95.05   24.33 
  -2   2  13   82.33   23.18 
  -4   2  15   44.69   17.81 
  -4  -2  15   19.62   10.96 
  -6   2  17   31.31   15.00 
  -6  -2  17   95.96   27.82 
  23  -3 -12  175.96   28.44 
  21  -3 -10  119.00   22.24 
  19  -3  -8   99.01   19.54 
   9  -3   2   19.71    4.37 
   7   3   4   55.73   14.20 
   7  -3   4   74.50   19.60 
   5   3   6   20.29    7.97 
   5   3   6   22.81   10.12 
   5  -3   6   21.42   10.97 
   3   3   8   77.05   17.88 
   3   3   8   84.44   22.97 
   3  -3   8   90.83   22.90 
   1   3  10   76.28   19.35 
   1   3  10   77.67   21.89 
  -1   3  12  160.48   31.60 
  -1  -3  12  132.69   30.16 
  -1   3  12  134.65   28.77 
  -3   3  14   87.28   24.94 
  -3  -3  14   78.59   23.91 
  -3   3  14  105.35   26.85 
  -5   3  16   56.77   20.28 
  -5  -3  16   81.01   24.79 
  -7   3  18  120.04   31.21 
  24  -4 -13  196.85   31.31 
  22  -4 -11  129.30   23.88 
  20  -4  -9  190.03   28.89 
  18  -4  -7   32.98   11.36 
  10  -4   1   -1.09    1.10 
   8   4   3    2.63    5.91 
   8  -4   3    9.13    8.07 
   6  -4   5    5.02    2.35 
   6   4   5    7.97    5.59 
   4   4   7   36.77   14.73 
   4   4   7   40.12   13.09 
   4  -4   7   65.19   17.93 
   2  -4   9  114.43   26.87 
   2   4   9  102.69   24.77 
   2   4   9  109.79   23.24 
   0  -4  11  173.64   35.05 
   0   4  11  176.01   33.36 
   0   4  11  264.74   39.64 
  -2   4  13  110.90   26.61 
  -2   4  13   67.70   21.95 
  -2  -4  13  109.73   28.48 
  -4   4  15   77.01   25.16 
  -4   4  15   76.51   23.04 
  -4  -4  15  101.48   27.67 
  -6   4  17  101.42   27.56 
  25  -5 -14  134.23   26.58 
  23  -5 -12  172.98   29.44 
  21  -5 -10   67.29   17.30 
  19  -5  -8  138.16   24.42 
  17  -5  -6   47.34   13.92 
  11  -5   0   26.90    6.52 
  11  -5   0   32.60   13.03 
   9  -5   2   13.23    7.21 
   7  -5   4    6.51    6.33 
   7   5   4    0.75    3.76 
   5  -5   6   14.97    8.23 
   5   5   6   21.81    9.75 
   3   5   8   69.13   18.70 
   3   5   8   43.00   15.79 
   3  -5   8   56.50   17.91 
   1  -5  10   44.20   17.33 
   1   5  10   71.90   20.81 
   1   5  10   84.17   21.48 
  -1   5  12  129.44   28.54 
  -1   5  12  153.57   32.65 
  -1  -5  12  182.28   36.27 
  -3   5  14   67.50   22.65 
  -3   5  14   81.45   23.82 
  -3  -5  14   67.32   21.72 
  -5  -5  16   90.35   27.01 
  -5   5  16   91.38   25.10 
  -5   5  16   89.40   27.86 
  26  -6 -15   84.75   21.89 
  24  -6 -13   98.54   22.67 
  22  -6 -11   79.96   19.41 
  20  -6  -9  188.27   30.03 
  18  -6  -7   89.03   19.35 
  16  -6  -5   20.59    9.81 
  12  -6  -1   72.52   17.56 
  10  -6   1   -1.21    2.91 
   8   6   3   14.25    7.09 
   8  -6   3   10.65    4.97 
   6  -6   5    9.26    5.80 
   6   6   5   24.57   11.44 
   4  -6   7    3.68    3.37 
   4   6   7    8.62    7.17 
   4   6   7   17.86   10.99 
   2   6   9   37.93   13.62 
   2   6   9   30.00   13.21 
   2  -6   9   46.87   16.51 
   0   6  11   63.59   19.88 
   0  -6  11   66.52   20.98 
   0   6  11   64.23   19.50 
  -2   6  13  147.94   30.49 
  -2   6  13   93.97   27.63 
  -2  -6  13   89.84   25.88 
  -4   6  15   66.84   24.19 
  -4   6  15  114.14   28.01 
  -4  -6  15   84.70   25.88 
  -6   6  17   19.69    9.99 
  27  -7 -16   16.17    8.69 
  25  -7 -14   44.04   15.33 
  23  -7 -12   50.29   16.17 
  21  -7 -10   40.46   14.61 
  19  -7  -8   46.90   14.81 
  17  -7  -6   26.70   10.93 
  15  -7  -4    8.10    5.49 
  13  -7  -2   30.92   11.14 
  11  -7   0    7.88    1.67 
   9  -7   2    6.34    5.34 
   7   7   4   64.56   18.51 
   7  -7   4   34.88   12.37 
   5  -7   6   -0.36    3.13 
   5   7   6    2.07    4.16 
   3   7   8   10.54    6.91 
   3   7   8    2.86    5.64 
   3  -7   8   21.45   11.22 
   1  -7  10   30.65   13.86 
   1   7  10   26.46   14.54 
   1   7  10   24.97   11.39 
  -1   7  12   24.38   12.16 
  -1   7  12   32.22   15.34 
  -1  -7  12   48.24   18.73 
  -3  -7  14   65.49   21.64 
  -3   7  14   22.92   15.22 
  -5   7  16   13.96   10.62 
  26  -8 -15   14.09    9.24 
  24  -8 -13   -5.34    5.53 
  22  -8 -11    1.44    3.35 
  20  -8  -9    6.31    3.27 
  18  -8  -7    4.91    2.62 
  16  -8  -5    9.88    4.22 
  14  -8  -3   16.35    7.62 
  12  -8  -1    7.47    4.91 
  10  -8   1    5.56    5.50 
   8   8   3   -5.02    5.46 
   8  -8   3    0.81    2.09 
   6  -8   5   -1.01    3.19 
   6   8   5    0.37    2.26 
   4  -8   7   13.55    8.83 
   4   8   7   11.44    9.46 
   2   8   9    2.21    4.41 
   2  -8   9    4.34    6.54 
   2   8   9   -7.78    6.81 
   0  -8  11   15.95   11.17 
   0   8  11    1.44    3.37 
   0   8  11   14.59    8.41 
  -2  -8  13    4.95    4.95 
  -2   8  13   -1.71    4.14 
  -4   8  15   -0.15    1.21 
  25  -9 -14   -4.13    5.20 
  23  -9 -12   -0.28    6.68 
  21  -9 -10   -5.96    6.33 
  19  -9  -8    4.21    3.63 
  17  -9  -6  -10.70    7.29 
  15  -9  -4    3.01    5.88 
  11  -9   0    6.15    3.75 
   9  -9   2    1.97    3.41 
   9   9   2    2.55    3.61 
   7   9   4    2.18    4.68 
   7  -9   4   -3.04    4.16 
   5   9   6    2.16    4.02 
   5  -9   6    0.72    6.38 
   3   9   8    1.09    5.17 
   3   9   8   -5.66    6.29 
   3  -9   8    1.74    5.37 
   1   9  10   -2.09    3.93 
   1  -9  10    7.73    7.04 
  -1  -9  12   13.65    9.86 
  -1   9  12    0.70    2.17 
  -3  -9  14   -0.07    5.45 
  -3   9  14  -11.25   10.17 
  24 -10 -13   15.00   10.09 
  22 -10 -11    9.23    8.01 
  20 -10  -9   14.71    9.39 
  18 -10  -7    8.20    5.79 
  16 -10  -5    8.64    7.22 
  14 -10  -3   22.43   11.63 
  10  10   1   -1.00    7.46 
   8 -10   3    0.67    3.77 
   8  10   3    0.95    4.51 
   6 -10   5    8.01    6.08 
   6  10   5   12.18    9.96 
   4 -10   7   16.42    9.65 
   4  10   7    3.45    2.42 
   2  10   9   -1.46    7.23 
   2 -10   9    1.68    5.88 
   0 -10  11    3.96    2.94 
   0  10  11    8.85    5.03 
  -2  10  13   24.47   14.59 
  -2 -10  13   21.15   13.75 
  21 -11 -10   65.03   19.52 
  19 -11  -8   28.31   13.80 
  17 -11  -6   47.08   16.57 
  15 -11  -4    7.65    6.61 
   9  11   2    0.30    5.72 
   7  11   4   41.80   17.74 
   5 -11   6   11.22    7.13 
   5  11   6    2.28    2.56 
   3 -11   8   45.23   16.87 
   3  11   8   14.17   11.19 
   1 -11  10   39.14   17.03 
   1  11  10    7.92    3.86 
  -1 -11  12    7.44    5.94 
  -1  11  12   13.33    8.06 
  20 -12  -9   36.88   15.88 
  18 -12  -7   65.57   20.11 
  16 -12  -5    0.65    4.48 
  14 -12  -3   23.86   12.43 
  10  12   1    3.76    6.81 
   8  12   3   21.96   11.43 
   6  12   5    2.27    7.77 
   4  12   7    9.05    8.04 
   4 -12   7   19.14    9.93 
   2 -12   9   21.64   10.83 
   2  12   9   13.83   11.43 
   0 -12  11   37.41   17.41 
   0  12  11   16.61   11.27 
  19 -13  -8   50.69   19.50 
  17 -13  -6   17.86   12.15 
  15 -13  -4   15.62    9.81 
  11  13   0    1.04    4.76 
   9  13   2    5.63    5.39 
   7  13   4   -3.28    3.92 
   5  13   6   19.56   12.93 
   3  13   8   25.64   14.06 
  16 -14  -5   30.05   14.80 
  14 -14  -3   19.56   11.51 
  12  14  -1  -15.30   12.17 
  10  14   1    3.56    2.94 
   8  14   3  -19.88   13.50 
   6  14   5   -0.11    8.88 
   4  14   7   28.39   16.34 
  15 -15  -4   17.03   11.36 
  13  15  -2   32.72   18.67 
  11  15   0  -12.18   11.25 
   9  15   2  -20.84   14.40 
   7  15   4   -4.19    6.74 
   8   0   2  558.11   47.28 
   6   0   4  760.64   49.59 
   6   0   4  696.05   51.58 
   4   0   6  648.97   38.61 
   4   0   6  670.15   50.48 
   4   0   6  578.47   62.65 
   2   0   8  709.72   71.65 
   2   0   8  827.94   63.83 
   0   0  10  438.22   49.36 
   0   0  10  688.59   65.86 
  -2   0  12  562.00   65.63 
  -2   0  12  644.80   64.30 
  -4   0  14  275.73   44.61 
  -6   0  16  320.21   49.84 
  -8   0  18  111.81   30.49 
  21  -1 -11   23.30    8.71 
  19  -1  -9   70.89   15.12 
   7  -1   3  453.04   34.69 
   7   1   3  472.75   40.79 
   7   1   3  521.95   39.49 
   5  -1   5  465.93   54.67 
   5   1   5  546.21   35.12 
   5   1   5  492.76   43.22 
   5  -1   5  527.99   38.73 
   5   1   5  454.86   55.86 
   3  -1   7  734.26   46.15 
   3  -1   7  652.39   60.01 
   3   1   7  543.10   57.03 
   3   1   7  589.60   46.12 
   1   1   9  588.79   64.29 
   1  -1   9  706.20   58.33 
   1   1   9  711.92   61.48 
   1  -1   9  605.19   65.28 
  -1   1  11  327.18   43.50 
  -1  -1  11  396.06   45.21 
  -1  -1  11  378.76   50.09 
  -1   1  11  429.37   52.39 
  -3   1  13  391.85   52.49 
  -3  -1  13  356.32   51.12 
  -3   1  13  425.21   53.31 
  -5   1  15  248.38   43.26 
  -5  -1  15  350.21   50.69 
  -7   1  17  211.75   40.37 
  -7  -1  17  217.62   41.69 
  22  -2 -12   20.98    9.51 
  20  -2 -10    0.66    2.56 
  18  -2  -8   29.14    9.72 
   6  -2   4  442.57   51.67 
   6   2   4  456.02   43.03 
   6  -2   4  494.61   31.90 
   4   2   6  343.94   38.32 
   4  -2   6  423.48   32.65 
   4   2   6  348.65   47.58 
   2   2   8  256.08   32.26 
   2  -2   8  211.28   25.31 
   2  -2   8  230.90   36.01 
   2   2   8  311.96   41.84 
   0  -2  10  463.45   54.66 
   0   2  10  392.49   46.38 
   0  -2  10  388.61   41.85 
   0   2  10  373.74   48.84 
  -2   2  12  292.83   43.19 
  -2   2  12  245.75   39.33 
  -2  -2  12  323.14   46.89 
  -4   2  14  194.71   36.60 
  -4   2  14  169.76   34.12 
  -4  -2  14  129.41   30.45 
  -6   2  16  115.89   28.39 
  -6   2  16   79.84   25.86 
  -6  -2  16   89.65   25.50 
  -8   2  18  108.97   28.73 
  23  -3 -13    7.66    5.81 
  21  -3 -11    0.31    1.87 
  19  -3  -9   32.51   10.30 
  17  -3  -7   20.72    7.91 
   9  -3   1  208.70   19.31 
   7   3   3  369.31   37.80 
   7  -3   3  262.55   37.60 
   5  -3   5  136.85   27.17 
   5   3   5  239.07   29.26 
   3   3   7  151.61   29.60 
   3   3   7  171.48   26.09 
   3  -3   7  159.60   28.86 
   1   3   9   65.08   18.33 
   1  -3   9   56.80   17.20 
   1   3   9   43.65   14.12 
  -1  -3  11  151.85   30.00 
  -1   3  11  153.88   29.57 
  -1   3  11  110.09   24.72 
  -3   3  13   82.14   22.37 
  -3   3  13  101.11   25.72 
  -3  -3  13  117.20   27.53 
  -5  -3  15   49.15   18.24 
  -5   3  15   25.11   13.86 
  -5   3  15   41.00   16.11 
  -7   3  17   17.96    9.91 
  -7   3  17   52.57   21.56 
  -7  -3  17   51.51   18.73 
  24  -4 -14    1.01    3.18 
  22  -4 -12   19.10    9.58 
  20  -4 -10    5.61    4.60 
  18  -4  -8   -3.82    3.67 
  16  -4  -6    0.71    2.53 
  10  -4   0    0.99    2.15 
   8  -4   2    9.74    6.44 
   6  -4   4   65.63   17.61 
   6   4   4   75.58   16.61 
   4  -4   6   21.84    8.91 
   4   4   6   19.22    8.47 
   2   4   8   16.24    9.57 
   2  -4   8    7.33    7.15 
   2   4   8    4.48    3.58 
   0   4  10    2.86    1.65 
   0   4  10    3.72    3.61 
   0  -4  10    6.87    7.75 
  -2   4  12    7.00    6.53 
  -2   4  12   16.08    9.70 
  -2  -4  12   20.89   11.57 
  -4   4  14    8.73    7.29 
  -4  -4  14   15.79   12.37 
  -4   4  14    8.69    6.39 
  -6  -4  16   -0.25    6.47 
  -6   4  16    0.61    5.72 
  -6   4  16  -14.37    9.72 
  25  -5 -15   -8.10    6.34 
  23  -5 -13    4.63    4.32 
  21  -5 -11   13.68    6.73 
  19  -5  -9    9.13    6.85 
  17  -5  -7    0.78    3.50 
  15  -5  -5    4.80    2.98 
   9  -5   1  104.50   20.43 
   9  -5   1   64.89    8.40 
   7  -5   3    9.23    6.47 
   7   5   3   14.85    7.60 
   5   5   5    4.37    2.44 
   5  -5   5    1.43    2.21 
   3  -5   7   29.64   12.46 
   3   5   7   28.39   12.35 
   3   5   7   29.21   11.80 
   1  -5   9   35.30   13.09 
   1   5   9   28.98   11.97 
   1   5   9   46.43   15.50 
  -1   5  11   24.96   12.69 
  -1   5  11   14.34    9.52 
  -1  -5  11   28.84   12.77 
  -3  -5  13   26.00   12.90 
  -3   5  13   20.27   11.21 
  -3   5  13   18.00   10.97 
  -5   5  15   21.14   11.57 
  -5   5  15   -0.68   10.96 
  -5  -5  15   22.43   12.79 
  -7   5  17    1.01    3.47 
  24  -6 -14   14.12    8.92 
  22  -6 -12    6.16    3.98 
  20  -6 -10   11.15    7.50 
  18  -6  -8   30.13   10.50 
  16  -6  -6   37.28   12.21 
  14  -6  -4   96.85   19.71 
  10  -6   0  274.16   35.04 
  10  -6   0  347.54   28.97 
   8  -6   2   84.41   17.91 
   6  -6   4   82.98   18.62 
   6   6   4   79.04   19.12 
   4   6   6   58.31   17.61 
   4  -6   6  109.79   23.13 
   2  -6   8  145.01   28.49 
   2   6   8  181.77   31.47 
   2   6   8  168.76   31.44 
   0  -6  10  197.24   34.77 
   0   6  10  148.30   29.05 
   0   6  10  148.80   30.07 
  -2  -6  12   96.61   24.93 
  -2   6  12   46.56   18.31 
  -2   6  12   72.82   20.51 
  -4   6  14  119.37   27.34 
  -4   6  14   93.96   28.13 
  -4  -6  14  103.75   27.77 
  -6   6  16  122.09   33.33 
  -6  -6  16   51.50   20.37 
  25  -7 -15   -6.39    5.90 
  23  -7 -13   -0.50    2.37 
  21  -7 -11   -0.48    2.41 
  19  -7  -9   40.11   13.42 
  17  -7  -7   97.90   20.51 
  15  -7  -5  107.25   21.18 
  13  -7  -3  195.66   26.07 
  13  -7  -3  154.96   26.42 
  11  -7  -1  234.87   29.33 
   9  -7   1  314.00   36.27 
   7   7   3  203.33   34.45 
   7  -7   3  297.69   35.83 
   5  -7   5  314.77   41.01 
   5   7   5  361.89   45.87 
   3   7   7  273.58   40.49 
   3  -7   7  295.24   41.11 
   3   7   7  249.53   39.99 
   1   7   9  234.64   38.06 
   1   7   9  217.49   37.08 
   1  -7   9  286.10   41.87 
  -1  -7  11  203.74   37.14 
  -1   7  11  187.37   33.07 
  -1   7  11  226.08   40.05 
  -3  -7  13  148.11   33.30 
  -3   7  13  122.07   30.30 
  -3   7  13  185.60   32.68 
  -5  -7  15  205.97   42.19 
  -5   7  15  226.05   45.98 
  26  -8 -16    6.11    5.30 
  24  -8 -14   -7.73    6.55 
  22  -8 -12    7.34    7.23 
  20  -8 -10   18.34    9.09 
  18  -8  -8   19.53    9.48 
  16  -8  -6  124.70   23.76 
  14  -8  -4  170.00   28.10 
  12  -8  -2  294.87   30.12 
  12  -8  -2  226.08   33.88 
  10  -8   0  359.24   37.37 
   8   8   2  285.96   42.96 
   8  -8   2  360.01   39.26 
   6   8   4  256.48   40.38 
   6  -8   4  310.17   38.58 
   4  -8   6  467.79   51.57 
   4   8   6  338.88   48.22 
   2   8   8  391.26   52.49 
   2  -8   8  402.12   51.13 
   2   8   8  416.28   52.53 
   0   8  10  333.45   48.70 
   0   8  10  239.92   38.30 
   0  -8  10  326.26   46.92 
  -2  -8  12  286.18   46.11 
  -2   8  12  210.84   41.52 
  -4  -8  14  239.49   43.77 
  -4   8  14  202.21   43.00 
  -6   8  16  108.26   32.32 
  23  -9 -13    4.65    4.52 
  21  -9 -11   16.42    9.75 
  19  -9  -9   27.51   12.41 
  17  -9  -7   43.87   14.23 
  15  -9  -5  109.91   23.02 
  13  -9  -3   89.70   20.91 
   9  -9   1  238.26   30.05 
   7  -9   3  446.67   46.63 
   7   9   3  397.72   53.07 
   5   9   5  449.70   56.57 
   5  -9   5  422.78   49.28 
   3  -9   7  459.74   52.45 
   3   9   7  355.82   51.86 
   3   9   7  397.43   52.53 
   1   9   9  439.47   54.09 
   1  -9   9  551.36   61.47 
   1   9   9  412.74   57.48 
  -1   9  11  178.85   37.82 
  -1  -9  11  214.94   39.19 
  -3   9  13  234.81   46.16 
  -3  -9  13  236.97   43.97 
  -5   9  15  115.95   33.73 
  22 -10 -12    5.64    5.20 
  20 -10 -10   20.15   11.32 
  18 -10  -8   26.96   11.03 
  16 -10  -6   46.43   14.78 
  14 -10  -4   30.81   12.47 
  12 -10  -2  113.69   24.69 
   8  10   2  331.56   50.08 
   8 -10   2  393.53   41.06 
   6  10   4  193.67   37.02 
   6 -10   4  238.50   33.31 
   4  10   6  428.10   56.87 
   4 -10   6  344.24   45.02 
   2 -10   8  282.02   42.92 
   2  10   8  387.20   54.51 
   0 -10  10  239.43   40.32 
   0  10  10  149.38   35.09 
  -2 -10  12  201.67   39.52 
  -2  10  12  213.08   43.95 
  -4  10  14   94.15   30.60 
  -4 -10  14  138.13   34.20 
  21 -11 -11    4.94    2.06 
  19 -11  -9   35.87   14.27 
  17 -11  -7   18.08   10.06 
  15 -11  -5    8.72    6.48 
  13 -11  -3   30.93   11.72 
   9  11   1  148.19   33.40 
   7  11   3   76.82   23.99 
   5  11   5  157.70   34.71 
   5 -11   5  149.52   27.03 
   3 -11   7  136.73   27.10 
   3  11   7   74.66   24.63 
   1 -11   9  179.66   35.38 
   1  11   9  244.26   44.72 
  -1  11  11   96.03   28.57 
  -1 -11  11   93.95   26.60 
  -3 -11  13   55.17   21.74 
  20 -12 -10    2.97    5.10 
  18 -12  -8   10.30    7.47 
  16 -12  -6   -1.02    5.24 
  14 -12  -4   15.10   11.22 
  12 -12  -2   15.34    9.17 
  10  12   0   -2.29    7.21 
   8  12   2   26.92   14.92 
   6  12   4   60.16   22.00 
   4  12   6   42.18   18.43 
   2  12   8   31.48   15.09 
   2 -12   8   87.57   22.95 
   0 -12  10   52.16   19.06 
   0  12  10   32.23   17.24 
  -2 -12  12   16.84   11.12 
  19 -13  -9   -1.05    4.48 
  17 -13  -7   -7.08    6.75 
  15 -13  -5   -0.05    3.17 
  13 -13  -3    4.39    5.49 
  11  13  -1   13.35   11.76 
   9  13   1    4.56    5.41 
   7  13   3   12.06   10.74 
   5  13   5   -4.04    7.00 
   3  13   7    1.49    8.42 
   1  13   9    8.73    9.82 
  -1 -13  11  -10.96    9.08 
  16 -14  -6    2.32    4.56 
  14 -14  -4   12.36    5.82 
  12 -14  -2    8.91    6.74 
  10  14   0    9.96    6.41 
   8  14   2   11.69    8.79 
   6  14   4    0.14    3.00 
   4  14   6    7.50    7.60 
   2  14   8   62.86   24.76 
  15 -15  -5   24.35   11.29 
  13 -15  -3   14.82    8.96 
  11  15  -1   -3.36    5.99 
   9  15   1   33.97   19.22 
   7  15   3   18.28   12.95 
   5  15   5   27.56   16.95 
  20   0 -11   -0.18    0.95 
  18   0  -9    0.58    1.19 
   8   0   1    3.01    2.00 
   6   0   3   -2.82    2.16 
   6   0   3   -1.28    2.14 
   4   0   5    0.99    1.04 
   4   0   5   -1.27    5.68 
   4   0   5    0.46    2.04 
   2   0   7    2.37    4.55 
   2   0   7    3.69    2.97 
   2   0   7    0.09    0.27 
   0   0   9    0.51    4.27 
   0   0   9    3.28    4.74 
  -2   0  11   -0.02    6.02 
  -2   0  11    2.04    3.45 
  -4   0  13    6.24    8.42 
  -4   0  13    6.82    7.79 
  -6   0  15   -9.69    7.84 
  -6   0  15    7.10    4.65 
  -8   0  17    1.34    4.91 
  21  -1 -12   81.59   16.48 
  19  -1 -10    8.49    4.57 
  17  -1  -8   75.31   14.77 
   7   1   2   36.92    8.89 
   5   1   4  176.84   15.59 
   5  -1   4  166.35   16.54 
   5   1   4  160.26   20.27 
   5  -1   4  123.41   24.44 
   3  -1   6   37.37    8.41 
   3   1   6   40.06    5.73 
   3   1   6   47.65   14.44 
   3  -1   6   38.80   13.02 
   3   1   6   52.64   11.34 
   1   1   8   34.78   12.34 
   1  -1   8   21.40   10.07 
   1  -1   8   35.28    8.02 
   1  -1   8   20.86    7.99 
   1   1   8   21.02    8.08 
  -1  -1  10   39.08   13.94 
  -1   1  10   37.05   13.15 
  -1   1  10   32.32   12.11 
  -1  -1  10   51.60   14.07 
  -3   1  12   -0.26    6.37 
  -3  -1  12   10.18    9.70 
  -3  -1  12    4.09    1.46 
  -3   1  12    4.60    2.83 
  -5  -1  14    4.57    3.58 
  -5   1  14    0.41    8.38 
  -7   1  16   11.51    8.33 
  -7   1  16    8.12    9.67 
  -7  -1  16   -0.47    3.00 
  -9   1  18   -0.91    2.49 
  -9  -1  18    8.69    6.39 
  22  -2 -13  122.27   21.31 
  20  -2 -11  171.96   24.67 
  18  -2  -9   97.39   17.48 
  16  -2  -7  189.51   25.00 
   6  -2   3  380.49   24.34 
   6   2   3  330.63   34.43 
   6  -2   3  300.00   39.71 
   4  -2   5  205.14   31.97 
   4  -2   5  288.28   22.50 
   4   2   5  251.17   28.99 
   2  -2   7  221.98   33.42 
   2  -2   7  267.40   26.13 
   2   2   7  219.12   28.64 
   2   2   7  232.74   34.51 
   0   2   9    2.67    2.60 
   0  -2   9    5.23    1.53 
   0   2   9   10.46    6.58 
  -2  -2  11   44.05   14.13 
  -2   2  11   61.57   17.55 
  -2  -2  11   87.38   21.62 
  -2   2  11   49.91   16.24 
  -4   2  13   40.63   15.97 
  -4   2  13   44.64   16.19 
  -4  -2  13   39.87   16.09 
  -6   2  15   51.58   18.97 
  -6  -2  15   15.21   10.16 
  -6   2  15   29.37   13.72 
  -8  -2  17   -3.41    5.04 
  -8   2  17    2.01    2.25 
  -8   2  17   -0.34    2.17 
  23  -3 -14  105.18   20.84 
  21  -3 -12  322.38   37.36 
  19  -3 -10  442.53   43.91 
  17  -3  -8  140.82   21.77 
  15  -3  -6  371.12   37.93 
  13  -3  -4  906.29   69.50 
   9  -3   0  843.08   56.17 
   7  -3   2 1468.92  107.28 
   5  -3   4 1012.19   76.06 
   5   3   4  741.16   63.53 
   3   3   6  285.12   34.32 
   3  -3   6  342.69   40.81 
   3   3   6  302.48   41.72 
   1  -3   8  170.59   29.88 
   1   3   8  264.13   33.21 
   1   3   8  223.72   34.43 
  -1   3  10   38.29   13.69 
  -1  -3  10   56.13   18.06 
  -1   3  10   55.56   15.43 
  -3  -3  12   74.60   20.88 
  -3   3  12   81.30   22.23 
  -3   3  12   64.58   18.43 
  -5   3  14   65.94   19.90 
  -5   3  14   91.63   26.09 
  -5  -3  14   80.97   23.27 
  -7  -3  16    3.01    5.92 
  -7   3  16   17.61   11.00 
  -7   3  16   13.61    9.08 
  -9   3  18    0.17    1.11 
  -9   3  18   -8.99    9.13 
  22  -4 -13  307.13   38.21 
  20  -4 -11  322.38   37.21 
  18  -4  -9  199.31   27.41 
  16  -4  -7  452.57   44.02 
  14  -4  -5  880.73   72.38 
  14  -4  -5 1034.43   62.28 
   8  -4   1  909.69   75.66 
   8  -4   1  959.46   56.06 
   6  -4   3 1040.95   80.48 
   6   4   3  944.89   75.88 
   4  -4   5  641.46   59.51 
   4   4   5  599.74   55.57 
   2  -4   7  166.83   28.36 
   2   4   7  167.76   29.46 
   2   4   7  181.30   27.82 
   0  -4   9  197.84   31.84 
   0   4   9  124.05   24.67 
   0   4   9  162.23   28.77 
  -2  -4  11   60.10   18.52 
  -2   4  11  102.79   22.52 
  -2   4  11   66.11   20.23 
  -4  -4  13   94.14   24.30 
  -4   4  13   73.55   20.27 
  -4   4  13   99.40   26.23 
  -6   4  15   32.05   16.38 
  -6  -4  15   16.66   13.15 
  -6   4  15   36.35   15.00 
  -8   4  17   15.13    9.63 
  -8   4  17   11.58    7.83 
  -8  -4  17   13.53    9.90 
  23  -5 -14  244.06   34.54 
  21  -5 -12  166.19   26.63 
  19  -5 -10  289.90   35.39 
  17  -5  -8  616.06   55.37 
  15  -5  -6  588.35   53.02 
  13  -5  -4  996.56   76.46 
   9  -5   0  828.51   53.74 
   9  -5   0  747.74   65.24 
   7  -5   2  684.37   60.11 
   5  -5   4  604.86   58.98 
   5   5   4  790.95   65.37 
   3   5   6  335.15   40.05 
   3  -5   6  301.77   38.91 
   1   5   8  211.43   32.53 
   1   5   8  184.61   31.75 
   1  -5   8  239.45   35.32 
  -1   5  10  141.06   26.55 
  -1  -5  10  115.21   25.62 
  -1   5  10  118.00   26.01 
  -3   5  12  137.72   29.68 
  -3  -5  12  103.56   24.85 
  -3   5  12   95.77   22.84 
  -5   5  14   19.54    9.36 
  -5  -5  14   24.19   11.58 
  -5   5  14   27.41   14.73 
  -7   5  16    6.60    5.97 
  -7  -5  16   17.51   12.42 
  -7   5  16   11.56    8.51 
  -9   5  18   28.63   16.72 
  24  -6 -15   91.87   21.27 
  22  -6 -13   88.22   20.03 
  20  -6 -11  274.52   36.08 
  18  -6  -9  246.24   32.51 
  16  -6  -7  330.14   38.03 
  14  -6  -5  555.30   52.12 
  12  -6  -3  501.57   48.60 
  10  -6  -1  499.33   46.42 
   8  -6   1  333.98   36.59 
   6   6   3  474.65   52.55 
   6  -6   3  580.06   52.12 
   4  -6   5  317.28   38.57 
   4   6   5  278.07   38.01 
   2   6   7  246.53   36.07 
   2  -6   7  228.09   34.74 
   2   6   7  236.13   36.63 
   0   6   9  115.11   24.30 
   0  -6   9  154.93   29.23 
   0   6   9  134.90   27.05 
  -2   6  11   92.57   22.31 
  -2  -6  11  111.45   25.91 
  -2   6  11   91.64   23.70 
  -4  -6  13   27.08   13.86 
  -4   6  13   43.54   14.98 
  -4   6  13   29.68   13.51 
  -6   6  15  -14.21   10.87 
  -6  -6  15    4.76    5.88 
  -8   6  17    7.70    8.54 
  25  -7 -16   28.75   13.05 
  23  -7 -14   33.52   12.58 
  23   7 -14   56.29   16.31 
  21  -7 -12   59.95   16.49 
  19  -7 -10   94.42   20.05 
  17  -7  -8  146.49   24.88 
  15  -7  -6  153.71   24.83 
  13  -7  -4  230.23   31.12 
  11  -7  -2  309.40   30.86 
  11  -7  -2  223.16   31.61 
   9  -7   0  175.53   23.55 
   7  -7   2  136.39   21.89 
   7   7   2  159.81   28.95 
   5  -7   4  278.21   35.05 
   5   7   4  254.44   37.59 
   3  -7   6  140.71   25.48 
   3   7   6   95.99   22.57 
   1   7   8   67.55   18.61 
   1   7   8   89.34   22.22 
   1  -7   8   70.77   18.93 
  -1   7  10  112.84   23.50 
  -1   7  10  138.09   29.24 
  -1  -7  10   80.55   22.94 
  -3   7  12   36.12   12.76 
  -3   7  12   40.53   16.42 
  -3  -7  12   35.77   15.88 
  -5   7  14    3.95    6.61 
  -5  -7  14  -15.73   10.57 
  -7   7  16    9.50    9.23 
  -7  -7  16   -3.26    4.22 
  24  -8 -15    2.56    1.64 
  22  -8 -13    4.54    7.35 
  20  -8 -11   31.49   12.71 
  18  -8  -9   19.24    9.04 
  16  -8  -7   54.22   15.46 
  14  -8  -5   28.94   11.04 
  12  -8  -3   86.29   18.71 
  10  -8  -1    9.00    4.80 
  10  -8  -1    9.28    6.77 
   8  -8   1    5.59    2.95 
   6   8   3   33.47   13.54 
   6  -8   3   40.69   12.54 
   4   8   5   22.98   10.62 
   4  -8   5   54.63   14.93 
   2   8   7   76.11   20.91 
   2  -8   7   59.14   16.60 
   2   8   7   39.80   14.23 
   0   8   9   10.66    6.45 
   0   8   9   12.93    8.41 
   0  -8   9    6.54    7.15 
  -2  -8  11   12.08    9.45 
  -2   8  11    1.95    4.45 
  -4   8  13    4.05    5.61 
  -4  -8  13    3.26    4.91 
  -6  -8  15    2.35    7.22 
  -6   8  15   -1.82    3.41 
  23   9 -14   -2.44    7.08 
  23  -9 -14   16.55   10.21 
  21  -9 -12    0.97    2.80 
  19  -9 -10  -11.07    7.22 
  17  -9  -8   -0.48    1.73 
  15  -9  -6    1.93    3.19 
  13  -9  -4   -2.22    3.39 
  11  -9  -2   11.94    7.06 
   9  -9   0    9.90    5.26 
   7   9   2    9.71    7.86 
   7  -9   2    3.71    3.63 
   5  -9   4    9.42    7.37 
   5   9   4    2.36    2.72 
   3   9   6   10.11    7.50 
   3  -9   6    4.08    3.18 
   1   9   8   -0.18    4.12 
   1   9   8    3.77    6.39 
   1  -9   8    3.98    3.50 
  -1   9  10   -0.25    5.40 
  -1  -9  10  -17.47   10.13 
  -3   9  12   -1.56    3.72 
  -3  -9  12  -11.67    8.88 
  -5  -9  14    0.62    7.68 
  -5   9  14  -13.61   10.91 
  24  10 -15   26.90   13.09 
  22 -10 -13    1.72    6.64 
  20 -10 -11   17.96    9.15 
  18 -10  -9   42.44   14.46 
  16 -10  -7   26.80   11.20 
  14 -10  -5   27.76   11.27 
  12 -10  -3   62.86   17.04 
  10 -10  -1   85.27   20.30 
   8  10   1  153.88   32.50 
   8 -10   1  174.79   23.30 
   6  10   3   36.72   15.47 
   6 -10   3   48.85   12.74 
   4 -10   5   61.00   15.61 
   4  10   5   66.65   20.36 
   2  10   7   59.48   20.33 
   2 -10   7   63.98   18.16 
   0  10   9   14.44    9.12 
   0 -10   9   17.06    9.07 
  -2 -10  11    0.13    1.07 
  -2  10  11   -8.97    8.31 
  -4  10  13    1.50    3.67 
  -4 -10  13   17.37   13.12 
  21 -11 -12   60.32   19.04 
  19 -11 -10   85.25   22.50 
  17 -11  -8  121.57   26.12 
  15 -11  -6   59.26   17.23 
  13 -11  -4  145.89   27.62 
  11 -11  -2  204.06   33.30 
   7  11   2  116.00   28.56 
   5  11   4  125.37   30.26 
   5 -11   4  182.41   27.92 
   3  11   6   48.57   18.63 
   3 -11   6   72.35   18.44 
   1 -11   8   47.02   15.50 
   1  11   8   46.85   18.23 
  -1  11  10   34.37   16.74 
  -1 -11  10   31.57   15.16 
  -3  11  12   31.88   17.41 
  -3 -11  12   32.53   16.48 
  20 -12 -11   86.35   22.83 
  18 -12  -9  192.04   34.79 
  16 -12  -7  215.11   35.89 
  14 -12  -5  177.28   32.37 
  12 -12  -3  257.27   39.40 
  10 -12  -1  150.30   29.43 
   8  12   1  331.40   52.33 
   6  12   3  233.82   43.20 
   4  12   5  125.95   30.84 
   2 -12   7  146.09   29.04 
   2  12   7  183.11   38.44 
   0 -12   9   68.99   20.48 
   0  12   9   43.84   18.95 
  -2 -12  11   72.15   23.66 
  -2  12  11  102.65   30.47 
  -4 -12  13   26.23   14.44 
  17 -13  -8  165.20   33.01 
  15 -13  -6  258.11   41.09 
  13 -13  -4  177.31   33.15 
  11 -13  -2  194.55   35.53 
   9  13   0  232.98   44.90 
   7  13   2  109.29   29.54 
   5  13   4  206.00   41.56 
   3  13   6  148.25   36.22 
   1  13   8   69.70   24.69 
  -1 -13  10   91.54   25.78 
  -1  13  10   72.00   24.89 
  -3 -13  12   51.50   20.43 
  16 -14  -7   92.11   25.53 
  14 -14  -5  217.40   38.74 
  12 -14  -3  209.46   37.54 
  10 -14  -1  120.22   28.43 
  10  14  -1  192.71   41.83 
   8  14   1  137.26   35.35 
   6  14   3   68.53   24.41 
   4  14   5  198.85   41.93 
   2  14   7  117.63   34.18 
  15 -15  -6   61.28   21.33 
  13 -15  -4  141.46   32.18 
  11  15  -2   70.11   26.43 
  11 -15  -2  142.59   31.17 
   9  15   0   85.56   28.48 
   7  15   2  103.10   30.79 
   5  15   4   46.79   20.91 
   3  15   6   96.06   30.80 
  12  16  -3   40.46   19.42 
  12 -16  -3   36.50   16.57 
  10  16  -1   53.89   23.86 
   8  16   1   41.02   21.11 
  20   0 -12  392.16   38.00 
  18   0 -10  269.52   29.07 
  16   0  -8  305.01   30.73 
   6   0   2  438.89   36.06 
   4   0   4   20.15    3.68 
   4   0   4   18.51    9.83 
   4   0   4   16.00    5.15 
   2   0   6   15.09    2.73 
   2   0   6    8.43    5.55 
   2   0   6    9.58    4.40 
   0   0   8  125.49   20.24 
   0   0   8   87.24   19.74 
  -2   0  10  125.53   23.26 
  -2   0  10  102.59   22.31 
  -4   0  12   58.81   17.81 
  -4   0  12   55.64   17.24 
  -6   0  14  121.30   28.93 
  -6   0  14  218.95   36.44 
  -8   0  16  225.89   43.12 
  -8   0  16  197.85   37.29 
 -10   0  18  114.73   29.03 
  21  -1 -13  328.26   35.48 
  19   1 -11  190.96   24.03 
  19  -1 -11  251.89   28.33 
  17  -1  -9  205.71   24.83 
  15  -1  -7  324.62   32.27 
   7   1   1  145.32   20.15 
   5  -1   3  219.73   18.62 
   5   1   3  239.03   19.43 
   5   1   3  208.56   22.69 
   3   1   5   -0.58    1.46 
   3  -1   5    0.24    4.28 
   3  -1   5    0.67    0.51 
   3   1   5    1.02    0.62 
   3   1   5    6.21    5.50 
   1  -1   7  185.71   19.62 
   1  -1   7  234.34   32.02 
   1   1   7  154.81   22.28 
   1  -1   7  181.87   22.43 
   1   1   7  160.50   26.87 
  -1  -1   9   15.88    7.30 
  -1  -1   9   13.12    6.91 
  -1  -1   9   10.55    5.65 
  -1   1   9   17.75    8.41 
  -1   1   9   28.71   11.08 
  -3  -1  11   57.16   17.82 
  -3   1  11   53.57   16.44 
  -3  -1  11   73.94   18.21 
  -3   1  11   58.30   17.31 
  -5   1  13  130.56   26.75 
  -5   1  13  115.39   27.25 
  -5  -1  13  108.51   24.77 
  -5  -1  13  103.99   24.83 
  -7  -1  15  134.84   31.43 
  -7  -1  15  181.66   34.75 
  -7   1  15  176.23   33.25 
  -7   1  15  128.90   30.95 
  -9  -1  17  111.23   28.65 
  -9   1  17  124.52   29.35 
  -9   1  17  129.40   33.29 
 -11   1  19   84.27   24.86 
  20   2 -12   83.63   15.10 
  20  -2 -12   96.09   17.69 
  18  -2 -10  174.00   23.40 
  16  -2  -8  152.87   21.22 
  14  -2  -6  279.77   29.73 
  12  -2  -4   12.46    5.74 
   8  -2   0  214.52   20.99 
   4  -2   4   40.91    5.85 
   4  -2   4   42.18   12.96 
   4   2   4   26.85    8.25 
   2   2   6  189.62   24.36 
   2  -2   6  168.60   18.66 
   2   2   6  145.18   25.64 
   2  -2   6  226.95   30.79 
   0  -2   8   24.07   10.04 
   0   2   8   14.70    7.84 
   0   2   8   23.96    9.19 
   0  -2   8   22.80    7.43 
   0  -2   8   27.62    5.83 
  -2  -2  10   17.98    8.67 
  -2   2  10   26.78   11.82 
  -2   2  10   21.75   10.24 
  -2  -2  10   42.82   13.01 
  -2  -2  10   40.74   10.18 
  -4  -2  12   61.50   17.66 
  -4   2  12   58.94   18.23 
  -4  -2  12   58.35   17.84 
  -4   2  12   66.34   18.47 
  -6   2  14  182.71   35.53 
  -6  -2  14  211.84   36.67 
  -6   2  14  195.57   34.54 
  -8   2  16    5.60    3.56 
  -8  -2  16   43.99   17.18 
  -8   2  16   33.83   15.00 
 -10  -2  18   56.09   20.59 
 -10   2  18   68.76   25.60 
 -10   2  18   59.11   20.78 
  21  -3 -13   25.17    8.88 
  19  -3 -11   70.34   14.89 
  17  -3  -9   34.83   10.08 
  15   3  -7  111.16   13.09 
  15  -3  -7  108.50   17.66 
  13  -3  -5   53.99   11.87 
  11  -3  -3  162.99   22.19 
   9  -3  -1    8.63    3.40 
   7  -3   1   49.59    6.69 
   5  -3   3   36.39   11.62 
   5   3   3   54.55   12.02 
   3  -3   5   23.17    8.66 
   3   3   5   36.07   10.38 
   1  -3   7   11.66    7.05 
   1   3   7   18.08    7.87 
   1  -3   7   12.81    2.06 
   1   3   7   12.52    6.62 
  -1  -3   9    8.81    3.45 
  -1  -3   9   19.63    4.76 
  -1   3   9   26.82   10.10 
  -1   3   9   15.49    8.27 
  -3  -3  11   10.19    7.47 
  -3   3  11   10.09    7.19 
  -3   3  11    8.68    5.64 
  -5   3  13   62.21   18.17 
  -5   3  13   86.31   23.74 
  -5  -3  13   88.72   22.55 
  -7   3  15   28.14   12.69 
  -7   3  15   23.19   12.07 
  -7  -3  15   55.31   19.03 
  -9  -3  17    6.03    3.94 
  -9   3  17   16.05    9.32 
 -11   3  19    8.59    9.24 
 -11   3  19    8.89    7.86 
  22  -4 -14    8.49    5.55 
  20  -4 -12   14.88    6.85 
  18  -4 -10   29.09    9.52 
  16  -4  -8   -1.33    3.58 
  14  -4  -6   16.18    2.77 
  14  -4  -6   24.61    7.53 
  12  -4  -4   32.23    6.51 
  12  -4  -4   48.01   11.26 
   8  -4   0   -2.53    1.75 
   6  -4   2    3.98    4.51 
   4   4   4   26.97    9.60 
   4  -4   4   32.21   10.37 
   2  -4   6   -1.45    4.84 
   2   4   6   -2.56    5.47 
   2   4   6   -0.15    1.15 
   0  -4   8   -0.56    2.54 
   0  -4   8    1.35    1.03 
   0   4   8   -1.03    1.30 
   0   4   8   -1.92    4.21 
  -2   4  10    1.86    5.00 
  -2  -4  10    2.55    2.44 
  -2   4  10    3.95    2.92 
  -4   4  12    8.52    6.36 
  -4   4  12    4.28    5.61 
  -4  -4  12    6.43    7.74 
  -6   4  14    6.81    8.28 
  -6  -4  14    3.10    3.55 
  -6   4  14   16.27    9.19 
  -8   4  16   -3.85    5.82 
  -8  -4  16   -2.65    8.49 
  -8   4  16   -0.37    5.72 
 -10   4  18   10.04    9.78 
  23  -5 -15    7.90    5.71 
  21   5 -13    1.96    2.04 
  21  -5 -13    0.76    3.34 
  19  -5 -11   22.87    9.20 
  17  -5  -9   33.03    9.99 
  15  -5  -7    7.21    4.97 
  13  -5  -5    5.75    4.53 
  11  -5  -3   25.67    8.48 
   7  -5   1    8.62    6.26 
   7  -5   1    4.82    1.76 
   5  -5   3   -3.60    3.47 
   5   5   3   -1.10    4.37 
   3  -5   5   20.88    8.63 
   3   5   5   14.86    6.49 
   1  -5   7   -0.11    0.75 
   1   5   7   -0.97    2.69 
   1  -5   7   -0.83    4.18 
   1   5   7   -0.34    4.13 
  -1   5   9   31.22   11.61 
  -1  -5   9   23.32   10.98 
  -1   5   9   27.68   10.70 
  -3   5  11    3.13    1.85 
  -3   5  11    0.13    2.99 
  -3  -5  11    2.41    4.33 
  -5   5  13    1.86    3.36 
  -5   5  13    2.24    3.23 
  -5  -5  13   -2.04    2.51 
  -7   5  15   -2.27    7.77 
  -7  -5  15    2.23    4.72 
  -7   5  15   11.72    7.77 
  -9  -5  17    6.67    7.75 
  -9   5  17   24.18   14.62 
  24  -6 -16   38.72   13.62 
  22   6 -14   49.54   14.50 
  22  -6 -14   50.06   15.28 
  20  -6 -12  106.48   21.45 
  18  -6 -10   60.44   15.14 
  16  -6  -8   40.54   11.87 
  14  -6  -6   31.27   10.07 
  12  -6  -4    0.39    3.42 
  10  -6  -2   52.18   11.65 
  10  -6  -2   27.81    9.35 
   8  -6   0   20.40    7.08 
   6  -6   2    5.46    5.00 
   4   6   4   29.05   11.14 
   4  -6   4   25.12    9.00 
   2  -6   6    6.28    7.52 
   2   6   6   -0.12    3.69 
   0   6   8   19.43    9.10 
   0   6   8   18.67    8.84 
   0  -6   8   16.33    9.92 
  -2   6  10   34.63   11.71 
  -2  -6  10   52.30   16.13 
  -2   6  10   39.94   14.60 
  -4   6  12   18.15    9.19 
  -4  -6  12    6.57    2.80 
  -4   6  12   21.10   11.57 
  -6   6  14   17.35    8.96 
  -6  -6  14   23.43   12.72 
  -6   6  14   28.04   15.17 
  -8  -6  16   65.87   22.57 
  -8   6  16   37.78   17.62 
  25  -7 -17   27.51   12.21 
  23  -7 -15  111.33   23.97 
  21  -7 -13  177.18   29.69 
  19  -7 -11  112.03   21.76 
  17  -7  -9  134.02   23.18 
  15  -7  -7  138.20   22.93 
  13  -7  -5   40.17   11.81 
  11  -7  -3   35.51    8.24 
  11  -7  -3   33.79   10.65 
   9  -7  -1   25.47    8.79 
   9  -7  -1   30.35    8.11 
   7  -7   1   36.19    9.59 
   5  -7   3    4.86    3.09 
   5   7   3    2.63    3.02 
   3   7   5   -1.52    3.08 
   3  -7   5    2.42    2.05 
   1   7   7    6.56    5.93 
   1  -7   7   -3.63    4.43 
   1   7   7    2.24    4.22 
  -1  -7   9   29.82   12.17 
  -1   7   9   32.16   11.80 
  -1   7   9   29.14   12.43 
  -3   7  11   37.88   15.88 
  -3  -7  11   28.78   13.00 
  -3   7  11   40.28   13.57 
  -5   7  13   50.26   19.49 
  -5  -7  13   63.24   20.83 
  -7  -7  15   92.43   25.88 
  -7   7  15   55.47   22.42 
  -9   7  17   43.72   21.53 
  24  -8 -16  117.72   25.70 
  22   8 -14   91.55   22.36 
  22  -8 -14   79.62   20.15 
  20  -8 -12  130.95   25.09 
  18  -8 -10  270.33   36.19 
  16  -8  -8  201.42   29.53 
  14  -8  -6   84.50   18.39 
  12  -8  -4   41.16   11.91 
  10  -8  -2  104.67   13.54 
  10  -8  -2   78.50   17.73 
   8  -8   0   76.58   13.46 
   6   8   2    7.22    5.76 
   6  -8   2    8.82    4.83 
   4   8   4   -7.61    6.12 
   4  -8   4    3.76    3.18 
   2   8   6   12.63    7.68 
   2  -8   6   10.20    5.78 
   0  -8   8    9.14    9.64 
   0   8   8   -4.21    4.29 
   0   8   8    5.71    7.52 
  -2  -8  10   65.25   19.32 
  -2   8  10   45.10   16.51 
  -2   8  10   61.35   16.19 
  -4   8  12   61.02   20.64 
  -4  -8  12  118.17   27.86 
  -6   8  14   76.74   26.19 
  -6  -8  14  121.67   30.05 
  -8   8  16   74.31   27.48 
  23  -9 -15   98.23   23.69 
  23   9 -15   97.40   23.82 
  21  -9 -13   72.82   19.79 
  19  -9 -11   96.48   21.35 
  17  -9  -9  216.55   32.72 
  15  -9  -7  135.33   24.35 
  13  -9  -5  122.18   22.74 
  11  -9  -3   61.20   15.70 
   9  -9  -1   86.08   12.51 
   9  -9  -1   74.80   17.39 
   7  -9   1   72.59   13.82 
   7   9   1   68.85   19.47 
   5  -9   3   -1.09    5.04 
   5   9   3   -7.26    6.32 
   3  -9   5   -1.31    2.33 
   3   9   5   -1.66    3.81 
   1  -9   7   43.06   13.65 
   1   9   7   40.32   14.00 
   1   9   7   39.69   14.96 
  -1  -9   9   35.18   14.38 
  -1   9   9   50.85   18.10 
  -3   9  11   81.24   24.30 
  -3  -9  11   82.10   22.93 
  -5  -9  13  100.95   26.18 
  -5   9  13   72.54   25.05 
  -7   9  15   62.01   25.02 
  -7  -9  15   56.85   21.45 
  22  10 -14   95.26   24.39 
  22 -10 -14   98.48   24.12 
  20 -10 -12   55.75   16.87 
  18 -10 -10   49.07   15.42 
  16 -10  -8  100.29   21.28 
  14 -10  -6  168.09   28.45 
  12 -10  -4   90.20   20.27 
  10 -10  -2   55.87   15.56 
   8 -10   0   -3.51    5.75 
   6  10   2   36.59   15.59 
   6 -10   2   13.62    6.52 
   4  10   4   -0.53    2.96 
   4 -10   4   -8.11    5.31 
   2  10   6   21.10   11.43 
   2 -10   6   56.92   16.08 
   0  10   8   10.17    6.63 
   0 -10   8   28.27   12.31 
  -2 -10  10   37.60   15.40 
  -2  10  10   34.72   14.28 
  -4 -10  12   67.41   22.17 
  -4  10  12   75.22   24.22 
  -6  10  14   47.35   22.12 
  -6 -10  14   52.61   20.55 
  21  11 -13   62.25   19.61 
  21 -11 -13   39.66   15.69 
  19 -11 -11   44.12   15.82 
  17 -11  -9   45.09   15.76 
  15 -11  -7   58.75   17.36 
  13 -11  -5   81.59   19.79 
  11 -11  -3   23.78   10.32 
   9 -11  -1    4.53    5.18 
   7  11   1    0.05    1.51 
   5  11   3   -0.89    2.87 
   5 -11   3    0.18    1.39 
   3 -11   5   -0.14    3.36 
   3  11   5   -2.46    4.21 
   1  11   7    9.46    6.65 
   1 -11   7   18.51    8.78 
  -1 -11   9   26.34   12.53 
  -1  11   9   26.09   12.99 
  -3  11  11   31.47   16.77 
  -3 -11  11    9.93    7.98 
  -5  11  13   -3.05    6.50 
  -5 -11  13   15.05    6.98 
  18 -12 -10   13.17    8.17 
  16 -12  -8   20.43   10.53 
  14 -12  -6   29.83   12.20 
  12 -12  -4   16.51    8.51 
  10 -12  -2    8.56    6.01 
   8  12   0   -7.70    7.49 
   8 -12   0   -0.18    2.49 
   6  12   2   12.51    9.19 
   4  12   4   19.48   12.91 
   2  12   6    6.71    7.20 
   2 -12   6    1.50    2.23 
   0  12   8   -2.86    7.79 
   0 -12   8   -0.04    6.06 
  -2 -12  10   24.94   13.02 
  -2  12  10    3.25    3.99 
  -4 -12  12   -4.21    8.96 
  -4  12  12  -16.03   11.93 
  17 -13  -9    0.24    2.96 
  15 -13  -7   11.73   10.20 
  13 -13  -5   -1.03    2.21 
  11 -13  -3    1.31    5.74 
   9  13  -1   -1.70    7.80 
   9 -13  -1   -0.13    3.83 
   7  13   1    5.53    3.64 
   5  13   3    0.89    6.60 
   3  13   5   23.22   13.19 
   1  13   7    1.07    2.12 
  -1 -13   9    3.16    4.78 
  -1  13   9    3.21    5.16 
  -3 -13  11   -6.25    6.60 
  16 -14  -8    3.35    4.74 
  14 -14  -6   13.79    9.72 
  12 -14  -4   19.81   10.00 
  10  14  -2   16.29   11.82 
  10 -14  -2    9.82    7.26 
   8  14   0    5.64    8.37 
   8 -14   0    7.65    8.50 
   6  14   2   19.32   14.45 
   4  14   4    1.06    8.58 
   2  14   6   15.10   13.04 
   0  14   8   -4.59    6.51 
  -4 -14  12    3.83    3.08 
  13 -15  -5    3.92    2.01 
  11  15  -3   -1.44    9.37 
  11 -15  -3    9.03    7.41 
   9  15  -1   -4.62    6.55 
   9 -15  -1    2.25    4.71 
   7  15   1    9.84    5.34 
   5  15   3    6.31    6.41 
   3  15   5  -21.23   13.80 
   1  15   7    6.42    9.48 
  12  16  -4   15.85   12.85 
  12 -16  -4   22.61   13.92 
  10  16  -2   22.16   17.86 
  10 -16  -2   32.84   14.69 
   8  16   0   24.34   14.73 
   6  16   2    3.94    6.00 
   9 -17  -1   25.17   14.24 
  18   0 -11   -4.15    2.71 
  18   0 -11    0.78    0.79 
  16   0  -9    1.33    2.54 
  14   0  -7   -1.52    1.79 
   6   0   1    5.73    3.22 
   4   0   3    1.19    0.91 
   4   0   3    3.18    2.32 
   2   0   5    1.22    0.71 
   2   0   5   -2.83    2.19 
   2   0   5    0.48    4.36 
   0   0   7    2.09    2.26 
   0   0   7  -11.39    6.40 
  -2   0   9   -2.34    3.24 
  -2   0   9   -0.41    2.13 
  -4   0  11   -5.82    5.15 
  -4   0  11    1.25    3.02 
  -4   0  11    3.81    5.79 
  -6   0  13   -6.02    5.55 
  -6   0  13   -5.81    5.78 
  -8   0  15    4.85    5.08 
  -8   0  15   -0.28    3.19 
 -10   0  17  -15.54   11.50 
 -10   0  17    3.78    5.83 
 -12   0  19    4.52    5.43 
  19  -1 -12    7.14    4.66 
  17  -1 -10    5.33    1.92 
  17   1 -10    5.29    2.99 
  17  -1 -10    7.71    3.83 
  15   1  -8    2.35    2.36 
  15  -1  -8    3.13    1.58 
  13  -1  -6    5.61    3.53 
  11  -1  -4  323.33   30.56 
   5   1   2   11.21    3.61 
   3   1   4   88.06   13.48 
   3   1   4  100.89    9.33 
   3  -1   4  101.27   11.52 
   3  -1   4   90.83   18.21 
   1  -1   6  333.54   29.23 
   1  -1   6  442.58   34.91 
   1   1   6  361.87   34.84 
   1  -1   6  325.35   38.20 
  -1   1   8   22.70    9.92 
  -1  -1   8   13.58    6.43 
  -1  -1   8   11.36    4.41 
  -1   1   8   15.61    7.10 
  -1  -1   8   20.93    8.14 
  -3   1  10   19.15    9.45 
  -3   1  10   21.32    9.83 
  -3  -1  10   29.90   12.72 
  -3  -1  10   21.76   10.01 
  -3  -1  10   27.52   10.24 
  -5  -1  12  117.46   25.25 
  -5   1  12   77.17   21.13 
  -5   1  12  120.40   24.39 
  -5  -1  12  162.72   28.99 
  -5  -1  12   94.62   24.37 
  -7   1  14   86.54   21.44 
  -7  -1  14  112.42   27.35 
  -7  -1  14   82.33   21.94 
  -7   1  14   78.81   23.45 
  -9   1  16    8.82    6.37 
  -9   1  16   13.65   10.24 
  -9  -1  16    7.39    8.57 
 -11   1  18   54.27   19.43 
 -11   1  18   41.84   19.05 
 -11  -1  18   41.53   17.61 
  20  -2 -13   -0.59    2.28 
  18  -2 -11   -8.57    4.69 
  16  -2  -9   -0.53    1.82 
  16  -2  -9    0.49    0.44 
  14  -2  -7   27.12    7.67 
  12  -2  -5  281.33   28.24 
  10  -2  -3  223.27   25.13 
   8  -2  -1  307.57   27.74 
   6  -2   1  311.34   22.75 
   4   2   3  493.80   39.98 
   4  -2   3  418.57   43.13 
   2  -2   5  609.77   41.07 
   2   2   5  630.55   49.65 
   2  -2   5  592.39   53.81 
   2   2   5  566.91   55.25 
   0  -2   7  151.91   25.55 
   0  -2   7  175.43   21.66 
   0   2   7  172.49   24.60 
   0   2   7  159.50   25.80 
   0  -2   7  219.34   18.43 
  -2  -2   9  202.74   27.48 
  -2  -2   9  235.30   27.19 
  -2  -2   9  202.53   30.93 
  -2   2   9  175.03   27.73 
  -2   2   9  158.72   26.87 
  -4  -2  11  254.71   34.92 
  -4  -2  11  242.68   35.33 
  -4   2  11  218.77   33.25 
  -4   2  11  253.46   37.53 
  -4  -2  11  276.98   38.55 
  -6   2  13  201.73   36.23 
  -6  -2  13  190.36   34.18 
  -6   2  13  270.45   37.90 
  -8  -2  15  177.01   33.40 
  -8   2  15  197.43   34.02 
  -8   2  15  150.85   34.59 
 -10  -2  17   34.78   14.60 
 -10   2  17   27.57   13.05 
 -10   2  17   39.20   19.61 
 -12   2  19  105.64   32.49 
 -12   2  19   55.43   20.58 
  21  -3 -14    2.88    3.94 
  19  -3 -12    6.73    4.42 
  19   3 -12   -2.72    1.54 
  17  -3 -10    6.12    4.01 
  15  -3  -8   32.55    8.90 
  13  -3  -6  141.50   18.99 
  13   3  -6  128.82   15.39 
  11  -3  -4   75.58   13.19 
   9  -3  -2  349.83   33.83 
   7  -3   0  599.40   40.19 
   5  -3   2  692.14   57.14 
   3   3   4  809.07   62.55 
   3  -3   4  825.70   65.32 
   1  -3   6  737.10   63.48 
   1  -3   6  757.18   42.30 
   1   3   6  770.77   61.56 
   1   3   6  756.86   65.54 
  -1   3   8  661.11   61.69 
  -1   3   8  832.38   65.89 
  -1  -3   8  724.67   46.94 
  -1  -3   8  665.88   63.64 
  -3   3  10  399.76   45.29 
  -3  -3  10  454.09   39.31 
  -3  -3  10  401.07   48.10 
  -3   3  10  366.10   46.03 
  -5  -3  12  301.37   42.12 
  -5   3  12  293.00   39.42 
  -5   3  12  310.47   44.93 
  -7   3  14  241.08   43.22 
  -7  -3  14  292.63   43.82 
  -7   3  14  289.20   40.68 
  -9   3  16  279.29   41.21 
  -9   3  16  236.83   45.12 
  -9  -3  16  172.71   35.49 
 -11   3  18  150.41   31.44 
 -11   3  18  107.74   32.57 
 -11  -3  18   99.12   27.91 
  22  -4 -15    0.58    4.17 
  20  -4 -13   -0.95    2.88 
  20   4 -13    0.91    1.63 
  18  -4 -11   -0.22    3.35 
  16  -4  -9   22.11    7.79 
  14   4  -7   22.33    5.26 
  14  -4  -7   27.68    8.41 
  12  -4  -5  214.26   14.80 
  12  -4  -5  175.87   22.95 
  10  -4  -3  692.25   47.12 
  10  -4  -3  858.37   59.16 
   8  -4  -1  331.90   28.50 
   6  -4   1  815.85   66.51 
   6  -4   1  957.36   54.07 
   4  -4   3 1013.17   75.92 
   4   4   3 1110.34   78.93 
   2   4   5  895.75   71.15 
   2  -4   5  933.39   72.06 
   0  -4   7  684.72   41.01 
   0  -4   7  610.06   59.78 
   0   4   7  614.31   58.50 
  -2   4   9  569.37   58.33 
  -2   4   9  575.95   56.21 
  -2  -4   9  665.78   42.81 
  -2  -4   9  506.04   56.68 
  -4   4  11  405.48   47.16 
  -4   4  11  427.26   52.60 
  -4  -4  11  463.27   52.68 
  -6  -4  13  472.12   57.12 
  -6   4  13  421.25   50.94 
  -8   4  15  249.26   45.17 
  -8  -4  15  254.37   42.61 
  -8   4  15  221.92   36.17 
 -10  -4  17  177.58   37.75 
 -10   4  17  219.58   46.45 
 -10   4  17  244.98   39.12 
 -12   4  19  114.73   35.28 
  23  -5 -16    2.19    3.04 
  21  -5 -14   -4.20    4.06 
  21   5 -14    0.10    2.45 
  19  -5 -12    3.98    3.70 
  17  -5 -10   18.98    7.74 
  15  -5  -8   33.31    9.83 
  13  -5  -6  268.38   29.92 
  11  -5  -4  158.40   21.63 
   9  -5  -2  196.80   25.00 
   7  -5   0 1025.61   67.42 
   7  -5   0  854.98   57.85 
   5  -5   2  672.64   53.80 
   3  -5   4  969.30   72.13 
   3   5   4  890.50   73.42 
   1   5   6  337.27   40.10 
   1  -5   6  353.74   40.10 
   1  -5   6  355.44   24.22 
   1   5   6  460.35   46.44 
  -1   5   8  405.80   49.37 
  -1  -5   8  541.51   35.33 
  -1   5   8  492.42   50.64 
  -3   5  10  495.89   50.48 
  -3   5  10  461.31   54.27 
  -3  -5  10  507.43   54.81 
  -5  -5  12  586.96   62.46 
  -5   5  12  436.17   58.83 
  -5   5  12  599.34   58.00 
  -7   5  14  181.80   38.33 
  -7  -5  14  233.28   40.09 
  -7   5  14  304.44   40.54 
  -9   5  16  271.63   48.83 
  -9  -5  16  175.12   36.88 
 -11   5  18  163.90   40.48 
  22  -6 -15    1.15    3.89 
  20  -6 -13   -1.88    3.96 
  20   6 -13   -1.61    5.92 
  18  -6 -11    4.28    3.53 
  16  -6  -9    1.46    1.91 
  14  -6  -7   97.17   17.39 
  12  -6  -5  109.61   11.82 
  12  -6  -5   95.45   17.27 
  10  -6  -3  240.89   28.84 
   8  -6  -1  222.49   22.73 
   8  -6  -1  156.56   23.37 
   6  -6   1  380.57   35.31 
   4   6   3  630.78   58.03 
   4  -6   3  593.85   51.36 
   2   6   5  501.66   51.97 
   2  -6   5  535.41   49.97 
   0   6   7  282.30   36.28 
   0   6   7  280.72   38.61 
   0  -6   7  306.11   37.75 
   0  -6   7  315.82   23.50 
  -2  -6   9  326.12   26.58 
  -2   6   9  396.27   47.26 
  -2  -6   9  339.71   42.53 
  -2   6   9  292.87   37.15 
  -4   6  11  359.09   50.84 
  -4   6  11  446.01   47.39 
  -4  -6  11  426.05   51.99 
  -6   6  13  204.88   31.64 
  -6   6  13  193.42   38.03 
  -6  -6  13  237.11   39.40 
  -8   6  15  161.54   37.44 
  -8  -6  15  176.06   35.55 
 -10   6  17  144.13   37.31 
  23  -7 -16   -3.42    4.21 
  21   7 -14   -0.28    5.42 
  21  -7 -14    9.09    6.63 
  19  -7 -12   -2.17    4.11 
  17  -7 -10    0.97    2.88 
  15  -7  -8   18.48    8.33 
  13  -7  -6   24.64    8.51 
  11  -7  -4  132.78   20.97 
  11  -7  -4  128.78   13.51 
   9  -7  -2  111.62   13.56 
   9  -7  -2  110.29   19.14 
   7  -7   0   41.72   12.18 
   7  -7   0   62.16   11.34 
   5   7   2  188.21   29.97 
   5  -7   2  211.85   25.13 
   3   7   4  210.16   31.72 
   3  -7   4  187.75   26.01 
   1  -7   6  155.27   25.19 
   1   7   6  142.96   26.54 
  -1   7   8  108.15   21.24 
  -1  -7   8  140.03   25.63 
  -1  -7   8  141.30   15.13 
  -1   7   8  133.92   26.49 
  -3   7  10  195.70   34.74 
  -3  -7  10  216.11   34.80 
  -3   7  10  201.18   29.56 
  -5  -7  12  145.69   29.93 
  -5   7  12  137.61   31.20 
  -5   7  12  136.87   24.90 
  -7  -7  14  111.38   27.89 
  -7   7  14  117.62   31.01 
  -9   7  16   79.82   27.01 
  -9  -7  16   68.14   22.07 
  24  -8 -17    2.63    5.01 
  22   8 -15   -6.66    5.98 
  22  -8 -15    5.47    4.33 
  20  -8 -13  -13.38    7.85 
  20   8 -13   -1.24    3.26 
  18  -8 -11    4.57    5.44 
  16  -8  -9   13.67    7.54 
  14  -8  -7    1.18    2.39 
  12  -8  -5    5.57    4.29 
  10  -8  -3   -0.18    1.33 
  10  -8  -3    0.57    0.89 
   8  -8  -1    1.48    1.07 
   8  -8  -1   -6.87    4.79 
   6  -8   1   28.30    7.98 
   4   8   3   31.94   12.26 
   4  -8   3   18.50    7.35 
   2  -8   5   96.25   18.78 
   2   8   5  102.87   23.40 
   0  -8   7    8.67    5.97 
   0  -8   7    6.36    2.99 
   0   8   7   15.15    9.78 
   0   8   7    6.00    3.99 
  -2   8   9   46.78   13.35 
  -2  -8   9   39.92   14.29 
  -2   8   9   61.83   20.13 
  -4  -8  11   76.00   21.11 
  -4   8  11   53.84   19.00 
  -6   8  13   20.89   13.15 
  -6  -8  13   26.83   11.79 
  -8  -8  15   29.60   14.02 
  -8   8  15   30.55   16.44 
  23   9 -16    0.50    2.52 
  21  -9 -14    0.13    2.78 
  21   9 -14   10.88    6.66 
  19  -9 -12    0.78    4.27 
  17  -9 -10    1.82    3.88 
  15  -9  -8   -1.73    3.16 
  13  -9  -6    0.55    1.05 
  11  -9  -4    7.54    5.45 
   9  -9  -2    3.93    1.52 
   7  -9   0   21.12    6.07 
   7  -9   0   17.10    7.35 
   5  -9   2    3.00    3.11 
   5   9   2    3.96    5.50 
   3  -9   4    2.16    1.51 
   3   9   4   -5.50    5.47 
   1  -9   6    2.74    2.59 
   1   9   6    8.31    5.91 
  -1   9   8    1.99    1.09 
  -1  -9   8    0.52    5.13 
  -3  -9  10    0.67    3.28 
  -3   9  10    3.18    6.31 
  -5  -9  12   -4.73    8.55 
  -5   9  12   -4.58    8.74 
  -7  -9  14    7.95    6.16 
  -7   9  14   -9.29    8.93 
  22  10 -15   -1.28    2.92 
  20 -10 -13    1.17    2.66 
  20  10 -13    9.80    7.22 
  18 -10 -11    1.64    4.11 
  16 -10  -9    8.78    5.90 
  14 -10  -7    0.76    3.77 
  12 -10  -5   14.32    6.77 
  10 -10  -3   14.52    8.07 
   8 -10  -1   19.84    9.34 
   6  10   1   75.40   21.34 
   6 -10   1  108.77   15.62 
   6 -10   1   83.40   19.17 
   4 -10   3   74.07   15.19 
   4  10   3   35.49   15.15 
   2 -10   5   58.10   14.57 
   2  10   5   45.76   16.44 
   0 -10   7  104.59   22.20 
   0  10   7   80.39   22.91 
  -2  10   9   70.21   22.07 
  -2 -10   9   87.42   21.95 
  -4 -10  11   30.33   13.62 
  -4  10  11   24.59   14.93 
  -6 -10  13   53.88   18.45 
  -6  10  13   52.26   21.07 
  21  11 -14    0.40    1.67 
  19 -11 -12  -16.23    9.48 
  17 -11 -10   -1.42    1.93 
  15 -11  -8   34.25   13.26 
  13 -11  -6   15.47    7.62 
  11 -11  -4   45.71   14.16 
   9 -11  -2   40.96   13.33 
   7  11   0   38.68   14.88 
   7 -11   0   76.55   18.54 
   5  11   2  195.58   36.03 
   3 -11   4  209.41   29.06 
   3  11   4  213.93   37.91 
   1 -11   6  147.31   25.48 
   1  11   6  133.40   30.02 
  -1  11   8  132.67   31.00 
  -1 -11   8  108.46   24.91 
  -3 -11  10  190.30   35.21 
  -3  11  10  167.69   36.09 
  -5  11  12   65.52   24.17 
  -5 -11  12   82.66   24.17 
  -7 -11  14  115.97   30.65 
  18 -12 -11   -0.58    1.69 
  16 -12  -9    8.77    7.02 
  14 -12  -7   47.77   15.08 
  12 -12  -5   73.76   19.39 
  10 -12  -3   56.18   17.24 
   8 -12  -1  126.79   24.88 
   6  12   1  159.40   33.73 
   6 -12   1  151.30   28.22 
   4  12   3  289.22   46.20 
   2 -12   5  213.33   31.04 
   2  12   5  204.31   38.58 
   0  12   7  137.47   32.56 
   0 -12   7  177.58   30.40 
  -2 -12   9  138.90   29.03 
  -2  12   9   95.08   27.62 
  -4  12  11  216.70   44.23 
  -4 -12  11  236.69   41.90 
  -6 -12  13  194.50   40.61 
  17 -13 -10    9.56    8.50 
  15 -13  -8   10.24    7.47 
  13 -13  -6   30.29   12.89 
  11 -13  -4   98.16   23.16 
   9 -13  -2   77.64   20.21 
   7  13   0  119.49   30.61 
   7 -13   0  114.99   25.27 
   5  13   2  126.91   31.15 
   3  13   4  182.53   37.76 
   1  13   6  160.81   35.79 
  -1 -13   8  235.49   37.94 
  -1  13   8  204.00   43.47 
  -3  13  10  156.84   37.39 
  -3 -13  10  186.06   35.98 
  -5 -13  12  206.01   40.63 
  16 -14  -9   14.54    9.90 
  14 -14  -7   16.66   10.56 
  12 -14  -5   37.05   13.89 
  10 -14  -3   61.63   18.53 
   8  14  -1   39.79   18.32 
   8 -14  -1   48.43   16.23 
   6  14   1   90.28   26.92 
   4  14   3  102.20   28.80 
   2  14   5  142.27   34.07 
   0  14   7  130.14   33.60 
  -2  14   9  254.36   48.84 
  -4 -14  11  124.86   31.23 
  13 -15  -6   18.04    9.25 
  11 -15  -4   15.15   10.29 
   9 -15  -2   32.13   13.93 
   9  15  -2   23.17   14.67 
   7  15   0   37.37   17.96 
   7 -15   0   28.84   12.74 
   5  15   2   89.49   27.53 
   3  15   4   55.07   20.71 
   1  15   6   64.93   22.95 
  12 -16  -5    7.49    6.31 
  10  16  -3   18.00   13.27 
  10 -16  -3   19.75   10.28 
   8  16  -1   18.50   13.53 
   8 -16  -1    0.68    5.74 
   6  16   1   18.83   13.93 
   4  16   3   16.60   11.12 
   9 -17  -2   -1.26    3.05 
  18   0 -12  277.68   28.29 
  16   0 -10  829.46   55.19 
  16   0 -10  798.50   56.92 
  14   0  -8  879.86   59.13 
  12   0  -6  899.74   59.74 
   6   0   0  879.94   63.85 
   4   0   2  443.59   30.23 
   2   0   4  977.24   54.67 
   2   0   4 1046.64   63.81 
   0   0   6 1870.25  101.76 
   0   0   6 1112.92   83.77 
  -2   0   8  369.22   41.91 
  -2   0   8  496.86   44.58 
  -4   0  10  429.70   46.44 
  -4   0  10  384.89   44.63 
  -6   0  12  108.78   22.29 
  -6   0  12  117.56   25.65 
  -6   0  12   93.57   25.80 
  -8   0  14  146.90   28.49 
  -8   0  14  116.13   28.45 
 -10   0  16   43.61   18.46 
 -10   0  16   56.48   18.02 
 -12   0  18    0.67    7.84 
  19  -1 -13  251.96   28.34 
  17  -1 -11  297.04   31.20 
  17   1 -11  386.34   32.08 
  17   1 -11  368.61   32.96 
  15  -1  -9  850.36   53.22 
  15   1  -9  830.41   56.99 
  15  -1  -9  873.99   60.00 
  13   1  -7  775.27   51.81 
  13  -1  -7  738.51   52.72 
  11   1  -5 1202.68   69.01 
  11  -1  -5 1063.06   72.36 
   9   1  -3 1046.80   72.74 
   9  -1  -3 1142.04   71.84 
   5   1   1 1169.20   72.24 
   3   1   3  859.13   55.13 
   3   1   3  769.13   46.59 
   3  -1   3  762.04   47.68 
   1   1   5  811.77   67.70 
   1  -1   5  822.15   55.38 
   1  -1   5  840.37   67.72 
   1   1   5  945.43   62.82 
  -1  -1   7  688.66   55.10 
  -1   1   7  726.37   58.12 
  -1  -1   7  702.24   57.25 
  -1   1   7  879.83   64.67 
  -1  -1   7  689.68   60.71 
  -3  -1   9  357.04   40.44 
  -3  -1   9  327.64   37.15 
  -3   1   9  312.36   37.71 
  -3   1   9  347.63   39.11 
  -3  -1   9  280.65   38.23 
  -5  -1  11  233.50   38.67 
  -5   1  11  267.47   37.48 
  -5  -1  11  181.79   31.04 
  -5  -1  11  263.48   36.02 
  -5   1  11  258.30   34.78 
  -7  -1  13  202.65   35.92 
  -7   1  13  303.38   43.57 
  -7  -1  13  181.45   36.88 
  -7   1  13  209.84   33.42 
  -7  -1  13  172.63   30.71 
  -9   1  15   -0.03    2.86 
  -9   1  15    2.71    5.03 
  -9  -1  15   -2.04    6.19 
 -11  -1  17   12.85   10.42 
 -11   1  17   15.31   13.54 
 -11   1  17   17.52    9.11 
 -13   1  19  -11.94    9.07 
  20  -2 -14   98.52   17.67 
  18   2 -12  208.91   24.75 
  18  -2 -12  142.70   21.00 
  16  -2 -10  416.72   37.73 
  16   2 -10  443.72   34.36 
  14  -2  -8  484.00   30.00 
  14  -2  -8  452.74   38.82 
  12   2  -6  375.56   26.13 
  12  -2  -6  383.96   32.67 
  10   2  -4  762.21   53.58 
  10  -2  -4  652.38   49.68 
   8  -2  -2  601.06   45.91 
   6  -2   0 1052.92   63.32 
   4  -2   2  586.87   52.87 
   4   2   2  745.52   44.71 
   2  -2   4  847.18   68.14 
   2   2   4  981.47   66.17 
   2  -2   4  962.70   56.18 
   0   2   6  732.98   60.16 
   0  -2   6  780.66   56.19 
   0  -2   6  712.95   62.81 
   0  -2   6  839.07   51.06 
  -2   2   8  120.19   20.77 
  -2  -2   8  110.17   18.46 
  -2   2   8  185.55   25.75 
  -2  -2   8  112.31   21.38 
  -2  -2   8  147.63   21.40 
  -4   2  10  256.65   33.67 
  -4   2  10  280.68   36.75 
  -4  -2  10  279.79   36.52 
  -4  -2  10  211.87   32.29 
  -4  -2  10  190.91   29.99 
  -6  -2  12  144.76   27.94 
  -6   2  12  175.68   28.87 
  -6   2  12  148.23   29.97 
  -6  -2  12  161.03   30.75 
  -8   2  14   11.28    9.42 
  -8  -2  14    9.03    3.04 
  -8   2  14   17.84    9.88 
 -10  -2  16    0.10    2.63 
 -10   2  16   25.95   14.09 
 -10   2  16   13.69    8.20 
 -12   2  18    0.28    1.84 
 -12   2  18    0.61    2.57 
  21  -3 -15   36.34   10.83 
  19   3 -13   34.29   10.40 
  19  -3 -13   22.05    8.12 
  17   3 -11   92.42   16.08 
  17  -3 -11   76.93   15.08 
  15  -3  -9  195.25   23.41 
  13  -3  -7  200.16   22.73 
  11   3  -5  141.68   18.32 
  11  -3  -5  117.33   16.17 
  11  -3  -5  124.42    9.89 
   9  -3  -3  221.37   19.16 
   9  -3  -3  232.25   24.26 
   7  -3  -1  300.54   25.68 
   7  -3  -1  293.57   26.24 
   5  -3   1  359.39   35.07 
   5  -3   1  381.22   23.54 
   3  -3   3  917.85   61.09 
   3   3   3  623.50   53.65 
   1  -3   5  118.11   19.49 
   1   3   5   98.60   17.48 
   1  -3   5  138.36    9.94 
   1   3   5  121.95   21.06 
  -1  -3   7   70.46    9.57 
  -1  -3   7   71.09   16.41 
  -1   3   7   67.08   14.82 
  -1   3   7   50.81   13.00 
  -3  -3   9   71.59   13.45 
  -3   3   9   51.96   15.17 
  -3   3   9   43.50   12.37 
  -3  -3   9   48.83   14.47 
  -5  -3  11  132.47   24.91 
  -5   3  11   88.86   19.40 
  -5   3  11  121.88   24.88 
  -5  -3  11   98.25   19.10 
  -7  -3  13   -1.21    3.37 
  -7   3  13    7.43    7.23 
  -7   3  13   -0.21    4.62 
  -9   3  15   18.89    8.95 
  -9   3  15    7.82    2.83 
  -9  -3  15   24.77   12.44 
 -11  -3  17    0.94    2.40 
 -11   3  17    0.25    3.24 
 -11   3  17    9.50    9.01 
 -13   3  19   24.62   15.72 
  20   4 -14   -1.56    1.50 
  20  -4 -14   -0.32    1.94 
  18  -4 -12    8.75    4.92 
  18   4 -12   11.96    4.90 
  16  -4 -10   18.03    7.14 
  14  -4  -8   39.76    9.99 
  12   4  -6    1.55    0.72 
  12  -4  -6    1.05    2.06 
  10  -4  -4   57.77   11.39 
   8  -4  -2   77.78    9.83 
   8  -4  -2   45.10   10.28 
   6  -4   0  126.81   17.18 
   6  -4   0  107.32   12.21 
   4   4   2   37.89   10.43 
   4  -4   2   43.70   10.49 
   2  -4   4  208.35   25.20 
   2   4   4  142.25   22.02 
   0   4   6   44.84   12.71 
   0  -4   6   55.07    6.76 
   0  -4   6   48.50   12.79 
   0   4   6   43.20   12.06 
  -2   4   8   13.46    6.45 
  -2  -4   8   18.98    8.59 
  -2  -4   8   23.20    5.76 
  -2   4   8    7.95    4.82 
  -4   4  10    5.04    5.54 
  -4  -4  10    0.19    4.37 
  -4  -4  10    1.33    1.54 
  -4   4  10   10.12    6.35 
  -6  -4  12    0.48    1.24 
  -6   4  12   -0.84    3.20 
  -6   4  12   -7.55    6.62 
  -8  -4  14   -2.82    4.11 
  -8   4  14   18.02   11.22 
  -8   4  14   10.25    7.52 
 -10  -4  16    5.48    6.37 
 -10   4  16    6.24    5.47 
 -10   4  16    0.33   10.16 
 -12   4  18    4.60    6.62 
  21  -5 -15   17.14    8.33 
  19  -5 -13   20.29    8.75 
  19   5 -13   25.04   10.21 
  15  -5  -9   17.08    6.76 
  13  -5  -7   96.80   16.53 
  13   5  -7  106.16   14.72 
  11  -5  -5   14.27    3.85 
  11  -5  -5   16.98    6.30 
   9  -5  -3    2.41    2.44 
   7  -5  -1   -1.05    1.99 
   7  -5  -1    5.99    3.90 
   5  -5   1   41.24    9.27 
   3   5   3  124.97   21.26 
   3  -5   3  172.03   21.86 
   1  -5   5   70.54   15.32 
   1  -5   5   84.19    9.03 
   1   5   5  104.49   19.08 
  -1  -5   7   16.64    7.42 
  -1   5   7   12.40    6.80 
  -1  -5   7   28.43    5.63 
  -1   5   7   28.35   10.78 
  -3   5   9   31.63   10.40 
  -3  -5   9   39.65    8.19 
  -3   5   9   48.36   15.34 
  -3  -5   9   27.28   11.00 
  -5  -5  11   46.43   14.77 
  -5   5  11   40.49   14.93 
  -5   5  11   47.55   13.27 
  -7   5  13    2.04    2.96 
  -7  -5  13   -7.65    6.53 
  -7   5  13    1.31    5.95 
  -9   5  15   -8.75    6.38 
  -9  -5  15   -1.39    4.65 
  -9   5  15    0.19    3.29 
 -11  -5  17    0.03    4.97 
 -11   5  17    2.63    8.12 
  22  -6 -16   50.64   15.17 
  20  -6 -14   66.49   16.68 
  20   6 -14   40.50   13.92 
  18   6 -12  116.46   21.65 
  14  -6  -8  269.79   31.21 
  12  -6  -6  131.32   19.96 
  12  -6  -6  150.20   13.94 
  10  -6  -4  129.82   19.33 
   8  -6  -2  357.77   27.54 
   8  -6  -2  327.74   33.69 
   6  -6   0  245.72   23.15 
   6  -6   0  190.84   25.35 
   4   6   2  478.43   50.56 
   4  -6   2  653.55   48.09 
   2   6   4   67.87   17.03 
   2  -6   4  115.96   18.36 
   0  -6   6  150.34   15.00 
   0   6   6  215.56   30.37 
   0  -6   6  156.95   24.25 
   0   6   6  173.35   25.98 
  -2   6   8  156.04   24.28 
  -2   6   8  161.30   27.99 
  -2  -6   8  190.67   18.33 
  -2  -6   8  157.91   26.55 
  -4   6  10  120.65   21.64 
  -4   6  10  170.70   30.68 
  -4  -6  10  143.14   17.57 
  -4  -6  10  104.35   22.77 
  -6  -6  12   32.22   13.53 
  -6   6  12   45.00   17.46 
  -6   6  12   28.08   10.49 
  -8  -6  14    9.13    6.98 
  -8   6  14    0.70    7.66 
 -10   6  16   10.21   12.31 
 -10  -6  16    6.41    5.06 
  23  -7 -17   40.25   14.68 
  21  -7 -15   28.59   12.19 
  21   7 -15   45.89   14.59 
  19   7 -13   69.61   17.69 
  19  -7 -13   56.98   15.66 
  17  -7 -11  304.42   37.09 
  15  -7  -9  318.83   36.42 
  13  -7  -7  403.54   40.62 
  11  -7  -5  686.07   56.67 
   9  -7  -3  162.32   12.95 
   9  -7  -3  140.63   21.22 
   7  -7  -1  882.71   54.44 
   7  -7  -1  748.52   62.82 
   5  -7   1  601.21   43.34 
   5  -7   1  434.57   44.68 
   3   7   3  265.21   36.93 
   3  -7   3  385.25   35.59 
   1  -7   5  389.35   39.31 
   1   7   5  332.09   42.01 
  -1  -7   7  327.46   26.23 
  -1  -7   7  283.74   35.89 
  -1   7   7  255.75   33.03 
  -1   7   7  303.43   40.44 
  -3   7   9  203.84   34.77 
  -3  -7   9  210.25   32.98 
  -3   7   9  226.75   29.79 
  -3  -7   9  271.71   24.48 
  -5   7  11   97.54   24.93 
  -5   7  11  107.09   20.32 
  -5  -7  11  119.00   25.69 
  -7   7  13   22.76   12.98 
  -7  -7  13   34.80   14.48 
  -9  -7  15   26.50   11.41 
  -9   7  15   29.63   15.48 
 -11   7  17    6.90    8.13 
  22  -8 -16   54.37   16.88 
  20   8 -14  111.27   23.82 
  20  -8 -14   87.39   20.83 
  18  -8 -12  233.58   33.40 
  18   8 -12  213.72   32.29 
  16  -8 -10  267.32   34.89 
  14  -8  -8  495.07   48.67 
  12  -8  -6  408.81   42.08 
  10  -8  -4  446.49   43.26 
   8  -8  -2  655.14   38.77 
   8  -8  -2  512.09   50.72 
   6  -8   0  761.52   66.32 
   6  -8   0  956.76   59.27 
   4  -8   2  628.39   48.28 
   4   8   2  539.31   57.91 
   2   8   4  330.19   42.67 
   2  -8   4  363.52   37.16 
   0   8   6  273.64   38.74 
   0   8   6  217.57   30.71 
   0  -8   6  270.86   24.40 
   0  -8   6  296.77   35.19 
  -2  -8   8  540.99   39.98 
  -2   8   8  538.62   59.53 
  -2   8   8  441.91   45.91 
  -2  -8   8  543.62   55.01 
  -4  -8  10  278.69   38.94 
  -4   8  10  289.25   42.94 
  -4   8  10  189.22   27.30 
  -6  -8  12   47.87   17.23 
  -6   8  12   60.05   21.33 
  -8   8  14   20.23   10.63 
  -8  -8  14   32.17   15.23 
 -10  -8  16   31.90   15.05 
 -10   8  16   24.64   15.32 
  21  -9 -15  133.34   27.34 
  21   9 -15  131.68   27.81 
  19  -9 -13  175.30   29.94 
  19   9 -13  129.12   26.34 
  17  -9 -11  180.81   29.32 
  15  -9  -9  344.88   41.15 
  13  -9  -7  430.70   45.38 
  11  -9  -5  372.74   40.65 
   9  -9  -3  531.49   49.88 
   7  -9  -1  734.21   45.56 
   7  -9  -1  587.59   57.00 
   5  -9   1  791.90   55.51 
   5   9   1  789.76   74.07 
   5  -9   1  726.63   64.12 
   3   9   3  406.43   50.95 
   3  -9   3  501.35   43.67 
   1   9   5  381.24   47.16 
   1  -9   5  310.10   36.50 
  -1   9   7  336.46   44.87 
  -1  -9   7  336.15   39.53 
  -1  -9   7  277.74   26.47 
  -1   9   7  224.16   31.03 
  -3   9   9  384.41   53.32 
  -3  -9   9  515.33   55.25 
  -5  -9  11   78.41   21.64 
  -5   9  11   64.44   21.00 
  -7  -9  13   10.91    8.56 
  -7   9  13   39.27   17.78 
  -9   9  15   18.81   14.16 
  -9  -9  15   23.67   11.88 
  20 -10 -14   41.73   14.80 
  20  10 -14   31.00   13.98 
  18 -10 -12  116.62   25.04 
  18  10 -12  139.53   27.20 
  16 -10 -10  186.91   30.41 
  14 -10  -8  226.87   32.81 
  12 -10  -6  343.14   40.36 
  10 -10  -4  347.45   39.94 
   8 -10  -2  344.39   39.36 
   6 -10   0  587.57   42.32 
   6 -10   0  556.98   54.34 
   4 -10   2  432.88   38.80 
   4  10   2  389.12   51.07 
   2 -10   4  377.35   39.53 
   2  10   4  371.43   49.01 
   0 -10   6  343.14   40.81 
   0  10   6  319.94   46.35 
  -2 -10   8  150.43   27.50 
  -2  10   8  179.68   34.38 
  -2 -10   8  137.60   18.40 
  -4 -10  10   96.85   22.98 
  -4  10  10   58.09   20.51 
  -6 -10  12   62.98   20.60 
  -6  10  12   49.45   19.64 
  -8  10  14   37.84   18.36 
  -8 -10  14   65.00   21.88 
  19 -11 -13   23.78   11.83 
  19  11 -13   62.73   18.79 
  17 -11 -11   78.97   20.59 
  15 -11  -9  102.64   22.61 
  13 -11  -7  139.14   26.40 
  11 -11  -5  270.76   36.17 
   9 -11  -3  142.83   24.96 
   7 -11  -1  343.63   41.28 
   5  11   1  292.18   43.86 
   5 -11   1  251.51   34.73 
   3  11   3  169.23   33.12 
   3 -11   3  211.69   26.96 
   1 -11   5   89.22   19.26 
   1  11   5   95.40   24.62 
  -1 -11   7   54.43   16.49 
  -1  11   7   74.77   23.06 
  -3  11   9   66.23   20.91 
  -3 -11   9   69.05   19.65 
  -5 -11  11   18.48   10.42 
  -5  11  11   20.91   11.89 
  -7 -11  13   54.20   20.04 
  -7  11  13   33.09   16.67 
  18 -12 -12   18.98   10.84 
  18  12 -12   16.23   10.32 
  16 -12 -10   -1.73    4.12 
  14 -12  -8   67.06   18.32 
  12 -12  -6   34.78   12.37 
  10 -12  -4   90.15   20.43 
   8 -12  -2   94.53   21.05 
   6  12   0   42.14   15.83 
   6 -12   0   45.21   14.70 
   4  12   2   66.32   20.81 
   2  12   4   15.21    8.66 
   0 -12   6   16.70    7.38 
   0  12   6   16.35   11.51 
  -2 -12   8   10.49    7.28 
  -2  12   8    8.76    3.16 
  -4 -12  10   21.43   12.01 
  -4  12  10   38.02   17.56 
  -6 -12  12    2.69    5.00 
  -6  12  12    2.38    4.59 
  17 -13 -11   12.47   10.17 
  15 -13  -9    3.09    4.74 
  13 -13  -7    1.08    3.07 
  11 -13  -5    5.58    5.64 
   9 -13  -3    2.74    4.62 
   7  13  -1   12.02    9.78 
   7 -13  -1    6.96    5.24 
   5  13   1   12.74    9.90 
   5 -13   1    0.81    2.15 
   3  13   3   12.99    9.86 
   1  13   5    6.11    3.68 
  -1  13   7   11.79   12.21 
  -1 -13   7    4.83    4.89 
  -3 -13   9   -2.57    5.20 
  -3  13   9   -4.73    5.54 
  -5 -13  11   20.82   11.82 
  -5  13  11   11.29    9.97 
  -7 -13  13  -17.10   11.65 
  14 -14  -8   12.21    6.60 
  12 -14  -6   27.37   12.75 
  10 -14  -4   18.56    9.47 
   8  14  -2   19.94   12.28 
   8 -14  -2   11.52    7.67 
   6  14   0   14.07   10.98 
   6 -14   0   11.26    7.93 
   4  14   2   19.98   12.26 
   2  14   4   22.55   13.40 
   0  14   6   17.79   10.33 
  -2  14   8   12.23    9.53 
  -4 -14  10   13.03    7.27 
  -6 -14  12  -12.10    9.77 
  13 -15  -7   48.11   17.15 
  11 -15  -5   76.87   21.94 
   9  15  -3   99.50   30.21 
   9 -15  -3   77.00   21.70 
   7 -15  -1   44.31   16.00 
   7  15  -1   50.08   21.18 
   5  15   1  102.33   29.36 
   5 -15   1   82.66   22.43 
   3  15   3   47.40   18.38 
   1  15   5   32.85   17.05 
  -1  15   7   34.36   17.50 
  10  16  -4   92.58   30.93 
  10 -16  -4  119.26   28.72 
   8  16  -2   73.25   25.62 
   8 -16  -2  104.48   26.41 
   6  16   0  137.48   35.13 
   6 -16   0  137.20   31.15 
   4  16   2  132.19   34.25 
   2  16   4  118.36   33.06 
   9  17  -3  133.90   37.49 
   9 -17  -3  166.91   35.10 
   7  17  -1  179.83   42.38 
   7 -17  -1  157.33   34.81 
   5  17   1  106.10   31.36 
  18   0 -13   -0.67    1.82 
  16   0 -11    0.16    1.59 
  16   0 -11   -0.80    1.84 
  14   0  -9    0.92    1.11 
  14   0  -9   -0.31    1.33 
  12   0  -7    2.26    1.80 
  10   0  -5    2.49    2.26 
   8   0  -3   -0.11    1.55 
   6   0  -1    3.87    3.03 
   4   0   1    1.42    1.88 
   2   0   3    0.29    0.33 
   2   0   3   -1.20    1.90 
   2   0   3    0.36    0.66 
   0   0   5   -0.09    3.04 
   0   0   5    0.02    1.20 
  -2   0   7   -0.73    3.24 
  -2   0   7   -4.13    3.58 
  -4   0   9    1.88    2.43 
  -4   0   9   -1.64    2.09 
  -6   0  11    2.61    4.48 
  -6   0  11   -4.23    4.20 
  -8   0  13   -3.08    3.86 
  -8   0  13    0.19    2.50 
 -10   0  15    3.04    4.32 
 -10   0  15    0.20    1.45 
 -12   0  17    4.07    6.59 
 -14   0  19    6.35    6.63 
  17   1 -12   43.41   11.03 
  17   1 -12   41.97    8.89 
  15   1 -10   82.66   13.17 
  15   1 -10   94.16   12.75 
  15  -1 -10   96.47   12.91 
  13   1  -8   73.08   10.39 
  13  -1  -8   84.84    9.69 
  13  -1  -8   78.81   11.99 
  11  -1  -6   93.87   12.49 
  11   1  -6   99.94   11.90 
   9  -1  -4  207.59   19.92 
   9   1  -4  209.67   18.22 
   7  -1  -2  118.53   15.55 
   7   1  -2  105.15   16.59 
   5   1   0  166.53   19.06 
   3  -1   2    7.08    1.93 
   3   1   2   10.66    2.57 
   3   1   2    8.12    3.22 
   3  -1   2    5.55    2.02 
   1   1   4   34.26    9.16 
   1  -1   4   40.28    6.81 
   1  -1   4   38.08    9.31 
   1   1   4   42.99    8.49 
  -1  -1   6   63.18   11.62 
  -1  -1   6   60.18   12.17 
  -1   1   6   56.76   11.72 
  -1   1   6   53.38   12.38 
  -3  -1   8   15.54    7.85 
  -3   1   8   27.24    9.02 
  -3  -1   8    8.39    6.56 
  -3   1   8   21.97    8.63 
  -3  -1   8   14.74    6.61 
  -5  -1  10    2.41    1.58 
  -5   1  10    1.62    1.69 
  -5   1  10    6.04    3.33 
  -5  -1  10    2.29    3.20 
  -5  -1  10    2.62    3.59 
  -7  -1  12    9.73    7.06 
  -7  -1  12    3.95    4.83 
  -7   1  12    3.94    3.25 
  -7   1  12   -2.03    3.07 
  -7  -1  12   -0.56    3.97 
  -9  -1  14   52.55   21.74 
  -9  -1  14   64.97   18.44 
  -9  -1  14   79.19   23.25 
  -9   1  14   89.95   24.02 
  -9   1  14   50.53   15.68 
  -9   1  14   44.36   18.18 
 -11   1  16    5.82    4.03 
 -11   1  16    6.05    5.69 
 -11  -1  16    1.61    3.70 
 -13  -1  18   19.20   11.81 
 -13   1  18   11.62   11.95 
 -13   1  18   12.54    8.66 
  18   2 -13   79.02   15.69 
  16   2 -11  195.27   23.87 
  16   2 -11  221.49   20.72 
  14   2  -9  273.00   22.97 
  12  -2  -7  312.54   20.04 
  12  -2  -7  276.49   26.67 
  12   2  -7  309.35   24.17 
  10   2  -5  251.04   19.78 
  10  -2  -5  274.37   24.40 
   8  -2  -3   99.37   13.42 
   8   2  -3  131.06   17.73 
   6  -2  -1  317.73   26.37 
   6   2  -1  360.93   31.45 
   4   2   1   25.73    5.25 
   2   2   3    3.80    2.93 
   2   2   3    3.35    1.48 
   2  -2   3   -1.14    3.46 
   0  -2   5   72.14    8.40 
   0   2   5   43.07   11.22 
   0  -2   5   56.12   12.01 
   0   2   5   59.05   11.76 
   0  -2   5   63.98   10.11 
  -2  -2   7   20.31    6.96 
  -2   2   7   11.02    5.33 
  -2  -2   7   18.51    6.17 
  -2  -2   7    9.89    3.95 
  -2   2   7   22.28    8.51 
  -4  -2   9    4.38    2.61 
  -4  -2   9    8.04    4.63 
  -4  -2   9    4.21    5.90 
  -4   2   9    7.08    4.38 
  -4   2   9    5.42    3.64 
  -6   2  11    1.25    2.55 
  -6   2  11    3.83    3.30 
  -6  -2  11    1.75    7.29 
  -6  -2  11    6.85    4.22 
  -8  -2  13  114.25   29.09 
  -8   2  13  140.67   29.77 
  -8  -2  13  134.00   26.70 
  -8   2  13  201.50   30.02 
 -10   2  15    5.06    5.82 
 -10   2  15   15.32   12.52 
 -10  -2  15    9.24    7.75 
 -12   2  17   15.44   11.23 
 -12   2  17   21.41   10.99 
 -12  -2  17   22.34    9.27 
 -14   2  19   66.67   26.47 
 -14   2  19   50.90   17.67 
  17   3 -12  243.48   29.21 
  15   3 -10  286.43   22.97 
  11   3  -6  285.26   20.43 
  11  -3  -6  336.91   28.87 
   9   3  -4 1177.57   52.52 
   9  -3  -4 1041.16   49.60 
   7  -3  -2  166.66   19.12 
   7  -3  -2  184.31   15.81 
   5  -3   0  103.48   10.66 
   3  -3   2   -1.98    3.11 
   3   3   2    0.51    0.84 
   1  -3   4   -0.70    2.92 
   1  -3   4    0.25    0.55 
   1   3   4   -0.10    2.58 
  -1  -3   6   10.83    3.32 
  -1   3   6   11.40    5.79 
  -1   3   6   11.40    5.66 
  -3   3   8   -0.59    1.72 
  -3  -3   8    2.20    2.69 
  -3  -3   8   -0.48    4.00 
  -3   3   8   -2.52    3.09 
  -5   3  10    8.65    5.51 
  -5  -3  10   16.35    7.24 
  -5  -3  10   15.32    7.68 
  -5   3  10   13.16    6.11 
  -7  -3  12   50.39   16.30 
  -7   3  12   73.83   17.15 
  -7   3  12   75.13   20.78 
  -7  -3  12   75.55   18.91 
  -9   3  14   22.71   13.01 
  -9   3  14   26.10   10.93 
  -9  -3  14   19.54    9.00 
 -11  -3  16  105.59   26.10 
 -11   3  16  118.84   31.28 
 -11   3  16   94.20   23.01 
 -13  -3  18   92.26   25.72 
 -13   3  18   77.45   27.76 
 -13   3  18   48.76   17.32 
  18   4 -13  305.16   35.76 
  16   4 -11  404.09   39.42 
  10   4  -5  549.65   37.71 
  10  -4  -5  466.84   33.04 
  10  -4  -5  430.99   38.03 
   8  -4  -3  982.22   65.71 
   6  -4  -1  217.50   18.54 
   6  -4  -1  217.37   20.58 
   6  -4  -1  196.13   20.41 
   6  -4  -1  167.08   20.52 
   4  -4   1    2.74    1.81 
   2   4   3    0.04    1.13 
   2  -4   3   -0.62    1.25 
   0   4   5   45.54   12.33 
   0  -4   5   72.48   14.27 
   0  -4   5   70.84    8.04 
   0   4   5   66.66   14.38 
  -2  -4   7    2.28    2.42 
  -2   4   7   -1.66    2.35 
  -2  -4   7    3.45    1.40 
  -2   4   7    3.74    3.41 
  -4   4   9   63.20   14.32 
  -4   4   9   72.28   18.02 
  -4  -4   9   60.27   14.67 
  -4  -4   9   78.86   14.12 
  -6  -4  11   39.92   12.00 
  -6   4  11   42.38   12.20 
  -6   4  11   46.80   15.83 
  -6  -4  11   37.71   12.74 
  -8   4  13   47.09   13.94 
  -8   4  13   54.77   19.08 
  -8  -4  13   42.11   15.35 
 -10   4  15  104.59   22.71 
 -10   4  15   96.32   27.28 
 -10  -4  15  124.91   27.81 
 -12  -4  17  120.96   28.93 
 -12   4  17   76.87   25.99 
  19   5 -14  220.84   32.10 
  17   5 -12  329.23   37.25 
  11   5  -6  630.13   42.41 
  11  -5  -6  586.76   39.77 
   9  -5  -4  549.25   33.90 
   9  -5  -4  531.71   43.64 
   7  -5  -2  286.64   23.05 
   7  -5  -2  269.92   27.52 
   5  -5   0   16.72    5.01 
   5  -5   0   16.99    4.94 
   5  -5   0   21.38    6.95 
   3  -5   2   16.29    5.78 
   3   5   2   19.55    8.00 
   1  -5   4  112.82   17.92 
   1  -5   4  117.27   11.95 
  -1   5   6    3.65    3.57 
  -1  -5   6    0.82    0.92 
  -1  -5   6    0.57    3.39 
  -1   5   6   -2.84    2.92 
  -3  -5   8   67.60   16.13 
  -3  -5   8   89.03   12.49 
  -3   5   8   66.75   16.96 
  -3   5   8   96.66   17.11 
  -5  -5  10   23.30   10.14 
  -5   5  10   16.54    7.57 
  -5   5  10   14.96   10.45 
  -5  -5  10   23.26    7.58 
  -7   5  12   84.24   18.25 
  -7  -5  12   80.01   20.22 
  -7   5  12   57.97   19.01 
  -9   5  14   31.96   15.44 
  -9  -5  14   33.34   13.80 
  -9   5  14   39.33   13.04 
 -11  -5  16   81.76   23.09 
 -11   5  16   64.78   24.73 
 -13   5  18  100.23   31.56 
  20   6 -15  100.61   22.70 
  18   6 -13  189.18   29.01 
  12   6  -7  237.86   21.38 
  10  -6  -5  161.44   12.23 
  10  -6  -5  147.42   20.48 
   8  -6  -3  338.99   32.69 
   8  -6  -3  339.63   22.14 
   6  -6  -1   53.27    7.82 
   6  -6  -1   46.03   10.73 
   4  -6   1   63.59   10.68 
   4  -6   1   49.73   11.59 
   2   6   3    0.68    1.74 
   2  -6   3    3.49    3.19 
   0  -6   5    1.31    1.59 
   0  -6   5    6.07    2.62 
   0   6   5    3.77    3.17 
  -2  -6   7   -0.51    1.06 
  -2  -6   7   -0.80    3.66 
  -2   6   7    3.15    2.91 
  -2   6   7   -0.02    2.96 
  -4  -6   9    1.83    1.67 
  -4   6   9    3.90    1.95 
  -4   6   9    4.83    5.53 
  -6   6  11   53.68   13.85 
  -6   6  11   60.17   18.68 
  -6  -6  11   72.56   19.19 
  -6  -6  11   72.66   14.03 
  -8   6  13   47.91   18.59 
  -8  -6  13   43.72   16.75 
  -8   6  13   40.76   12.44 
 -10   6  15   39.71   18.85 
 -10  -6  15   49.20   18.80 
 -12   6  17   59.52   24.34 
 -12  -6  17   85.36   26.02 
  23  -7 -18   36.10   14.16 
  19   7 -14   86.75   20.59 
  17   7 -12  121.23   22.39 
   9  -7  -4  143.96   20.57 
   7  -7  -2  171.27   13.31 
   7  -7  -2  172.93   22.46 
   5  -7   0   82.94   11.09 
   5  -7   0   63.26   13.07 
   3  -7   2    1.74    2.70 
   3   7   2    0.83    1.90 
   1  -7   4   50.31   11.83 
   1   7   4   48.18   14.23 
  -1  -7   6    0.57    2.54 
  -1  -7   6   -0.14    1.52 
  -1   7   6   -3.46    5.06 
  -1   7   6  -10.79    6.72 
  -3   7   8   11.98    5.86 
  -3   7   8   11.42    5.55 
  -3  -7   8    8.30    3.61 
  -3  -7   8   11.32    4.78 
  -5  -7  10   56.54   16.45 
  -5   7  10   36.35   10.97 
  -5  -7  10   49.46   10.53 
  -5   7  10   35.31   13.87 
  -7   7  12   12.28   10.67 
  -7  -7  12   25.05   11.24 
  -9   7  14   22.30   14.37 
  -9  -7  14   18.86   10.23 
 -11   7  16   17.02   11.61 
 -11  -7  16   32.17   14.26 
  22  -8 -17    8.01    6.91 
  20   8 -15   10.23    5.73 
  18   8 -13   -0.96    4.27 
  10  -8  -5   -2.44    1.40 
   8  -8  -3    5.33    4.28 
   6  -8  -1  170.48   15.62 
   6  -8  -1  210.12   25.72 
   4  -8   1    0.78    1.31 
   4   8   1    2.60    2.37 
   4  -8   1   -1.16    1.23 
   2   8   3   -0.20    2.25 
   2  -8   3   -0.89    3.33 
   0  -8   5   16.86    6.86 
   0   8   5   19.59    9.04 
   0  -8   5   13.73    4.60 
  -2  -8   7   24.95    6.58 
  -2  -8   7   32.31   11.42 
  -2   8   7   19.90    7.56 
  -2   8   7   11.86    7.66 
  -4   8   9   82.47   15.65 
  -4  -8   9   88.68   13.95 
  -4  -8   9   69.78   17.88 
  -4   8   9   60.23   18.75 
  -6   8  11    2.34    3.21 
  -6  -8  11   -0.13    2.86 
  -8  -8  13   24.82   12.51 
  -8   8  13   21.57   12.60 
 -10   8  15   -0.85    6.77 
 -10  -8  15    9.21    8.74 
  21   9 -16    2.33    4.71 
  21  -9 -16   -4.18    7.08 
  19   9 -14    5.41    6.91 
  17   9 -12   -0.28    2.32 
  11  -9  -6   15.91    6.89 
   9  -9  -4    0.23    1.46 
   7  -9  -2    0.07    3.23 
   5  -9   0    4.34    2.94 
   5  -9   0   -5.28    4.06 
   3  -9   2   12.61    5.62 
   3  -9   2    9.44    5.42 
   1  -9   4    4.93    2.55 
   1   9   4   12.75    8.84 
  -1   9   6   -3.29    3.24 
  -1  -9   6   -3.11    2.43 
  -1   9   6    3.14    5.14 
  -3  -9   8    1.46    1.90 
  -3  -9   8    4.44    4.06 
  -5  -9  10    4.75    3.07 
  -5   9  10   -6.37    6.42 
  -7  -9  12   -0.07    3.32 
  -7   9  12    1.26    4.78 
  -9  -9  14    4.02    5.27 
  -9   9  14   -3.81    7.56 
  20 -10 -15   27.00   12.65 
  20  10 -15   30.39   13.63 
  18  10 -13   33.42   13.84 
  12 -10  -7   31.65   10.85 
  10 -10  -5   40.15   12.31 
   8 -10  -3   18.07    7.62 
   6 -10  -1   50.45   12.78 
   4 -10   1   -7.29    3.70 
   4  10   1    2.29    4.49 
   4 -10   1    0.47    3.00 
   2  10   3   -0.02    3.52 
   2 -10   3    0.39    1.95 
   0  10   5   -2.24    3.27 
   0 -10   5   -0.18    2.86 
  -2 -10   7   49.11   14.12 
  -2 -10   7   43.55   10.15 
  -2  10   7   29.98   12.86 
  -4 -10   9   16.94    6.45 
  -4  10   9   12.51    6.27 
  -4 -10   9   20.87   10.41 
  -6  10  11    2.80    4.42 
  -6 -10  11   12.08    8.64 
  -8  10  13   -2.36    4.52 
  -8 -10  13    1.42    1.82 
 -10 -10  15    6.56    6.10 
  19 -11 -14   78.83   21.04 
  19  11 -14   63.41   20.45 
  17 -11 -12   59.18   18.06 
  17  11 -12   91.86   22.89 
  15 -11 -10   75.70   19.46 
  13 -11  -8   94.88   20.93 
  11 -11  -6   44.26   13.27 
   9 -11  -4   37.47   11.95 
   7 -11  -2   71.45   16.27 
   5  11   0   64.28   19.32 
   5 -11   0   46.80   13.44 
   3  11   2    2.21    4.57 
   3 -11   2    6.77    3.25 
   3 -11   2    1.75    3.32 
   1 -11   4    1.88    2.48 
   1  11   4    5.11    6.32 
  -1  11   6    3.69    2.89 
  -1 -11   6   -0.43    3.91 
  -3 -11   8   -0.08    2.68 
  -3  11   8   -1.70    1.92 
  -3 -11   8   -0.27    3.63 
  -5 -11  10   37.22   14.31 
  -5  11  10   14.90    9.01 
  -7 -11  12   25.44   12.66 
  -7  11  12   26.97   13.34 
  -9  11  14   19.93   13.52 
  -9 -11  14   42.72   19.15 
  18  12 -13  101.05   25.37 
  16  12 -11  114.09   25.35 
  16 -12 -11  111.72   25.11 
  14 -12  -9   83.01   21.04 
  12 -12  -7  157.51   28.45 
  10 -12  -5  129.64   24.92 
   8 -12  -3   98.23   21.17 
   6  12  -1   39.36   15.71 
   6 -12  -1   42.40   13.35 
   4  12   1   30.34   13.94 
   4 -12   1   20.91    9.47 
   2  12   3   -0.77    5.64 
   0 -12   5   -1.99    2.72 
   0  12   5    9.49    7.30 
  -2 -12   7    4.58    4.90 
  -2  12   7   -0.92    8.84 
  -4 -12   9    3.96    6.10 
  -4  12   9   19.26   11.44 
  -6 -12  11   39.59   16.11 
  -6  12  11   35.37   17.72 
  -8 -12  13   40.98   16.83 
  15 -13 -10   94.21   23.51 
  13 -13  -8   94.58   22.78 
  11 -13  -6   77.87   19.94 
   9 -13  -4   86.07   20.31 
   7  13  -2   47.94   18.65 
   7 -13  -2   59.46   16.50 
   5  13   0   29.21   14.41 
   5 -13   0   30.42   11.61 
   3 -13   2    0.24    2.11 
   3  13   2   25.57   12.06 
   1  13   4    0.90    5.23 
  -1  13   6   -7.94    7.59 
  -3 -13   8    7.47    6.24 
  -3  13   8   -3.40    8.95 
  -5 -13  10   40.41   16.89 
  -5  13  10   27.69   15.73 
  -7 -13  12   16.32    9.37 
  14 -14  -9   94.47   24.39 
  12 -14  -7   86.99   22.45 
  10 -14  -5   80.22   21.05 
   8  14  -3   89.25   26.59 
   8 -14  -3   36.62   14.87 
   6  14  -1   42.31   18.13 
   6 -14  -1   34.03   13.75 
   4  14   1   22.50   11.43 
   4 -14   1   37.68   14.12 
   2  14   3   19.91   11.94 
   0  14   5    6.33    8.37 
  -2  14   7   -2.17    4.26 
  -4  14   9    4.98    6.31 
  13 -15  -8   40.87   16.05 
  11 -15  -6   37.39   15.21 
   9  15  -4   35.05   16.55 
   9 -15  -4   41.05   14.87 
   7  15  -2   18.31   12.55 
   7 -15  -2    4.95    2.32 
   5  15   0   42.05   18.37 
   5 -15   0   26.18   11.92 
   3  15   2   14.11   10.01 
   1  15   4    4.84    6.46 
  -1  15   6    8.65    8.45 
  -3  15   8    7.04    8.64 
  10  16  -5   18.47   13.05 
  10 -16  -5   10.09    9.50 
   8  16  -3    1.74    9.07 
   8 -16  -3   10.42    6.95 
   6  16  -1   17.63   11.61 
   6 -16  -1    2.25    6.74 
   4  16   1  -10.23    9.33 
   4 -16   1   -0.17    5.56 
   2  16   3   -1.37   10.89 
   0  16   5   -4.02    6.05 
  11  17  -6  -20.93   14.66 
   9  17  -4   -6.79    8.08 
   9 -17  -4    1.51    1.99 
   7  17  -2  -16.51   12.44 
   7 -17  -2   -7.97    7.41 
   5  17   0   -3.47    9.74 
   3  17   2    2.46    8.05 
  16   0 -12   11.59    5.12 
  14   0 -10    7.56    2.95 
  12   0  -8    5.66    2.69 
  10   0  -6    0.66    1.18 
   8   0  -4  149.40   14.26 
   6   0  -2 1541.40   89.44 
   2   0   2  199.53   15.85 
   0   0   4 1275.55   92.73 
   0   0   4 1692.27   90.35 
  -2   0   6 1552.46   92.83 
  -2   0   6 1237.16   87.69 
  -4   0   8 1308.92   94.39 
  -4   0   8 1492.10   98.85 
  -6   0  10  336.79   41.66 
  -6   0  10  377.56   40.42 
  -8   0  12  465.26   55.12 
  -8   0  12  399.15   60.85 
  -8   0  12  487.55   49.80 
 -10   0  14  496.32   54.46 
 -10   0  14  422.54   69.01 
 -10   0  14  558.42   65.58 
 -12   0  16  259.35   46.89 
 -12   0  16  208.25   36.19 
 -14   0  18  227.05   39.56 
  15   1 -11    0.74    1.52 
  13  -1  -9   29.97    6.57 
  13   1  -9   19.51    5.91 
  11   1  -7  112.24   12.31 
  11  -1  -7  141.05   12.31 
   9  -1  -5    2.57    2.06 
   9   1  -5    3.32    1.61 
   7   1  -3  142.48   14.60 
   7  -1  -3  153.13   14.94 
   5   1  -1  459.00   37.89 
   3   1   1  191.33   14.72 
   1   1   3 1468.01  103.04 
   1  -1   3 1601.24   93.05 
   1   1   3 1769.61   91.16 
   1   1   3 1609.19   97.68 
  -1  -1   5 1368.35   83.04 
  -1  -1   5 1354.42   87.36 
  -1   1   5 1288.30   86.52 
  -3  -1   7 1822.31  107.16 
  -3   1   7 1395.09  100.00 
  -3  -1   7 1496.53  101.46 
  -3   1   7 2164.21  111.87 
  -3  -1   7 1186.60  103.30 
  -5  -1   9  702.88   58.32 
  -5   1   9  604.33   54.52 
  -5  -1   9  755.67   61.67 
  -5   1   9  683.48   60.46 
  -5  -1   9  506.76   60.88 
  -7   1  11  429.17   49.55 
  -7  -1  11  414.22   48.59 
  -7  -1  11  386.15   55.21 
  -7   1  11  378.06   41.91 
  -7  -1  11  385.47   43.37 
  -9   1  13  338.64   41.05 
  -9  -1  13  298.48   45.90 
  -9   1  13  368.13   49.63 
  -9  -1  13  327.52   54.92 
  -9  -1  13  332.36   42.16 
 -11   1  15  422.19   57.44 
 -11  -1  15  289.76   55.47 
 -11   1  15  305.74   60.71 
 -11  -1  15  322.04   43.77 
 -11   1  15  249.31   38.17 
 -13   1  17  200.59   35.20 
 -13   1  17  179.58   41.31 
 -13  -1  17  225.89   38.40 
 -15   1  19  124.25   28.97 
 -15  -1  19   82.50   24.62 
  16   2 -12    1.92    1.91 
  14   2 -10   27.75    5.69 
  14   2 -10   28.38    8.03 
  12   2  -8   52.79    7.38 
  10   2  -6   18.14    3.80 
   8  -2  -4    1.05    1.33 
   8   2  -4   -0.69    0.95 
   8  -2  -4    3.19    1.71 
   6  -2  -2  237.85   21.67 
   6   2  -2  271.86   23.45 
   6  -2  -2  261.72   23.99 
   4  -2   0  338.26   22.14 
   4  -2   0  298.54   25.03 
   2  -2   2   26.33    6.74 
   2   2   2   28.77    6.82 
   2   2   2   33.89    5.07 
   0  -2   4  877.86   61.05 
   0   2   4  719.42   59.75 
   0  -2   4  934.30   50.73 
   0   2   4  810.78   59.09 
  -2   2   6  858.40   59.43 
  -2  -2   6  794.32   56.80 
  -2  -2   6  713.37   56.06 
  -2   2   6  754.11   58.46 
  -2  -2   6  741.55   58.84 
  -4   2   8  816.52   61.61 
  -4  -2   8  782.67   63.41 
  -4  -2   8  818.56   64.21 
  -4   2   8  704.14   63.21 
  -4  -2   8  750.32   66.84 
  -6   2  10  359.49   43.85 
  -6   2  10  356.44   39.03 
  -6  -2  10  358.09   47.79 
  -6  -2  10  405.15   42.58 
  -8  -2  12  173.77   36.31 
  -8   2  12  236.79   37.24 
  -8  -2  12  219.21   32.50 
  -8   2  12  166.46   26.84 
 -10   2  14  284.97   46.93 
 -10  -2  14  430.92   49.82 
 -10   2  14  342.33   42.41 
 -10  -2  14  294.02   51.88 
 -12   2  16   98.93   28.86 
 -12   2  16   79.20   20.90 
 -12  -2  16  114.27   25.70 
 -12   2  16   76.28   27.95 
 -14   2  18   95.70   30.38 
 -14  -2  18  113.32   27.69 
 -14   2  18  105.58   25.41 
  17   3 -13    2.30    2.81 
  15   3 -11   -6.72    4.22 
  13   3  -9   22.51    4.32 
   9  -3  -5  138.31   14.32 
   9   3  -5  153.73   15.23 
   7   3  -3   61.13    8.34 
   7  -3  -3   48.64    8.77 
   5  -3  -1  331.66   22.86 
   5   3  -1  308.55   23.42 
   5  -3  -1  290.46   24.10 
   5  -3  -1  281.01   25.64 
   3  -3   1  362.58   29.20 
   1  -3   3  104.61    8.75 
   1   3   3  101.56   15.30 
   1  -3   3   89.46   13.85 
  -1  -3   5   14.85    6.03 
  -1   3   5    7.22    4.71 
  -1  -3   5    6.85    2.64 
  -3  -3   7  374.08   39.05 
  -3   3   7  381.95   39.70 
  -3  -3   7  447.64   37.58 
  -3   3   7  374.02   36.33 
  -5  -3   9  191.02   28.15 
  -5   3   9  262.67   29.53 
  -5   3   9  281.67   35.50 
  -5  -3   9  188.47   28.63 
  -7   3  11  155.67   24.19 
  -7   3  11  153.27   29.56 
  -7  -3  11  152.16   29.27 
  -7  -3  11  213.22   30.56 
  -9   3  13  143.37   24.69 
  -9  -3  13  126.19   25.67 
  -9  -3  13  132.36   29.86 
  -9   3  13  130.92   29.03 
 -11  -3  15   45.55   16.30 
 -11   3  15   21.56   12.49 
 -11   3  15   51.21   15.58 
 -13   3  17   75.05   26.61 
 -13   3  17   53.81   17.16 
 -13  -3  17   65.45   20.50 
 -15   3  19   27.11   16.71 
  18   4 -14   24.02    9.64 
  16   4 -12    4.98    2.93 
  14   4 -10   -2.43    3.85 
  10  -4  -6   23.15    5.21 
  10   4  -6   31.14    5.79 
   8   4  -4  111.67   11.06 
   8  -4  -4  106.52   10.10 
   6  -4  -2  186.00   19.70 
   4  -4   0  226.64   19.04 
   4  -4   0  200.95   18.32 
   4  -4   0  167.37   19.63 
   2  -4   2    5.65    2.83 
   2   4   2    2.49    1.00 
   0  -4   4    3.85    1.70 
   0  -4   4    5.98    3.55 
   0   4   4    9.71    5.73 
  -2  -4   6   15.59    6.89 
  -2   4   6   15.01    5.60 
  -2   4   6   19.57    7.59 
  -2  -4   6   21.07    5.20 
  -4   4   8   23.68    8.14 
  -4  -4   8   26.37    7.70 
  -4   4   8   27.71   10.03 
  -4  -4   8   31.61   10.22 
  -6  -4  10   40.72   12.82 
  -6   4  10   35.54   12.96 
  -6  -4  10   31.03   10.42 
  -6   4  10   46.94   12.04 
  -8  -4  12   33.38   13.39 
  -8  -4  12   35.03   13.46 
  -8   4  12   27.95   12.31 
  -8   4  12   26.12    9.98 
 -10  -4  14   15.24    8.64 
 -10   4  14    6.89    7.93 
 -10   4  14   18.34    9.38 
 -12  -4  16   18.67   11.93 
 -12   4  16    5.85    3.26 
 -12   4  16   10.89    7.75 
 -14   4  18    0.23    6.46 
 -14  -4  18    5.57    3.30 
  19   5 -15    3.70    4.11 
  17   5 -13    5.80    4.38 
  15   5 -11   19.59    7.61 
  11  -5  -7    7.23    2.85 
  11   5  -7   11.74    3.36 
   9   5  -5    2.62    1.74 
   9  -5  -5    5.02    1.82 
   7  -5  -3    2.31    2.77 
   5  -5  -1   48.94    6.64 
   5  -5  -1   43.31    8.73 
   3  -5   1   20.80    5.38 
   3  -5   1   14.09    5.02 
   1  -5   3  119.00   16.47 
   1   5   3  112.57   18.76 
   1  -5   3  128.83   12.42 
  -1   5   5  440.84   44.90 
  -1  -5   5  512.24   34.15 
  -1   5   5  440.42   40.88 
  -1  -5   5  499.90   43.01 
  -3   5   7   -0.42    1.47 
  -3  -5   7    2.97    2.24 
  -3  -5   7    3.22    3.82 
  -5   5   9    7.27    6.70 
  -5  -5   9    4.06    4.26 
  -5   5   9    2.84    2.32 
  -5  -5   9    1.02    2.34 
  -7   5  11  176.59   25.25 
  -7   5  11  200.55   34.35 
  -7  -5  11  153.14   28.09 
  -7  -5  11  186.79   27.25 
  -9   5  13   -1.05    2.57 
  -9  -5  13    2.53    4.28 
  -9   5  13    2.38    4.36 
 -11   5  15    1.09    3.31 
 -11   5  15    8.42    5.85 
 -13  -5  17   22.40   13.83 
 -13   5  17    2.78    5.14 
  18   6 -14   18.51    9.63 
  16   6 -12   -1.07    2.15 
  12   6  -8    8.22    2.37 
  10  -6  -6   30.57    4.94 
   6  -6  -2    1.29    0.74 
   6  -6  -2    3.13    3.78 
   4  -6   0   64.28    8.76 
   4  -6   0   61.08   11.78 
   2  -6   2  564.68   40.60 
   2   6   2  437.74   45.54 
   0  -6   4  120.82   13.60 
   0   6   4  168.88   24.67 
   0  -6   4  152.87   19.90 
  -2  -6   6  386.54   38.80 
  -2   6   6  354.32   34.61 
  -2   6   6  340.22   40.39 
  -2  -6   6  396.80   30.67 
  -4  -6   8  111.55   20.71 
  -4  -6   8   94.15   14.26 
  -4   6   8   94.42   15.75 
  -4   6   8   63.92   16.83 
  -6   6  10  295.50   34.36 
  -6   6  10  336.35   45.67 
  -6  -6  10  397.23   45.44 
  -8  -6  12  109.72   23.73 
  -8  -6  12  112.48   20.60 
  -8   6  12  114.77   27.45 
  -8   6  12   75.53   16.27 
 -10  -6  14   24.50   11.67 
 -10   6  14   37.49   17.06 
 -12   6  16   41.44   19.41 
 -12  -6  16   21.20   12.28 
  19   7 -15    9.22    5.63 
  17   7 -13   10.99    6.94 
  15   7 -11   -1.92    2.33 
   7  -7  -3   75.06   13.67 
   5  -7  -1  204.62   16.38 
   5  -7  -1  206.67   23.84 
   3   7   1  712.40   61.43 
   3  -7   1  635.89   52.54 
   3  -7   1  719.23   47.98 
   1   7   3  322.13   38.92 
   1  -7   3  400.38   34.74 
  -1  -7   5  150.82   16.49 
  -1   7   5  105.97   21.33 
  -1  -7   5  122.13   19.36 
  -3  -7   7  526.63   50.67 
  -3   7   7  496.75   43.63 
  -3   7   7  538.83   55.71 
  -3  -7   7  592.52   42.50 
  -5   7   9  628.48   51.24 
  -5  -7   9  693.10   51.00 
  -5   7   9  698.89   67.70 
  -5  -7   9  508.38   56.17 
  -7   7  11  161.16   23.42 
  -7  -7  11  197.45   25.42 
  -7   7  11  159.44   32.56 
  -7  -7  11  208.63   33.43 
  -9  -7  13  165.44   31.78 
  -9   7  13  123.40   30.83 
 -11   7  15  106.86   30.73 
 -11  -7  15  148.64   31.82 
 -13   7  17  149.80   38.55 
  20   8 -16   19.23   10.39 
  18   8 -14    0.87    3.14 
  16   8 -12   -2.88    5.42 
   6  -8  -2  155.11   21.46 
   4  -8   0  410.26   30.90 
   4  -8   0  429.90   39.22 
   2  -8   2  243.38   24.66 
   2   8   2  230.40   32.72 
   2  -8   2  229.60   27.56 
   0   8   4  408.97   46.67 
   0  -8   4  468.90   41.52 
   0  -8   4  434.57   35.43 
  -2  -8   6  633.03   45.72 
  -2   8   6  615.53   61.15 
  -2  -8   6  556.88   52.72 
  -2   8   6  588.89   48.39 
  -4  -8   8  470.46   49.88 
  -4   8   8  422.93   52.60 
  -4   8   8  482.71   41.15 
  -4  -8   8  536.78   42.02 
  -6   8  10  287.82   44.89 
  -6  -8  10  409.19   36.97 
  -6  -8  10  328.69   43.63 
  -8   8  12  201.93   39.27 
  -8  -8  12  251.09   38.61 
 -10   8  14  182.01   39.58 
 -10  -8  14  231.79   39.72 
 -12   8  16  189.90   42.85 
 -12  -8  16  230.50   42.30 
  21   9 -17   26.37   13.36 
  19   9 -15    1.06    4.53 
  17   9 -13   18.56   10.19 
  15   9 -11    6.63    2.63 
   7  -9  -3  150.10   22.29 
   5  -9  -1  250.64   29.36 
   3  -9   1  226.65   22.65 
   3  -9   1  174.47   24.96 
   1   9   3  250.58   36.53 
   1  -9   3  293.96   30.29 
  -1  -9   5  419.73   35.77 
  -1  -9   5  405.29   41.56 
  -1   9   5  426.33   49.53 
  -3   9   7  546.08   59.74 
  -3  -9   7  543.03   53.63 
  -3  -9   7  553.93   44.64 
  -5  -9   9  311.67   41.23 
  -5   9   9  264.37   42.56 
  -5  -9   9  353.22   33.76 
  -7  -9  11  407.30   50.33 
  -7   9  11  321.13   49.49 
  -9  -9  13  272.97   42.76 
  -9   9  13  142.89   34.90 
 -11  -9  15  270.28   45.50 
 -11   9  15  180.01   42.15 
  20  10 -16   36.35   15.72 
  18  10 -14   15.29    9.41 
  16  10 -12    4.50    3.40 
   8 -10  -4   77.56   16.73 
   6 -10  -2  133.75   21.39 
   4  10   0  218.90   34.33 
   4 -10   0  166.36   24.79 
   2  10   2  167.95   30.35 
   2 -10   2  206.36   28.05 
   2 -10   2  223.57   24.75 
   0 -10   4  229.72   28.60 
   0  10   4  223.35   35.61 
  -2 -10   6  349.67   39.62 
  -2 -10   6  337.00   32.21 
  -2  10   6  281.04   42.58 
  -4 -10   8  336.74   42.84 
  -4  10   8  357.28   49.00 
  -4 -10   8  386.65   36.34 
  -6 -10  10  170.67   31.03 
  -6  10  10  124.76   29.69 
  -6 -10  10  178.73   23.84 
  -8 -10  12  220.19   38.39 
  -8  10  12  186.55   39.03 
 -10  10  14  138.23   35.99 
 -10 -10  14  151.77   33.84 
  17  11 -13   13.61    8.08 
  15  11 -11   -5.95    5.51 
   9 -11  -5   58.47   14.88 
   7 -11  -3   23.96    9.13 
   5  11  -1   59.07   17.75 
   5 -11  -1   78.34   16.86 
   3  11   1  164.29   30.83 
   3 -11   1  174.45   26.17 
   1 -11   3  165.20   22.95 
   1  11   3  152.08   29.74 
  -1 -11   5  106.64   20.24 
  -1  11   5   88.39   23.16 
  -3 -11   7  112.95   17.98 
  -3  11   7   75.79   21.85 
  -5 -11   9  118.15   18.86 
  -5 -11   9  141.83   27.53 
  -5  11   9   72.60   23.31 
  -7  11  11   62.66   22.02 
  -7 -11  11  104.28   25.53 
  -9  11  13   69.01   24.42 
  -9 -11  13  100.15   26.69 
  16  12 -12  -11.68    8.24 
  14  12 -10   14.08    9.26 
  12 -12  -8   -1.06    5.00 
  10 -12  -6    0.35    2.39 
   8 -12  -4   37.56   11.95 
   6 -12  -2   36.58   12.01 
   4  12   0   58.23   19.17 
   4 -12   0   54.23   14.70 
   2  12   2   52.72   18.36 
   2 -12   2   63.17   16.06 
   0  12   4   11.74    8.33 
  -2 -12   6   30.97   11.48 
  -2  12   6   40.59   15.95 
  -4 -12   8    5.20    1.22 
  -4  12   8    2.33    6.61 
  -4 -12   8    3.77    4.29 
  -6  12  10   42.93   16.84 
  -6 -12  10   76.82   21.97 
  -8 -12  12   25.06   12.34 
  -8  12  12   42.14   20.09 
  15 -13 -11   -0.07    1.38 
  15  13 -11    2.58    5.01 
  13 -13  -9   -4.90    5.19 
  11 -13  -7    1.37    4.71 
   9 -13  -5    1.30    2.93 
   7 -13  -3    5.28    2.08 
   5  13  -1    4.76    6.97 
   5 -13  -1    2.02    4.97 
   3  13   1    3.18    6.47 
   3 -13   1    3.14    2.32 
   1  13   3   -3.34    6.93 
  -1  13   5  -12.82    9.25 
  -3  13   7   14.47   10.52 
  -5 -13   9    0.44    1.55 
  -5  13   9    3.70    6.52 
  -7  13  11   21.11   13.68 
  -7 -13  11    6.99    8.36 
  -9 -13  13   -2.29    4.25 
  14 -14 -10    9.85    9.91 
  12 -14  -8    0.07    1.42 
  10 -14  -6    4.72    3.75 
   8 -14  -4    8.13    6.91 
   6  14  -2   -0.64    2.47 
   6 -14  -2    1.70    2.54 
   4  14   0   28.59   14.01 
   4 -14   0   10.78    6.32 
   2 -14   2   27.22   11.45 
   2  14   2   38.85   17.15 
   0  14   4   17.76   11.00 
  -2  14   6   14.00    8.88 
  -4  14   8    7.20    5.97 
  -6  14  10   33.23   16.92 
  11 -15  -7    4.03    5.44 
   9 -15  -5   17.93   10.67 
   7  15  -3    6.82    7.89 
   7 -15  -3   18.41    9.79 
   5  15  -1   14.14    9.63 
   5 -15  -1   12.60    8.93 
   3  15   1   34.53   16.13 
   3 -15   1   68.99   19.21 
   1  15   3   39.30   17.02 
  -1  15   5   37.10   16.94 
  -3  15   7   71.13   23.66 
  10 -16  -6   13.89    8.37 
   8  16  -4   20.38   12.79 
   8 -16  -4   19.18   11.32 
   6  16  -2   35.52   17.18 
   6 -16  -2   77.19   21.06 
   4  16   0   30.96   16.64 
   4 -16   0   69.21   20.09 
   2  16   2   40.17   17.03 
   0  16   4   61.67   22.22 
  -2  16   6   76.43   25.17 
   9  17  -5   51.47   22.04 
   7  17  -3   49.16   21.24 
   7 -17  -3   40.23   16.44 
   5  17  -1   62.98   23.48 
   5 -17  -1   92.03   24.36 
   3  17   1   40.89   18.74 
   1  17   3   63.91   24.26 
   6 -18  -2   34.59   14.53 
  14   0 -11   -0.08    2.26 
  12   0  -9    4.42    3.25 
  10   0  -7   -0.80    1.60 
   6   0  -3    2.37    1.35 
   0   0   3    0.74    1.16 
   0   0   3    1.05    1.53 
  -2   0   5    1.03    1.54 
  -2   0   5    2.60    2.03 
  -4   0   7   -2.45    3.39 
  -4   0   7   -1.16    1.94 
  -6   0   9    0.58    1.49 
  -6   0   9   -0.99    3.55 
  -8   0  11    2.93    2.22 
  -8   0  11    2.77    2.11 
 -10   0  13    3.43    2.21 
 -10   0  13    1.52    3.29 
 -12   0  15   -4.64    5.97 
 -12   0  15   -5.80    5.37 
 -12   0  15   10.33   10.48 
 -14   0  17  -12.92    8.56 
 -16   0  19    4.18    5.20 
  15   1 -12   26.65    8.80 
  13   1 -10  102.91   15.48 
  11   1  -8   25.43    6.40 
  11  -1  -8   33.43    6.67 
   9  -1  -6  533.48   33.24 
   7  -1  -4  231.81   20.29 
   7   1  -4  253.18   17.51 
   5   1  -2  674.03   49.09 
   5  -1  -2  848.83   47.66 
   1  -1   2  120.09   14.16 
   1   1   2  107.00   12.11 
   1   1   2  134.94    9.69 
  -1  -1   4   10.35    3.60 
  -1   1   4    6.43    3.96 
  -1  -1   4   16.71    4.49 
  -1   1   4   16.44    5.06 
  -1  -1   4   12.72    4.72 
  -1  -1   4   10.76    4.85 
  -3  -1   6   54.71   11.67 
  -3   1   6   56.75   11.17 
  -3   1   6   80.94   14.22 
  -3  -1   6   52.08   11.06 
  -3  -1   6   58.07   13.46 
  -5  -1   8  146.22   20.54 
  -5  -1   8   99.09   18.39 
  -5   1   8  101.62   18.95 
  -5   1   8   94.68   16.36 
  -5  -1   8   85.57   20.05 
  -7  -1  10  132.59   21.95 
  -7   1  10  125.58   20.39 
  -7  -1  10  139.07   25.01 
  -7   1  10  142.87   25.27 
  -7  -1  10   83.06   24.08 
  -9   1  12    5.16    4.91 
  -9  -1  12   11.02    5.45 
  -9   1  12   11.40    8.48 
  -9  -1  12   10.07    5.43 
  -9  -1  12   13.42   10.07 
 -11   1  14  -11.73    8.83 
 -11  -1  14   -3.01    3.13 
 -11  -1  14   -7.64    8.60 
 -11   1  14    1.11    3.00 
 -11   1  14   11.85   10.89 
 -13  -1  16   31.68   13.16 
 -13   1  16   19.71   11.20 
 -13  -1  16   -0.48    2.55 
 -13   1  16   14.98   13.17 
 -13   1  16   34.35   20.01 
 -15  -1  18    8.09    5.54 
 -15   1  18   -1.86    3.99 
 -17   1  20  -10.96    8.69 
  16   2 -13  126.94   21.43 
  14   2 -11  217.47   25.76 
  12   2  -9  516.53   41.00 
   8   2  -5  677.94   39.25 
   6   2  -3 1404.19   79.94 
   4  -2  -1  296.47   20.76 
   4  -2  -1  319.47   24.09 
   4   2  -1  320.19   22.13 
   2  -2   1 1149.78   65.80 
   2  -2   1 1040.83   65.90 
   0  -2   3 1356.25   74.60 
   0   2   3 1304.94   82.99 
   0  -2   3 1509.97   84.99 
   0  -2   3 1323.01   82.84 
  -2   2   5  121.82   17.54 
  -2  -2   5  145.85   18.70 
  -2   2   5  125.96   16.66 
  -2  -2   5  151.60   18.51 
  -2  -2   5  179.69   20.47 
  -4  -2   7  299.86   38.60 
  -4   2   7  427.43   41.13 
  -4   2   7  367.58   35.10 
  -6  -2   9  292.61   32.47 
  -6   2   9  218.26   27.23 
  -6   2   9  218.53   31.51 
  -6  -2   9  198.20   33.93 
  -8   2  11  191.25   26.30 
  -8   2  11  164.81   29.95 
  -8  -2  11  182.30   27.65 
  -8  -2  11  174.19   35.71 
 -10  -2  13   45.39   20.19 
 -10   2  13   47.63   15.95 
 -10  -2  13   66.84   17.02 
 -10   2  13   81.06   17.89 
 -12   2  15   45.94   14.34 
 -12  -2  15   36.93   13.47 
 -12   2  15   28.16   14.20 
 -12  -2  15   50.84   22.61 
 -14  -2  17   16.60    9.29 
 -14   2  17   27.69   19.56 
 -14   2  17   33.51   16.25 
 -14   2  17   20.42   10.73 
 -16   2  19    4.30    5.13 
 -16  -2  19    6.98    4.95 
  17   3 -14  164.86   27.02 
  15   3 -12  294.41   33.50 
  13   3 -10  374.10   35.35 
  11   3  -8  786.63   45.34 
   7   3  -4 1088.42   58.32 
   7  -3  -4  959.86   59.11 
   5   3  -2  747.34   44.40 
   5  -3  -2  781.66   51.51 
   5  -3  -2  758.21   48.92 
   3  -3   0  583.15   36.74 
   3  -3   0  603.11   37.22 
   3  -3   0  580.49   36.93 
   3  -3   0  520.46   38.81 
   1   3   2  584.18   41.22 
   1  -3   2  508.47   30.86 
   1  -3   2  466.46   36.04 
  -1   3   4 1462.86   97.45 
  -1   3   4 1692.38   97.49 
  -1  -3   4 1647.10   88.63 
  -1  -3   4 1377.29   95.08 
  -3   3   6 1035.12   71.11 
  -3   3   6 1067.53   77.25 
  -3  -3   6 1113.83   72.86 
  -3  -3   6 1109.57   75.76 
  -5   3   8  450.05   40.03 
  -5  -3   8  451.27   43.53 
  -5   3   8  476.76   47.57 
  -5  -3   8  433.36   45.38 
  -7  -3  10  405.16   43.62 
  -7   3  10  482.68   42.75 
  -7   3  10  363.80   45.87 
  -7  -3  10  328.37   45.72 
  -9   3  12  181.14   26.53 
  -9  -3  12  187.58   29.90 
  -9  -3  12  163.43   34.41 
  -9   3  12  201.50   34.89 
 -11   3  14   57.29   15.52 
 -11  -3  14   46.68   18.04 
 -11   3  14   59.34   19.55 
 -11  -3  14  103.59   23.01 
 -13   3  16   34.54   13.09 
 -13   3  16   59.73   22.22 
 -13  -3  16   28.63   13.14 
 -15   3  18   21.77   10.49 
 -15  -3  18   18.43   11.57 
 -15   3  18   -0.16    9.76 
  18   4 -15  133.86   25.54 
  16   4 -13  223.04   30.39 
  14   4 -11  403.01   39.77 
  12   4  -9  533.92   44.68 
   8  -4  -5 1765.18   98.94 
   8   4  -5 1777.07   95.78 
   4  -4  -1  845.34   49.44 
   4  -4  -1  785.52   54.98 
   2  -4   1 1873.95  104.87 
   2  -4   1 1794.34  107.83 
   0  -4   3  957.39   64.86 
   0  -4   3 1012.91   58.21 
   0   4   3  979.35   69.10 
  -2   4   5 1123.59   79.30 
  -2   4   5 1457.67   89.84 
  -2  -4   5 1173.81   82.50 
  -2  -4   5 1351.79   76.78 
  -4  -4   7  883.89   71.22 
  -4   4   7 1056.59   68.83 
  -4   4   7  888.44   74.17 
  -4  -4   7 1074.36   70.09 
  -6   4   9  444.16   50.04 
  -6  -4   9  467.33   47.30 
  -6   4   9  513.14   43.78 
  -6  -4   9  526.78   49.74 
  -8  -4  11  201.76   32.66 
  -8   4  11  269.30   38.88 
  -8  -4  11  151.81   26.88 
  -8   4  11  205.60   26.78 
 -10   4  13  213.47   38.05 
 -10  -4  13  197.36   33.07 
 -10  -4  13  268.98   42.00 
 -10   4  13  201.73   29.02 
 -12   4  15   92.87   20.60 
 -12   4  15  155.13   34.40 
 -12  -4  15  115.73   25.75 
 -14  -4  17   16.63    8.44 
 -14   4  17    1.48    3.82 
  17   5 -14  189.78   30.13 
  15   5 -12  198.46   28.08 
  13   5 -10  441.62   42.00 
   9  -5  -6 1126.17   65.15 
   9   5  -6 1064.07   60.83 
   3  -5   0  737.83   52.24 
   3  -5   0  802.30   47.68 
   1  -5   2 1395.63   82.50 
   1  -5   2 1378.26   78.26 
   1   5   2 1340.13   90.59 
   1  -5   2 1248.61   83.63 
  -1  -5   4 1514.39  100.24 
  -1  -5   4 1602.37   93.44 
  -3   5   6  432.82   37.34 
  -3  -5   6  422.86   41.41 
  -3   5   6  426.41   44.37 
  -5  -5   8  649.16   53.83 
  -5   5   8  471.34   51.88 
  -5  -5   8  546.05   46.02 
  -5   5   8  541.56   44.48 
  -7  -5  10  153.25   25.79 
  -7   5  10  127.22   19.35 
  -7  -5  10  135.89   22.82 
  -7   5  10  102.56   23.60 
  -9   5  12  426.46   56.01 
  -9  -5  12  542.90   55.76 
  -9  -5  12  504.24   54.53 
  -9   5  12  425.16   43.44 
 -11   5  14  107.27   20.76 
 -11   5  14   94.68   26.48 
 -11  -5  14  144.03   28.80 
 -13  -5  16   21.25    9.81 
 -13   5  16   32.57   17.27 
 -15   5  18   11.07   11.89 
  18   6 -15   76.05   19.51 
  16   6 -13  141.42   24.92 
  14   6 -11  218.66   29.35 
  10   6  -7  418.98   27.98 
  10  -6  -7  505.20   33.95 
   4  -6  -1 1010.61   56.89 
   4  -6  -1  967.63   66.33 
   2  -6   1  391.82   29.05 
   2  -6   1  336.74   31.19 
   2   6   1  376.09   38.15 
   0  -6   3  296.13   28.90 
   0  -6   3  343.14   26.41 
   0   6   3  324.87   35.57 
  -2  -6   5 1448.66   94.08 
  -2  -6   5 1480.55   85.94 
  -2   6   5 1286.64   88.00 
  -2   6   5 1442.98  100.54 
  -4   6   7  234.70   33.40 
  -4   6   7  257.24   26.16 
  -4  -6   7  273.88   26.84 
  -6   6   9  152.99   20.24 
  -6   6   9  177.30   29.79 
  -6  -6   9  147.33   20.91 
  -6  -6   9  127.10   23.37 
  -8   6  11  226.83   38.67 
  -8  -6  11  280.41   38.59 
  -8  -6  11  310.53   35.95 
  -8   6  11  273.92   30.54 
 -10  -6  13   76.42   21.14 
 -10   6  13   96.23   26.51 
 -10  -6  13   88.97   20.05 
 -12  -6  15   31.58   13.25 
 -12   6  15   49.26   20.44 
 -14   6  17   17.13   13.86 
 -14  -6  17    5.91    3.01 
  19   7 -16   35.16   13.62 
  17   7 -14   32.77   12.67 
  15   7 -12  138.09   24.34 
  13   7 -10  114.75   20.18 
  11   7  -8   83.97   10.55 
   5  -7  -2  692.18   52.05 
   3  -7   0  418.12   29.88 
   3  -7   0  417.97   35.98 
   1  -7   2  294.44   27.32 
   1  -7   2  285.68   29.45 
  -1   7   4  174.16   26.15 
  -1  -7   4  142.44   19.93 
  -1  -7   4  158.33   17.47 
  -3  -7   6  416.76   41.50 
  -3   7   6  444.80   35.91 
  -3   7   6  384.39   44.79 
  -3  -7   6  436.07   35.37 
  -5  -7   8  182.91   26.57 
  -5   7   8  125.37   17.16 
  -5  -7   8  143.99   19.42 
  -5   7   8  145.46   26.92 
  -7  -7  10   45.67   14.33 
  -7  -7  10   51.42   12.36 
  -7   7  10   36.42    9.34 
  -7   7  10   53.79   17.17 
  -9  -7  12   69.12   15.97 
  -9  -7  12   96.89   22.14 
  -9   7  12   63.19   20.66 
 -11  -7  14   33.06   14.50 
 -11   7  14   51.78   21.10 
 -13   7  16   17.43   13.36 
 -13  -7  16  -10.68    8.62 
  20   8 -17   -6.53    9.24 
  18   8 -15   11.78    6.20 
  16   8 -13   22.50   10.49 
  14   8 -11   16.64    9.18 
   4  -8  -1  132.24   18.67 
   2  -8   1   96.56   12.95 
   2   8   1  103.95   20.38 
   2  -8   1   94.83   15.59 
   0   8   3   23.75    8.31 
   0  -8   3   37.17    9.10 
   0  -8   3   25.80    7.18 
   0  -8   3   18.60    7.07 
  -2   8   5   12.60    4.65 
  -2  -8   5   20.22    6.23 
  -2  -8   5   13.81    7.17 
  -2   8   5   10.50    4.93 
  -4  -8   7  215.84   29.48 
  -4   8   7  211.37   33.28 
  -4   8   7  214.32   22.15 
  -4  -8   7  245.61   25.64 
  -6  -8   9    3.64    1.80 
  -6   8   9    2.95    3.81 
  -6  -8   9    5.03    2.10 
  -8  -8  11   -0.42    3.74 
  -8   8  11   -1.63    2.93 
  -8  -8  11    0.40    1.67 
 -10   8  13   21.07   13.34 
 -10  -8  13   10.41    9.18 
 -12   8  15   -8.88    8.70 
 -12  -8  15   14.14    9.67 
  19   9 -16    2.89    2.92 
  17   9 -14    1.11    5.08 
  15   9 -12   -0.09    4.70 
  13   9 -10    2.98    3.10 
   5  -9  -2   -0.90    3.42 
   3   9   0   12.88    8.81 
   3  -9   0   10.20    5.34 
   1   9   2    8.69    5.82 
   1  -9   2    6.43    3.70 
   1  -9   2   12.41    5.26 
  -1  -9   4   -1.30    3.64 
  -1  -9   4    1.87    2.62 
  -1   9   4    0.72    3.84 
  -3   9   6   10.59    4.34 
  -3  -9   6    9.03    4.38 
  -3  -9   6   13.04    7.23 
  -3   9   6    7.36    5.06 
  -5  -9   8    7.61    5.66 
  -5  -9   8    9.19    5.29 
  -5   9   8   10.02    7.17 
  -7  -9  10    8.97    8.11 
  -7   9  10   17.65   10.30 
  -7  -9  10   11.05    6.02 
  -9   9  12    1.86    5.82 
  -9  -9  12   -0.37    5.19 
 -11   9  14   14.57   11.09 
 -11  -9  14   12.39   10.58 
  18  10 -15   16.35   10.23 
  16  10 -13   10.09    6.88 
  14  10 -11   46.10   14.22 
   6 -10  -3  105.71   18.58 
   4 -10  -1  160.73   23.26 
   2  10   1   34.20   12.34 
   2 -10   1   53.28   12.65 
   0 -10   3   34.27    9.75 
   0 -10   3   14.75    6.74 
   0  10   3   44.17   14.67 
  -2 -10   5   31.19   10.21 
  -2 -10   5   23.21    7.61 
  -2  10   5   32.30   12.36 
  -4 -10   7  222.29   31.99 
  -4  10   7  202.98   34.47 
  -4 -10   7  222.91   26.23 
  -6 -10   9   59.62   13.44 
  -6  10   9   63.62   19.87 
  -6 -10   9   55.06   16.65 
  -8 -10  11   21.01   10.84 
  -8  10  11   21.81   12.48 
  -8 -10  11   37.93   11.43 
 -10 -10  13   11.10    7.82 
 -10  10  13   12.46    9.22 
 -12  10  15   41.91   19.89 
 -12 -10  15   14.89    9.54 
  17  11 -14   56.83   18.93 
  15  11 -12  112.33   25.31 
  13  11 -10  139.83   27.00 
   7 -11  -4  203.21   28.90 
   5 -11  -2  354.25   39.02 
   3  11   0  232.21   36.28 
   3 -11   0  248.57   31.02 
   1  11   2  111.49   24.28 
   1 -11   2  115.56   20.51 
  -1  11   4  168.90   31.19 
  -1 -11   4  188.00   25.94 
  -3 -11   6  372.44   36.64 
  -3  11   6  364.74   49.01 
  -3 -11   6  381.69   43.16 
  -5 -11   8  127.07   19.86 
  -5 -11   8  115.96   23.70 
  -5  11   8   85.27   23.26 
  -7 -11  10  111.71   19.88 
  -7  11  10   76.36   23.60 
  -7 -11  10  110.92   25.34 
  -9 -11  12   28.19   14.28 
  -9  11  12   19.11   10.60 
 -11 -11  14   66.60   22.37 
 -11  11  14   76.09   26.89 
  16  12 -13  129.24   28.92 
  14  12 -11   78.04   21.14 
   8 -12  -5  241.17   33.83 
   6 -12  -3  443.27   47.16 
   4  12  -1  290.68   44.64 
   4 -12  -1  370.30   40.67 
   2  12   1  235.89   38.81 
   2 -12   1  270.37   34.38 
   0  12   3  385.80   49.58 
   0 -12   3  297.87   37.52 
  -2  12   5  447.19   56.46 
  -4 -12   7  143.93   22.81 
  -4 -12   7  178.70   29.74 
  -4  12   7  166.87   33.32 
  -6 -12   9  123.46   26.48 
  -6  12   9  151.39   33.18 
  -6 -12   9  129.39   21.98 
  -8 -12  11  110.80   26.74 
  -8  12  11   96.35   27.66 
 -10 -12  13   78.48   23.19 
 -10  12  13   52.09   21.31 
  13  13 -10  111.26   26.16 
   9 -13  -6  352.17   43.97 
   7 -13  -4  393.82   46.49 
   5  13  -2  319.52   47.25 
   5 -13  -2  261.58   35.93 
   3  13   0  323.36   48.28 
   3 -13   0  376.70   43.14 
   1  13   2  416.86   53.34 
   1 -13   2  291.13   38.65 
  -1  13   4  253.56   42.25 
  -3  13   6  160.31   33.34 
  -5  13   8  168.22   35.39 
  -5 -13   8  173.40   25.90 
  -7  13  10   93.95   27.12 
  -9  13  12   69.29   25.82 
  12 -14  -9   82.35   22.29 
  12  14  -9   95.66   24.10 
  10 -14  -7  163.40   30.74 
   8 -14  -5  249.05   37.36 
   6  14  -3  205.77   40.18 
   6 -14  -3  185.42   30.82 
   4  14  -1  176.12   36.20 
   4 -14  -1  204.77   32.19 
   2  14   1  297.98   46.86 
   2 -14   1  292.69   39.75 
   0  14   3  352.80   51.80 
  -2  14   5  198.37   38.28 
  -4  14   7  107.93   28.51 
  -6  14   9   81.30   25.45 
  11  15  -8   75.45   21.51 
  11 -15  -8  113.94   26.52 
   9 -15  -6   74.49   21.32 
   7  15  -4   82.16   25.85 
   7 -15  -4   72.27   19.54 
   5  15  -2   73.63   22.98 
   5 -15  -2  154.38   28.70 
   3  15   0  163.96   35.00 
   3 -15   0  117.86   25.00 
   1  15   2  136.40   32.14 
  -1  15   4  145.70   34.11 
  -3  15   6   78.75   25.09 
  -5  15   8   72.69   25.22 
  10 -16  -7   16.00   10.80 
   8  16  -5   41.61   18.77 
   8 -16  -5   65.17   20.80 
   6  16  -3   27.63   14.95 
   6 -16  -3   34.77   13.49 
   4  16  -1   33.43   15.19 
   4 -16  -1   41.90   15.96 
   2  16   1   65.42   21.55 
   0  16   3   47.53   19.00 
  -2  16   5    7.42    5.25 
  -4  16   7   27.25   15.18 
   7  17  -4    7.05    7.91 
   7 -17  -4   -4.81    5.64 
   5  17  -2   22.06   13.57 
   5 -17  -2    4.43    5.49 
   3  17   0   17.25   11.85 
   1  17   2   10.24    9.17 
  -1  17   4   -9.66    9.07 
   6  18  -3   26.36   15.42 
   6 -18  -3   -0.12    4.38 
   4  18  -1    2.76    5.09 
  12   0 -10  537.11   44.07 
  10   0  -8 2094.22  121.28 
   8   0  -6  182.48   16.03 
   4   0  -2  149.57   11.65 
   0   0   2  239.55   17.17 
   0   0   2    0.00    7.64 
  -2   0   4    5.75    3.12 
  -2   0   4    3.45    2.99 
  -2   0   4    3.60    2.85 
  -2   0   4    1.21    1.69 
  -4   0   6   51.14   11.24 
  -4   0   6   61.17   11.23 
  -4   0   6   57.88   11.02 
  -6   0   8    3.79    2.11 
  -6   0   8    1.16    2.77 
  -8   0  10   63.10   16.59 
  -8   0  10   73.55   15.21 
  -8   0  10   57.01   18.30 
 -10   0  12   52.27   17.02 
 -10   0  12   34.86   10.86 
 -12   0  14   62.46   16.60 
 -12   0  14   34.54   14.87 
 -12   0  14   47.03   23.29 
 -14   0  16   54.82   27.35 
 -14   0  16  109.07   23.83 
 -16   0  18   57.19   18.73 
  13   1 -11  460.63   42.17 
  11   1  -9  477.94   38.89 
   9   1  -7 1232.00   74.90 
   9  -1  -7 1225.18   73.59 
   7  -1  -5  257.56   18.18 
   5  -1  -3  313.37   22.35 
   5   1  -3  324.15   19.37 
   3  -1  -1    0.00    3.68 
  -1  -1   3   49.53    7.46 
  -1   1   3   49.19    8.06 
  -1   1   3   48.37    8.01 
  -1  -1   3   47.26    8.30 
  -1  -1   3   73.38    9.40 
  -1  -1   3   44.60    8.95 
  -3  -1   5    3.05    2.72 
  -3  -1   5    4.26    3.26 
  -3   1   5    0.63    1.17 
  -3  -1   5    1.17    1.86 
  -3   1   5    1.98    2.40 
  -5   1   7    2.43    1.18 
  -5  -1   7    2.55    4.08 
  -5   1   7   -0.56    1.63 
  -5  -1   7    0.03    1.23 
  -5  -1   7    1.63    3.13 
  -5  -1   7    3.61    5.10 
  -7   1   9    0.73    0.99 
  -7  -1   9   -2.13    3.87 
  -7  -1   9   -0.84    1.34 
  -7  -1   9    6.67   10.84 
  -9   1  11   60.97   14.69 
  -9  -1  11   66.07   18.80 
  -9  -1  11   69.02   15.71 
  -9   1  11   44.67   14.39 
  -9  -1  11   64.71   22.39 
 -11  -1  13   22.89    9.62 
 -11   1  13   10.05    9.13 
 -11  -1  13   31.56   18.33 
 -11   1  13   28.21   10.10 
 -11   1  13   21.09   14.86 
 -13  -1  15  119.14   25.10 
 -13   1  15  100.15   22.07 
 -13   1  15   93.08   27.17 
 -13  -1  15   73.16   28.07 
 -13   1  15   93.12   31.34 
 -15  -1  17   34.90   14.06 
 -15   1  17   67.61   18.91 
 -15   1  17   76.58   34.34 
 -17  -1  19   33.73   14.13 
 -17   1  19   27.18   12.87 
  16   2 -14  232.75   33.01 
  14   2 -12  310.03   34.88 
  12   2 -10  193.09   23.26 
  10   2  -8  331.32   29.37 
   6  -2  -4  113.85   11.32 
   4   2  -2  127.24    9.29 
   2  -2   0  132.06    9.99 
   2  -2   0  118.21   10.90 
   0  -2   2  921.95   55.98 
   0  -2   2  986.20   52.01 
   0   2   2  893.98   58.24 
   0  -2   2  854.82   56.46 
  -2  -2   4    2.58    2.47 
  -2  -2   4   -1.51    1.76 
  -2   2   4    1.79    1.56 
  -2  -2   4    1.66    1.52 
  -2   2   4   -1.76    2.95 
  -4   2   6   33.72    7.96 
  -4  -2   6   33.63    8.49 
  -4  -2   6   35.65    7.93 
  -4   2   6   39.63   10.08 
  -4  -2   6   16.36    7.10 
  -6  -2   8    5.06    5.89 
  -6   2   8   -2.38    4.08 
  -6  -2   8   -0.03    1.76 
  -6   2   8    3.07    2.15 
  -6  -2   8   -1.49    2.04 
  -8  -2  10   11.39    6.10 
  -8   2  10    6.52    3.44 
  -8   2  10    9.24    7.99 
  -8  -2  10    4.19    7.31 
 -10   2  12   35.41   10.75 
 -10   2  12   33.94   14.60 
 -10  -2  12   48.62   13.78 
 -10  -2  12   52.02   20.73 
 -12  -2  14   38.00   12.75 
 -12   2  14   46.10   13.58 
 -12   2  14   32.64   15.04 
 -12  -2  14   33.58   18.82 
 -14  -2  16   36.75   14.31 
 -14   2  16   38.22   17.21 
 -14   2  16   26.57   11.68 
 -14  -2  16   37.88   19.59 
 -14   2  16   29.11   20.23 
 -16   2  18   25.49   15.62 
 -16   2  18   43.35   15.82 
 -16  -2  18   38.69   15.57 
 -16   2  18   66.25   30.71 
  17   3 -15   96.59   22.03 
  15   3 -13  123.14   21.97 
  13   3 -11  104.66   17.69 
  11   3  -9  102.66   15.79 
   7  -3  -5  140.45   13.97 
   5  -3  -3  483.54   28.38 
   3  -3  -1   42.93    7.28 
   1   3   1  815.56   56.35 
   1  -3   1  822.69   48.95 
   1  -3   1  835.22   51.32 
   1  -3   1  993.43   54.32 
  -1  -3   3 1479.34   90.79 
  -1   3   3 1503.68   94.09 
  -1  -3   3 1575.00   86.19 
  -3  -3   5    2.81    2.77 
  -3   3   5    6.22    2.92 
  -3  -3   5    8.67    4.18 
  -3  -3   5   10.73    3.55 
  -3   3   5    4.92    3.19 
  -5   3   7   13.47    5.40 
  -5  -3   7   11.87    3.83 
  -5  -3   7    4.80    3.78 
  -5   3   7   19.68    7.80 
  -5  -3   7   10.76    6.06 
  -7  -3   9   55.10    9.18 
  -7  -3   9   33.08   10.17 
  -7   3   9   41.00   13.22 
  -7  -3   9   29.29   12.14 
  -7   3   9   33.21    9.15 
  -9   3  11   25.84   10.75 
  -9  -3  11   17.80   11.06 
  -9  -3  11   25.50   10.01 
  -9   3  11   23.85    7.93 
 -11  -3  13   -1.42    3.00 
 -11   3  13   -1.60    2.45 
 -11   3  13   -1.98    6.37 
 -11  -3  13    4.56    6.16 
 -13   3  15   23.89   13.32 
 -13   3  15   20.64    9.55 
 -13  -3  15   14.17   12.33 
 -13  -3  15   15.11    8.29 
 -15  -3  17    3.83    2.92 
 -15   3  17    8.32    3.79 
 -15   3  17   21.66   10.68 
 -15   3  17   24.56   16.21 
 -17   3  19   20.78   15.28 
  16   4 -14    8.17    5.98 
  14   4 -12   10.18    5.43 
  12   4 -10    7.67    3.99 
  10   4  -8   11.43    5.87 
   8  -4  -6    9.20    4.15 
   8   4  -6    4.75    1.68 
   6  -4  -4  106.84    9.40 
   2  -4   0   43.13    5.62 
   2  -4   0   37.24    6.70 
   0  -4   2  328.70   24.70 
   0  -4   2  279.97   20.98 
   0   4   2  264.40   26.97 
   0  -4   2  264.19   23.49 
  -2  -4   4   54.80   10.74 
  -2   4   4   47.00    8.56 
  -2  -4   4   54.29    8.42 
  -4   4   6    7.31    2.57 
  -4  -4   6   17.10    5.86 
  -4   4   6    8.59    4.65 
  -4  -4   6   14.55    5.89 
  -6  -4   8   31.11   10.02 
  -6   4   8   29.37    7.95 
  -6  -4   8   23.42    9.05 
  -6   4   8   25.67    9.18 
  -8  -4  10   -1.38    5.20 
  -8   4  10   -5.86    5.39 
  -8  -4  10    3.10    3.96 
  -8   4  10    2.74    3.79 
 -10  -4  12    4.11    3.11 
 -10   4  12    6.15    5.02 
 -10   4  12    8.82    5.55 
 -10  -4  12   15.21   10.41 
 -12   4  14    1.76    1.21 
 -12  -4  14    5.03    3.99 
 -12   4  14    4.21    6.40 
 -12  -4  14   11.84    6.76 
 -14   4  16   14.14    8.89 
 -14   4  16   14.05   12.52 
 -14  -4  16    8.84    6.93 
 -16   4  18    0.39    7.19 
 -16   4  18   15.48   14.85 
 -16  -4  18    1.73    3.61 
  17   5 -15   21.90   11.06 
  15   5 -13   20.72    8.88 
  13   5 -11    0.51    2.95 
  11   5  -9   15.09    6.49 
   9   5  -7    2.13    1.04 
   9  -5  -7    6.48    2.88 
   7  -5  -5  126.90   12.12 
   3  -5  -1    4.27    1.45 
   1  -5   1   97.19   11.22 
   1   5   1  101.38   16.18 
   1  -5   1  104.57   12.89 
  -1  -5   3    1.69    2.16 
  -1  -5   3    2.15    1.31 
  -1   5   3   -0.50    2.05 
  -3   5   5    8.40    3.56 
  -3  -5   5   11.15    4.05 
  -3  -5   5    8.13    4.17 
  -3   5   5   12.24    5.49 
  -5   5   7    1.35    2.08 
  -5  -5   7    0.02    2.62 
  -5  -5   7    0.92    1.81 
  -5   5   7    0.21    3.25 
  -7  -5   9   -4.23    3.89 
  -7   5   9   -4.15    4.59 
  -7   5   9    0.59    1.96 
  -7  -5   9    2.28    2.68 
  -9  -5  11   -9.27    6.30 
  -9   5  11    3.01    2.26 
  -9  -5  11    0.13    4.62 
  -9   5  11    4.06    3.92 
 -11   5  13   32.54   10.51 
 -11  -5  13   43.17   14.52 
 -11   5  13   27.63   12.54 
 -11  -5  13   32.32   13.66 
 -13  -5  15    5.95    7.85 
 -13   5  15   -1.42    8.07 
 -15   5  17    0.29    5.71 
 -15  -5  17  -13.89    9.63 
  18   6 -16   76.94   21.20 
  16   6 -14  132.67   25.60 
  14   6 -12   79.31   17.69 
  12   6 -10   87.38   17.20 
  10   6  -8   34.92    6.47 
   2  -6   0  191.81   15.87 
   2  -6   0  163.34   18.39 
   0   6   2    3.58    3.68 
   0  -6   2    8.97    3.52 
   0  -6   2   10.54    3.97 
   0  -6   2   12.49    4.63 
  -2  -6   4   27.21    8.13 
  -2  -6   4   34.29    7.32 
  -2   6   4   35.34   10.61 
  -4   6   6    8.57    5.03 
  -4   6   6    3.78    2.63 
  -4  -6   6   11.25    6.53 
  -4  -6   6    4.48    3.37 
  -6  -6   8    3.79    2.69 
  -6  -6   8    3.20    2.12 
  -6   6   8    5.25    2.12 
  -6   6   8    2.00    1.51 
  -8  -6  10   26.97   10.68 
  -8   6  10   23.59   11.53 
  -8  -6  10   24.51    9.77 
  -8   6  10   28.75    8.47 
 -10  -6  12   19.26   10.23 
 -10   6  12   26.53    8.80 
 -10   6  12   26.35   10.11 
 -10  -6  12   28.58   11.05 
 -12  -6  14    5.45    4.70 
 -12   6  14    1.15    5.02 
 -12  -6  14   15.79    9.57 
 -14   6  16   18.10   13.75 
 -14  -6  16    8.13    6.57 
  17   7 -15  179.08   32.31 
  15   7 -13  144.51   26.87 
  13   7 -11  147.37   24.65 
  11   7  -9  264.63   32.08 
   1  -7   1  184.84   18.29 
   1   7   1  212.37   27.30 
   1  -7   1  165.21   19.69 
  -1  -7   3   42.44    9.37 
  -1  -7   3   31.14    7.25 
  -1  -7   3   28.76    7.67 
  -1   7   3   48.10   12.41 
  -3   7   5    1.33    1.17 
  -3  -7   5    5.39    3.51 
  -3   7   5    2.75    3.95 
  -3  -7   5    5.14    3.35 
  -5  -7   7    4.90    4.64 
  -5   7   7   10.88    4.17 
  -5  -7   7    6.26    3.53 
  -5   7   7   19.85    9.68 
  -7   7   9   80.61   20.16 
  -7  -7   9  118.18   19.09 
  -7   7   9   85.58   13.37 
  -7  -7   9  108.32   21.43 
  -9  -7  11    5.72    6.39 
  -9  -7  11   -0.63    4.38 
  -9   7  11   -4.06    5.07 
 -11  -7  13   15.79   10.28 
 -11   7  13   10.11   10.92 
 -11  -7  13    5.99    3.84 
 -13   7  15    9.95    8.46 
 -13  -7  15    7.31    7.68 
 -15  -7  17   80.48   24.65 
 -15   7  17   40.54   19.56 
  18   8 -16  209.00   37.16 
  16   8 -14  223.09   35.73 
  14   8 -12  234.73   34.15 
  12   8 -10  264.80   34.12 
  10   8  -8  317.08   27.98 
   2   8   0  155.55   24.71 
   2  -8   0  138.66   18.64 
   0  -8   2  103.48   14.74 
   0   8   2  103.29   20.03 
   0  -8   2  103.33   15.92 
  -2  -8   4   33.55    9.63 
  -2  -8   4   43.31    9.39 
  -2   8   4   44.98   12.87 
  -4  -8   6    1.99    2.04 
  -4   8   6    3.11    2.02 
  -4   8   6    4.45    4.22 
  -4  -8   6    4.42    3.01 
  -6   8   8   55.74    9.27 
  -6  -8   8   55.97   12.43 
  -6  -8   8   55.12   14.57 
  -6   8   8   32.03   12.17 
  -8  -8  10    5.67    5.21 
  -8  -8  10   19.42    7.92 
  -8   8  10    7.54    7.38 
 -10  -8  12   16.75   11.23 
 -10  -8  12   16.64    9.11 
 -10   8  12    9.69    6.75 
 -12  -8  14   72.46   20.90 
 -12   8  14   42.87   18.89 
 -14   8  16   56.03   22.62 
 -14  -8  16   67.36   22.31 
  19   9 -17  147.77   33.31 
  17   9 -15  206.05   36.24 
  15   9 -13  249.31   37.46 
  13   9 -11  249.95   35.07 
  11   9  -9  410.96   44.36 
   3  -9  -1   49.55   11.54 
   1   9   1  274.38   35.65 
   1  -9   1  276.62   29.02 
  -1  -9   3  101.88   15.58 
  -1  -9   3  122.81   17.70 
  -1  -9   3   81.43   15.00 
  -1   9   3   90.39   19.52 
  -3   9   5    6.98    2.95 
  -3  -9   5   13.78    6.97 
  -3  -9   5    5.03    3.55 
  -3   9   5   12.61    7.34 
  -5  -9   7   63.94   15.99 
  -5  -9   7   79.83   14.77 
  -5   9   7   52.65   16.39 
  -7  -9   9   30.51    9.57 
  -7  -9   9   16.13    8.57 
  -7   9   9   16.71    9.40 
  -9  -9  11    1.04    4.75 
  -9  -9  11    2.37    4.45 
  -9   9  11    0.87    2.08 
 -11  -9  13   62.14   19.93 
 -11   9  13   52.33   20.45 
 -13  -9  15   88.88   24.89 
 -13   9  15   55.83   23.24 
  18  10 -16  102.96   27.03 
  16  10 -14  123.92   27.17 
  14  10 -12  200.81   33.45 
  12  10 -10  250.62   35.21 
   2  10   0  157.15   27.11 
   2 -10   0  114.30   18.95 
   0  10   2   81.63   19.17 
   0 -10   2   76.20   14.55 
  -2 -10   4   11.01    5.25 
  -2 -10   4    8.10    3.90 
  -2  10   4    3.45    4.86 
  -4 -10   6   -0.52    1.28 
  -4 -10   6   -5.62    4.53 
  -4  10   6    1.57    3.81 
  -6 -10   8   -6.61    4.35 
  -6 -10   8   -8.07    5.86 
  -6  10   8   -1.73    5.71 
  -8 -10  10    1.53    3.68 
  -8 -10  10    0.41    1.83 
  -8  10  10    4.69    7.40 
 -10  10  12    8.64    6.97 
 -10 -10  12   12.50    5.82 
 -12  10  14   42.08   18.76 
 -12 -10  14   46.65   17.16 
  15  11 -13   65.73   19.80 
  13  11 -11  101.97   23.21 
  11  11  -9  150.58   26.77 
   3 -11  -1   65.42   14.47 
   3  11  -1   63.13   17.70 
   1  11   1   44.43   14.38 
   1 -11   1   26.71    9.76 
  -1 -11   3    6.58    5.22 
  -1  11   3   -8.42    6.45 
  -3 -11   5    2.65    0.84 
  -3  11   5    1.62    2.54 
  -5 -11   7    4.67    6.58 
  -5 -11   7    0.91    1.32 
  -5  11   7    5.46    5.88 
  -7 -11   9    3.96    3.49 
  -7  11   9    1.91    6.83 
  -7 -11   9    5.80    4.49 
  -9 -11  11    2.94    5.66 
  -9  11  11    3.94    7.08 
  -9 -11  11   -1.09    2.10 
 -11 -11  13   31.94   14.42 
 -11  11  13   10.23    8.16 
  14  12 -12   10.84    8.68 
  12  12 -10   40.49   14.79 
   4 -12  -2   22.68    8.83 
   4  12  -2   22.25   11.23 
   2  12   0    8.16    5.39 
   2 -12   0   11.47    6.17 
   0 -12   2    0.65    3.50 
   0  12   2   -1.62    5.02 
  -2  12   4    0.11    3.85 
  -4 -12   6    1.15    1.33 
  -4  12   6    5.99    6.66 
  -6  12   8   -1.19    6.69 
  -6 -12   8    0.46    2.98 
  -8 -12  10    2.98    2.55 
  -8  12  10    8.77    9.11 
 -10  12  12    5.62    7.60 
  13  13 -11   -4.76    5.37 
  11  13  -9    4.69    3.45 
   5 -13  -3   17.20    8.58 
   5  13  -3    8.88    5.12 
   3  13  -1  -12.22    8.43 
   3 -13  -1    1.58    2.95 
   1  13   1   -1.37    4.46 
   1 -13   1   -1.17    2.50 
  -1 -13   3    0.57    1.12 
  -1  13   3   -0.69    4.34 
  -3  13   5    5.87    3.57 
  -5 -13   7    0.04    3.83 
  -5  13   7   -0.35    4.93 
  -7 -13   9   -0.53    2.91 
  -7  13   9    1.97    6.74 
  -9  13  11   -8.90    8.69 
  12  14 -10   12.91    8.44 
  10  14  -8    8.48    5.79 
   6 -14  -4    5.50    4.64 
   6  14  -4    7.67    7.19 
   4  14  -2   21.70   11.94 
   4 -14  -2   52.59   14.86 
   2  14   0    4.91    7.73 
   2 -14   0    4.07    4.25 
   0 -14   2    2.43    4.01 
   0  14   2    0.69    4.23 
  -2  14   4    5.87    2.15 
  -4  14   6    0.72    5.14 
  -6  14   8  -10.43    8.80 
  -6 -14   8   -4.44    4.24 
  -8  14  10    6.56    4.38 
   9 -15  -7   16.60    8.74 
   9  15  -7   29.30   13.25 
   7  15  -5   32.15   14.67 
   7 -15  -5   27.22   12.31 
   5  15  -3   32.20   15.53 
   5 -15  -3    7.52    2.56 
   3  15  -1   14.94    9.43 
   3 -15  -1   21.57   10.24 
   1 -15   1    8.75    6.45 
   1  15   1    7.23    5.51 
  -1  15   3   17.11   11.41 
  -3  15   5   -3.15    7.91 
  -5  15   7    3.09    4.80 
  -7  15   9   -0.20    8.86 
   8 -16  -6   71.18   21.28 
   8  16  -6   62.71   19.36 
   6  16  -4   54.57   20.32 
   6 -16  -4   53.39   17.95 
   4  16  -2   24.47   13.64 
   4 -16  -2   19.80   10.09 
   2 -16   0   25.12   11.02 
   2  16   0    8.79    8.17 
   0  16   2   20.05   11.10 
  -2  16   4   -3.94    5.64 
  -4  16   6   -9.70    8.82 
   7 -17  -5   23.67   11.58 
   5  17  -3   46.88   19.76 
   5 -17  -3   29.40   13.59 
   3  17  -1   39.71   17.67 
   1  17   1   23.34   13.09 
  -1  17   3   19.26   11.74 
  -3  17   5   13.65   10.66 
   2  18   0   18.70   10.63 
   0  18   2   17.06   11.94 
  10   0  -9   -2.81    3.52 
   8   0  -7    0.25    0.85 
   6   0  -5   -0.87    1.53 
   4   0  -3    1.08    0.87 
  -2   0   3   -0.07    0.83 
  -2   0   3   -0.87    0.99 
  -4   0   5    0.47    0.58 
  -4   0   5   -1.04    1.50 
  -4   0   5   -0.75    0.59 
  -4   0   5   -0.86    2.13 
  -6   0   7    2.17    1.97 
  -6   0   7   -1.70    1.62 
  -6   0   7    1.79    2.44 
  -8   0   9   -1.47    4.88 
  -8   0   9   -1.20    2.90 
 -10   0  11    3.54    6.04 
 -10   0  11    0.12    1.60 
 -12   0  13    1.74    3.96 
 -12   0  13   10.73   12.42 
 -12   0  13   -0.79    3.54 
 -14   0  15    1.22    3.91 
 -14   0  15   -1.60    4.94 
 -16   0  17   -2.11    6.24 
 -16   0  17   21.19   19.60 
 -18   0  19  -15.35    9.80 
  11   1 -10    0.32    2.59 
   9   1  -8    1.76    3.42 
   7   1  -6   17.33    4.63 
   5  -1  -4   21.66    4.65 
  -1   1   2    0.28   18.25 
  -1  -1   2    0.00   18.33 
  -1   1   2    0.00   18.31 
  -3  -1   4  345.25   23.36 
  -3  -1   4  275.33   23.95 
  -3   1   4  250.72   22.21 
  -3   1   4  337.87   21.21 
  -3  -1   4  287.02   25.75 
  -3   1   4  281.50   25.81 
  -3  -1   4  229.72   27.96 
  -3  -1   4  210.06   23.07 
  -5   1   6   57.65   10.20 
  -5  -1   6   73.73   12.77 
  -5  -1   6   76.17   14.32 
  -5   1   6   73.78   14.07 
  -5   1   6   81.49   10.58 
  -5  -1   6   72.83   11.96 
  -5  -1   6   66.24   16.03 
  -7   1   8   66.11   15.44 
  -7  -1   8   60.40   15.01 
  -7  -1   8   69.02   13.73 
  -7   1   8   61.07   11.76 
  -7  -1   8   53.28   16.82 
  -7  -1   8   67.86   12.89 
  -9   1  10   94.80   20.83 
  -9  -1  10  112.39   23.29 
  -9  -1  10   89.36   17.40 
  -9  -1  10   96.44   18.08 
  -9  -1  10   96.91   26.40 
  -9   1  10   84.44   15.69 
 -11   1  12   33.21   11.10 
 -11  -1  12   41.38   12.18 
 -11   1  12   62.16   17.66 
 -11  -1  12   43.39   19.49 
 -13  -1  14   42.29   14.01 
 -13   1  14   54.17   15.41 
 -13   1  14   77.93   22.94 
 -13  -1  14   41.56   22.93 
 -13   1  14   17.50   12.69 
 -15  -1  16   34.20   13.62 
 -15   1  16   50.61   16.20 
 -15   1  16   44.95   18.77 
 -15  -1  16   41.55   22.08 
 -15   1  16   81.85   32.93 
 -17   1  18   32.84   22.76 
 -17   1  18   16.00    8.71 
 -17  -1  18   20.56   11.03 
 -19   1  20   23.37   11.99 
  14   2 -13    7.66    8.09 
  12   2 -11    6.02    4.54 
  10   2  -9   63.82   12.22 
   8   2  -7    2.79    2.63 
   6  -2  -5  136.86   14.60 
   4  -2  -3  571.81   34.46 
   0  -2   1    0.27    5.74 
   0  -2   1   10.28    5.80 
  -2   2   3    8.68    2.58 
  -2  -2   3   15.78    4.59 
  -2  -2   3   14.50    4.27 
  -2   2   3   13.64    4.47 
  -4   2   5  247.01   22.85 
  -4   2   5  305.39   29.62 
  -4  -2   5  253.27   25.34 
  -4  -2   5  266.80   31.36 
  -4  -2   5  328.05   22.65 
  -6  -2   7  137.44   14.79 
  -6   2   7  120.44   15.66 
  -6   2   7  160.68   22.89 
  -6  -2   7   99.58   16.27 
  -6  -2   7   76.04   19.28 
  -8  -2   9  356.47   52.46 
  -8   2   9  435.95   48.25 
  -8  -2   9  558.46   38.88 
  -8  -2   9  450.97   43.58 
  -8   2   9  478.52   41.21 
 -10   2  11  333.09   35.24 
 -10   2  11  403.47   47.90 
 -10  -2  11  388.08   40.81 
 -12   2  13  216.10   37.57 
 -12   2  13  157.00   25.69 
 -12  -2  13  236.21   47.59 
 -12  -2  13  184.05   29.21 
 -14  -2  15  163.03   29.58 
 -14   2  15  101.10   28.65 
 -14  -2  15  145.99   41.21 
 -14   2  15  159.52   45.12 
 -14   2  15  143.65   25.73 
 -16   2  17  114.95   32.97 
 -16  -2  17   99.51   24.82 
 -16  -2  17  106.95   36.82 
 -16   2  17  141.89   27.55 
 -16   2  17  159.55   49.34 
 -18  -2  19   78.31   23.65 
  15   3 -14   29.83   11.68 
  13   3 -12   26.17   10.50 
  11   3 -10   46.91   11.32 
   9   3  -8   21.04    6.40 
   5  -3  -4  362.47   25.05 
   1  -3   0  334.01   20.94 
  -1  -3   2 2067.28  113.28 
  -1   3   2 1796.66  115.94 
  -1  -3   2 2120.57  111.17 
  -3  -3   4   66.72   11.07 
  -3   3   4  116.16   15.63 
  -3  -3   4   99.64   13.02 
  -3   3   4   73.51    9.39 
  -5  -3   6  167.68   21.10 
  -5   3   6  216.04   19.86 
  -5   3   6  163.07   22.88 
  -5  -3   6  164.06   23.83 
  -7   3   8  574.41   43.39 
  -7  -3   8  556.41   48.38 
  -7   3   8  563.08   53.55 
  -7  -3   8  479.97   54.65 
  -9  -3  10  684.26   57.14 
  -9   3  10  611.52   49.53 
 -11   3  12  294.43   44.33 
 -11  -3  12  264.49   48.03 
 -11   3  12  305.38   34.45 
 -11  -3  12  392.66   43.41 
 -13   3  14  385.83   43.41 
 -13   3  14  378.67   55.24 
 -13  -3  14  379.56   62.06 
 -13  -3  14  449.52   50.77 
 -15   3  16  282.38   37.35 
 -15  -3  16  280.12   41.59 
 -15  -3  16  206.44   47.44 
 -15   3  16  147.32   36.68 
 -17  -3  18  197.07   36.72 
 -17   3  18  152.40   40.45 
 -17   3  18  143.58   46.63 
  16   4 -15   36.69   13.80 
  14   4 -13   35.75   11.59 
  12   4 -11   88.15   17.11 
  10   4  -9   -0.14    1.36 
   8   4  -7   76.32    9.51 
   8   4  -7   94.68   14.28 
   6  -4  -5  475.55   33.27 
   2   4  -1  299.32   23.04 
   0  -4   1  279.01   21.92 
   0  -4   1  335.15   23.45 
   0   4   1  363.76   29.62 
   0  -4   1  279.51   22.33 
  -2   4   3 1331.26   91.38 
  -2  -4   3 1403.84   85.14 
  -2   4   3 1456.59   84.01 
  -4   4   5  184.84   17.22 
  -4   4   5  183.51   23.54 
  -4  -4   5  194.47   21.90 
  -4  -4   5  201.92   21.70 
  -6  -4   7  401.17   37.10 
  -6   4   7  304.10   28.11 
  -6   4   7  403.17   41.07 
  -6  -4   7  382.17   39.17 
  -8   4   9  668.81   49.63 
  -8  -4   9  660.34   57.22 
  -8   4   9  583.59   59.80 
  -8  -4   9  670.40   64.66 
 -10  -4  11  571.68   55.91 
 -10   4  11  660.03   51.05 
 -10   4  11  544.30   61.35 
 -10  -4  11  488.97   62.23 
 -12  -4  13  545.87   58.66 
 -12   4  13  567.39   66.99 
 -12  -4  13  509.38   68.19 
 -12   4  13  663.29   55.14 
 -14   4  15  241.92   33.95 
 -14  -4  15  287.24   42.04 
 -14   4  15  307.32   50.34 
 -14  -4  15  266.12   50.04 
 -16   4  17  157.49   38.84 
 -16  -4  17  226.04   39.43 
 -18   4  19   94.33   39.44 
  17   5 -16   52.37   17.19 
  15   5 -14   19.81    8.49 
  13   5 -12   42.63   12.69 
  11   5 -10   18.96    6.96 
   9   5  -8   -5.69    3.72 
   9   5  -8    1.05    0.75 
   7  -5  -6   93.01   12.48 
   7   5  -6   82.03    9.98 
   1   5   0  513.46   34.21 
  -1  -5   2  529.09   36.04 
  -1  -5   2  496.91   34.24 
  -1   5   2  458.94   40.22 
  -1  -5   2  438.89   33.40 
  -3   5   4 1001.48   75.47 
  -3  -5   4 1175.04   69.74 
  -3  -5   4 1078.52   71.68 
  -3   5   4 1078.66   64.16 
  -5   5   6  382.20   29.20 
  -5   5   6  334.80   37.88 
  -5  -5   6  461.79   37.50 
  -5  -5   6  364.54   35.90 
  -7   5   8  298.63   26.73 
  -7   5   8  264.55   35.94 
  -7  -5   8  313.82   35.39 
  -7  -5   8  289.99   33.87 
  -9  -5  10  713.43   60.79 
  -9   5  10  548.94   61.00 
  -9  -5  10  680.75   64.21 
  -9   5  10  577.00   47.38 
 -11   5  12  607.94   68.48 
 -11   5  12  581.75   51.98 
 -11  -5  12  602.16   68.25 
 -13   5  14  251.86   44.31 
 -13  -5  14  282.72   41.20 
 -13  -5  14  254.94   44.57 
 -13   5  14  292.11   34.39 
 -15   5  16  188.00   41.30 
 -15  -5  16  328.32   46.58 
 -17  -5  18  145.28   32.88 
 -17   5  18  114.23   35.12 
  16   6 -15   25.45   11.30 
  14   6 -13   12.39    7.48 
  12   6 -11   16.23    7.84 
  10   6  -9    5.14    3.80 
  10   6  -9   12.14    4.52 
   8   6  -7    2.47    1.13 
   0   6   1  250.50   27.65 
   0  -6   1  215.59   20.01 
   0   6   1  247.69   19.15 
   0  -6   1  227.83   21.71 
   0  -6   1  233.92   21.50 
  -2  -6   3  503.12   38.99 
  -2  -6   3  505.32   36.93 
  -2   6   3  559.51   46.19 
  -2  -6   3  431.96   35.39 
  -4  -6   5  730.02   54.58 
  -4   6   5  636.46   43.09 
  -4  -6   5  682.90   50.37 
  -6  -6   7  455.93   43.13 
  -6   6   7  444.50   32.41 
  -6   6   7  362.58   43.18 
  -6  -6   7  439.71   39.76 
  -8   6   9  302.94   41.21 
  -8  -6   9  352.26   39.62 
  -8  -6   9  401.05   40.50 
  -8   6   9  291.30   27.88 
 -10  -6  11  205.10   31.36 
 -10  -6  11  185.80   30.17 
 -10   6  11  150.32   31.22 
 -10   6  11  193.30   22.89 
 -12  -6  13  313.89   42.66 
 -12   6  13  269.68   45.42 
 -12  -6  13  277.96   42.37 
 -14   6  15  215.71   42.77 
 -14  -6  15  176.49   35.79 
 -14  -6  15  195.00   35.20 
 -16  -6  17  120.09   29.48 
 -16   6  17  106.11   32.02 
  17   7 -16   20.83   12.36 
  15   7 -14    4.29    5.69 
  13   7 -12   -2.06    3.79 
  11   7 -10   24.16    9.80 
   9   7  -8    1.87    1.69 
   9   7  -8    2.09    2.16 
   1   7   0  141.55   21.40 
  -1  -7   2  164.78   18.68 
  -1   7   2  177.38   24.51 
  -1   7   2  164.76   14.68 
  -1  -7   2  168.54   18.74 
  -1  -7   2  176.08   18.93 
  -3  -7   4   86.75   13.16 
  -3   7   4   70.17    9.06 
  -3  -7   4   66.38   12.55 
  -3   7   4   95.00   17.86 
  -5   7   6  392.97   27.54 
  -5   7   6  331.21   40.42 
  -5  -7   6  435.98   36.78 
  -5  -7   6  358.99   37.59 
  -7   7   8  130.15   14.72 
  -7  -7   8  147.47   21.54 
  -7   7   8  147.87   26.30 
  -7  -7   8  156.13   24.47 
  -9   7  10  148.09   18.13 
  -9  -7  10  157.85   27.08 
  -9   7  10  229.53   36.04 
  -9  -7  10  162.34   25.51 
 -11  -7  12   83.45   20.76 
 -11   7  12   76.93   22.35 
 -11  -7  12  128.42   24.42 
 -13  -7  14  116.39   27.07 
 -13   7  14   98.71   27.82 
 -13  -7  14  103.63   24.74 
 -15  -7  16   64.72   20.67 
 -15   7  16   25.07   14.84 
  18   8 -17   14.96   12.10 
  16   8 -15  -16.82    9.97 
  14   8 -13    3.87    2.74 
  12   8 -11   -0.78    4.30 
  10   8  -9    6.32    2.26 
   0  -8   1   11.74    4.47 
   0   8   1   14.58    7.79 
  -2  -8   3   17.01    5.91 
  -2   8   3   14.87    3.45 
  -2  -8   3   10.35    4.12 
  -2  -8   3   13.34    5.47 
  -2   8   3    5.37    4.71 
  -4  -8   5   89.47   14.67 
  -4   8   5   82.06    8.77 
  -4  -8   5   94.81   17.07 
  -4   8   5   67.18   16.78 
  -6  -8   7   25.26    9.35 
  -6   8   7   23.57    4.64 
  -6  -8   7   22.08    7.96 
  -6   8   7   37.60   12.76 
  -8  -8   9  145.72   22.21 
  -8  -8   9  104.43   21.54 
  -8   8   9   78.33   20.81 
 -10  -8  11   -1.57    4.07 
 -10   8  11   -3.82    5.02 
 -12  -8  13    7.95    4.55 
 -12  -8  13    9.90    6.71 
 -12   8  13    2.58    4.53 
 -14  -8  15   14.86    9.04 
 -14   8  15   14.76   10.54 
  17   9 -16   -3.16    7.80 
  15   9 -14    3.99    6.15 
  13   9 -12    2.22    1.63 
  11   9 -10    7.80    4.15 
   9   9  -8    2.85    3.42 
   9   9  -8    5.85    3.00 
   1  -9   0   11.08    5.00 
   1   9   0    9.57    4.44 
  -1   9   2   36.08   11.33 
  -1  -9   2   21.96    7.25 
  -1  -9   2   26.83    7.80 
  -3   9   4    3.21    1.53 
  -3  -9   4    3.14    2.61 
  -3  -9   4    1.22    2.13 
  -3   9   4    3.11    2.28 
  -3  -9   4    0.22    1.52 
  -5  -9   6    3.68    3.54 
  -5  -9   6    1.20    1.61 
  -5   9   6    3.12    1.36 
  -7  -9   8    3.82    3.37 
  -7  -9   8    9.81    7.32 
  -7   9   8   -0.95    4.69 
  -9  -9  10    5.15    3.05 
  -9  -9  10    9.10    5.76 
  -9   9  10    5.42    7.12 
 -11  -9  12   -2.85    4.80 
 -11   9  12   -0.37    2.66 
 -11  -9  12    8.32    5.68 
 -13   9  14   -1.68    4.27 
 -13  -9  14   -7.16    6.88 
  16  10 -15    1.02    3.27 
  14  10 -13    1.55    3.29 
  12  10 -11   -0.57    1.50 
  10  10  -9    6.05    5.45 
   2  10  -1   29.21   11.79 
   0  10   1   13.33    7.69 
   0 -10   1   15.81    6.30 
  -2 -10   3   10.59    4.83 
  -2 -10   3   12.84    5.55 
  -4 -10   5   24.45    8.13 
  -4  10   5    8.90    8.47 
  -6 -10   7   67.50   14.34 
  -6  10   7   44.18   15.89 
  -6 -10   7   53.10   15.02 
  -8 -10   9   58.38   16.93 
  -8 -10   9   51.07   13.19 
  -8  10   9   75.87   21.25 
 -10 -10  11   57.21   15.10 
 -10 -10  11   57.66   17.11 
 -10  10  11   37.57   14.98 
 -12 -10  13   45.34   17.50 
 -12  10  13   39.29   18.25 
 -14  10  15   56.39   24.17 
  15  11 -14   17.62   11.61 
  13  11 -12  -11.22    7.85 
  11  11 -10   -1.03    4.05 
   9  11  -8   -1.30    1.85 
   3  11  -2  100.18   22.33 
   1 -11   0   83.72   15.94 
   1  11   0   63.14   17.41 
  -1 -11   2   40.35   10.65 
  -1  11   2   15.47    9.20 
  -3 -11   4   36.88   10.31 
  -3  11   4   32.96   12.92 
  -3 -11   4   22.73    8.15 
  -5  11   6  226.21   36.72 
  -5 -11   6  257.35   30.50 
  -7 -11   8  146.32   23.10 
  -7  11   8  105.47   25.86 
  -9 -11  10   96.57   19.84 
  -9  11  10   89.44   24.98 
 -11 -11  12  148.54   26.03 
 -11  11  12   83.64   26.46 
 -13  11  14  131.49   34.66 
  14  12 -13   12.63    8.35 
  12  12 -11   -0.86    4.18 
  10  12  -9   -1.84    5.72 
   8  12  -7    2.61    2.95 
   4  12  -3  112.05   25.06 
   2 -12  -1   85.11   17.02 
   2  12  -1   48.57   15.91 
   0  12   1   90.90   21.80 
   0 -12   1   71.25   16.04 
  -2  12   3   96.87   22.96 
  -2 -12   3   96.36   18.22 
  -4 -12   5  331.32   37.76 
  -4  12   5  478.08   54.57 
  -6  12   7  208.86   36.95 
  -6 -12   7  203.40   28.87 
  -8  12   9   93.48   25.16 
  -8 -12   9  118.69   22.19 
 -10 -12  11  191.54   29.92 
 -10  12  11  129.96   32.78 
 -12  12  13  191.41   41.92 
  13  13 -12   18.21   10.53 
  11  13 -10   -8.41    6.87 
   9  13  -8    6.80    6.99 
   3 -13  -2   89.25   18.93 
   3  13  -2   61.60   19.29 
   1  13   0   85.39   21.98 
   1 -13   0   72.96   17.03 
  -1 -13   2  170.44   26.19 
  -1  13   2  159.43   31.21 
  -3  13   4  427.99   54.27 
  -5  13   6  162.32   32.86 
  -5 -13   6  156.87   25.12 
  -7  13   8  106.64   27.46 
  -7 -13   8  103.82   20.67 
  -9 -13  10  153.73   26.59 
  -9  13  10  123.35   31.57 
 -11  13  12  179.71   40.79 
  10  14  -9    9.42    8.08 
   8  14  -7    6.46    5.08 
   6  14  -5   13.02    7.83 
   4 -14  -3   -0.52    5.64 
   4  14  -3    1.23    3.03 
   2  14  -1   62.33   19.79 
   2 -14  -1   46.12   14.14 
   0 -14   1   79.49   18.54 
   0  14   1  105.79   25.42 
  -2  14   3  190.27   35.19 
  -4  14   5   80.41   23.38 
  -6 -14   7  131.59   24.10 
  -6  14   7  130.98   30.51 
  -8 -14   9  136.69   25.10 
  -8  14   9  111.48   28.96 
 -10  14  11  171.72   39.66 
   9  15  -8    3.33    2.32 
   7  15  -6   10.83    7.11 
   7  15  -6    4.81    8.30 
   5 -15  -4   10.66    7.05 
   5  15  -4   10.11    8.31 
   3  15  -2    3.75    6.13 
   3 -15  -2    2.34    3.18 
   1 -15   0   37.50   13.30 
   1  15   0   48.74   17.94 
  -1  15   2  113.83   28.22 
  -3  15   4   47.40   17.47 
  -5  15   6   67.56   22.73 
  -7 -15   8  102.37   22.04 
  -7  15   8   88.08   26.43 
   8 -16  -7    3.68    6.67 
   6 -16  -5    8.67    8.23 
   6  16  -5    7.57    7.14 
   4  16  -3   23.19   13.82 
   4 -16  -3    8.26    6.48 
   2 -16  -1    7.39    6.16 
   2  16  -1  -11.78    9.11 
   0  16   1   20.74   11.56 
  -2  16   3    7.46    9.18 
  -4  16   5   38.82   16.95 
  -6  16   7   58.41   21.97 
   5 -17  -4    7.79    8.11 
   3  17  -2   -9.77    8.58 
   3 -17  -2   12.92    8.64 
   1  17   0   -1.44    3.26 
  -1  17   2    4.48    6.53 
  -3  17   4    0.32    1.84 
   4 -18  -3    2.01    3.62 
   0  18   1  -10.48    9.32 
   6   0  -6  722.64   49.02 
   4   0  -4  107.93   11.03 
  -2   0   2    0.00    3.79 
  -2   0   2   17.47    3.66 
  -4   0   4   99.81   10.02 
  -4   0   4  140.99   13.61 
  -4   0   4  119.82    9.58 
  -4   0   4  104.35   14.30 
  -6   0   6  926.92   58.43 
  -6   0   6  731.62   61.60 
  -6   0   6  871.12   51.82 
  -8   0   8 1015.44   78.95 
  -8   0   8 1075.73   64.70 
  -8   0   8  906.80   68.28 
 -10   0  10  426.92   41.21 
 -10   0  10  417.73   49.33 
 -10   0  10  515.12   65.68 
 -12   0  12  164.48   31.34 
 -12   0  12  177.85   40.58 
 -12   0  12  131.26   22.71 
 -14   0  14  168.56   28.01 
 -14   0  14  149.60   42.95 
 -16   0  16  146.22   28.02 
 -16   0  16  161.44   46.64 
 -18   0  18   84.05   22.60 
 -18   0  18   26.97   21.11 
   9   1  -9  760.21   57.42 
   7   1  -7 1259.37   79.34 
   5   1  -5  575.93   39.07 
   3   1  -3 1584.24   99.67 
  -3  -1   3 1521.57   91.16 
  -3   1   3 1582.27   94.46 
  -5   1   5  597.15   36.67 
  -5  -1   5  542.47   41.22 
  -5   1   5  670.47   41.43 
  -5  -1   5  536.49   39.09 
  -5  -1   5  592.89   46.78 
  -5   1   5  549.91   45.39 
  -5  -1   5  549.90   53.55 
  -7  -1   7 1021.90   74.37 
  -7   1   7 1350.23   75.93 
  -7  -1   7 1017.04   71.61 
  -7  -1   7 1381.42   88.00 
  -7   1   7 1113.57   82.31 
  -7  -1   7 1061.98   94.47 
  -9  -1   9  884.96   60.86 
  -9   1   9  621.66   52.84 
  -9   1   9 1008.35   73.35 
  -9  -1   9  665.97   53.62 
  -9  -1   9  535.09   70.98 
 -11   1  11  187.71   26.11 
 -11   1  11  298.22   40.29 
 -11  -1  11  206.64   28.31 
 -11  -1  11  219.95   45.52 
 -13  -1  13  124.23   22.80 
 -13   1  13   93.18   19.31 
 -13   1  13  109.05   26.80 
 -13  -1  13  138.15   38.46 
 -13   1  13  135.82   38.08 
 -15  -1  15  114.56   24.36 
 -15   1  15  126.44   24.37 
 -15   1  15  150.49   35.00 
 -15  -1  15   98.76   34.82 
 -15   1  15  175.01   47.03 
 -17  -1  17   84.04   22.03 
 -17   1  17   48.90   16.57 
 -17  -1  17   28.84   18.26 
 -17   1  17   43.04   25.51 
 -19   1  19   19.00   10.72 
 -19  -1  19   19.92   10.71 
 -19   1  19   10.54   16.83 
  12   2 -12   74.68   16.67 
  10   2 -10  496.27   44.68 
   8   2  -8  287.80   28.41 
   6   2  -6  944.94   59.54 
   6   2  -6  892.76   50.12 
   4  -2  -4  867.95   54.36 
   4   2  -4  908.90   54.00 
   0   2   0    0.11    2.78 
  -2  -2   2  977.73   63.88 
  -2  -2   2 1075.74   65.46 
  -4   2   4  983.81   65.42 
  -4  -2   4  787.05   66.85 
  -4   2   4  926.18   57.52 
  -6  -2   6  974.86   49.24 
  -6  -2   6  759.23   57.78 
  -6   2   6  743.27   53.64 
  -6   2   6  880.87   64.76 
  -6   2   6  787.07   50.68 
  -6  -2   6  751.49   69.89 
  -8  -2   8  259.11   29.87 
  -8   2   8  289.60   27.92 
  -8   2   8  238.32   32.63 
  -8  -2   8  227.61   38.98 
  -8  -2   8  347.48   22.70 
 -10  -2  10  406.10   43.56 
 -10   2  10  525.30   43.78 
 -10   2  10  512.90   54.32 
 -10  -2  10  401.66   59.40 
 -10  -2  10  502.03   32.87 
 -12   2  12   78.35   16.24 
 -12  -2  12   64.46   16.10 
 -12  -2  12   74.42   25.92 
 -12   2  12   68.19   20.73 
 -14  -2  14  116.22   23.43 
 -14   2  14   86.45   18.68 
 -14  -2  14  105.81   33.59 
 -14   2  14   98.84   25.85 
 -16  -2  16   84.69   21.73 
 -16   2  16   94.37   28.42 
 -16   2  16   89.56   20.55 
 -16  -2  16   98.18   35.90 
 -16   2  16   90.74   36.04 
 -18   2  18    2.98    4.89 
 -18  -2  18    7.31    7.02 
 -18  -2  18   -0.21   10.48 
 -18   2  18    0.43    3.54 
  13   3 -13   52.95   14.63 
  11   3 -11  128.06   21.13 
   9   3  -9   44.74   10.59 
   7   3  -7  257.26   24.53 
   7   3  -7  207.97   16.08 
   5  -3  -5  703.43   45.74 
   5   3  -5  641.94   42.64 
   3   3  -3  157.42   11.50 
   1   3  -1  667.80   40.80 
  -1   3   1  615.13   42.83 
  -1  -3   1  622.45   39.58 
  -1  -3   1  692.94   40.13 
  -3  -3   3  143.31   15.27 
  -3   3   3  157.32   17.53 
  -3  -3   3  153.19   15.98 
  -3   3   3  143.06   11.27 
  -5   3   5  590.84   40.20 
  -5   3   5  566.37   48.82 
  -5  -3   5  672.77   53.52 
  -7  -3   7  185.94   23.40 
  -7   3   7  200.98   17.61 
  -7   3   7  191.51   19.58 
  -7   3   7  244.36   29.70 
  -7  -3   7  171.01   28.72 
  -9  -3   9   46.80   12.01 
  -9   3   9   46.70   10.01 
  -9   3   9   52.15   14.46 
  -9  -3   9   27.50   13.33 
 -11  -3  11   78.78   24.30 
 -11   3  11  109.43   24.80 
 -11  -3  11  120.47   21.78 
 -11   3  11  141.06   20.02 
 -13  -3  13   42.03   14.03 
 -13   3  13   48.31   12.86 
 -13   3  13   69.59   21.02 
 -13  -3  13   16.46   10.50 
 -15  -3  15   40.99   14.95 
 -15   3  15   56.73   15.24 
 -15   3  15   61.59   21.68 
 -15  -3  15   32.67   17.75 
 -17  -3  17   22.57   11.55 
 -17   3  17   19.72   13.50 
 -17   3  17    3.89    1.94 
 -17   3  17    2.27   10.60 
 -19   3  19    9.45    9.62 
  14   4 -14    9.52    8.89 
  12   4 -12    8.53    6.64 
  10   4 -10   13.94    6.35 
   8   4  -8   21.48    4.59 
   8   4  -8   16.93    6.24 
   6   4  -6  129.37   14.25 
   6  -4  -6  121.36   15.66 
   4   4  -4   50.07    5.64 
   0  -4   0   26.92    5.27 
   0   4   0   43.72    8.39 
   0   4   0   35.41    5.11 
  -2  -4   2   12.73    3.93 
  -2  -4   2   16.38    4.30 
  -2   4   2   15.63    5.30 
  -2  -4   2   17.41    3.53 
  -4   4   4   42.74    5.64 
  -4  -4   4   48.60    9.32 
  -4  -4   4   47.76    9.21 
  -4   4   4   41.55    9.84 
  -6  -4   6  125.78   17.96 
  -6  -4   6  137.88   20.80 
  -6   4   6  110.25   12.66 
  -8  -4   8   10.66    5.86 
  -8   4   8   16.89    5.13 
  -8  -4   8   16.20    9.06 
 -10  -4  10    3.82    3.62 
 -10   4  10   13.25    6.63 
 -10  -4  10    9.50    6.83 
 -10   4  10    8.82    4.37 
 -12   4  12    0.39    3.78 
 -12   4  12    8.49    7.06 
 -12  -4  12    9.08    5.36 
 -12  -4  12   -4.09    5.55 
 -14   4  14    5.01    5.61 
 -14   4  14   -1.71    5.47 
 -14  -4  14    0.84    2.51 
 -14  -4  14    1.87    7.60 
 -16  -4  16    4.43    2.77 
 -16   4  16   -1.10    5.95 
 -16  -4  16   13.01   11.06 
 -18  -4  18   -2.80    5.44 
 -18   4  18    4.21    6.50 
  15   5 -15    5.75    8.19 
  13   5 -13   34.76   12.38 
  11   5 -11    4.38    4.26 
   9   5  -9   27.12    5.63 
   9   5  -9   19.57    7.96 
   7   5  -7   26.45    8.05 
   7   5  -7   41.81    8.35 
   7   5  -7   45.87    5.94 
  -1   5   1   69.82    7.16 
  -1  -5   1   65.99    9.51 
  -1   5   1   80.31   12.67 
  -3   5   3   71.69    6.88 
  -3  -5   3   93.13   12.15 
  -3  -5   3   70.29   11.30 
  -3  -5   3   65.78    8.74 
  -3   5   3   65.19   12.61 
  -5  -5   5   32.11    8.33 
  -5  -5   5   48.07   10.43 
  -5   5   5   37.18    5.47 
  -5   5   5   32.78   10.11 
  -7   5   7   33.72    6.45 
  -7  -5   7   37.94   10.83 
  -7   5   7   19.38    8.68 
  -7  -5   7   35.27   10.02 
  -9  -5   9   27.23    9.31 
  -9   5   9   19.07    5.82 
  -9   5   9   26.16   11.22 
  -9  -5   9   19.01    9.22 
 -11   5  11    2.06    1.10 
 -11   5  11   -2.44    5.86 
 -11  -5  11    3.37    5.77 
 -11  -5  11  -11.78    8.07 
 -13  -5  13   15.74    8.24 
 -13  -5  13   12.30    9.08 
 -13   5  13   17.07    7.04 
 -13   5  13   10.89    9.57 
 -15  -5  15    2.91    3.91 
 -15  -5  15    5.91    9.92 
 -15   5  15    1.34    5.55 
 -17  -5  17    8.78    8.56 
 -17   5  17    6.11    7.57 
 -19   5  19   30.65   22.30 
  16   6 -16   18.35    9.21 
  14   6 -14   83.40   21.22 
  12   6 -12   71.45   17.35 
  10   6 -10   19.67    7.95 
   8   6  -8   97.11   17.08 
   8   6  -8  106.48   15.32 
   6   6  -6  331.77   27.74 
   0   6   0  175.05   15.45 
   0   6   0  141.61   19.78 
  -2  -6   2  850.78   57.81 
  -2   6   2  868.02   49.91 
  -2  -6   2  863.43   55.50 
  -4  -6   4  353.90   31.58 
  -4   6   4  311.01   20.26 
  -4  -6   4  342.89   29.94 
  -4   6   4  394.60   36.98 
  -6   6   6  293.86   21.31 
  -6   6   6  303.53   35.46 
  -6  -6   6  278.21   30.99 
  -6  -6   6  309.56   31.29 
  -8  -6   8  111.24   19.83 
  -8   6   8   98.21   12.33 
  -8  -6   8  111.37   20.12 
  -8   6   8   96.46   20.76 
 -10  -6  10   16.49    7.39 
 -10   6  10   13.92    4.87 
 -10   6  10    9.44    4.14 
 -10  -6  10   15.10   10.00 
 -12  -6  12   92.04   21.53 
 -12   6  12   99.59   25.22 
 -12  -6  12   91.19   23.14 
 -14  -6  14   78.16   20.46 
 -14   6  14   93.67   27.17 
 -14  -6  14  103.69   26.83 
 -16  -6  16   -1.12    5.10 
 -16  -6  16   24.59   13.84 
 -16   6  16   28.99   15.87 
  17   7 -17   44.97   17.58 
  15   7 -15   80.25   22.15 
  13   7 -13  115.88   24.32 
  11   7 -11  182.49   27.94 
   9   7  -9  150.69   22.87 
   9   7  -9  132.10   19.10 
   7   7  -7  288.52   31.76 
   7   7  -7  279.57   26.41 
  -1   7   1  980.86   57.20 
  -1  -7   1  950.50   63.66 
  -1   7   1  926.72   70.02 
  -3   7   3  891.83   50.60 
  -3  -7   3  938.34   62.81 
  -3   7   3  932.29   70.29 
  -3  -7   3 1003.10   60.47 
  -5   7   5  389.52   23.47 
  -5   7   5  347.79   39.80 
  -5  -7   5  464.30   37.61 
  -5  -7   5  408.75   38.20 
  -7   7   7  288.29   20.59 
  -7  -7   7  224.54   29.97 
  -7   7   7  243.53   34.24 
  -7  -7   7  283.05   31.20 
  -9   7   9  132.25   14.95 
  -9  -7   9  143.67   23.70 
  -9  -7   9  136.03   23.68 
  -9   7   9  148.12   28.00 
 -11  -7  11  280.49   37.79 
 -11   7  11  165.99   33.82 
 -11  -7  11  252.02   36.38 
 -13  -7  13   75.20   20.44 
 -13   7  13   77.09   23.27 
 -13  -7  13  106.35   24.77 
 -15  -7  15   81.04   22.73 
 -15   7  15   51.48   21.75 
 -15  -7  15   61.46   19.92 
 -17   7  17   22.71   14.93 
 -17  -7  17   33.96   15.17 
  16   8 -16   20.19   11.19 
  14   8 -14   81.84   21.27 
  12   8 -12  157.13   27.95 
  10   8 -10  210.71   30.08 
   8   8  -8  413.39   42.38 
   8   8  -8  418.27   36.61 
   0   8   0  652.52   55.91 
  -2   8   2 1015.38   59.05 
  -2  -8   2 1054.79   69.53 
  -2   8   2 1032.53   77.72 
  -2  -8   2 1016.53   66.89 
  -4  -8   4  834.66   58.74 
  -4   8   4  737.84   64.81 
  -4  -8   4  769.42   54.45 
  -6  -8   6  443.74   42.97 
  -6   8   6  367.44   43.52 
  -6  -8   6  412.06   38.75 
  -8   8   8  338.83   45.55 
  -8  -8   8  448.09   43.27 
  -8  -8   8  441.02   45.74 
 -10  -8  10  237.76   34.59 
 -10   8  10  210.18   36.63 
 -10  -8  10  244.66   33.00 
 -12  -8  12  177.26   32.58 
 -12   8  12  170.88   34.77 
 -12  -8  12  192.18   31.29 
 -14   8  14   98.11   26.95 
 -14  -8  14  107.87   25.08 
 -14  -8  14  127.79   28.59 
 -16   8  16   30.30   15.42 
  17   9 -17   50.43   19.21 
  15   9 -15   22.25   14.07 
  13   9 -13  112.52   25.34 
  11   9 -11  276.61   37.70 
   9   9  -9  334.70   39.32 
   7   9  -7  415.73   41.24 
   7   9  -7  332.27   33.25 
   1   9  -1  631.25   57.26 
  -1   9   1  699.74   61.64 
  -1  -9   1  743.27   53.98 
  -3   9   3  661.98   39.49 
  -3   9   3  663.51   60.83 
  -3  -9   3  790.88   54.99 
  -3  -9   3  687.58   50.85 
  -5   9   5  450.89   50.05 
  -5  -9   5  533.90   45.03 
  -7  -9   7  392.57   38.69 
  -7   9   7  289.27   41.57 
  -7  -9   7  385.32   42.46 
  -9  -9   9  462.49   49.39 
  -9   9   9  345.26   47.88 
  -9  -9   9  372.83   41.76 
 -11   9  11  331.71   48.32 
 -11  -9  11  253.24   35.92 
 -11  -9  11  301.85   41.67 
 -13  -9  13  138.77   30.42 
 -13  -9  13  167.43   29.64 
 -13   9  13  143.20   33.79 
 -15   9  15   15.55   11.06 
  16  10 -16   55.35   20.79 
  14  10 -14   28.54   14.10 
  12  10 -12  116.04   25.14 
  10  10 -10  337.27   42.31 
   8  10  -8  415.54   45.33 
   2  10  -2  392.24   44.36 
   0  10   0  585.49   56.64 
  -2 -10   2  372.68   36.91 
  -2  10   2  444.86   46.50 
  -2 -10   2  396.56   36.30 
  -4 -10   4  549.38   46.17 
  -4  10   4  529.36   54.07 
  -4 -10   4  437.86   40.64 
  -6  10   6  227.26   34.50 
  -6 -10   6  202.90   26.62 
  -8  10   8  380.76   49.69 
  -8 -10   8  394.77   42.05 
 -10  10  10  280.97   44.87 
 -10 -10  10  326.01   39.05 
 -12 -10  12  160.28   28.02 
 -12  10  12   93.89   27.57 
 -14  10  14   31.08   15.12 
  13  11 -13   34.54   14.55 
  11  11 -11   63.74   18.63 
   9  11  -9   90.96   20.72 
   7  11  -7  279.88   35.99 
   1  11  -1  191.18   30.24 
  -1  11   1  159.31   28.03 
  -1 -11   1  201.94   25.21 
  -3 -11   3  290.70   31.83 
  -3 -11   3  237.69   28.58 
  -3  11   3  305.24   39.53 
  -5  11   5  142.43   27.37 
  -5 -11   5  152.00   22.94 
  -7 -11   7  286.02   33.77 
  -7  11   7  225.18   37.65 
  -9 -11   9  123.13   22.82 
  -9  11   9  140.54   30.05 
 -11 -11  11   78.02   18.40 
 -11  11  11   60.20   20.51 
 -13  11  13    9.18    9.62 
 -13 -11  13   14.97    8.57 
  12  12 -12   23.73   12.95 
  10  12 -10   10.77    6.99 
   8  12  -8   60.92   17.19 
   6  12  -6   92.81   19.96 
   2  12  -2   48.31   15.32 
   0 -12   0   79.68   16.70 
   0  12   0   89.02   20.99 
  -2  12   2   60.56   17.21 
  -2 -12   2   49.27   12.21 
  -4 -12   4    6.56    4.39 
  -4  12   4    8.38    6.33 
  -6 -12   6  102.30   19.37 
  -6  12   6   76.96   20.93 
  -8 -12   8   49.68   14.04 
  -8  12   8   45.94   17.14 
 -10 -12  10   11.81    6.77 
 -10  12  10   12.24   10.10 
 -12 -12  12   22.75    9.58 
 -12  12  12    7.29    9.10 
  11  13 -11   -2.07    2.68 
   9  13  -9    0.97    5.90 
   7  13  -7   -1.05    4.62 
   5  13  -5    3.05    4.98 
   3  13  -3    9.79    6.93 
   1  13  -1   -7.82    6.39 
   1 -13  -1   -1.05    1.84 
  -1  13   1   -0.73    1.44 
  -1 -13   1   -6.55    4.76 
  -3  13   3   -1.89    3.37 
  -5 -13   5    3.69    4.95 
  -5  13   5    1.11    6.15 
  -7  13   7   -5.35    5.84 
  -7 -13   7    2.55    2.47 
  -9 -13   9    5.67    5.02 
  -9  13   9   -0.65    2.36 
 -11  13  11   -4.32    5.93 
 -11 -13  11    3.58    4.41 
  10  14 -10   15.08   10.49 
   8  14  -8    8.22    6.48 
   6  14  -6   15.91    9.55 
   4  14  -4   19.53   10.55 
   2 -14  -2   33.30   11.86 
   2  14  -2   26.71   10.32 
   0  14   0   62.96   19.47 
   0 -14   0   57.13   15.53 
  -2  14   2   13.60    8.02 
  -4  14   4   20.79   11.12 
  -6 -14   6   16.35    8.21 
  -6  14   6   33.04   14.42 
  -8 -14   8    2.29    3.74 
  -8  14   8    7.66    6.05 
 -10  14  10   21.12   14.19 
 -10 -14  10   25.90   11.18 
   7  15  -7   41.52   15.76 
   5  15  -5   98.26   23.06 
   5  15  -5  119.99   29.06 
   3 -15  -3   91.43   21.38 
   3  15  -3  100.17   26.09 
   1 -15  -1   71.59   18.25 
   1  15  -1   73.82   21.62 
  -1  15   1   65.86   20.27 
  -3  15   3  107.62   26.25 
  -5  15   5   65.30   20.72 
  -7 -15   7   30.96   11.70 
  -7  15   7   45.31   18.61 
  -9  15   9   47.04   19.23 
  -9 -15   9   53.56   16.11 
   6  16  -6  113.69   26.53 
   4 -16  -4  141.18   28.42 
   4  16  -4  116.88   25.40 
   2  16  -2  177.04   35.64 
   2  16  -2  200.41   32.40 
   2 -16  -2  170.20   31.26 
   0  16   0   83.96   24.31 
  -2  16   2  154.84   33.53 
  -4  16   4  106.21   28.56 
  -6  16   6   73.74   23.54 
  -8 -16   8   56.82   17.13 
  -8  16   8   38.58   17.62 
   5 -17  -5  101.51   25.41 
   3  17  -3   75.18   20.66 
   3 -17  -3  120.08   27.20 
   1  17  -1  149.68   28.70 
   1  17  -1  167.37   35.44 
  -1  17   1  145.56   27.24 
  -1  17   1  152.40   34.19 
  -3  17   3  113.22   29.41 
  -5  17   5   75.95   24.57 
   0  18   0  232.04   36.85 
  -2  18   2   33.85   15.54 
   2   0  -3    1.35    0.76 
  -4   0   3   -0.58    1.22 
  -4   0   3    4.11    2.75 
  -6   0   5    1.19    1.65 
  -6   0   5    1.34    2.77 
  -8   0   7   -0.28    2.32 
  -8   0   7    2.75    3.21 
  -8   0   7    2.21    1.33 
 -10   0   9    1.89    3.87 
 -10   0   9    0.02    4.57 
 -10   0   9   -0.16    1.72 
 -12   0  11    0.77    2.47 
 -12   0  11    1.98    4.40 
 -12   0  11   -3.10   11.78 
 -14   0  13    2.10    3.94 
 -14   0  13   19.31   18.60 
 -16   0  15   -0.13    2.18 
 -16   0  15  -18.37   15.28 
 -18   0  17   -2.55    1.63 
 -18   0  17  -14.63   14.52 
 -20   0  19   -7.70   11.07 
   7   1  -8   59.70   11.97 
   5   1  -6   80.03   12.29 
   5   1  -6   85.41    8.36 
   3   1  -4  406.36   29.11 
   3   1  -4  339.60   23.76 
   1   1  -2  729.47   39.38 
   1   1  -2  657.29   41.05 
  -3  -1   2  317.24   22.38 
  -3   1   2  325.07   24.35 
  -3  -1   2  260.15   26.66 
  -3   1   2  346.16   20.22 
  -5   1   4   20.51    2.94 
  -5  -1   4   12.38    3.89 
  -5   1   4   21.07    4.44 
  -5   1   4   14.96    5.48 
  -5  -1   4   16.14    7.64 
  -7  -1   6   14.49    5.04 
  -7   1   6   12.53    4.42 
  -7  -1   6   14.19    3.57 
  -7   1   6   18.90    7.21 
  -7  -1   6   19.74   10.19 
  -9  -1   8    5.07    2.30 
  -9   1   8    3.29    2.24 
  -9  -1   8    2.97    1.10 
  -9   1   8    4.43    3.27 
  -9  -1   8    3.95    7.30 
 -11  -1  10   -0.38    2.78 
 -11   1  10   -3.81    3.14 
 -11  -1  10    3.00    2.59 
 -11   1  10    4.33    3.19 
 -11  -1  10   -0.57    3.65 
 -13  -1  12   16.01    8.15 
 -13   1  12    8.72    8.20 
 -13  -1  12   22.33   19.52 
 -13   1  12    7.01    5.65 
 -13   1  12   10.02   10.44 
 -15  -1  14    1.74    2.68 
 -15   1  14    6.90    6.09 
 -15   1  14    0.65    5.26 
 -15   1  14   -1.06    8.38 
 -15  -1  14   -9.89   10.82 
 -17  -1  16   23.21   10.69 
 -17   1  16    6.74    5.11 
 -17  -1  16   17.87    7.40 
 -17   1  16   22.65   17.83 
 -19   1  18    8.77    6.45 
 -19  -1  18    3.28    4.85 
 -19  -1  18   -4.07    7.96 
 -19   1  18   19.29   16.30 
  10   2 -11  290.15   34.69 
   8   2  -9  425.81   39.82 
   6   2  -7  126.18   11.40 
   6   2  -7  103.70   15.54 
   4   2  -5  258.79   23.19 
   2  -2  -3   15.47    4.14 
   2   2  -3   12.26    4.62 
   2   2  -3   14.44    3.70 
  -2  -2   1  517.22   32.39 
  -2   2   1  496.92   32.59 
  -4   2   3  482.16   28.73 
  -4   2   3  489.26   36.23 
  -4  -2   3  470.85   33.26 
  -4  -2   3  431.79   37.81 
  -6   2   5  161.79   11.71 
  -6  -2   5  139.46   17.22 
  -6   2   5  155.07   14.92 
  -8   2   7    0.54    0.56 
  -8  -2   7   -1.23    2.33 
  -8   2   7    1.64    1.74 
  -8   2   7    1.40    1.28 
  -8  -2   7    4.58    3.96 
 -10   2   9   69.25   17.42 
 -10  -2   9   68.10   13.98 
 -10   2   9   64.85   12.43 
 -10  -2   9   56.78   20.54 
 -12  -2  11    3.44    3.28 
 -12   2  11    3.86    4.12 
 -12   2  11    2.10    3.09 
 -12  -2  11    1.86    7.99 
 -14  -2  13    3.24    5.21 
 -14   2  13    6.02    4.29 
 -14   2  13   15.71   10.72 
 -14  -2  13   11.11    9.46 
 -16  -2  15   10.20    5.87 
 -16   2  15   10.83    9.32 
 -16   2  15   13.93    7.44 
 -16  -2  15   28.17   19.20 
 -16   2  15   27.79   16.97 
 -18   2  17   20.60   10.29 
 -18  -2  17   45.66   24.18 
 -18   2  17   23.04   14.50 
 -18  -2  17   16.74    8.90 
 -20   2  19   11.95   14.97 
  11   3 -12  319.78   39.05 
   9   3 -10  614.31   53.26 
   7   3  -8  731.93   45.46 
   7   3  -8  723.73   55.51 
   5   3  -6  171.18   19.14 
   5   3  -6  153.13   18.77 
   3   3  -4   82.51   10.06 
   1   3  -2 2284.60  116.03 
   1   3  -2 2185.79  113.61 
  -1   3   0  343.17   21.71 
  -1   3   0  345.20   25.32 
  -1  -3   0  348.75   24.05 
  -3  -3   2   20.79    4.92 
  -3  -3   2   15.86    4.38 
  -3   3   2   17.12    4.75 
  -5   3   4  369.43   24.00 
  -5  -3   4  310.62   32.83 
  -5  -3   4  330.63   29.35 
  -7   3   6  302.06   20.40 
  -7  -3   6  267.47   28.25 
  -7  -3   6  240.00   34.22 
  -7   3   6  293.71   23.85 
  -9   3   8   24.23    4.10 
  -9  -3   8   27.13    8.57 
  -9   3   8   22.42    6.25 
  -9  -3   8   13.51    8.54 
  -9   3   8   10.11    5.79 
 -11  -3  10   48.21   12.48 
 -11   3  10   67.88   12.79 
 -11  -3  10   48.15   17.56 
 -13   3  12    5.66    6.99 
 -13  -3  12   11.32    6.10 
 -13   3  12    7.40    4.67 
 -13  -3  12   14.21    8.14 
 -15   3  14   22.48    8.67 
 -15   3  14   36.92   16.18 
 -15  -3  14   33.35   20.10 
 -15  -3  14   23.12   10.40 
 -17   3  16   28.13   11.14 
 -17  -3  16   39.60   15.06 
 -17   3  16   27.73   15.05 
 -17  -3  16   32.83   18.38 
 -17   3  16   37.79   27.84 
 -19   3  18   25.74   16.10 
 -19  -3  18   72.58   21.83 
 -19  -3  18   34.02   20.28 
 -19   3  18   53.85   29.60 
  12   4 -13  535.78   56.07 
  10   4 -11  618.63   56.25 
   8   4  -9  749.16   60.09 
   8   4  -9  772.63   48.45 
   6   4  -7  304.13   29.98 
   6   4  -7  306.79   30.56 
   4   4  -5  202.94   19.17 
   2   4  -3 1422.10   80.30 
   0   4  -1  276.49   21.05 
  -2  -4   1  283.33   22.71 
  -2   4   1  272.82   24.25 
  -4  -4   3   21.53    5.88 
  -4  -4   3   19.86    5.59 
  -4   4   3    9.43    3.51 
  -4  -4   3   15.76    2.99 
  -6  -4   5  468.81   41.83 
  -6   4   5  421.85   39.94 
  -6  -4   5  426.26   37.12 
  -6   4   5  457.18   29.12 
  -8   4   7   71.45   10.35 
  -8   4   7   71.42   15.73 
  -8  -4   7  103.86   20.57 
 -10   4   9    0.31    0.48 
 -10   4   9   -0.88    1.56 
 -10  -4   9    1.23    2.34 
 -10   4   9   -0.43    5.59 
 -10  -4   9   -8.07    6.67 
 -12   4  11   74.66   13.99 
 -12   4  11   71.59   19.51 
 -12  -4  11   64.81   16.13 
 -12  -4  11   66.41   22.32 
 -14   4  13   10.46    4.68 
 -14  -4  13    9.38    6.84 
 -14   4  13   22.99    7.92 
 -16  -4  15   37.62   14.02 
 -16   4  15   28.43   10.66 
 -16   4  15   40.49   19.77 
 -16  -4  15   31.46   19.05 
 -18  -4  17   48.90   17.63 
 -18  -4  17   39.46   21.42 
 -18   4  17   31.82   15.94 
 -20   4  19   33.73   23.63 
  13   5 -14  259.62   38.31 
  11   5 -12  655.17   61.31 
   9   5 -10  704.89   58.56 
   9   5 -10  644.58   43.00 
   7   5  -8  289.39   30.71 
   7   5  -8  254.47   28.90 
   5   5  -6  393.27   33.31 
   5   5  -6  454.09   30.84 
   3   5  -4 1264.26   72.95 
  -1   5   0  523.66   33.17 
  -1  -5   0  513.12   36.50 
  -1   5   0  511.05   39.57 
  -3  -5   2  129.32   14.78 
  -3   5   2  115.09   16.17 
  -5  -5   4  205.68   23.24 
  -5  -5   4  252.59   25.20 
  -5   5   4  284.40   28.83 
  -7  -5   6   74.00   14.92 
  -7  -5   6   66.19   13.23 
  -7   5   6   65.40   14.90 
  -7   5   6   88.12    9.29 
  -9   5   8    0.86    1.52 
  -9   5   8   -1.74    3.10 
  -9  -5   8   -1.02    1.69 
  -9  -5   8   -0.85    2.52 
 -11  -5  10    6.32    4.19 
 -11   5  10   19.41    6.63 
 -11   5  10   25.12   10.28 
 -11  -5  10    9.00    3.48 
 -13  -5  12   44.09   14.20 
 -13   5  12   30.59    8.88 
 -13   5  12   37.54   14.67 
 -13  -5  12   24.10   11.85 
 -15  -5  14   23.66   11.49 
 -15  -5  14   15.38   11.93 
 -15   5  14    8.08    6.44 
 -17   5  16   39.86   18.02 
 -17  -5  16   39.17   15.42 
 -17  -5  16   48.24   21.18 
  14   6 -15  162.02   31.68 
  12   6 -13  258.38   37.22 
  10   6 -11  156.65   25.66 
   8   6  -9  302.54   33.91 
   8   6  -9  272.66   31.50 
   6   6  -7  417.68   37.94 
   6   6  -7  533.03   33.72 
  -2  -6   1  219.47   21.22 
  -2   6   1  242.29   25.07 
  -2   6   1  205.42   15.84 
  -4  -6   3  165.29   18.89 
  -4   6   3  140.46   20.32 
  -4  -6   3  158.67   14.60 
  -6  -6   5    5.73    4.90 
  -6  -6   5    9.89    5.12 
  -6   6   5   -0.57    2.83 
  -8  -6   7    1.94    2.41 
  -8   6   7    0.51    1.05 
  -8  -6   7    0.41    0.94 
  -8   6   7   -0.17    2.04 
 -10  -6   9   12.11    5.56 
 -10   6   9    6.20    2.78 
 -10   6   9    3.04    3.80 
 -10  -6   9    6.99    4.47 
 -12  -6  11   29.42   11.48 
 -12   6  11   23.32    7.19 
 -12   6  11   34.06   14.25 
 -12  -6  11   31.83   13.53 
 -14  -6  13    8.98    6.04 
 -14  -6  13    9.40    8.38 
 -14   6  13    8.30    7.77 
 -16   6  15   14.96   12.03 
 -16  -6  15   19.56   10.46 
 -16  -6  15    9.31    8.54 
 -18   6  17   60.09   22.98 
  15   7 -16   48.49   17.46 
  13   7 -14   53.83   17.37 
  11   7 -12   96.17   20.96 
   9   7 -10  143.99   24.33 
   7   7  -8  148.56   22.37 
   7   7  -8  131.14   18.81 
   5   7  -6  396.87   34.17 
  -1   7   0   98.89   11.62 
  -1  -7   0  123.45   16.20 
  -1   7   0  106.38   17.02 
  -3   7   2  125.18    9.94 
  -3  -7   2  151.63   18.08 
  -3   7   2  127.05   19.29 
  -5  -7   4    0.23    0.81 
  -5   7   4    3.28    2.65 
  -5  -7   4    4.99    2.63 
  -7  -7   6    7.12    4.74 
  -7   7   6    3.28    4.23 
  -7  -7   6    1.62    3.09 
  -9   7   8    3.30    1.50 
  -9  -7   8    1.48    2.43 
  -9  -7   8    3.28    3.50 
  -9   7   8    4.04    3.12 
 -11   7  10   22.21   10.93 
 -11  -7  10   23.61   10.43 
 -11  -7  10   30.87   12.30 
 -13  -7  12   -2.91    3.66 
 -13   7  12   -0.79    6.38 
 -13  -7  12   -0.97    1.21 
 -15  -7  14    6.30    5.17 
 -15   7  14    3.10    2.74 
 -15  -7  14    2.98    4.41 
 -17   7  16   18.20   16.86 
 -17  -7  16   14.62   11.74 
  16   8 -17    4.49    8.19 
  14   8 -15   29.14   12.48 
  12   8 -13    4.39    6.14 
  10   8 -11    5.91    6.96 
   8   8  -9   87.29   16.64 
   8   8  -9  110.90   20.45 
   6   8  -7   24.36    8.97 
   6   8  -7   29.68    8.23 
   4   8  -5   96.08   16.51 
   0   8  -1    4.69    3.37 
  -2  -8   1   21.98    6.39 
  -2   8   1   13.27    3.47 
  -2   8   1   17.27    7.12 
  -4  -8   3    3.02    1.90 
  -4   8   3    2.37    4.21 
  -4  -8   3    3.23    2.14 
  -6  -8   5    2.84    2.91 
  -6   8   5    0.14    2.86 
  -8  -8   7    6.20    4.87 
  -8   8   7    3.29    5.01 
 -10  -8   9   -1.46    2.20 
 -10  -8   9   -1.21    3.53 
 -10   8   9    2.29    4.78 
 -12  -8  11   -8.70    6.57 
 -12   8  11   -2.46    4.09 
 -12  -8  11   -0.06    4.04 
 -14   8  13    4.16    5.44 
 -14  -8  13    1.12    3.44 
 -16   8  15   12.72   10.94 
 -16  -8  15   -2.90    4.45 
  15   9 -16   18.38   12.52 
  13   9 -14   14.72   10.25 
  11   9 -12   13.17    8.01 
   9   9 -10    5.50    3.53 
   7   9  -8    3.26    2.30 
   7   9  -8   -1.03    0.86 
   5   9  -6    0.84    2.74 
   1   9  -2   22.92    8.38 
  -1   9   0    4.69    2.62 
  -3  -9   2   18.41    5.65 
  -3   9   2   14.80    3.25 
  -3  -9   2   22.20    7.38 
  -3   9   2   22.91    8.07 
  -5  -9   4   23.80    8.19 
  -5   9   4   14.35    6.40 
  -5  -9   4   11.68    4.82 
  -7  -9   6    7.65    6.19 
  -7   9   6    1.62    2.35 
  -9  -9   8    6.29    5.67 
  -9   9   8   -7.58    6.26 
 -11  -9  10    0.10    3.76 
 -11   9  10    6.80    7.83 
 -13   9  12   -7.73    7.35 
 -13  -9  12   -2.67    5.55 
 -15   9  14   -2.85    7.54 
 -15  -9  14    0.67    4.25 
  14  10 -15   52.07   22.39 
  12  10 -13   43.19   15.42 
  10  10 -11   38.71   14.44 
   8  10  -9   57.99   15.51 
   6  10  -7   51.20   13.46 
   6  10  -7   41.26   11.05 
   4  10  -5   20.79    7.84 
   0  10  -1   18.12    8.05 
  -2  10   1   32.59   11.16 
  -4 -10   3   59.71   12.78 
  -4  10   3   67.71   16.68 
  -4 -10   3   57.04   11.33 
  -6 -10   5    1.31    1.53 
  -6  10   5    0.74    2.99 
  -8 -10   7    1.50    2.19 
  -8  10   7    4.60    6.96 
 -10 -10   9   10.94    7.01 
 -10  10   9   -0.12    6.68 
 -12 -10  11   -2.78    5.63 
 -12  10  11   -3.66    5.09 
 -14  10  13    4.21    9.39 
 -14 -10  13    8.59    6.39 
 -16  10  15   -5.36    7.06 
  13  11 -14  107.97   27.10 
  11  11 -12  110.07   25.13 
   9  11 -10  104.11   23.15 
   7  11  -8  123.03   23.44 
   5  11  -6  278.37   35.20 
   1  11  -2   39.89   12.48 
  -1  11   0   59.74   15.74 
  -3 -11   2  105.81   18.41 
  -3 -11   2   82.92   15.11 
  -3  11   2   78.62   18.90 
  -5 -11   4    8.80    5.81 
  -5  11   4   10.60    8.52 
  -5 -11   4   21.72    7.40 
  -7 -11   6   27.62    9.04 
  -7  11   6   21.36   10.41 
  -9 -11   8    4.41    5.02 
  -9  11   8   -4.09    4.92 
 -11 -11  10   12.40    6.33 
 -11  11  10    7.05    5.34 
 -13 -11  12   15.11    8.30 
 -13  11  12   -1.79    9.09 
 -15  11  14    2.08   10.51 
  12  12 -13  123.62   29.13 
  10  12 -11  149.47   29.76 
   8  12  -9  103.69   23.55 
   6  12  -7  173.76   28.55 
   6  12  -7  161.66   25.48 
   4  12  -5  353.48   41.03 
   2  12  -3  105.75   22.69 
   0  12  -1   91.09   20.90 
  -2 -12   1   71.58   15.12 
  -2  12   1   71.20   18.15 
  -4 -12   3   80.22   17.04 
  -4  12   3   79.74   20.24 
  -4 -12   3   84.63   15.86 
  -6 -12   5   17.11    7.81 
  -6  12   5    4.08    5.74 
  -8 -12   7   -2.14    4.39 
  -8  12   7    5.86    7.54 
 -10 -12   9    4.79    4.49 
 -10  12   9    0.39    5.89 
 -12 -12  11    4.77    5.92 
 -12  12  11    7.26    7.76 
 -14  12  13   16.61   11.88 
 -14 -12  13   11.06    7.57 
  11  13 -12  235.84   41.06 
   9  13 -10  162.55   31.80 
   7  13  -8  106.91   23.12 
   5  13  -6  197.13   31.07 
   3  13  -4  385.22   43.96 
   3  13  -4  386.23   49.27 
   1  13  -2  158.07   29.42 
  -1 -13   0   69.95   16.30 
  -1  13   0  101.61   22.60 
  -3  13   2   46.36   15.45 
  -3 -13   2   60.89   14.55 
  -5 -13   4   17.15    8.14 
  -5  13   4    9.64    6.82 
  -7 -13   6    5.59    4.04 
  -7  13   6    3.32    5.07 
  -9 -13   8    1.48    2.56 
  -9  13   8   -0.37    7.50 
 -11 -13  10    0.75    3.13 
 -11  13  10    4.61    7.52 
 -13 -13  12   28.53   12.23 
 -13  13  12    0.69    2.14 
   8  14  -9   89.09   23.84 
   6  14  -7  163.64   29.73 
   4  14  -5   83.99   19.90 
   4  14  -5   82.00   21.78 
   2  14  -3  192.60   30.14 
   2  14  -3  185.39   33.83 
   0 -14  -1  102.47   20.85 
   0  14  -1   92.71   22.81 
  -2  14   1   56.09   17.11 
  -2 -14   1   57.45   14.78 
  -4  14   3    2.96    4.10 
  -6 -14   5   14.86    7.43 
  -6  14   5    8.82    7.26 
  -8 -14   7   -0.17    2.24 
  -8  14   7    4.85    2.49 
 -10 -14   9    1.27    2.60 
 -10  14   9   -6.49    7.01 
 -12 -14  11   15.12    8.78 
 -12  14  11   32.00   17.35 
   7  15  -8  112.19   26.21 
   5  15  -6   91.00   22.11 
   3  15  -4   57.18   18.89 
   3  15  -4   58.69   16.91 
   1  15  -2   84.84   22.84 
   1 -15  -2   75.90   19.31 
   1  15  -2  122.96   23.55 
  -1  15   0   45.55   16.66 
  -1 -15   0   46.64   14.18 
  -3  15   2    4.96    5.46 
  -5  15   4   12.18    8.66 
  -7 -15   6   18.78    9.84 
  -7  15   6    1.15    2.86 
  -9 -15   8    4.67    6.31 
  -9  15   8    4.53    7.68 
 -11 -15  10    6.17    4.78 
   4  16  -5   41.29   15.33 
   2 -16  -3   11.70    6.54 
   2  16  -3   18.76    9.36 
   0  16  -1   17.02    9.66 
   0  16  -1   25.14   12.88 
   0 -16  -1    1.42    2.00 
  -2  16   1    8.41    6.92 
  -2  16   1   -4.11    5.28 
  -4  16   3   11.53    8.28 
  -6  16   5   -3.63    5.10 
  -8 -16   7   -0.14    1.15 
  -8  16   7   -1.58    2.86 
 -10 -16   9    0.43    1.71 
   3 -17  -4   19.97   10.83 
   3  17  -4    2.94    4.97 
   1  17  -2    7.78    4.86 
  -1  17   0    1.68    3.09 
  -3  17   2    4.54    5.69 
  -5  17   4  -14.19   10.10 
  -7  17   6    8.68    8.18 
   0  18  -1   11.06    9.17 
  -4  18   3    9.67    8.60 
   4   0  -6   76.30    8.98 
   2   0  -4    5.17    2.30 
   2   0  -4    4.31    2.77 
   0   0  -2  275.05   21.98 
   0   0  -2  262.74   18.50 
  -4   0   2 1339.01   56.65 
  -4   0   2   27.03   23.46 
  -6   0   4  220.33   23.30 
  -6   0   4  200.39   18.30 
  -8   0   6  199.12   20.22 
  -8   0   6  167.86   24.04 
 -10   0   8 1800.60  118.86 
 -10   0   8 2018.19  107.93 
 -10   0   8 1955.20  133.43 
 -10   0   8 2136.23  154.99 
 -12   0  10  589.57   62.59 
 -12   0  10  626.76   42.66 
 -12   0  10  579.78   76.55 
 -12   0  10  690.97   54.09 
 -14   0  12  287.26   34.49 
 -14   0  12  305.93   57.56 
 -16   0  14  260.92   35.62 
 -16   0  14  280.99   59.14 
 -18   0  16  235.01   35.97 
 -18   0  16  207.87   56.46 
 -20   0  18  274.78   67.15 
 -22   0  20  106.40   43.53 
   5   1  -7    0.33    1.25 
   3   1  -5    1.09    2.25 
   3   1  -5    5.46    3.09 
   1  -1  -3   50.99    6.61 
   1   1  -3   49.55    6.92 
   1   1  -3   53.61    9.96 
  -1  -1  -1    0.00    1.54 
  -1   1  -1    0.00    2.50 
  -3   1   1    0.29    3.82 
  -3  -1   1    0.73    4.66 
  -5   1   3  309.66   27.77 
  -5  -1   3  448.40   39.60 
  -7  -1   5  234.68   21.64 
  -7   1   5  200.17   18.84 
  -7   1   5  212.06   24.87 
  -7  -1   5  200.31   31.63 
  -9   1   7 1350.63   82.49 
  -9   1   7 1104.04   90.20 
  -9  -1   7 1129.47  105.94 
  -9  -1   7 1498.18   86.78 
 -11  -1   9  508.44   41.61 
 -11   1   9  364.05   44.19 
 -11  -1   9  386.77   29.54 
 -11   1   9  366.49   35.60 
 -11  -1   9  511.40   65.49 
 -13  -1  11  402.23   41.70 
 -13   1  11  370.19   49.17 
 -13  -1  11  442.25   67.87 
 -13   1  11  411.39   40.04 
 -15  -1  13  363.96   41.07 
 -15   1  13  258.22   44.33 
 -15   1  13  355.47   67.00 
 -15  -1  13  269.73   56.17 
 -15   1  13  308.14   36.76 
 -17  -1  15  214.50   33.81 
 -17   1  15  209.93   32.24 
 -17  -1  15  342.93   67.13 
 -17   1  15  264.36   59.70 
 -19  -1  17  279.40   65.79 
 -19   1  17  209.60   58.52 
 -21  -1  19  226.42   59.03 
 -21   1  19   99.32   40.39 
   6   2  -8   -1.64    2.97 
   6   2  -8    0.53    0.53 
   4   2  -6   37.60    8.64 
   4   2  -6   33.03    8.05 
   2   2  -4    2.58    2.13 
   2   2  -4    1.10    2.30 
   2  -2  -4    2.53    1.36 
   2   2  -4    2.51    1.74 
   0   2  -2  895.21   52.13 
   0   2  -2  936.85   55.69 
  -2  -2   0  133.04   11.80 
  -2   2   0  149.38   11.23 
  -4   2   2  114.44   12.99 
  -4  -2   2  125.70   15.01 
  -6   2   4   99.61   10.48 
  -6  -2   4  103.84   13.36 
  -6  -2   4   88.36   17.83 
  -8  -2   6  339.61   30.79 
  -8   2   6  343.81   26.92 
  -8   2   6  320.61   34.43 
  -8  -2   6  292.77   41.33 
 -10   2   8  323.17   30.14 
 -10  -2   8  311.63   48.08 
 -10  -2   8  337.59   33.96 
 -12  -2  10  216.90   28.51 
 -12   2  10  213.79   25.31 
 -12  -2  10  155.20   36.75 
 -14   2  12  322.16   34.16 
 -14  -2  12  239.50   33.15 
 -14   2  12  255.68   40.68 
 -14  -2  12  240.88   49.80 
 -16   2  14  165.27   26.40 
 -16   2  14  195.88   37.78 
 -16  -2  14  201.50   48.53 
 -16  -2  14  149.94   27.31 
 -16   2  14  186.55   46.57 
 -18   2  16  274.36   37.91 
 -18  -2  16  254.40   39.10 
 -18  -2  16  250.12   58.81 
 -18   2  16  280.58   65.86 
 -20  -2  18  140.29   45.97 
 -20   2  18  142.71   48.50 
   9   3 -11   29.08   10.88 
   7   3  -9   48.29    7.70 
   7   3  -9   46.03   11.34 
   5   3  -7   11.08    5.21 
   5   3  -7   13.07    5.81 
   3   3  -5   13.58    5.71 
   1   3  -3 1736.85   96.07 
   1   3  -3 1556.56   94.48 
  -1   3  -1  984.82   55.14 
  -1  -3  -1  871.36   53.76 
  -1   3  -1  894.20   52.38 
  -1   3  -1  904.24   54.88 
  -3   3   1   43.13    5.20 
  -3  -3   1   40.83    6.89 
  -3   3   1   34.63    6.30 
  -5   3   3  451.00   35.68 
  -5  -3   3  447.38   37.66 
  -7   3   5  116.44   11.61 
  -7  -3   5  122.87   16.12 
  -7   3   5  101.35   16.61 
  -7  -3   5  122.26   21.35 
  -9  -3   7   32.67    9.10 
  -9   3   7   34.97    7.10 
  -9   3   7   29.98   10.22 
  -9  -3   7   31.78   12.43 
 -11  -3   9  124.50   20.05 
 -11   3   9   89.62   14.22 
 -11   3   9  104.07   21.61 
 -11  -3   9   96.30   26.32 
 -13   3  11  114.53   17.90 
 -13   3  11   92.69   22.73 
 -13  -3  11  108.12   20.16 
 -13  -3  11   77.95   24.53 
 -15  -3  13  123.10   24.38 
 -15   3  13  148.40   23.03 
 -15  -3  13  158.66   40.13 
 -15   3  13  125.88   29.63 
 -17   3  15   60.46   16.03 
 -17  -3  15   88.17   21.63 
 -17   3  15   67.04   23.06 
 -17  -3  15   82.65   29.63 
 -19   3  17   51.60   22.20 
 -19  -3  17   30.73   20.11 
 -19   3  17   60.30   30.46 
 -21  -3  19   36.67   21.20 
 -21   3  19   22.80   19.72 
  10   4 -12   13.46    8.69 
   8   4 -10    0.73    3.35 
   8   4 -10   -1.50    2.47 
   6   4  -8   35.85    9.60 
   6   4  -8   26.29    8.19 
   4   4  -6   20.42    7.34 
   2   4  -4   58.98    9.56 
   2   4  -4   63.03    9.63 
   0   4  -2  320.83   24.64 
  -2   4   0   31.68    6.48 
  -2   4   0   36.40    5.30 
  -2  -4   0   46.13    7.40 
  -4   4   2  223.37   21.35 
  -4  -4   2  193.16   19.66 
  -6   4   4  104.68   16.14 
  -6  -4   4  115.73   17.43 
  -8   4   6    7.83    2.81 
  -8  -4   6    1.88    1.18 
  -8   4   6   10.43    5.57 
  -8  -4   6    6.26    3.69 
 -10   4   8   13.12    4.37 
 -10   4   8    3.39    1.83 
 -10  -4   8   16.45    9.29 
 -10  -4   8   16.40    7.13 
 -12  -4  10   10.53    6.37 
 -12   4  10    2.50    2.29 
 -12  -4  10    2.72    4.42 
 -12   4  10    2.32    3.04 
 -14   4  12   21.45    7.93 
 -14  -4  12   11.45    7.36 
 -14   4  12    8.05    7.60 
 -14  -4  12   19.62   13.45 
 -16   4  14   22.28    9.37 
 -16  -4  14   20.32    9.86 
 -16  -4  14    7.33    8.18 
 -16   4  14   -6.54    6.93 
 -18   4  16   10.95   11.60 
 -18  -4  16   14.01   10.57 
 -20   4  18    4.46    5.75 
 -20  -4  18   15.62   13.44 
 -20   4  18    0.97    4.56 
  11   5 -13   30.67   12.54 
   9   5 -11   -0.11    3.75 
   7   5  -9   -1.85    2.01 
   7   5  -9    0.58    1.89 
   5   5  -7    0.57    3.66 
   3   5  -5    9.98    4.23 
  -1   5  -1  113.69   12.67 
  -1  -5  -1  126.03   14.18 
  -1   5  -1  115.94   14.40 
  -3   5   1    2.92    1.30 
  -3  -5   1    2.71    1.23 
  -3   5   1    3.30    2.21 
  -5  -5   3    3.06    1.31 
  -5   5   3   -0.23    1.11 
  -7   5   5  116.78   18.92 
  -7  -5   5  111.78   18.27 
  -9  -5   7    5.56    4.39 
  -9   5   7    3.25    5.52 
  -9  -5   7   -9.45    6.04 
 -11   5   9   10.03    4.32 
 -11  -5   9   16.13    7.51 
 -11   5   9   17.98    8.79 
 -11  -5   9   14.89    6.38 
 -13   5  11    2.16    1.83 
 -13  -5  11    1.50    2.19 
 -13   5  11    3.65    1.95 
 -13  -5  11   10.70    9.82 
 -15   5  13   24.04    8.15 
 -15  -5  13   14.57    8.71 
 -15   5  13   13.51    8.60 
 -15  -5  13   15.49   11.00 
 -17   5  15   12.34    8.73 
 -17  -5  15    1.03    8.59 
 -19   5  17    8.92   11.81 
 -19  -5  17   19.63   14.02 
  12   6 -14    4.13    5.21 
  10   6 -12   42.34   13.80 
   8   6 -10   16.99    7.20 
   8   6 -10   25.48    8.36 
   6   6  -8    4.40    4.59 
   6   6  -8    4.77    2.60 
   4   6  -6    5.56    3.22 
  -2  -6   0  195.89   19.92 
  -2   6   0  174.42   15.93 
  -2   6   0  194.59   21.25 
  -4  -6   2   67.63   11.42 
  -4   6   2   53.27   11.17 
  -6   6   4  159.25   22.22 
  -6  -6   4  169.14   21.04 
  -6  -6   4  157.23   13.59 
  -8  -6   6  210.37   27.28 
  -8   6   6  210.38   28.77 
 -10  -6   8   46.10   12.99 
 -10   6   8   39.89   12.77 
 -10  -6   8   41.84   13.50 
 -12  -6  10   86.77   19.31 
 -12   6  10   89.23   22.02 
 -12  -6  10  100.81   23.40 
 -14  -6  12   95.86   21.80 
 -14   6  12   86.04   23.76 
 -14  -6  12  100.78   26.84 
 -16   6  14  107.18   29.49 
 -16  -6  14   54.04   20.96 
 -18   6  16  104.18   30.54 
 -18  -6  16   35.20   16.91 
  13   7 -15   12.68   10.11 
  11   7 -13   10.14    6.56 
   9   7 -11    6.31    4.07 
   7   7  -9   95.13   18.89 
   7   7  -9   95.75   18.63 
   5   7  -7    9.13    4.50 
   5   7  -7    4.48    3.12 
   3   7  -5   -0.23    1.05 
   1   7  -3   30.79    7.72 
  -1   7  -1  173.89   21.42 
  -3   7   1  136.30   12.29 
  -3  -7   1  141.97   17.69 
  -3   7   1  113.15   17.50 
  -5  -7   3  175.61   21.27 
  -5   7   3  174.05   23.36 
  -7  -7   5  368.51   36.85 
  -7   7   5  389.21   40.47 
  -9   7   7  242.00   33.72 
  -9  -7   7  245.64   31.60 
 -11   7   9  309.15   41.56 
 -11  -7   9  256.69   35.96 
 -13   7  11  179.72   33.23 
 -13  -7  11  127.34   27.05 
 -15   7  13  188.84   36.21 
 -15  -7  13  160.92   34.14 
 -17  -7  15  203.97   41.21 
 -17   7  15  216.08   43.18 
 -19  -7  17   54.58   22.63 
  14   8 -16   65.74   21.59 
  12   8 -14   42.95   15.54 
  10   8 -12    7.63    5.86 
   8   8 -10    4.83    4.52 
   6   8  -8   75.61   16.34 
   6   8  -8   42.19   11.14 
   4   8  -6    2.79    3.85 
   4   8  -6    0.19    2.33 
   2   8  -4   42.27   10.24 
   0   8  -2   96.31   16.52 
  -2   8   0  174.71   22.99 
  -2  -8   0  171.07   21.03 
  -4   8   2  144.15   21.84 
  -4  -8   2  159.13   20.44 
  -6   8   4  243.29   31.59 
  -6  -8   4  321.61   32.20 
  -6  -8   4  284.41   23.79 
  -8   8   6  377.34   43.17 
  -8  -8   6  420.56   41.12 
 -10   8   8  328.99   42.35 
 -10  -8   8  285.86   36.30 
 -12   8  10  246.63   38.65 
 -12  -8  10  186.37   30.81 
 -14   8  12  211.26   38.77 
 -14  -8  12  212.76   36.52 
 -16  -8  14  196.54   37.58 
 -16   8  14  163.35   36.88 
 -18   8  16  135.28   35.22 
 -18  -8  16  149.88   34.65 
  15   9 -17   37.04   16.41 
  13   9 -15   55.23   18.57 
  11   9 -13   84.92   21.95 
   9   9 -11    4.72    3.74 
   7   9  -9   16.65    7.84 
   5   9  -7   62.00   13.52 
   5   9  -7   61.28   14.48 
   3   9  -5   10.53    5.27 
   1   9  -3  123.47   18.68 
  -1   9  -1  284.43   32.44 
  -3   9   1   53.90    7.93 
  -3  -9   1   52.18   11.45 
  -3   9   1   53.41   13.16 
  -5  -9   3  167.83   22.72 
  -5  -9   3  172.28   18.79 
  -5   9   3  172.66   25.65 
  -7   9   5  295.57   37.46 
  -7  -9   5  356.99   36.21 
  -7  -9   5  314.97   27.43 
  -9   9   7  195.94   31.28 
  -9  -9   7  170.15   25.84 
 -11   9   9  337.27   47.34 
 -11  -9   9  387.14   44.02 
 -13   9  11  227.83   40.07 
 -13  -9  11  262.85   38.47 
 -15  -9  13  177.41   33.51 
 -15   9  13  190.77   39.52 
 -17   9  15  180.65   40.59 
 -17  -9  15  214.14   39.63 
  12  10 -14   50.32   17.79 
  10  10 -12   15.35    7.09 
   8  10 -10  -13.43    7.86 
   6  10  -8   -1.77    2.29 
   6  10  -8   -6.42    4.53 
   4  10  -6   -0.83    3.91 
   4  10  -6    3.82    2.98 
   2  10  -4   11.26    5.74 
   0  10  -2  111.66   20.31 
  -2  10   0  105.60   19.89 
  -4 -10   2   74.73   14.64 
  -4  10   2   68.11   16.04 
  -6  10   4  117.67   22.08 
  -6 -10   4  117.19   15.97 
  -6 -10   4  141.21   21.62 
  -8  10   6  158.72   28.23 
  -8 -10   6  176.71   25.73 
 -10  10   8  343.79   47.11 
 -10 -10   8  416.40   44.68 
 -12  10  10  185.99   35.64 
 -12 -10  10  261.17   36.49 
 -14 -10  12  161.56   30.01 
 -14  10  12  115.12   29.44 
 -16  10  14  157.11   37.20 
 -16 -10  14  154.83   31.14 
  11  11 -13   26.48   13.48 
   9  11 -11   -2.85    6.63 
   7  11  -9   -3.05    3.15 
   5  11  -7    1.86    2.85 
   5  11  -7    1.63    1.51 
   3  11  -5    4.78    4.46 
   1  11  -3    1.47    3.46 
   1  11  -3    0.33    2.18 
  -1  11  -1   32.40   10.67 
  -3  11   1   55.34   14.90 
  -5 -11   3   39.32   11.26 
  -5  11   3   31.05   11.10 
  -5 -11   3   40.11    9.73 
  -7 -11   5  133.76   22.28 
  -7  11   5  100.90   22.32 
  -9 -11   7  152.35   25.22 
  -9  11   7  123.94   26.15 
 -11 -11   9  158.76   26.82 
 -11  11   9  106.74   26.34 
 -13 -11  11  158.14   29.10 
 -13  11  11  146.23   33.27 
 -15 -11  13   69.91   20.37 
 -15  11  13   53.81   21.65 
  10  12 -12    0.57    1.92 
   8  12 -10   -0.45    4.80 
   6  12  -8   -1.30    3.43 
   4  12  -6    3.61    4.13 
   4  12  -6   -0.35    3.65 
   2  12  -4    0.23    4.67 
   2  12  -4    1.83    3.93 
   0  12  -2    1.04    1.28 
   0  12  -2   -6.38    5.18 
  -2  12   0    8.50    6.80 
  -4 -12   2   23.12    7.77 
  -4 -12   2   22.32    9.48 
  -4  12   2   16.53    8.16 
  -6 -12   4   27.44   10.34 
  -6  12   4   36.69   13.72 
  -8 -12   6   60.00   15.49 
  -8  12   6   36.27   13.78 
 -10 -12   8   83.23   19.21 
 -10  12   8   66.33   20.44 
 -12 -12  10   35.36   13.23 
 -12  12  10   20.78   12.32 
 -14 -12  12   18.68   10.24 
 -14  12  12   21.15   13.83 
 -16 -12  14   26.67   11.74 
   9  13 -11   -2.23    7.67 
   7  13  -9   -3.26    4.32 
   5  13  -7    9.67    8.24 
   3  13  -5   -3.73    5.98 
   3  13  -5    7.58    6.73 
   1  13  -3    1.20    3.61 
   1  13  -3    1.40    3.66 
  -1  13  -1   -0.41    3.03 
  -1  13  -1   -1.18    1.89 
  -3 -13   1    1.87    2.19 
  -3  13   1    5.59    5.75 
  -5 -13   3    8.34    6.00 
  -5  13   3   11.63    8.27 
  -7 -13   5    8.40    5.89 
  -7  13   5    7.26    5.39 
  -9 -13   7    4.54    2.75 
  -9  13   7   -0.02    3.48 
 -11 -13   9    3.84    4.49 
 -11  13   9   14.42   10.59 
 -13 -13  11    2.77    3.14 
 -13  13  11    5.26    6.51 
 -15 -13  13   13.05    9.15 
   8  14 -10   -3.43    5.11 
   6  14  -8    0.20    1.76 
   4  14  -6    0.22    2.90 
   4  14  -6    1.12    4.39 
   2  14  -4   15.84    9.43 
   2  14  -4   11.59    7.95 
   0  14  -2    0.61    2.75 
   0  14  -2    3.27    3.14 
  -2 -14   0    0.81    2.54 
  -2  14   0   -7.15    5.08 
  -2  14   0    5.82    7.77 
  -4  14   2   45.42   12.50 
  -4  14   2   75.98   20.45 
  -6 -14   4    9.00    6.69 
  -6  14   4   -0.36    2.92 
  -8 -14   6    5.06    5.73 
  -8  14   6   -8.89    7.39 
 -10  14   8   10.91    9.22 
 -10 -14   8   14.47    8.68 
 -12 -14  10   25.20   11.07 
 -12  14  10   24.91   14.54 
 -14 -14  12    6.66    4.02 
   5  15  -7    0.25    3.72 
   3  15  -5   -6.09    7.02 
   1  15  -3   18.16    9.65 
  -1 -15  -1    1.29    2.51 
  -1  15  -1    4.38    5.96 
  -1  15  -1  -10.10    7.36 
  -3  15   1   31.28   11.45 
  -3  15   1   43.33   16.50 
  -5  15   3   32.47   13.93 
  -7 -15   5   39.64   13.58 
  -7  15   5   33.21   14.80 
  -9 -15   7   33.16   12.91 
  -9  15   7   18.85   10.82 
 -11 -15   9   50.46   16.20 
 -11  15   9   25.19   12.80 
 -13 -15  11   32.89   13.92 
   4  16  -6    7.53    6.10 
   2  16  -4    3.97    3.85 
   0 -16  -2   40.92   15.19 
   0  16  -2   14.90    7.40 
  -2  16   0   19.25    9.85 
  -2  16   0    9.42    6.75 
  -4  16   2   30.01   13.56 
  -6  16   4   40.09   16.38 
  -8 -16   6   66.01   18.09 
  -8  16   6   50.91   19.29 
 -10 -16   8   41.23   15.19 
 -10  16   8   67.83   22.93 
   1 -17  -3    3.18    5.31 
   1  17  -3   10.18    7.37 
  -1  17  -1    5.72    2.54 
  -5  17   3   33.99   15.16 
  -7  17   5   28.64   14.05 
   2 -18  -4    7.74    2.18 
   4   0  -7   -1.56    1.30 
   2   0  -5    1.89    1.90 
   0   0  -3    2.34    1.87 
   0   0  -3    4.28    2.80 
  -2   0  -1   -0.86    2.09 
  -4   0   1    7.03    3.16 
  -4   0   1    2.52    2.17 
  -6   0   3    1.41    0.95 
  -6   0   3    2.54    4.06 
  -8   0   5    2.39    2.95 
 -10   0   7    1.46    2.52 
 -10   0   7   -6.68    8.92 
 -12   0   9   -1.25    2.88 
 -12   0   9    1.67    1.12 
 -12   0   9    7.24   13.94 
 -14   0  11    0.57    1.07 
 -14   0  11  -15.30   12.10 
 -16   0  13   -4.41    4.11 
 -16   0  13  -34.71   19.78 
 -18   0  15    5.28    7.15 
 -20   0  17    6.37   14.67 
 -22   0  19    2.63    4.55 
   5   1  -8  116.18   13.43 
   3   1  -6   69.28   10.98 
   1   1  -4   11.29    5.03 
   1  -1  -4   16.95    4.43 
   1   1  -4   13.90    3.86 
  -1  -1  -2  132.96   12.99 
  -1   1  -2   97.50   15.77 
  -3  -1   0   79.82    8.99 
  -3   1   0   93.56   11.29 
  -5   1   2  824.72   52.90 
  -5  -1   2  861.43   51.82 
  -5   1   2  870.75   49.80 
  -7   1   4  321.60   29.49 
  -7  -1   4  215.46   32.41 
  -9   1   6  702.34   55.64 
  -9  -1   6  536.53   63.17 
 -11   1   8   22.31    6.51 
 -11  -1   8    9.26    5.14 
 -11  -1   8   13.37    6.97 
 -13   1  10  111.64   18.11 
 -13  -1  10   92.88   17.38 
 -13   1  10  117.44   24.51 
 -13  -1  10   73.39   25.04 
 -15   1  12   24.73    8.66 
 -15  -1  12   40.34   11.94 
 -15   1  12   44.88   16.47 
 -15  -1  12   57.65   25.17 
 -15   1  12   54.91   23.61 
 -17  -1  14   13.76   14.48 
 -17   1  14   28.99   19.42 
 -19  -1  16  -25.03   18.51 
 -19   1  16   36.06   24.62 
 -21  -1  18   10.55   19.06 
 -21   1  18   14.11   12.58 
   6   2  -9  256.17   22.65 
   4   2  -7  331.56   34.89 
   4   2  -7  445.40   35.79 
   2   2  -5  132.14   14.94 
   2   2  -5  108.27   17.96 
   0   2  -3 1254.48   70.50 
   0   2  -3 1279.95   82.06 
   0   2  -3 1225.45   73.68 
  -2  -2  -1 1161.16   67.05 
  -2   2  -1 1046.22   69.59 
  -2  -2  -1 1261.72   66.29 
  -2   2  -1 1131.32   70.00 
  -4  -2   1  345.65   22.63 
  -4   2   1  286.69   23.53 
  -6   2   3 1112.54   72.74 
  -6  -2   3 1217.90   82.27 
  -8   2   5  728.58   53.01 
  -8  -2   5  483.87   56.19 
 -10  -2   7  365.18   34.57 
 -10   2   7  372.18   40.16 
 -10  -2   7  396.38   51.71 
 -12   2   9  445.81   38.61 
 -12   2   9  530.28   53.03 
 -12  -2   9  380.67   39.97 
 -12  -2   9  544.56   67.78 
 -14   2  11  236.28   27.91 
 -14  -2  11  216.69   29.92 
 -14   2  11  236.85   37.74 
 -14  -2  11  184.93   42.52 
 -16  -2  13  142.01   25.33 
 -16   2  13  142.97   31.30 
 -16  -2  13  106.34   34.39 
 -18  -2  15   42.11   19.64 
 -18   2  15   52.53   26.91 
 -20  -2  17   28.64   19.93 
 -20   2  17   46.33   30.61 
 -22  -2  19  -17.76   16.21 
 -22   2  19   13.97   16.55 
   7   3 -10  488.93   36.39 
   5   3  -8  441.98   43.32 
   5   3  -8  522.72   42.46 
   3   3  -6  918.52   70.87 
   1   3  -4 1465.78   83.47 
   1   3  -4 1348.92   87.79 
   1   3  -4 1425.12   90.55 
  -1   3  -2  506.54   38.64 
  -1   3  -2  561.22   34.09 
  -1   3  -2  591.67   40.63 
  -3   3   0  536.14   35.31 
  -3   3   0  537.42   34.11 
  -3  -3   0  571.18   36.69 
  -5   3   2  793.92   46.61 
  -5  -3   2  725.22   54.03 
  -7   3   4  939.14   67.25 
  -7  -3   4 1034.80   75.40 
  -9   3   6 1300.37   88.07 
  -9  -3   6 1095.75   95.03 
 -11  -3   8  801.43   62.47 
 -11   3   8  811.28   68.68 
 -11  -3   8  737.50   79.06 
 -13   3  10  378.87   33.75 
 -13  -3  10  288.52   35.49 
 -13   3  10  296.43   41.09 
 -13  -3  10  310.82   52.99 
 -15  -3  12  407.68   45.10 
 -15   3  12  450.08   54.84 
 -15  -3  12  275.95   54.83 
 -17   3  14  145.90   32.28 
 -17  -3  14  155.32   43.47 
 -19   3  16   65.79   24.02 
 -19  -3  16   56.13   26.92 
 -19   3  16   92.16   36.21 
 -21  -3  18   31.73   20.08 
 -21   3  18   23.66   19.76 
   8   4 -11  196.72   30.16 
   8   4 -11  240.23   21.58 
   6   4  -9  417.88   43.55 
   6   4  -9  494.97   42.33 
   4   4  -7  793.71   66.18 
   2   4  -5 1300.52   85.51 
   0   4  -3  942.68   64.54 
   0   4  -3 1061.48   62.18 
  -2   4  -1 1933.52  101.10 
  -2  -4  -1 1869.00  100.71 
  -2   4  -1 1777.04  100.58 
  -4   4   1  801.43   49.36 
  -4   4   1  822.96   52.96 
  -4  -4   1  870.85   54.55 
  -6   4   3 1082.19   59.44 
  -6   4   3 1021.43   70.30 
  -6  -4   3 1066.08   72.19 
  -8  -4   5 1444.23  104.86 
  -8   4   5 1605.97  102.12 
 -10   4   7 1142.64   77.82 
 -10  -4   7  666.93   72.56 
 -12   4   9  737.19   63.73 
 -12  -4   9  416.45   58.69 
 -14   4  11  355.51   47.00 
 -14  -4  11  287.70   50.75 
 -16   4  13  206.65   38.23 
 -16  -4  13  186.48   43.12 
 -18   4  15  149.39   34.20 
 -18  -4  15  152.81   41.22 
 -20   4  17   80.81   27.81 
 -20  -4  17   51.83   24.07 
 -20   4  17   45.43   23.46 
 -22  -4  19   14.79    8.02 
   9   5 -12  599.99   60.20 
   7   5 -10  124.98   22.21 
   7   5 -10  145.87   20.57 
   5   5  -8  456.44   43.02 
   5   5  -8  399.08   44.31 
   3   5  -6  448.42   40.41 
   1   5  -4 1844.84  111.27 
  -1   5  -2 1317.57   80.88 
  -3   5   0  695.35   47.52 
  -3   5   0  766.49   47.68 
  -3   5   0  837.72   51.02 
  -3  -5   0  702.33   49.80 
  -5   5   2 1117.07   67.92 
  -5  -5   2 1159.96   75.59 
  -7   5   4 1474.66   65.22 
  -7   5   4 1416.68   83.05 
  -7  -5   4 1486.93   84.57 
  -9   5   6  985.19   74.52 
  -9  -5   6  915.46   75.56 
 -11   5   8  554.35   53.92 
 -11  -5   8  449.47   54.14 
 -13   5  10  463.68   51.81 
 -13  -5  10  300.10   48.25 
 -15   5  12  244.46   40.17 
 -15  -5  12  208.78   41.83 
 -17   5  14  182.01   37.03 
 -17  -5  14  136.82   35.84 
 -19   5  16   86.43   27.65 
 -19  -5  16   58.84   24.94 
 -21  -5  18   16.69    9.86 
 -21   5  18   10.90   19.33 
  10   6 -13   94.73   21.92 
   8   6 -11  237.05   33.65 
   6   6  -9  150.52   23.67 
   6   6  -9  147.18   25.64 
   4   6  -7  235.12   28.38 
   2   6  -5 1435.31   91.80 
   0   6  -3  322.94   29.57 
  -2   6  -1  352.39   29.47 
  -2  -6  -1  354.05   30.45 
  -2   6  -1  374.08   30.75 
  -4   6   1 1056.97   63.51 
  -4  -6   1 1047.79   68.26 
  -4   6   1  971.62   67.90 
  -6   6   3 1550.92   96.18 
  -6  -6   3 1390.19   93.15 
  -8   6   5  479.09   30.31 
  -8   6   5  443.79   44.49 
 -10   6   7  397.08   44.30 
 -10  -6   7  430.69   45.96 
 -12   6   9  326.71   42.46 
 -12  -6   9  322.41   44.22 
 -14  -6  11  153.05   31.88 
 -14   6  11  131.96   28.88 
 -16   6  13  125.66   29.20 
 -16  -6  13  103.17   28.84 
 -18   6  15   23.71   12.44 
 -18  -6  15   57.06   22.83 
 -20  -6  17   29.33   16.75 
 -20   6  17   40.59   19.45 
  11   7 -14   45.54   15.78 
   9   7 -12   45.37   14.07 
   7   7 -10   31.56   11.14 
   5   7  -8  100.92   19.34 
   5   7  -8  140.51   22.35 
   3   7  -6  401.16   39.70 
   3   7  -6  443.20   39.54 
   1   7  -4  196.84   22.82 
   1   7  -4  144.54   19.50 
  -1   7  -2  263.44   27.16 
  -1   7  -2  349.90   30.54 
  -3   7   0  372.57   31.29 
  -3   7   0  393.21   29.81 
  -3  -7   0  426.87   35.05 
  -3   7   0  386.38   34.49 
  -5   7   2  811.53   58.23 
  -5  -7   2  704.76   54.90 
  -7   7   4  203.73   26.95 
  -7  -7   4  243.23   27.40 
  -7  -7   4  222.53   17.77 
  -9   7   6  145.05   12.10 
  -9   7   6  145.68   24.49 
  -9  -7   6  125.69   21.27 
 -11  -7   8  105.16   21.56 
 -11   7   8  101.97   21.54 
 -13   7  10  103.85   24.70 
 -13  -7  10  126.39   26.46 
 -15   7  12   69.89   21.54 
 -15  -7  12   92.92   24.57 
 -17   7  14   32.02   19.45 
 -17  -7  14   19.22   10.22 
 -19   7  16   42.68   19.47 
 -19  -7  16   44.18   20.56 
  12   8 -15    2.17    4.53 
  10   8 -13    9.26    7.23 
   8   8 -11    1.21    4.15 
   6   8  -9    8.16    6.35 
   6   8  -9    6.93    5.47 
   4   8  -7  215.54   28.40 
   4   8  -7  190.66   25.50 
   2   8  -5   16.87    6.29 
   2   8  -5   23.57    7.74 
   0   8  -3   32.42    8.66 
  -2   8  -1   86.48   13.92 
  -2   8  -1  125.71   17.77 
  -4   8   1  134.43   14.08 
  -4  -8   1  130.10   18.58 
  -4   8   1  158.24   21.21 
  -6  -8   3   11.90    5.52 
  -6   8   3   10.85    4.83 
  -8  -8   5    1.42    2.54 
  -8   8   5    0.70    1.29 
  -8  -8   5    0.82    1.13 
 -10   8   7   13.77    3.20 
 -10  -8   7   14.36    7.60 
 -10   8   7   15.47    7.46 
 -12  -8   9   32.43   11.93 
 -12   8   9   28.47   12.49 
 -14   8  11   20.77   10.15 
 -14  -8  11   17.14    9.17 
 -16   8  13    4.94    7.87 
 -16  -8  13   23.00   12.13 
 -18   8  15    9.10   11.03 
 -18  -8  15    5.60    6.64 
 -20  -8  17   -5.68    6.92 
  13   9 -16    4.32    5.81 
  11   9 -14    5.83    6.68 
   9   9 -12    3.38    2.21 
   7   9 -10   13.59    8.62 
   5   9  -8    7.77    4.89 
   5   9  -8    5.85    4.74 
   3   9  -6   20.00    8.59 
   3   9  -6    8.30    5.07 
   1   9  -4    0.07    2.09 
  -1   9  -2   15.92    6.84 
  -1   9  -2   14.69    5.75 
  -3   9   0   10.96    4.85 
  -3  -9   0    8.76    5.00 
  -3   9   0    2.88    4.30 
  -5  -9   2    1.63    1.24 
  -5   9   2    5.50    4.90 
  -7  -9   4   34.42   10.16 
  -7   9   4   28.77    9.94 
  -7  -9   4   20.98    5.49 
  -9  -9   6    4.36    2.08 
  -9   9   6    2.51    4.98 
 -11  -9   8   36.37   12.05 
 -11   9   8   24.97   11.61 
 -13  -9  10    5.08    6.62 
 -13   9  10    7.39    6.57 
 -15   9  12   -1.85    3.84 
 -15  -9  12    1.05    2.79 
 -17   9  14   -3.67    5.65 
 -17  -9  14  -13.45    9.36 
 -19  -9  16   -7.64    7.48 
  12  10 -15   24.74   14.15 
  10  10 -13   14.73   11.02 
   8  10 -11   27.02   13.00 
   6  10  -9   60.24   16.61 
   4  10  -7  208.98   28.41 
   4  10  -7  201.41   29.79 
   2  10  -5   34.43   10.58 
   2  10  -5   46.70   12.71 
   0  10  -3   47.41   11.69 
   0  10  -3   27.07    9.34 
  -2  10  -1   46.77   12.11 
  -2  10  -1   56.85   12.44 
  -4  10   1  196.77   22.52 
  -4 -10   1  167.95   23.87 
  -4  10   1  191.64   26.62 
  -6 -10   3   84.96   16.63 
  -6  10   3   79.29   17.44 
  -8 -10   5  112.35   20.22 
  -8  10   5   96.51   20.65 
 -10 -10   7   85.48   18.49 
 -10  10   7   49.35   15.11 
 -12 -10   9   49.24   14.99 
 -12  10   9   66.19   19.28 
 -14  10  11   66.26   20.71 
 -14 -10  11   75.33   19.94 
 -16  10  13   25.10   14.44 
 -16 -10  13   11.12    8.67 
 -18 -10  15   20.40   11.82 
  11  11 -14   71.48   23.03 
   9  11 -12   42.68   15.98 
   7  11 -10   77.76   20.16 
   5  11  -8  136.60   25.70 
   5  11  -8  120.20   22.42 
   3  11  -6  332.12   39.76 
   3  11  -6  362.15   40.00 
   1  11  -4  177.55   25.89 
   1  11  -4  184.70   27.65 
  -1  11  -2  124.28   19.90 
  -1  11  -2  119.06   21.28 
  -3  11   0  244.31   27.34 
  -3  11   0  194.09   28.74 
  -5  11   2  362.97   34.73 
  -5 -11   2  420.48   42.01 
  -5  11   2  394.29   43.53 
  -7  11   4  223.05   23.32 
  -7  11   4  187.94   29.85 
  -7 -11   4  190.51   27.66 
  -9 -11   6  179.90   27.58 
  -9  11   6  135.03   26.94 
 -11 -11   8  121.37   23.84 
 -11  11   8  104.86   25.11 
 -13 -11  10  135.35   26.45 
 -13  11  10   96.24   25.94 
 -15  11  12   66.62   22.04 
 -15 -11  12   60.30   18.04 
 -17  11  14   36.42   18.86 
 -17 -11  14   45.94   17.29 
  10  12 -13   77.15   22.98 
   8  12 -11   97.43   23.64 
   6  12  -9   99.08   22.89 
   4  12  -7  135.57   25.35 
   4  12  -7  162.64   26.94 
   2  12  -5  316.28   39.79 
   2  12  -5  436.77   46.61 
   0  12  -3  440.62   43.88 
   0  12  -3  352.03   42.41 
  -2  12  -1  318.08   34.23 
  -2  12  -1  232.51   33.22 
  -4  12   1  284.53   31.93 
  -4  12   1  310.01   38.73 
  -6  12   3  420.92   37.59 
  -6  12   3  367.67   44.82 
  -6 -12   3  373.50   41.75 
  -8  12   5  301.98   40.90 
  -8 -12   5  260.93   34.83 
 -10  12   7  192.84   35.14 
 -10 -12   7  270.26   36.15 
 -12 -12   9  178.24   30.51 
 -12  12   9  159.68   33.37 
 -14 -12  11   87.84   22.22 
 -14  12  11   83.45   25.34 
 -16 -12  13   67.84   21.23 
 -16  12  13   89.69   27.91 
   7  13 -10   95.18   24.17 
   5  13  -8  146.96   28.48 
   3  13  -6  129.11   25.29 
   3  13  -6  151.39   26.07 
   1  13  -4  358.08   41.44 
   1  13  -4  310.00   40.83 
  -1  13  -2  304.83   36.93 
  -1  13  -2  308.50   39.53 
  -3  13   0  397.25   41.19 
  -3  13   0  407.55   47.43 
  -5  13   2  289.71   32.26 
  -5  13   2  274.96   38.43 
  -7  13   4  405.62   49.10 
  -7 -13   4  347.30   42.17 
  -9  13   6  280.78   42.45 
  -9 -13   6  299.03   39.09 
 -11 -13   8  148.63   27.60 
 -11  13   8  122.96   28.92 
 -13 -13  10  120.42   25.80 
 -13  13  10   87.51   25.96 
 -15 -13  12   94.08   23.80 
 -15  13  12   90.25   28.10 
   6  14  -9  115.58   27.13 
   4  14  -7  112.52   24.38 
   2  14  -5  207.09   32.59 
   0  14  -3  252.35   36.06 
   0  14  -3  339.90   42.84 
  -2  14  -1  289.31   36.28 
  -2  14  -1  316.51   41.72 
  -4  14   1  217.28   29.62 
  -4  14   1  223.39   35.13 
  -6  14   3  176.88   32.21 
  -6 -14   3  251.60   34.67 
  -8  14   5  172.55   33.00 
  -8 -14   5  233.44   34.78 
 -10 -14   7  135.35   26.23 
 -10  14   7  140.63   30.76 
 -12 -14   9  128.07   26.72 
 -12  14   9   99.30   27.17 
 -14 -14  11   96.96   24.12 
 -14  14  11   67.24   24.16 
   5  15  -8   66.81   20.92 
   3  15  -6   95.86   23.25 
   1  15  -4  155.90   28.64 
  -1  15  -2  175.79   28.92 
  -3  15   0  127.14   23.40 
  -3  15   0  171.74   30.74 
  -5  15   2   96.76   23.42 
  -7 -15   4   78.67   19.74 
  -7  15   4   93.69   23.59 
  -9 -15   6  124.78   25.49 
  -9  15   6   75.15   22.19 
 -11 -15   8  107.39   24.71 
 -11  15   8  106.78   27.86 
 -13 -15  10   49.40   17.16 
   2  16  -5   26.60   11.98 
   2  16  -5   33.47   14.07 
   0  16  -3   60.98   17.94 
  -2  16  -1   81.00   20.16 
  -6  16   3   22.52    9.76 
  -8  16   5   55.15   19.20 
 -10 -16   7   16.67    9.55 
 -10  16   7   30.00   13.41 
   1  17  -4   15.63    9.53 
  -1  17  -2    4.60    4.06 
  -7  17   4   12.41    9.14 
  -9  17   6   10.01   10.11 
   4   0  -8 1434.33   86.71 
   2   0  -6 1348.60   83.54 
   0   0  -4 1564.25   94.28 
   0   0  -4 1443.03   86.60 
  -2   0  -2  243.77   27.17 
  -4   0   0 1000.66   59.78 
  -4   0   0  823.17   64.96 
  -6   0   2 1547.75   93.68 
  -6   0   2 1545.31  102.95 
  -8   0   4  179.94   28.39 
  -8   0   4  170.25   15.82 
 -10   0   6    1.18    1.35 
 -10   0   6   -2.09    5.50 
 -12   0   8   -4.61    7.00 
 -12   0   8    6.11    2.29 
 -14   0  10   22.80   16.38 
 -14   0  10    8.07    2.96 
 -16   0  12   -0.13    7.24 
 -18   0  14   15.34   19.43 
 -20   0  16   72.64   34.07 
 -22   0  18   70.56   33.58 
   5   1  -9  794.67   53.75 
   3  -1  -7 1707.62   98.37 
   3   1  -7 1601.71  101.52 
   1  -1  -5 1374.52   79.20 
   1   1  -5 1224.26   76.72 
   1   1  -5 1259.86   86.47 
  -1  -1  -3 1731.32   98.02 
  -1   1  -3 1579.80   89.68 
  -3  -1  -1  179.90   18.76 
  -3  -1  -1  166.32   12.86 
  -3   1  -1  174.08   21.58 
  -5  -1   1  374.46   29.71 
  -5  -1   1  278.83   27.60 
  -5   1   1  330.35   26.82 
  -7   1   3  192.08   16.40 
  -7   1   3  143.74   18.16 
  -7  -1   3  121.34   16.03 
  -7  -1   3  149.88   24.09 
  -7  -1   3  165.23   13.63 
  -9   1   5    1.65    1.89 
  -9  -1   5    1.48    1.11 
 -11   1   7   93.31   19.08 
 -11  -1   7  131.50   13.28 
 -11  -1   7  117.23   27.85 
 -13   1   9   24.30   10.90 
 -13  -1   9   17.88   14.63 
 -15  -1  11    2.57    8.75 
 -15   1  11   15.53   13.02 
 -17  -1  13    7.69    3.30 
 -17   1  13   -3.29    7.42 
 -19  -1  15    4.70    5.80 
 -19   1  15    0.44    8.25 
 -21  -1  17   16.11    9.15 
 -21   1  17   41.47   24.47 
 -23  -1  19   42.67   25.49 
 -23   1  19   70.86   34.90 
   6   2 -10  440.93   34.75 
   4   2  -8  913.15   64.87 
   2   2  -6  705.39   58.51 
   0  -2  -4  882.02   57.53 
   0   2  -4  867.03   54.06 
   0   2  -4  922.54   72.15 
   0   2  -4 1045.56   59.84 
  -2   2  -2   32.27    3.39 
  -2  -2  -2   26.84    5.85 
  -2   2  -2   29.64    7.84 
  -2  -2  -2   29.50    4.66 
  -4  -2   0  340.71   26.67 
  -4   2   0  358.39   24.07 
  -4  -2   0  403.16   27.56 
  -4   2   0  411.74   30.59 
  -6  -2   2  249.27   18.82 
  -6   2   2  239.34   21.72 
  -6  -2   2  200.55   23.91 
  -8   2   4   -0.37    1.75 
  -8  -2   4    2.17    1.19 
  -8  -2   4   -1.72    2.98 
 -10   2   6   11.03    6.02 
 -10  -2   6   31.87   12.25 
 -12   2   8   37.40   12.63 
 -12  -2   8   80.94   24.77 
 -14   2  10   23.79   11.15 
 -14  -2  10   22.20   16.56 
 -16   2  12   20.37   11.93 
 -16  -2  12   -3.49    9.85 
 -18  -2  14   14.52   15.92 
 -18   2  14    5.17    7.67 
 -20  -2  16   32.06   19.82 
 -20   2  16    1.06    5.65 
 -22  -2  18   33.31   22.25 
 -22   2  18   47.08   28.51 
   7   3 -11  172.04   18.61 
   5   3  -9  222.35   25.76 
   3   3  -7  382.37   41.14 
   1   3  -5    6.10    2.71 
   1   3  -5    8.05    4.25 
   1   3  -5   10.04    5.79 
  -1   3  -3  109.27    9.66 
  -1   3  -3  111.38   10.88 
  -1   3  -3   97.05   15.23 
  -3   3  -1  435.37   31.16 
  -3   3  -1  371.02   30.88 
  -3   3  -1  380.88   23.47 
  -3  -3  -1  378.38   27.63 
  -5   3   1  312.42   24.18 
  -5  -3   1  301.73   25.98 
  -7   3   3   44.10    9.14 
  -7  -3   3   45.54   11.42 
  -9   3   5  133.87   19.85 
  -9  -3   5  139.18   25.10 
 -11   3   7   82.89   17.54 
 -11  -3   7   78.87   21.88 
 -13   3   9   43.81   13.35 
 -13  -3   9   24.66   13.29 
 -15   3  11    3.38    5.10 
 -15  -3  11   -0.95    5.39 
 -17  -3  13   13.42   12.87 
 -17   3  13   -1.74    6.54 
 -19   3  15   15.12   11.39 
 -19  -3  15   22.30   15.27 
 -19   3  15   23.95   17.27 
 -21  -3  17   -9.59   11.61 
 -21   3  17   16.16   18.48 
 -23  -3  19   27.95   19.91 
   6   4 -10   50.25   14.15 
   6   4 -10   37.22   10.23 
   4   4  -8   22.74    9.10 
   4   4  -8   25.05   10.17 
   2   4  -6   14.29    7.31 
   0   4  -4    3.72    1.85 
   0   4  -4    5.26    3.78 
  -2   4  -2    6.05    2.01 
  -2   4  -2   10.50    3.31 
  -2  -4  -2    6.76    3.09 
  -2   4  -2   12.76    4.53 
  -2   4  -2    9.28    2.71 
  -4   4   0  214.22   19.08 
  -4   4   0  204.77   17.41 
  -4  -4   0  202.42   19.50 
  -6   4   2  181.84   15.45 
  -6   4   2  176.33   18.98 
  -6  -4   2  178.67   20.35 
  -8   4   4   87.40   15.39 
  -8  -4   4  116.57   19.28 
 -10   4   6   13.81    6.14 
 -10  -4   6   16.84    7.68 
 -12   4   8    3.54    4.65 
 -12  -4   8   -1.06    3.96 
 -14   4  10   10.24    7.56 
 -14  -4  10   -9.63    8.58 
 -16   4  12   -2.07    7.59 
 -16  -4  12   -3.82    9.60 
 -18   4  14   36.21   15.10 
 -18  -4  14   14.72   10.95 
 -20   4  16   -3.54    7.82 
 -20  -4  16   13.03   12.18 
 -22  -4  18   14.12   13.44 
 -22   4  18  -47.61   27.86 
   7   5 -11  151.29   26.82 
   7   5 -11  156.85   21.70 
   5   5  -9    0.30    5.09 
   5   5  -9    2.98    4.82 
   3   5  -7    2.94    3.06 
   1   5  -5  462.86   41.38 
  -1   5  -3  111.68   15.81 
  -3   5  -1   20.73    5.39 
  -3  -5  -1   11.45    4.33 
  -3   5  -1   16.99    4.41 
  -5   5   1   46.19    7.70 
  -5   5   1   49.01    8.64 
  -5  -5   1   40.05    8.38 
  -7   5   3    1.37    1.19 
  -7  -5   3   -0.51    0.76 
  -7   5   3    2.70    1.66 
  -9   5   5    0.35    3.08 
  -9  -5   5   -0.78    5.21 
 -11   5   7    8.68    4.57 
 -11  -5   7    5.16    6.51 
 -13   5   9    6.75    4.29 
 -13  -5   9    9.88    4.11 
 -15   5  11   11.14    7.64 
 -15  -5  11    9.52    8.12 
 -17   5  13    0.21    3.76 
 -17  -5  13   28.41   17.16 
 -19  -5  15    7.33    3.43 
 -19   5  15    2.10    3.90 
 -21   5  17   -3.82    6.39 
 -21  -5  17   20.54   15.14 
   8   6 -12   82.08   20.81 
   6   6 -10  292.33   37.93 
   6   6 -10  326.85   40.24 
   4   6  -8   67.51   17.26 
   4   6  -8  116.85   20.20 
   2   6  -6  386.39   38.80 
   0   6  -4  143.66   19.24 
  -2   6  -2  438.85   36.41 
  -2   6  -2  464.18   34.39 
  -4   6   0   55.76    9.45 
  -4   6   0   64.37   10.51 
  -4  -6   0   60.42   10.81 
  -4   6   0   57.09    9.74 
  -6   6   2   -0.02    0.52 
  -6  -6   2   -0.52    1.61 
  -6   6   2   -0.20    0.99 
  -8   6   4   22.30    4.40 
  -8  -6   4   33.85    9.93 
  -8   6   4   23.75    7.92 
 -10   6   6   17.20    7.20 
 -10  -6   6   20.87    8.62 
 -12   6   8    0.55    4.85 
 -12  -6   8    6.86    3.51 
 -14   6  10    6.74    4.99 
 -14  -6  10    8.10    7.36 
 -16   6  12    0.12    3.77 
 -16  -6  12    9.89   10.87 
 -18   6  14   20.09   11.88 
 -18  -6  14   -0.46    2.03 
 -20   6  16   -1.82    8.03 
 -20  -6  16   19.81   13.94 
 -22  -6  18  -15.27   12.95 
   9   7 -13  143.23   29.16 
   7   7 -11  154.78   28.25 
   5   7  -9  571.16   55.89 
   5   7  -9  630.63   63.33 
   3   7  -7  527.46   48.47 
   3   7  -7  484.80   47.16 
   1   7  -5  126.82   19.00 
   1   7  -5  119.91   18.84 
  -1   7  -3  276.02   28.28 
  -3   7  -1  595.83   46.23 
  -3  -7  -1  634.45   48.23 
  -3   7  -1  685.27   47.82 
  -5   7   1  203.83   19.67 
  -5   7   1  167.62   20.67 
  -5  -7   1  169.01   21.28 
  -7   7   3   59.41    8.59 
  -7  -7   3   54.04   11.91 
  -7   7   3   47.36   11.33 
  -9   7   5   22.18    4.48 
  -9  -7   5   25.74    9.68 
  -9   7   5   18.00    7.54 
  -9  -7   5   28.68    4.19 
 -11  -7   7    6.65    5.47 
 -11   7   7   -3.04    3.23 
 -13  -7   9   29.25   11.94 
 -13   7   9   54.62   16.49 
 -15   7  11   -4.55    5.24 
 -15  -7  11   -9.10    7.48 
 -17   7  13    3.80    6.79 
 -17  -7  13    0.48    1.53 
 -19   7  15   17.73   10.95 
 -19  -7  15   16.06   11.23 
 -21  -7  17    8.89    9.19 
  10   8 -14  233.86   40.36 
   8   8 -12  351.19   46.49 
   6   8 -10  316.58   40.43 
   4   8  -8  404.89   44.80 
   4   8  -8  489.85   48.96 
   2   8  -6  565.20   51.19 
   2   8  -6  588.76   51.02 
   0   8  -4  388.05   38.07 
   0   8  -4  422.94   39.12 
  -2   8  -2  263.58   27.48 
  -2   8  -2  263.67   27.05 
  -4   8   0  381.44   33.08 
  -4  -8   0  386.53   35.83 
  -4   8   0  391.60   35.54 
  -6   8   2  153.44   17.16 
  -6   8   2  156.14   21.47 
  -6  -8   2  167.04   22.06 
  -8   8   4  137.63   14.71 
  -8   8   4  123.94   20.97 
  -8  -8   4  160.11   22.75 
 -10   8   6   16.36    3.74 
 -10  -8   6   11.52    5.50 
 -10   8   6    3.50    4.50 
 -12  -8   8    6.02    5.23 
 -12   8   8   14.71    7.56 
 -14   8  10    9.31    8.03 
 -14  -8  10    2.91    4.18 
 -16   8  12   -0.71    2.94 
 -16  -8  12   -3.56    4.92 
 -18   8  14  -11.54    9.38 
 -18  -8  14   11.04    9.63 
 -20   8  16   10.50    9.94 
 -20  -8  16   27.95   15.25 
  11   9 -15  180.45   37.08 
   9   9 -13  236.88   39.71 
   7   9 -11  442.03   52.38 
   5   9  -9  283.60   37.78 
   5   9  -9  296.78   38.88 
   3   9  -7  645.52   56.28 
   3   9  -7  508.86   50.75 
   1   9  -5  484.80   44.87 
   1   9  -5  418.40   42.60 
  -1   9  -3  271.76   30.13 
  -1   9  -3  270.44   29.24 
  -3   9  -1  178.83   22.16 
  -3   9  -1  202.37   24.28 
  -5   9   1  289.86   27.15 
  -5   9   1  258.11   29.70 
  -5  -9   1  245.66   29.04 
  -7   9   3  151.97   17.43 
  -7   9   3  125.69   21.27 
  -7  -9   3  187.76   24.69 
  -9   9   5   88.82   11.37 
  -9  -9   5   81.90   17.55 
  -9   9   5   59.74   15.24 
 -11  -9   7   16.46    9.07 
 -11   9   7   19.36    9.83 
 -13  -9   9    1.08    4.01 
 -13   9   9    4.96    5.42 
 -15   9  11    7.57    6.23 
 -15  -9  11   15.45    8.53 
 -17   9  13   -1.51    4.96 
 -17  -9  13    4.02    2.28 
 -19  -9  15    4.44    4.99 
 -19   9  15   16.99   11.26 
 -21  -9  17   12.82   12.60 
  10  10 -14  142.71   32.02 
   8  10 -12  219.92   36.86 
   6  10 -10  134.18   26.52 
   4  10  -8  460.84   48.37 
   4  10  -8  354.43   42.35 
   2  10  -6  456.12   44.71 
   2  10  -6  317.64   38.42 
   0  10  -4  181.72   25.72 
   0  10  -4  212.93   26.89 
  -2  10  -2  220.44   26.96 
  -2  10  -2  227.29   27.82 
  -4  10   0  214.58   24.71 
  -4 -10   0  198.16   26.17 
  -4  10   0  198.95   26.51 
  -6  10   2  106.22   15.35 
  -6 -10   2   96.54   17.79 
  -6  10   2   87.74   17.54 
  -8  10   4  109.31   14.55 
  -8 -10   4  111.17   19.97 
  -8  10   4   76.92   17.10 
  -8 -10   4  108.45   14.12 
 -10 -10   6    6.99    4.28 
 -10  10   6    6.67    4.55 
 -12 -10   8   20.36    9.33 
 -12  10   8   30.31   13.44 
 -14 -10  10   -0.27    1.42 
 -14  10  10   -8.99    7.49 
 -16  10  12    4.29    7.01 
 -16 -10  12   15.36    9.45 
 -18  10  14   -6.55    7.41 
 -18 -10  14    1.15    3.46 
 -20 -10  16   49.12   19.87 
   9  11 -13   99.73   26.27 
   7  11 -11   54.51   17.24 
   5  11  -9  132.99   25.95 
   3  11  -7  118.08   22.82 
   3  11  -7  110.23   21.59 
   1  11  -5   97.39   20.05 
   1  11  -5  120.54   21.82 
   1  11  -5  129.97   22.06 
  -1  11  -3  145.18   22.81 
  -1  11  -3  183.49   25.80 
  -3  11  -1  139.14   21.03 
  -3  11  -1  137.55   22.20 
  -5  11   1   67.58   12.93 
  -5 -11   1   71.51   15.93 
  -5  11   1   71.49   16.03 
  -7  11   3   39.08    8.98 
  -7 -11   3   34.90   11.25 
  -7  11   3   39.42   12.82 
  -9 -11   5   84.14   17.96 
  -9  11   5   44.08   14.02 
 -11 -11   7    9.69    6.37 
 -11  11   7    3.18    5.82 
 -13 -11   9   -1.14    2.45 
 -13  11   9    8.40    6.72 
 -15 -11  11    5.50    5.35 
 -15  11  11  -10.64    8.60 
 -17  11  13    9.15    8.10 
 -17 -11  13   14.09    9.91 
 -19 -11  15   -9.42    8.22 
   8  12 -12   61.08   20.49 
   6  12 -10   30.67   13.28 
   4  12  -8    4.97    2.82 
   2  12  -6   34.17   12.55 
   2  12  -6   36.60   12.59 
   0  12  -4   17.24    8.33 
   0  12  -4   14.01    6.75 
  -2  12  -2   57.42   14.23 
  -2  12  -2   77.39   17.07 
  -4  12   0   48.73   11.97 
  -4  12   0   29.00   10.39 
  -6  12   2   29.54    9.05 
  -6 -12   2   42.89   12.48 
  -6  12   2   27.18    9.91 
  -8  12   4   32.46    8.60 
  -8 -12   4   30.71   10.61 
  -8  12   4   24.19   10.20 
 -10 -12   6    2.93    2.39 
 -10  12   6    2.17    2.04 
 -12 -12   8    3.21    3.89 
 -12  12   8   -7.57    6.71 
 -14 -12  10   -0.54    2.01 
 -14  12  10  -15.77   10.33 
 -16  12  12   -1.61    6.06 
 -16 -12  12   -1.03    2.61 
 -18 -12  14   16.77   10.48 
   7  13 -11    3.98    7.53 
   5  13  -9    2.70    5.19 
   3  13  -7   -2.00    2.12 
   3  13  -7   -1.96    3.03 
   1  13  -5    1.25    3.81 
   1  13  -5   -4.77    4.56 
  -1  13  -3   -5.67    4.74 
  -1  13  -3    0.51    5.87 
  -3  13  -1    2.24    2.84 
  -3  13  -1    1.63    2.92 
  -5  13   1    0.29    2.42 
  -5  13   1    2.08    3.33 
  -7  13   3   13.74    6.38 
  -7 -13   3    6.98    6.03 
  -7  13   3   10.41    7.59 
  -9 -13   5    5.68    4.43 
  -9  13   5    9.16    7.49 
 -11 -13   7    4.38    5.42 
 -11  13   7   -4.41    7.63 
 -13 -13   9   -2.33    4.37 
 -13  13   9   -1.28    2.50 
 -15 -13  11    2.99    4.15 
 -15  13  11    4.54    7.55 
 -17 -13  13   -4.20    5.16 
   6  14 -10   25.90   13.65 
   4  14  -8   12.49    7.42 
   2  14  -6   15.79    8.69 
   2  14  -6   11.83    6.52 
   0  14  -4   13.72    6.90 
  -2  14  -2   25.65    9.59 
  -4  14   0   11.35    5.74 
  -4  14   0    9.48    6.28 
  -6  14   2    0.84    3.45 
  -6  14   2   13.51    7.94 
  -8 -14   4    5.09    2.12 
  -8  14   4   -7.63    6.26 
 -10 -14   6   13.19    7.34 
 -10  14   6   -0.90    4.46 
 -12 -14   8   -9.44    7.06 
 -12  14   8   13.65    9.72 
 -14 -14  10   -5.11    5.44 
 -14  14  10   12.04    9.47 
 -16 -14  12   -7.96    7.05 
   3  15  -7   49.53   17.33 
   1  15  -5   33.81   12.65 
   1  15  -5   42.33   14.64 
  -1  15  -3   40.01   13.72 
  -3  15  -1   30.82   11.19 
  -5  15   1   21.54    8.47 
  -5  15   1    8.03    6.39 
  -7  15   3   25.39   12.55 
  -9 -15   5   18.63    9.58 
  -9  15   5   16.03    8.69 
 -11 -15   7    7.77    6.73 
 -11  15   7    8.94    5.33 
 -13 -15   9    3.74    5.41 
 -13  15   9  -13.39   10.05 
   2  16  -6   86.02   23.25 
   0  16  -4   76.01   20.59 
   0  16  -4   53.01   16.89 
  -2  16  -2   67.08   18.08 
  -4  16   0   44.02   13.93 
  -8  16   4   22.66   11.28 
 -10 -16   6   21.82   11.13 
 -10  16   6  -11.46    8.83 
 -12  16   8   -6.50    7.09 
  -1  17  -3   80.75   21.61 
  -3  17  -1   49.77   15.94 
 -11  17   7    8.98    8.67 
   4   0  -9   -1.29    1.99 
   2   0  -7    2.46    1.45 
   0   0  -5   -1.02    3.00 
  -2   0  -3    1.18    1.13 
  -2   0  -3   -0.56    1.43 
  -4   0  -1    6.79    5.07 
  -4   0  -1    2.33    1.42 
  -6   0   1    4.28    3.21 
  -6   0   1   -1.04    2.55 
  -8   0   3    0.55    1.12 
  -8   0   3    7.35    5.54 
  -8   0   3    3.72    2.16 
 -10   0   5  -10.20   11.45 
 -10   0   5    0.61    1.04 
 -12   0   7   -0.21    0.60 
 -12   0   7    4.07    6.75 
 -14   0   9    1.20    1.65 
 -14   0   9   -0.03    6.57 
 -16   0  11  -24.21   15.85 
 -18   0  13   -2.13    7.29 
 -20   0  15   -5.54   13.60 
 -22   0  17   -2.28   12.45 
   5   1 -10    1.71    2.54 
   3  -1  -8   19.62    5.65 
   3   1  -8   21.85    6.65 
   1  -1  -6   70.78   11.62 
   1   1  -6   54.38   13.07 
  -1   1  -4   45.59   12.56 
  -1   1  -4   53.20    7.32 
  -1  -1  -4   36.94    8.97 
  -3  -1  -2    7.91    1.92 
  -3   1  -2    9.00    5.99 
  -3  -1  -2    4.72    3.10 
  -5  -1   0  106.89   16.17 
  -5   1   0  114.08   17.16 
  -5  -1   0   85.47   11.32 
  -7  -1   2   99.78   16.20 
  -7  -1   2   96.32   17.77 
  -7   1   2  145.45   16.38 
  -9   1   4  229.51   20.67 
  -9  -1   4  211.75   23.78 
  -9  -1   4  191.57   31.57 
  -9  -1   4  215.92   17.73 
 -11   1   6   98.92   12.53 
 -11  -1   6  116.59   15.36 
 -11  -1   6  124.78   28.49 
 -13  -1   8   92.60   12.35 
 -13   1   8   67.75   10.21 
 -13  -1   8   62.96   25.04 
 -15   1  10   84.23   11.86 
 -15  -1  10  107.66   32.29 
 -15   1  10   78.55   26.60 
 -17  -1  12   36.14   15.35 
 -17   1  12   31.96   19.75 
 -19  -1  14   24.81   24.69 
 -19   1  14   28.26   20.19 
 -21  -1  16   60.93   30.70 
 -21   1  16   24.75   11.43 
 -23  -1  18   14.44   14.58 
 -23   1  18   10.14    9.57 
   6   2 -11   -1.10    3.32 
   4   2  -9   14.16    6.24 
   2   2  -7   16.22    6.76 
   0  -2  -5   64.82   10.38 
   0   2  -5   56.72    8.08 
   0   2  -5   44.22   13.35 
  -2   2  -3    3.59    3.57 
  -2  -2  -3    0.37    1.05 
  -4  -2  -1   22.90    4.47 
  -4  -2  -1   25.64    6.65 
  -4   2  -1   23.88    7.30 
  -6   2   1  238.32   20.70 
  -6  -2   1  268.87   23.08 
  -6  -2   1  226.89   23.57 
  -6   2   1  268.99   24.27 
  -8   2   3  113.00   16.14 
  -8  -2   3  140.34   14.44 
  -8   2   3  131.42   15.18 
  -8  -2   3  118.80   20.74 
 -10   2   5  230.88   28.64 
 -10  -2   5  286.19   20.62 
 -10  -2   5  272.65   39.73 
 -12   2   7  264.11   33.34 
 -12  -2   7  232.12   41.59 
 -14   2   9  218.10   33.92 
 -14  -2   9  247.29   46.03 
 -16   2  11  211.32   36.22 
 -16  -2  11  213.82   48.12 
 -18  -2  13   72.75   28.18 
 -18   2  13   49.77   24.12 
 -20  -2  15  198.58   52.27 
 -20   2  15  242.30   59.52 
 -22  -2  17   83.78   37.29 
 -22   2  17  106.99   40.60 
 -24  -2  19   51.37   28.74 
   7   3 -12   61.69   10.91 
   5   3 -10    7.44    5.29 
   3   3  -8    7.98    4.78 
   1   3  -6    9.15    6.50 
  -1   3  -4   -0.15    3.04 
  -1   3  -4    1.05    0.92 
  -1   3  -4    2.47    1.40 
  -3  -3  -2   -0.46    0.77 
  -3   3  -2    1.25    0.99 
  -3   3  -2    0.13    2.90 
  -5   3   0  100.12   13.94 
  -5  -3   0  108.05   12.34 
  -5   3   0   92.27    9.64 
  -5  -3   0   85.77   11.44 
  -7  -3   2  211.98   17.11 
  -7   3   2  160.37   18.19 
  -7  -3   2  188.28   22.41 
  -7   3   2  181.27   19.34 
  -9   3   4 1288.66   75.95 
  -9  -3   4 1194.52   85.06 
 -11   3   6  325.27   35.14 
 -11  -3   6  244.18   38.86 
 -13   3   8  392.32   43.99 
 -13  -3   8  302.55   49.58 
 -15   3  10  236.36   36.48 
 -15  -3  10  229.68   45.78 
 -17   3  12  241.13   40.74 
 -17  -3  12  319.68   58.21 
 -19   3  14  168.82   36.29 
 -19  -3  14  199.36   49.20 
 -19   3  14  195.82   50.13 
 -21  -3  16  118.74   41.05 
 -21   3  16  192.91   51.94 
 -23  -3  18  142.55   46.59 
 -23   3  18  190.18   58.60 
   6   4 -11   50.20   11.93 
   4   4  -9   42.57   12.71 
   2   4  -7    2.54    4.73 
   0   4  -5   61.82    8.45 
   0   4  -5   45.93   12.65 
   0   4  -5   52.71   10.63 
  -2   4  -3   -0.21    1.26 
  -2   4  -3    2.16    1.39 
  -4   4  -1    5.26    3.24 
  -4  -4  -1    4.72    2.64 
  -4   4  -1    3.22    2.09 
  -4   4  -1    3.30    1.40 
  -6   4   1  197.88   19.13 
  -6  -4   1  219.53   21.94 
  -8   4   3  858.70   65.02 
  -8  -4   3 1200.58   75.65 
 -10   4   5  382.07   37.58 
 -10  -4   5  348.75   41.76 
 -12   4   7  264.93   34.42 
 -12  -4   7  382.05   48.61 
 -14   4   9  378.24   45.98 
 -14  -4   9  409.42   57.41 
 -16   4  11  287.62   42.40 
 -16  -4  11  265.30   50.67 
 -18   4  13  381.76   53.43 
 -18  -4  13  298.88   57.55 
 -20   4  15  108.54   30.18 
 -20  -4  15  197.85   48.76 
 -22  -4  17  167.52   45.94 
 -22   4  17  152.32   50.24 
   5   5 -10   17.75    8.84 
   5   5 -10   28.47   11.38 
   3   5  -8   67.68   15.33 
   3   5  -8   78.70   20.79 
   1   5  -6   -0.83    2.78 
  -1   5  -4  117.11   18.10 
  -3   5  -2   10.59    4.16 
  -3  -5  -2   15.87    5.14 
  -3   5  -2    9.45    4.28 
  -3   5  -2   10.09    2.66 
  -5   5   0   15.00    4.83 
  -5  -5   0   22.50    6.34 
  -5   5   0   17.56    4.64 
  -7   5   2  274.50   22.78 
  -7   5   2  279.36   26.24 
  -7  -5   2  256.87   27.35 
  -9   5   4  478.54   43.28 
  -9  -5   4  521.22   46.93 
 -11   5   6  494.49   47.87 
 -11  -5   6  517.14   53.29 
 -13   5   8  277.18   35.47 
 -13  -5   8  177.77   34.25 
 -15   5  10  382.11   48.61 
 -15  -5  10  389.36   56.54 
 -17   5  12  258.72   42.07 
 -17  -5  12  210.44   44.33 
 -19   5  14  220.18   41.58 
 -19  -5  14  196.58   46.53 
 -21   5  16  115.05   31.68 
 -21  -5  16  141.76   41.28 
 -23  -5  18  196.20   50.25 
   6   6 -11   49.65   16.87 
   4   6  -9   12.61    8.31 
   4   6  -9    2.08    3.32 
   2   6  -7    0.86    2.81 
   2   6  -7    0.69    2.83 
   0   6  -5    1.66    2.60 
  -2   6  -3   -0.38    1.23 
  -2   6  -3   -0.17    2.21 
  -2   6  -3    0.09    2.11 
  -4   6  -1   52.57   10.14 
  -4   6  -1   53.39    8.73 
  -4  -6  -1   56.99   10.45 
  -6   6   1   46.38    8.57 
  -6  -6   1   51.67   10.40 
  -6   6   1   40.85    8.56 
  -8   6   3  345.17   26.87 
  -8   6   3  398.52   35.41 
  -8  -6   3  323.67   34.09 
 -10   6   5  195.37   26.10 
 -10  -6   5  165.23   25.57 
 -12   6   7  151.60   25.69 
 -12  -6   7  172.51   29.96 
 -14   6   9  315.52   41.28 
 -14  -6   9  273.29   43.37 
 -16   6  11  190.79   34.13 
 -16  -6  11  155.28   34.46 
 -18   6  13  112.48   27.77 
 -18  -6  13   93.11   28.64 
 -20   6  15   86.93   27.01 
 -20  -6  15  106.05   32.64 
 -22  -6  17  105.65   34.31 
   7   7 -12   22.92   11.43 
   5   7 -10   37.14   12.20 
   5   7 -10   25.80   12.68 
   3   7  -8    5.99    4.70 
   3   7  -8    6.35    3.84 
   1   7  -6   -3.06    3.20 
   1   7  -6    1.11    2.55 
  -1   7  -4   51.94   12.01 
  -1   7  -4   49.13   11.68 
  -3   7  -2    0.72    1.87 
  -3   7  -2    5.90    4.26 
  -3   7  -2    1.19    1.85 
  -5   7   0   77.44   12.35 
  -5  -7   0   66.38   12.86 
  -5   7   0   72.00   11.73 
  -7   7   2  170.08   17.71 
  -7   7   2  155.44   20.32 
  -7  -7   2  157.49   21.45 
  -9   7   4   99.12   11.69 
  -9   7   4   87.58   16.71 
  -9  -7   4  111.38   18.65 
 -11  -7   6    0.12    3.16 
 -11   7   6    3.51    3.66 
 -13   7   8   98.44   21.14 
 -13  -7   8   74.80   20.07 
 -15   7  10  125.52   26.90 
 -15  -7  10  132.09   28.96 
 -17   7  12  104.40   26.27 
 -17  -7  12  128.09   31.06 
 -19   7  14   63.05   21.42 
 -19  -7  14   57.84   22.51 
 -21   7  16   15.51    7.90 
 -21  -7  16   44.71   20.91 
   8   8 -13   19.35    9.97 
   6   8 -11   -2.14    7.63 
   4   8  -9   82.90   21.01 
   4   8  -9   67.70   17.68 
   2   8  -7   22.33    8.73 
   2   8  -7   30.19   10.68 
   0   8  -5   14.53    5.13 
   0   8  -5   13.07    6.19 
  -2   8  -3    0.80    2.61 
  -2   8  -3    5.41    4.41 
  -2   8  -3    0.03    1.32 
  -4   8  -1   -0.20    1.16 
  -4  -8  -1   -0.81    2.42 
  -4   8  -1    0.89    2.40 
  -6   8   1  129.50   16.73 
  -6   8   1  134.58   18.71 
  -6  -8   1  157.27   21.20 
  -8   8   3    2.49    1.91 
  -8  -8   3    1.29    2.13 
 -10   8   5    2.23    2.08 
 -10  -8   5   -0.61    4.21 
 -10   8   5    4.91    4.36 
 -10  -8   5    3.49    1.47 
 -12  -8   7   10.33    6.82 
 -12   8   7   10.91    8.09 
 -14   8   9   -0.51    2.16 
 -14  -8   9    0.30    2.06 
 -16   8  11   49.76   17.38 
 -16  -8  11   29.63   13.26 
 -18   8  13    6.95    7.53 
 -18  -8  13    3.89    5.33 
 -20   8  15   10.89    9.22 
 -20  -8  15    4.51    5.94 
 -22  -8  17   18.18   12.95 
   9   9 -14   -2.49    8.44 
   7   9 -12   10.10    8.22 
   5   9 -10    6.75    7.97 
   3   9  -8   -2.32    3.59 
   3   9  -8    1.22    2.23 
   1   9  -6    5.98    4.63 
   1   9  -6   -1.90    2.64 
  -1   9  -4   12.24    5.36 
  -1   9  -4   12.77    6.35 
  -1   9  -4    6.44    3.96 
  -3   9  -2    8.68    4.27 
  -3   9  -2    3.56    1.10 
  -5   9   0   -2.37    2.75 
  -5  -9   0    1.40    1.01 
  -5   9   0    0.80    1.48 
  -7   9   2   -0.62    1.17 
  -7  -9   2   -0.31    2.92 
  -7   9   2    0.27    2.22 
  -9   9   4    0.16    1.50 
  -9  -9   4   -0.36    2.51 
  -9   9   4   -5.77    4.39 
 -11  -9   6   20.23    9.18 
 -11   9   6   17.66    9.17 
 -13  -9   8    5.12    2.75 
 -13   9   8    1.39    3.99 
 -15   9  10  -12.59    8.56 
 -15  -9  10    9.12    7.45 
 -17   9  12   39.90   16.35 
 -17  -9  12   -0.96    2.59 
 -19  -9  14    5.37    3.66 
 -19   9  14    5.21    6.44 
 -21  -9  16    7.68    7.94 
   8  10 -13   -0.91    6.70 
   6  10 -11    1.74    1.48 
   4  10  -9    8.10    4.70 
   4  10  -9    9.08    5.94 
   2  10  -7   30.84   11.26 
   2  10  -7   27.46   10.84 
   0  10  -5    4.22    4.56 
   0  10  -5   -0.12    1.81 
   0  10  -5   -7.17    5.03 
  -2  10  -3   -0.69    2.09 
  -2  10  -3    0.96    3.24 
  -4  10  -1    2.66    3.44 
  -4  10  -1    1.43    2.49 
  -6  10   1   59.99   11.78 
  -6 -10   1   56.76   13.01 
  -6  10   1   72.57   14.81 
  -8  10   3   22.10    6.49 
  -8 -10   3   27.02    9.64 
  -8  10   3   21.80    9.20 
 -10  10   5   30.40    7.09 
 -10 -10   5   42.24   12.82 
 -10  10   5   30.91   11.10 
 -12 -10   7   36.98   12.76 
 -12  10   7   22.01   10.88 
 -14 -10   9    7.85    6.15 
 -14  10   9    4.02    4.17 
 -16  10  11   41.59   17.07 
 -16 -10  11   38.10   14.74 
 -18  10  13    4.65    4.53 
 -18 -10  13    2.04    3.88 
 -20 -10  15    1.24    3.15 
   9  11 -14   24.84   12.34 
   7  11 -12    1.89    4.19 
   5  11 -10   13.78    7.12 
   3  11  -8    3.60    2.15 
   3  11  -8    0.69    3.43 
   1  11  -6   -2.57    3.26 
   1  11  -6   -1.68    2.77 
  -1  11  -4    1.50    2.51 
  -1  11  -4    2.88    2.62 
  -1  11  -4    0.56    1.94 
  -3  11  -2   18.44    7.33 
  -3  11  -2    8.35    5.32 
  -5  11   0   36.06    9.89 
  -5 -11   0   38.71   11.98 
  -5  11   0   49.93   12.48 
  -7  11   2   70.32   13.53 
  -7 -11   2   98.31   18.74 
  -7  11   2   73.28   16.45 
  -9  11   4   46.15    9.70 
  -9 -11   4   55.10   14.67 
  -9  11   4   36.52   11.88 
 -11 -11   6   35.48   12.22 
 -11  11   6   28.11   12.53 
 -13 -11   8   91.63   21.27 
 -13  11   8   92.02   23.09 
 -15 -11  10   70.18   19.89 
 -15  11  10   49.90   18.43 
 -17  11  12   52.57   20.43 
 -17 -11  12   58.18   20.01 
 -19 -11  14   65.91   21.70 
   6  12 -11   26.03   13.14 
   4  12  -9    6.99    6.85 
   2  12  -7    1.74    4.52 
   2  12  -7   -1.15    2.28 
   0  12  -5    1.13    2.52 
   0  12  -5    1.39    1.59 
  -2  12  -3   -1.48    3.15 
  -2  12  -3   12.30    6.21 
  -4  12  -1   25.25    9.03 
  -4  12  -1   23.82    9.43 
  -6  12   1   38.10   10.62 
  -6 -12   1   57.97   14.95 
  -6  12   1   49.81   13.64 
  -8  12   3   76.17   14.01 
  -8 -12   3   74.23   17.21 
  -8  12   3   63.38   17.07 
 -10  12   5  132.76   25.88 
 -10 -12   5  133.59   25.04 
 -12 -12   7  100.32   22.88 
 -12  12   7  123.80   27.00 
 -14 -12   9   96.72   23.28 
 -14  12   9   96.46   25.14 
 -16 -12  11   97.35   24.83 
 -16  12  11   74.99   23.82 
 -18  12  13   90.72   27.67 
 -18 -12  13   69.38   21.84 
   5  13 -10   28.69   12.52 
   3  13  -8    9.90    7.96 
   1  13  -6    1.46    2.76 
   1  13  -6   -9.69    6.75 
  -1  13  -4    5.42    5.56 
  -1  13  -4    9.82    7.55 
  -3  13  -2    9.02    5.72 
  -5  13   0   29.53    9.85 
  -5  13   0   42.20   12.87 
  -7  13   2   49.26   12.18 
  -7 -13   2   62.56   16.35 
  -7  13   2   76.35   18.14 
  -9 -13   4  104.88   21.89 
  -9  13   4  104.33   22.48 
 -11 -13   6  137.94   26.43 
 -11  13   6  101.33   24.19 
 -13 -13   8  120.37   25.84 
 -13  13   8  123.72   28.65 
 -15 -13  10  107.03   25.66 
 -15  13  10  116.55   29.85 
 -17 -13  12   92.41   25.60 
 -17  13  12  115.48   31.10 
   4  14  -9   37.51   15.03 
   2  14  -7    5.25    4.59 
   0  14  -5  -12.85    7.90 
   0  14  -5    5.35    5.15 
  -2  14  -3    4.43    3.33 
  -4  14  -1   32.35   10.63 
  -6  14   1   26.17    9.58 
  -6  14   1   25.07   10.31 
  -8 -14   3   56.34   17.34 
  -8  14   3   59.74   17.20 
 -10 -14   5   51.31   16.41 
 -10  14   5   46.41   15.95 
 -12 -14   7   75.10   20.75 
 -12  14   7   79.62   22.56 
 -14 -14   9   69.92   20.66 
 -14  14   9   69.39   22.27 
 -16 -14  11   99.02   25.14 
 -16  14  11   65.42   23.05 
   3  15  -8    0.03    3.15 
   1  15  -6    2.03    5.02 
   1  15  -6   -8.22    6.86 
  -1  15  -4   -0.26    5.01 
  -1  15  -4   -1.73    5.45 
  -3  15  -2   17.88    9.37 
  -5  15   0   29.98   11.23 
  -9 -15   4   21.61    9.16 
  -9  15   4   30.95   13.20 
 -11 -15   6   32.50   13.79 
 -11  15   6   30.96   14.56 
 -13 -15   8   37.42   14.80 
 -13  15   8   43.47   17.48 
   0  16  -5  -10.01    7.61 
   0  16  -5   -8.70    7.22 
  -2  16  -3   -3.48    4.34 
  -2  16  -3   -9.42    7.46 
  -4  16  -1   -3.80    6.31 
 -10 -16   5    7.50    6.17 
 -10  16   5   -1.38    4.28 
 -12  16   7   21.37   12.27 
  -1  17  -4    8.47    7.13 
  -1  17  -4    1.19    2.84 
  -3  17  -2   12.76    9.36 
   4   0 -10  462.43   38.95 
   2   0  -8  399.20   36.36 
   0   0  -6 1355.00   91.84 
  -2   0  -4 1243.76   80.67 
  -2   0  -4  924.32   61.37 
  -4   0  -2  329.48   40.67 
  -4   0  -2  454.92   26.27 
  -6   0   0  756.59   65.75 
  -6   0   0  818.73   56.46 
  -8   0   2 2439.84  151.62 
  -8   0   2 2403.29  154.18 
 -10   0   4 2015.16  123.28 
 -10   0   4 1969.54  141.96 
 -12   0   6  910.50   92.16 
 -12   0   6 1044.80   68.33 
 -14   0   8 1057.42  105.82 
 -14   0   8  987.24   65.58 
 -16   0  10  828.79  100.98 
 -16   0  10  922.39   60.89 
 -18   0  12  371.61   67.71 
 -20   0  14  223.41   56.10 
 -22   0  16   98.17   37.81 
 -24   0  18   83.36   38.60 
   5   1 -11  255.58   26.62 
   3  -1  -9  393.06   35.39 
   3   1  -9  455.82   39.83 
   1  -1  -7  940.40   65.26 
   1   1  -7  941.50   72.30 
  -1  -1  -5 1031.93   67.97 
  -1   1  -5  977.30   58.65 
  -3  -1  -3  704.90   53.58 
  -3   1  -3  578.29   58.58 
  -5  -1  -1 1025.38   79.06 
  -5  -1  -1 1110.60   66.30 
  -5   1  -1 1254.35   71.08 
  -5   1  -1 1145.35   86.98 
  -7  -1   1 1211.79   75.42 
  -7   1   1 1354.88   79.47 
  -7   1   1 1114.00   75.77 
  -9  -1   3 1022.97   83.23 
  -9  -1   3 1246.32   95.25 
  -9   1   3 1288.61   81.07 
  -9  -1   3 1353.61   77.31 
 -11  -1   5 1271.00   84.87 
 -11  -1   5 1283.90  105.78 
 -11   1   5 1187.27   77.22 
 -13   1   7  816.96   57.73 
 -13  -1   7  897.74   63.28 
 -13   1   7  872.85   89.62 
 -15   1   9  870.80   58.39 
 -15  -1   9  870.85   59.00 
 -15  -1   9  864.68   97.75 
 -15   1   9  835.93   95.89 
 -17  -1  11  337.77   62.13 
 -17   1  11  357.74   63.31 
 -19  -1  13  385.44   71.63 
 -19   1  13  412.50   76.20 
 -21  -1  15  183.49   51.60 
 -21   1  15  123.48   45.15 
 -23  -1  17   82.75   37.16 
 -23   1  17  129.11   49.21 
   6   2 -12  204.69   23.14 
   4   2 -10  253.37   28.53 
   2   2  -8  136.79   22.70 
   0  -2  -6  763.38   52.58 
   0   2  -6  600.83   61.69 
  -2  -2  -4  943.78   63.21 
  -2   2  -4  760.64   74.31 
  -2   2  -4  914.91   52.05 
  -4  -2  -2  660.05   49.05 
  -4  -2  -2  638.55   40.65 
  -4   2  -2  691.41   58.97 
  -6  -2   0  977.25   65.04 
  -6  -2   0  843.63   59.00 
  -8  -2   2  607.50   45.55 
  -8  -2   2  538.49   49.36 
  -8   2   2  658.21   46.88 
 -10   2   4  651.22   48.18 
 -10   2   4  678.80   53.34 
 -10  -2   4  655.12   47.35 
 -10  -2   4  650.67   63.75 
 -10  -2   4  709.99   44.32 
 -12   2   6  313.58   36.14 
 -12  -2   6  314.97   25.19 
 -12   2   6  363.25   29.94 
 -12  -2   6  335.20   48.89 
 -14   2   8  399.10   46.73 
 -14   2   8  433.15   34.94 
 -14  -2   8  428.91   62.16 
 -16   2  10  301.71   44.10 
 -16   2  10  386.02   32.64 
 -16  -2  10  469.24   69.29 
 -18  -2  12  176.19   46.10 
 -18   2  12  240.61   52.08 
 -20  -2  14   89.50   33.79 
 -20   2  14  141.43   44.50 
 -22  -2  16   44.19   26.39 
 -22   2  16  130.10   45.49 
 -24  -2  18   25.38   14.73 
 -24   2  18  -12.93   15.16 
   5   3 -11  107.76   18.35 
   3   3  -9   68.38   16.43 
   1   3  -7   60.29   17.17 
  -1   3  -5  120.76   11.62 
  -1   3  -5  159.25   15.93 
  -1   3  -5  126.15   25.06 
  -3  -3  -3  721.85   49.28 
  -3   3  -3  669.36   38.85 
  -3   3  -3  638.63   57.69 
  -5  -3  -1  461.73   33.31 
  -5  -3  -1  344.52   28.44 
  -5   3  -1  392.68   36.39 
  -7   3   1  293.42   28.63 
  -7  -3   1  293.17   25.25 
  -7   3   1  275.38   23.99 
  -7  -3   1  346.58   29.48 
  -9  -3   3  206.03   18.22 
  -9   3   3  215.33   22.73 
  -9   3   3  185.87   20.73 
  -9  -3   3  146.20   23.52 
 -11  -3   5  121.99   11.41 
 -11   3   5  151.71   21.60 
 -11  -3   5  116.99   10.86 
 -13   3   7  196.69   28.91 
 -13  -3   7  223.28   38.80 
 -15   3   9  233.87   35.00 
 -15  -3   9  249.59   45.93 
 -17   3  11   49.46   17.96 
 -17  -3  11   58.18   24.81 
 -19   3  13   11.30    7.20 
 -19  -3  13   16.02   11.46 
 -21  -3  15   43.26   21.49 
 -21   3  15   33.48   28.36 
 -23  -3  17   15.31   14.95 
 -23   3  17   27.03   20.87 
   4   4 -10    4.22    4.02 
   2   4  -8   15.28   10.94 
   0   4  -6   44.72    7.42 
   0   4  -6   61.96   12.05 
   0   4  -6   39.22   13.93 
  -2   4  -4  154.05   11.46 
  -2   4  -4  163.31   15.28 
  -2   4  -4  162.11   24.90 
  -4  -4  -2   42.56    8.02 
  -4   4  -2   48.08    6.38 
  -6   4   0  100.01   15.28 
  -6   4   0   80.77    9.87 
  -6  -4   0  111.15   14.03 
  -8   4   2   59.03   11.01 
  -8   4   2   48.03    9.26 
  -8  -4   2   49.17   11.07 
 -10   4   4   48.90   11.66 
 -10  -4   4   44.16   13.02 
 -12   4   6    1.11    1.58 
 -12  -4   6    6.31    6.13 
 -14   4   8   34.33   11.30 
 -14  -4   8   44.56   16.40 
 -16   4  10    7.32    5.71 
 -16  -4  10   11.18    6.69 
 -18   4  12    4.44    4.58 
 -18  -4  12    4.19   12.63 
 -20   4  14    1.47    2.52 
 -20  -4  14   -3.95    2.99 
 -22  -4  16    1.94    5.30 
 -22   4  16    2.15   10.12 
 -24  -4  18  -13.93   13.76 
   5   5 -11   34.98   11.28 
   3   5  -9   30.66   12.82 
   1   5  -7   10.79    7.75 
  -1   5  -5   83.55    9.70 
  -1   5  -5  107.09   19.91 
  -3   5  -3  127.25   18.88 
  -3   5  -3  153.25   11.80 
  -3   5  -3  149.30   21.38 
  -5   5  -1   32.83    8.53 
  -5   5  -1   38.99    6.00 
  -5  -5  -1   41.80    8.66 
  -5   5  -1   32.37    8.84 
  -7   5   1    3.27    3.06 
  -7  -5   1    2.24    2.34 
  -7   5   1    1.43    1.51 
  -9   5   3    2.18    1.60 
  -9  -5   3    5.38    5.07 
 -11   5   5   16.15    6.36 
 -11  -5   5    9.16    4.55 
 -11  -5   5   12.45    2.69 
 -13   5   7   78.25   17.41 
 -13  -5   7   80.67   21.32 
 -15   5   9   13.89    8.54 
 -15  -5   9   20.12   11.53 
 -17   5  11   16.76    7.23 
 -17  -5  11   11.92    9.22 
 -19   5  13   21.19   12.64 
 -19  -5  13   26.31   15.17 
 -21   5  15    4.57    3.03 
 -21  -5  15   31.17   15.17 
 -23  -5  17  -17.41   14.49 
 -23   5  17  -22.73   19.30 
   4   6 -10   77.30   20.90 
   2   6  -8  236.27   31.46 
   2   6  -8  137.37   28.84 
   0   6  -6  128.60   21.41 
   0   6  -6  141.78   24.81 
  -2   6  -4   81.56   15.46 
  -2   6  -4   98.23   10.78 
  -2   6  -4   82.88   16.39 
  -4   6  -2  452.27   40.50 
  -4   6  -2  477.20   42.96 
  -4  -6  -2  467.61   38.67 
  -4   6  -2  512.94   33.20 
  -6   6   0  185.10   23.41 
  -6   6   0  213.66   22.49 
  -6   6   0  177.13   18.52 
  -6  -6   0  255.56   24.92 
  -8   6   2  323.34   27.51 
  -8   6   2  302.25   29.37 
  -8  -6   2  310.41   32.00 
 -10   6   4  120.55   19.01 
 -10  -6   4  124.07   20.85 
 -12  -6   6  136.93   25.10 
 -12   6   6   96.94   19.17 
 -14   6   8  326.01   39.94 
 -14  -6   8  232.50   38.45 
 -16   6  10   88.96   21.99 
 -16  -6  10   57.02   20.30 
 -18   6  12  125.32   28.81 
 -18  -6  12   67.70   24.89 
 -20   6  14   52.48   18.27 
 -20  -6  14   25.12   16.24 
 -22   6  16   21.68   12.15 
 -22  -6  16   26.89   16.91 
   5   7 -11  115.08   24.82 
   3   7  -9  265.14   35.67 
   3   7  -9  211.49   37.78 
   1   7  -7  262.20   33.92 
   1   7  -7  283.89   37.88 
  -1   7  -5  249.02   31.13 
  -1   7  -5  304.96   34.97 
  -3   7  -3  239.40   28.65 
  -3   7  -3  287.83   32.00 
  -3   7  -3  294.34   23.62 
  -5   7  -1  619.95   45.05 
  -5   7  -1  491.53   37.18 
  -5  -7  -1  473.06   41.59 
  -5   7  -1  505.52   45.07 
  -7   7   1  723.06   55.77 
  -7   7   1  878.00   58.64 
  -7  -7   1  919.05   63.48 
  -9   7   3  139.07   16.28 
  -9   7   3  135.28   20.04 
  -9  -7   3  166.92   23.28 
 -11   7   5  555.90   50.99 
 -11  -7   5  517.96   50.91 
 -13   7   7  410.80   44.79 
 -13  -7   7  309.96   42.30 
 -15   7   9  302.89   40.84 
 -15  -7   9  195.62   35.95 
 -17   7  11  263.33   41.30 
 -17  -7  11  228.62   41.83 
 -19   7  13   80.85   23.96 
 -19  -7  13   72.36   25.08 
 -21   7  15   33.31   18.48 
 -21  -7  15   43.71   21.78 
 -23  -7  17   41.27   20.87 
   6   8 -12   84.37   22.12 
   4   8 -10  224.13   34.85 
   4   8 -10  216.72   39.70 
   2   8  -8  415.34   47.89 
   2   8  -8  564.05   58.71 
   0   8  -6  239.95   32.16 
   0   8  -6  306.94   36.48 
  -2   8  -4  326.39   34.72 
  -2   8  -4  310.31   35.17 
  -2   8  -4  284.10   26.09 
  -4   8  -2  612.24   50.58 
  -4   8  -2  591.85   52.48 
  -4   8  -2  587.35   44.11 
  -4  -8  -2  700.22   52.00 
  -6   8   0  949.37   64.50 
  -6   8   0  941.18   62.62 
  -6  -8   0  794.81   64.13 
  -8   8   2  627.89   46.99 
  -8   8   2  641.89   51.28 
  -8  -8   2  646.67   54.26 
 -10   8   4  443.81   34.35 
 -10   8   4  460.63   44.32 
 -10  -8   4  416.31   43.60 
 -12   8   6  459.96   48.83 
 -12  -8   6  501.24   51.03 
 -14   8   8  440.51   50.51 
 -14  -8   8  421.14   50.75 
 -16   8  10  259.36   40.61 
 -16  -8  10  269.09   42.18 
 -18   8  12  161.59   33.76 
 -18  -8  12  171.46   36.03 
 -20   8  14   76.22   25.59 
 -20  -8  14   86.66   28.19 
 -22  -8  16   52.41   22.71 
   7   9 -13   32.73   15.38 
   5   9 -11   64.88   19.19 
   3   9  -9  361.60   45.21 
   3   9  -9  380.39   50.38 
   1   9  -7  201.63   30.71 
   1   9  -7  253.85   34.78 
  -1   9  -5  267.99   34.70 
  -1   9  -5  350.32   31.15 
  -1   9  -5  318.35   37.50 
  -3   9  -3  468.51   43.61 
  -3   9  -3  422.49   43.83 
  -3   9  -3  448.44   36.97 
  -5   9  -1  712.77   57.94 
  -5  -9  -1  796.57   61.39 
  -5   9  -1  794.25   56.62 
  -7   9   1  580.82   48.82 
  -7   9   1  710.36   53.33 
  -7  -9   1  689.06   56.00 
  -9   9   3  506.31   39.98 
  -9   9   3  451.98   45.03 
  -9  -9   3  561.19   50.08 
 -11   9   5  366.23   30.51 
 -11   9   5  424.23   44.55 
 -11  -9   5  369.00   42.30 
 -13   9   7  300.73   40.41 
 -13  -9   7  325.26   41.40 
 -15   9   9  323.48   44.84 
 -15  -9   9  317.49   44.18 
 -17   9  11  142.58   30.58 
 -17  -9  11  126.23   28.70 
 -19   9  13  134.80   31.96 
 -19  -9  13  105.67   29.26 
 -21   9  15  143.62   35.86 
 -21  -9  15   84.46   26.83 
   6  10 -12   35.97   13.80 
   4  10 -10   52.47   17.03 
   2  10  -8  153.26   27.22 
   2  10  -8  156.13   28.92 
   0  10  -6  203.75   31.36 
   0  10  -6  319.06   38.23 
  -2  10  -4  300.10   37.00 
  -2  10  -4  355.52   40.45 
  -2  10  -4  391.79   34.74 
  -4  10  -2  325.61   36.18 
  -4  10  -2  384.56   34.96 
  -6  10   0  415.98   40.02 
  -6  10   0  440.55   40.54 
  -6 -10   0  519.20   46.31 
  -8  10   2  344.24   32.92 
  -8  10   2  325.09   35.85 
  -8 -10   2  382.47   40.14 
 -10  10   4  291.30   27.72 
 -10  10   4  258.13   34.29 
 -10 -10   4  304.92   36.88 
 -12  10   6  445.36   48.98 
 -12 -10   6  378.01   45.49 
 -14  10   8  186.49   33.69 
 -14 -10   8  258.50   37.45 
 -16  10  10  202.64   36.90 
 -16 -10  10  216.65   36.72 
 -18  10  12   60.91   20.60 
 -18 -10  12  108.84   27.23 
 -20  10  14   32.62   18.18 
 -20 -10  14   28.60   15.54 
   7  11 -13   44.95   19.13 
   5  11 -11   15.07    9.32 
   3  11  -9   59.95   17.50 
   1  11  -7   72.18   18.48 
   1  11  -7   62.11   17.04 
  -1  11  -5   59.98   15.82 
  -1  11  -5   95.42   20.26 
  -3  11  -3  153.38   24.36 
  -3  11  -3  124.82   23.41 
  -3  11  -3  151.72   21.15 
  -5  11  -1  240.83   29.99 
  -5  11  -1  266.67   30.04 
  -7  11   1  289.66   31.51 
  -7  11   1  256.35   31.69 
  -7 -11   1  332.61   37.71 
  -9  11   3  118.83   17.68 
  -9  11   3  138.99   23.28 
  -9 -11   3  120.11   22.20 
 -11  11   5  271.81   37.21 
 -11 -11   5  283.19   37.50 
 -13 -11   7  140.75   26.56 
 -13  11   7  122.83   26.11 
 -15 -11   9   94.61   23.55 
 -15  11   9   90.31   24.12 
 -17  11  11   76.44   23.74 
 -17 -11  11   67.48   21.12 
 -19  11  13   30.78   16.85 
 -19 -11  13   43.38   17.61 
   6  12 -12    8.23    8.26 
   4  12 -10   27.07   12.95 
   2  12  -8   24.36   11.23 
   2  12  -8   11.79    7.23 
   0  12  -6   14.25    7.38 
   0  12  -6    6.79    5.41 
  -2  12  -4    4.48    4.61 
  -2  12  -4    2.32    1.99 
  -4  12  -2   81.29   17.30 
  -4  12  -2   72.79   15.46 
  -6  12   0   37.14   11.37 
  -6 -12   0   48.72   13.92 
  -6  12   0   33.92   10.45 
  -8  12   2   55.29   12.70 
  -8 -12   2   79.81   18.18 
  -8  12   2   53.49   14.27 
 -10 -12   4   67.53   16.91 
 -10  12   4   51.34   15.08 
 -12 -12   6   53.31   15.86 
 -12  12   6   40.65   14.42 
 -14 -12   8   52.20   16.58 
 -14  12   8   53.41   17.97 
 -16 -12  10    7.47    7.56 
 -16  12  10   14.34    9.11 
 -18  12  12   15.12    9.87 
 -18 -12  12   10.73    8.39 
   5  13 -11   -3.01    9.13 
   3  13  -9    2.90    4.52 
   1  13  -7    2.46    4.90 
   1  13  -7    1.01    2.49 
  -1  13  -5   -3.24    4.60 
  -1  13  -5    2.72    3.59 
  -3  13  -3   -0.51    5.05 
  -3  13  -3   -0.64    2.77 
  -5  13  -1    4.95    5.27 
  -7  13   1   12.49    5.93 
  -7 -13   1    6.81    5.58 
  -7  13   1   10.88    6.98 
  -9 -13   3   -1.29    4.24 
  -9  13   3   -0.12    3.65 
 -11 -13   5   -0.19    1.66 
 -11  13   5    2.91    3.89 
 -13 -13   7    2.79    2.98 
 -13  13   7    3.65    4.52 
 -15 -13   9   -1.05    2.49 
 -15  13   9   -8.20    7.43 
 -17 -13  11    3.66    4.89 
 -17  13  11    1.96    4.04 
   2  14  -8    9.10    7.10 
   0  14  -6   25.05   11.68 
   0  14  -6    4.12    2.89 
  -2  14  -4   17.22    9.90 
  -2  14  -4   15.98    9.84 
  -4  14  -2   14.24    7.65 
  -6  14   0    6.24    3.55 
  -8 -14   2   13.80    8.20 
  -8  14   2    5.55    4.92 
 -10 -14   4    9.88    5.77 
 -10  14   4    3.29    3.34 
 -12 -14   6   39.94   14.77 
 -12  14   6   37.36   14.69 
 -14 -14   8   12.90    7.56 
 -14  14   8   11.16    9.17 
 -16 -14  10   11.56    8.10 
 -16  14  10    0.03    1.24 
   1  15  -7   40.66   16.77 
  -1  15  -5   40.14   15.85 
  -1  15  -5   28.67   12.76 
  -3  15  -3  110.20   24.92 
  -3  15  -3   86.42   21.00 
  -5  15  -1   74.86   18.57 
  -9 -15   3  131.93   27.23 
 -11 -15   5   52.45   17.49 
 -11  15   5   47.13   16.05 
 -13 -15   7   40.15   15.17 
 -13  15   7   40.77   16.74 
 -15  15   9   24.04   11.76 
   0  16  -6   34.96   14.86 
  -2  16  -4  101.89   24.32 
  -2  16  -4  110.52   26.71 
  -4  16  -2  120.18   25.34 
  -4  16  -2  115.24   26.88 
 -10 -16   4  100.48   24.59 
 -14  16   8   72.70   22.86 
  -1  17  -5   59.17   19.93 
  -3  17  -3  105.23   25.83 
  -3  17  -3  143.31   31.60 
   4   0 -11   -1.72    2.80 
   2   0  -9    0.13    2.27 
   0   0  -7    2.94    3.07 
  -2   0  -5   -3.05    4.51 
  -4   0  -3    4.99    2.50 
  -6   0  -1    0.69    4.63 
  -6   0  -1    1.87    1.55 
  -8   0   1    2.75    4.16 
  -8   0   1   -1.38    2.21 
 -10   0   3    1.88    3.40 
 -10   0   3   -1.17    1.26 
 -12   0   5   -1.32    4.03 
 -12   0   5   -5.19    6.91 
 -14   0   7    4.83    3.94 
 -14   0   7  -14.90   10.62 
 -16   0   9    0.87    1.12 
 -16   0   9   -4.18    6.99 
 -18   0  11    7.38   11.38 
 -20   0  13   -4.62   14.36 
 -22   0  15    7.74   14.12 
 -24   0  17   -8.83   11.91 
   5   1 -12  121.77   18.17 
   3  -1 -10   18.71    6.98 
   3   1 -10   22.14    7.25 
   1  -1  -8   22.02    6.87 
   1   1  -8   26.16    9.13 
  -1  -1  -6  432.22   39.24 
  -1   1  -6  357.46   42.63 
  -3  -1  -4  129.41   20.11 
  -3   1  -4   74.14   18.88 
  -5  -1  -2   18.78    8.68 
  -5  -1  -2    7.91    2.49 
  -5   1  -2    5.14    1.72 
  -5   1  -2   11.34    8.79 
  -7   1   0   66.16   16.06 
  -7  -1   0   60.83   14.38 
  -7  -1   0   44.17    8.96 
  -7   1   0   71.02   13.29 
  -9  -1   2  132.27   22.81 
  -9  -1   2  155.81   24.40 
  -9   1   2  178.23   24.05 
  -9   1   2  191.18   27.43 
 -11  -1   4  452.95   44.22 
 -11  -1   4  388.88   49.81 
 -11   1   4  436.94   51.77 
 -11   1   4  416.52   37.92 
 -13   1   6    9.55    3.97 
 -13  -1   6   15.75    6.94 
 -13  -1   6   11.55    6.46 
 -13   1   6    1.34    7.09 
 -15   1   8    1.47    0.84 
 -15  -1   8    3.71    3.09 
 -15  -1   8    0.59    8.13 
 -15   1   8    7.64    7.50 
 -17   1  10    5.62    3.05 
 -17  -1  10    2.82    6.46 
 -17   1  10    8.94   12.92 
 -19  -1  12   14.36   17.47 
 -19   1  12   -1.96   15.51 
 -21  -1  14   11.75   17.51 
 -21   1  14   -5.58   15.74 
 -23  -1  16   25.44   19.18 
 -23   1  16   -1.32   13.54 
 -25  -1  18   -2.57   10.68 
 -25   1  18   -4.19    9.18 
   6   2 -13  219.05   24.99 
   4   2 -11  298.21   32.48 
   2   2  -9  208.79   29.05 
   0   2  -7  124.68   25.23 
   0  -2  -7  226.96   24.24 
  -2  -2  -5  654.50   49.61 
  -2   2  -5  548.65   60.50 
  -2   2  -5  599.04   38.44 
  -4  -2  -3  519.83   42.22 
  -4  -2  -3  459.78   31.24 
  -4   2  -3  421.69   50.77 
  -6  -2  -1  299.53   31.30 
  -6  -2  -1  290.94   24.00 
  -6   2  -1  368.53   39.32 
  -8  -2   1  252.73   28.20 
  -8  -2   1  246.77   26.93 
  -8   2   1  288.95   30.41 
 -10  -2   3  195.58   24.38 
 -10  -2   3  198.39   30.17 
 -12   2   5  231.39   24.23 
 -12  -2   5  190.94   22.30 
 -12  -2   5  176.97   33.38 
 -12  -2   5  228.59   19.48 
 -14   2   7   40.58    9.50 
 -14  -2   7   38.48   14.02 
 -14  -2   7   39.19    7.41 
 -16   2   9   -1.40    2.23 
 -16  -2   9    1.95    5.71 
 -18   2  11   -0.16    1.40 
 -18  -2  11   -1.43   12.53 
 -18   2  11   -4.59   16.65 
 -20  -2  13  -12.48   12.51 
 -20   2  13   11.33   11.19 
 -22  -2  15   -4.54   10.42 
 -22   2  15    5.74    9.84 
 -24  -2  17    9.14    5.83 
 -24   2  17    0.88    7.48 
   5   3 -12  382.40   38.34 
   3   3 -10  322.83   38.37 
   1   3  -8  503.16   55.66 
  -1   3  -6  640.06   72.51 
  -1   3  -6  806.61   50.77 
  -3  -3  -4  930.13   63.82 
  -3   3  -4  836.43   78.34 
  -5  -3  -2  864.91   56.94 
  -5  -3  -2  719.93   49.02 
  -5   3  -2  768.74   64.47 
  -7  -3   0  513.21   44.22 
  -7  -3   0  602.87   44.22 
  -9   3   2  344.22   31.71 
  -9  -3   2  454.20   34.16 
  -9  -3   2  310.26   35.26 
  -9   3   2  506.64   39.13 
 -11   3   4   68.78   12.67 
 -11  -3   4   81.88   11.35 
 -11   3   4   77.42   14.59 
 -13  -3   6  142.92   13.02 
 -13   3   6  121.66   17.18 
 -13   3   6  103.12   19.26 
 -13  -3   6   95.45   24.69 
 -15   3   8   33.99    8.84 
 -15  -3   8   21.83   13.51 
 -17   3  10    4.35    3.27 
 -17   3  10    2.70    4.47 
 -17  -3  10   10.71    8.45 
 -19  -3  12  -14.46   12.56 
 -21  -3  14   -5.57   11.77 
 -21   3  14   11.21   16.49 
 -23  -3  16    6.82    8.48 
 -23   3  16  -16.61   16.19 
 -25  -3  18   31.53   21.64 
   4   4 -11  515.58   51.65 
   2   4  -9  470.98   54.94 
   0   4  -7  692.60   72.01 
  -2   4  -5  867.10   49.45 
  -2   4  -5  900.83   80.52 
  -2   4  -5  927.04   58.09 
  -4  -4  -3  722.69   52.17 
  -4   4  -3  849.03   47.44 
  -4   4  -3  791.39   66.59 
  -6  -4  -1  928.37   61.60 
  -6   4  -1  916.86   52.07 
  -6  -4  -1  823.14   58.70 
  -6   4  -1  929.11   67.69 
  -8   4   1  301.90   31.10 
  -8  -4   1  362.63   28.38 
  -8   4   1  279.05   25.14 
  -8  -4   1  290.41   29.24 
 -10   4   3  605.33   48.43 
 -10  -4   3  497.05   51.13 
 -12   4   5  178.23   24.85 
 -12  -4   5  185.14   31.34 
 -12  -4   5  190.08   16.48 
 -14   4   7   25.19   10.18 
 -14  -4   7   41.63   16.09 
 -16   4   9   18.11    9.85 
 -16  -4   9   19.94   11.71 
 -18   4  11    2.61    4.09 
 -18  -4  11   -2.29    2.73 
 -20   4  13    3.58    8.07 
 -20  -4  13   13.32   14.64 
 -22  -4  15    7.70   12.59 
 -22   4  15   -2.99    7.14 
 -24  -4  17   26.55   21.53 
 -24   4  17   19.65   18.01 
   3   5 -10  457.90   54.41 
   1   5  -8  418.34   55.47 
  -1   5  -6  329.16   24.09 
  -1   5  -6  353.80   46.00 
  -1   5  -6  357.07   33.23 
  -3   5  -4 1039.57   62.93 
  -3   5  -4 1046.11   81.60 
  -5  -5  -2  658.49   44.99 
  -5   5  -2  561.28   34.23 
  -5   5  -2  632.40   51.85 
  -7   5   0  840.32   63.32 
  -7   5   0  828.57   52.94 
  -7  -5   0  839.31   58.95 
  -9   5   2  245.86   24.72 
  -9   5   2  215.91   25.89 
  -9  -5   2  256.96   28.23 
 -11   5   4  148.07   20.91 
 -11  -5   4  113.01   20.89 
 -13   5   6  227.42   30.01 
 -13  -5   6  216.25   34.89 
 -15   5   8   18.61    7.69 
 -15  -5   8   19.16   10.81 
 -17   5  10   10.57    7.61 
 -17  -5  10   38.39   16.71 
 -19   5  12    5.10    5.14 
 -19  -5  12    0.56    5.83 
 -21   5  14   -1.91    2.99 
 -21  -5  14    0.04   11.52 
 -23  -5  16   12.85   11.23 
 -23   5  16    2.56    5.86 
   4   6 -11  359.15   48.11 
   2   6  -9  267.40   43.22 
   0   6  -7  298.00   43.30 
  -2   6  -5  437.10   45.19 
  -2   6  -5  502.95   31.91 
  -2   6  -5  507.41   51.46 
  -4   6  -3  463.52   42.92 
  -4   6  -3  462.86   29.06 
  -4   6  -3  478.78   45.37 
  -6   6  -1  357.24   33.48 
  -6   6  -1  306.22   24.91 
  -6  -6  -1  339.61   31.63 
  -8   6   1  185.42   20.03 
  -8  -6   1  180.53   22.68 
  -8   6   1  183.16   23.80 
 -10   6   3  257.39   27.83 
 -10  -6   3  235.73   29.53 
 -12   6   5  129.88   21.07 
 -12  -6   5   88.37   18.97 
 -14   6   7  116.30   22.47 
 -14  -6   7  103.68   25.46 
 -16   6   9  -14.38    8.31 
 -16  -6   9    2.82    2.08 
 -18   6  11    6.78    6.91 
 -18  -6  11    3.45    5.10 
 -20   6  13  -11.46    8.94 
 -20  -6  13   15.08   11.46 
 -22   6  15  -13.93   10.70 
 -22  -6  15   -6.40    8.32 
 -24  -6  17   22.58   16.23 
   3   7 -10  214.60   39.44 
   1   7  -8  148.84   30.72 
   1   7  -8  119.59   23.01 
  -1   7  -6  156.62   25.51 
  -1   7  -6  191.58   30.32 
  -3   7  -4  154.85   23.74 
  -3   7  -4  197.85   16.65 
  -3   7  -4  222.42   29.48 
  -5   7  -2  206.96   24.81 
  -5   7  -2  165.88   24.37 
  -5   7  -2  171.74   16.17 
  -5  -7  -2  161.56   20.94 
  -7   7   0   31.65    8.72 
  -7   7   0   43.44   11.50 
  -7  -7   0   39.91   10.20 
  -7   7   0   42.96    8.45 
  -9   7   2   85.11   14.33 
  -9  -7   2  114.29   18.56 
 -11   7   4   99.23   17.80 
 -11  -7   4   99.01   19.08 
 -13   7   6   10.55    6.42 
 -13  -7   6   25.36   10.80 
 -15   7   8   12.28    7.29 
 -15  -7   8   30.74   13.58 
 -17   7  10   12.64    9.65 
 -17  -7  10   -1.34    5.02 
 -19   7  12  -14.48    9.73 
 -19  -7  12    4.41    5.95 
 -21   7  14    0.92    4.48 
 -21  -7  14    9.55   11.31 
 -23   7  16    7.65   10.65 
 -23  -7  16   -5.19    7.40 
   2   8  -9   51.79   18.38 
   2   8  -9   53.07   16.70 
   0   8  -7   13.54    8.07 
   0   8  -7    4.34    1.18 
  -2   8  -5   70.88   16.96 
  -2   8  -5  103.66   12.61 
  -2   8  -5  122.86   22.43 
  -4   8  -3   27.90    9.68 
  -4   8  -3   18.96    7.83 
  -4   8  -3   20.64    5.30 
  -6   8  -1   32.22    9.24 
  -6  -8  -1   35.35    9.59 
  -6   8  -1   23.71    8.63 
  -6   8  -1   24.89    6.32 
  -8   8   1    4.44    3.55 
  -8  -8   1    3.29    2.94 
  -8   8   1    1.02    1.03 
 -10  -8   3   -0.08    2.01 
 -10   8   3    4.05    3.78 
 -12  -8   5    3.31    2.38 
 -12   8   5    4.97    3.56 
 -14   8   7   -2.42    3.12 
 -14  -8   7   -5.87    5.35 
 -16   8   9   12.30    6.87 
 -16  -8   9   10.00    3.64 
 -18   8  11   14.89    9.43 
 -18  -8  11   -7.41    7.11 
 -20   8  13    7.72    9.20 
 -20  -8  13    4.39    6.00 
 -22   8  15   11.71   10.87 
 -22  -8  15    8.60    8.12 
   3   9 -10   -1.71    3.69 
   3   9 -10   -1.17    3.02 
   1   9  -8   -8.10    8.05 
   1   9  -8    1.12    2.61 
  -1   9  -6    7.35    7.82 
  -1   9  -6   -2.19    4.07 
  -3   9  -4    1.34    3.26 
  -3   9  -4    2.90    4.27 
  -3   9  -4    2.39    1.25 
  -5   9  -2    9.57    5.38 
  -5   9  -2    5.64    4.85 
  -5   9  -2    7.64    4.11 
  -7   9   0   14.17    6.22 
  -7  -9   0   22.92    8.33 
  -7   9   0   14.64    5.92 
  -9   9   2    2.17    1.50 
  -9   9   2    1.84    2.09 
 -11  -9   4    3.70    5.29 
 -11   9   4   -0.44    3.68 
 -13  -9   6    4.16    2.71 
 -13   9   6    3.45    4.75 
 -15   9   8   -5.17    5.09 
 -15  -9   8    0.33    5.63 
 -17   9  10    8.39    7.64 
 -17  -9  10    2.83    4.45 
 -19   9  12   -6.78    6.81 
 -19  -9  12   21.19   12.36 
 -21   9  14   -2.54    4.88 
 -21  -9  14   -2.64    4.77 
   4  10 -11   22.16   11.73 
   2  10  -9   88.22   21.91 
   2  10  -9   77.18   23.06 
   0  10  -7   77.40   18.89 
   0  10  -7   70.90   19.01 
  -2  10  -5   50.46   13.64 
  -2  10  -5   56.74   15.81 
  -4  10  -3   68.88   15.35 
  -4  10  -3   49.06   14.34 
  -4  10  -3   50.65   10.29 
  -6  10  -1   89.09   16.95 
  -6  10  -1   96.00   15.59 
  -6 -10  -1  112.64   20.10 
  -6  10  -1  120.21   21.70 
  -8  10   1   22.37    7.87 
  -8 -10   1   24.89    8.99 
  -8  10   1   22.56    7.78 
 -10  10   3    8.29    4.11 
 -10 -10   3   16.99    7.66 
 -10  10   3    8.12    4.81 
 -12 -10   5   19.66    9.43 
 -12  10   5   14.08    7.05 
 -14 -10   7   -0.37    4.09 
 -14  10   7    6.78    5.12 
 -16  10   9    3.06    4.46 
 -16 -10   9    5.32    6.02 
 -18  10  11   -2.81    2.24 
 -18 -10  11   -9.49    7.92 
 -20  10  13    8.10    6.87 
 -20 -10  13    3.20    4.94 
 -22 -10  15    0.65    5.02 
   5  11 -12   33.14   15.22 
   3  11 -10  151.88   30.91 
   1  11  -8  128.36   26.33 
   1  11  -8  137.43   28.83 
  -1  11  -6   95.30   21.51 
  -1  11  -6  126.25   24.96 
  -3  11  -4  144.17   24.63 
  -3  11  -4  173.24   28.66 
  -5  11  -2  197.67   28.57 
  -5  11  -2  215.37   31.70 
  -5  11  -2  254.20   27.10 
  -7  11   0   51.57   12.43 
  -7 -11   0   57.56   14.63 
  -7  11   0   63.42   13.47 
  -9  11   2   64.18   13.64 
  -9 -11   2   70.12   16.87 
  -9  11   2   57.33   14.10 
 -11 -11   4   52.45   14.78 
 -11  11   4   44.09   13.56 
 -13 -11   6    4.30    3.21 
 -13  11   6   10.50    7.47 
 -15 -11   8   17.78    8.59 
 -15  11   8   33.84   13.87 
 -17  11  10   -3.42    4.70 
 -17 -11  10    2.62    6.33 
 -19  11  12  -10.29    8.67 
 -19 -11  12    5.41    9.70 
 -21 -11  14   -7.29    7.61 
   4  12 -11  211.94   39.33 
   2  12  -9  139.25   29.03 
   0  12  -7  145.94   28.83 
   0  12  -7  142.01   28.17 
  -2  12  -5  187.56   31.57 
  -2  12  -5  207.00   32.26 
  -4  12  -3  367.59   42.31 
  -4  12  -3  353.63   44.16 
  -6  12  -1  171.51   25.94 
  -8  12   1   96.81   18.33 
  -8  12   1  115.90   20.33 
  -8 -12   1  104.30   21.30 
 -10 -12   3   49.54   15.23 
 -10  12   3   24.94   10.36 
 -12 -12   5   87.27   20.76 
 -12  12   5   69.44   18.44 
 -14 -12   7   57.39   17.27 
 -14  12   7   36.80   13.88 
 -16 -12   9   -0.33    1.83 
 -16  12   9   -2.25    1.61 
 -18  12  11   -7.34    7.19 
 -18 -12  11    9.31    7.70 
 -20 -12  13    7.08    9.77 
   3  13 -10  176.53   35.36 
   1  13  -8  151.99   30.76 
  -1  13  -6  180.17   31.93 
  -1  13  -6  145.85   29.48 
  -3  13  -4  154.19   27.53 
  -3  13  -4  173.31   30.68 
  -5  13  -2  155.77   26.09 
  -5  13  -2  120.20   24.88 
  -7  13   0  131.52   22.68 
  -9  13   2   84.39   17.19 
  -9 -13   2  116.86   24.15 
  -9  13   2   87.73   19.23 
 -11 -13   4   94.56   22.05 
 -11  13   4   85.37   20.68 
 -13 -13   6   51.33   16.72 
 -13  13   6   59.76   18.42 
 -15 -13   8   15.14    7.99 
 -15  13   8   -0.32    5.28 
 -17 -13  10    3.07    2.63 
 -17  13  10    1.45    7.49 
   2  14  -9  202.15   38.11 
   0  14  -7  165.76   32.77 
   0  14  -7  145.40   30.81 
  -2  14  -5  174.93   32.12 
  -2  14  -5  123.84   26.69 
  -4  14  -3   94.01   21.78 
  -4  14  -3  117.46   25.56 
  -6  14  -1   89.08   19.80 
  -6  14  -1   82.05   20.67 
  -8  14   1   55.81   15.10 
 -10 -14   3   55.05   16.71 
 -12 -14   5   39.37   15.26 
 -12  14   5   30.60   13.50 
 -14 -14   7   16.19    9.74 
 -14  14   7   11.37    8.35 
 -16 -14   9    4.07    4.70 
 -16  14   9    7.94    7.38 
  -1  15  -6   77.42   21.90 
  -1  15  -6   95.68   24.87 
  -3  15  -4  103.13   24.21 
  -3  15  -4   88.10   23.17 
  -5  15  -2   45.16   15.14 
  -5  15  -2   50.83   17.24 
  -7  15   0   27.37   11.10 
  -9 -15   2   45.93   16.09 
 -11 -15   4    7.20    7.16 
 -13 -15   6   24.97   12.35 
 -15  15   8  -27.70   13.84 
  -2  16  -5   34.57   14.46 
  -2  16  -5   20.40   11.52 
  -4  16  -3   15.39    8.56 
  -4  16  -3   22.97   11.62 
  -6  16  -1   10.11    5.94 
  -6  16  -1    6.55    6.13 
  -3  17  -4   14.35    9.45 
  -5  17  -2    6.69    5.18 
  -5  17  -2    2.02    4.61 
   4   0 -12   69.58   14.18 
   2   0 -10  110.38   18.51 
   0   0  -8  146.22   22.67 
  -2   0  -6   15.46    7.48 
  -4   0  -4    9.33    6.14 
  -6   0  -2  308.70   42.25 
  -6   0  -2  378.13   24.95 
  -8   0   0    4.79    6.13 
  -8   0   0   31.98    8.77 
 -10   0   2    9.61    7.38 
 -10   0   2   11.52    7.33 
 -12   0   4  380.56   42.38 
 -12   0   4  280.66   43.23 
 -14   0   6  301.79   35.33 
 -14   0   6  250.23   45.37 
 -16   0   8  373.71   38.30 
 -16   0   8  237.89   47.86 
 -18   0  10  324.30   59.86 
 -20   0  12  410.12   73.54 
 -22   0  14  361.37   73.84 
 -24   0  16  228.28   61.46 
   5   1 -13  129.82   19.65 
   3   1 -11   58.38   13.69 
   1  -1  -9   22.35    8.16 
   1   1  -9   21.02    8.67 
  -1  -1  -7  205.00   25.71 
  -1   1  -7  152.96   26.51 
  -3   1  -5   -0.87    2.96 
  -3  -1  -5    5.45    3.41 
  -5  -1  -3  171.01   27.14 
  -5   1  -3  194.75   33.55 
  -5  -1  -3  227.87   16.67 
  -7  -1  -1   76.05   18.02 
  -7  -1  -1  119.12   13.45 
  -7   1  -1  122.41   15.67 
  -7   1  -1  101.27   23.02 
  -9   1   1   37.97   12.20 
  -9  -1   1   38.22   11.97 
  -9  -1   1   33.02    9.72 
  -9   1   1   34.34   10.69 
 -11   1   3   16.46    7.13 
 -11  -1   3   10.18    7.11 
 -11  -1   3   15.20    8.84 
 -11   1   3   11.07    6.92 
 -13  -1   5  340.15   39.28 
 -13  -1   5  286.18   44.80 
 -13   1   5  276.14   44.59 
 -13   1   5  390.35   37.31 
 -15  -1   7  461.21   43.74 
 -15  -1   7  356.72   56.34 
 -15   1   7  379.67   57.15 
 -15   1   7  333.18   34.96 
 -17  -1   9  281.97   30.66 
 -17   1   9  235.40   27.58 
 -17  -1   9  220.95   48.11 
 -17   1   9  243.32   49.50 
 -19  -1  11  220.51   52.09 
 -19   1  11  349.98   63.26 
 -21  -1  13  414.58   76.05 
 -21   1  13  351.66   69.05 
 -23  -1  15  223.85   59.28 
 -23   1  15  218.48   61.07 
 -25  -1  17  145.70   48.50 
 -25   1  17  169.01   52.68 
   4   2 -12   66.16   14.70 
   2   2 -10   45.05   13.25 
   0   2  -8   27.48   11.39 
   0  -2  -8   20.42    7.75 
  -2  -2  -6  154.68   21.63 
  -2   2  -6  136.30   28.32 
  -2   2  -6  169.94   16.13 
  -4   2  -4   29.78   13.36 
  -4  -2  -4   46.09   11.83 
  -6  -2  -2  161.59   23.61 
  -6  -2  -2  189.64   17.08 
  -6   2  -2  182.30   31.67 
  -6   2  -2  194.57   18.03 
  -8  -2   0  176.26   24.41 
  -8  -2   0  164.18   18.86 
  -8   2   0  160.01   26.05 
 -10  -2   2  164.44   24.12 
 -10   2   2  131.75   20.92 
 -10  -2   2   99.35   18.10 
 -12  -2   4   12.76    6.91 
 -12   2   4   11.12    4.89 
 -14  -2   6  174.44   22.69 
 -14  -2   6  217.47   39.75 
 -14   2   6  265.56   27.41 
 -16  -2   8  154.41   17.19 
 -16  -2   8  192.06   40.97 
 -16   2   8  151.10   20.41 
 -18  -2  10  139.49   38.04 
 -18   2  10  146.85   40.12 
 -18   2  10  167.98   21.64 
 -20  -2  12  186.34   46.77 
 -20   2  12  131.68   42.30 
 -22  -2  14  321.70   66.67 
 -22   2  14  251.58   61.40 
 -24  -2  16  120.77   43.21 
 -24   2  16  102.04   41.78 
   3   3 -11   10.84    7.11 
   1   3  -9   11.22    9.07 
  -1  -3  -7   18.21    6.27 
  -1   3  -7    4.35    6.41 
  -3  -3  -5   15.86    5.34 
  -3   3  -5   15.38    8.79 
  -5   3  -3   58.41   17.12 
  -5  -3  -3   48.42    8.03 
  -5   3  -3   49.02    4.69 
  -5  -3  -3   40.73   10.11 
  -7  -3  -1   51.60    9.10 
  -7   3  -1   49.04   13.74 
  -7  -3  -1   55.66   11.33 
  -9   3   1    5.98    3.57 
  -9  -3   1    9.55    5.07 
  -9  -3   1    7.46    4.54 
 -11  -3   3  223.58   23.85 
 -11   3   3  260.90   27.90 
 -13   3   5   74.43   13.69 
 -13   3   5   66.41   14.59 
 -13  -3   5   57.63   10.01 
 -13  -3   5   69.38   19.24 
 -15   3   7  105.75   17.03 
 -15  -3   7  125.20   12.55 
 -15   3   7  105.91   20.95 
 -15  -3   7   69.15   23.29 
 -17   3   9   36.17    9.67 
 -17  -3   9   39.79   18.56 
 -19   3  11   49.48   11.65 
 -19  -3  11   63.68   23.80 
 -21  -3  13   45.27   24.29 
 -21   3  13   73.00   30.40 
 -23  -3  15   64.92   27.89 
 -23   3  15   73.38   36.40 
 -25  -3  17   28.20   17.70 
 -25   3  17   10.51   17.04 
   4   4 -12    4.09    2.66 
   2   4 -10    6.94    7.82 
   0   4  -8   -0.89    6.66 
  -2   4  -6   14.23    8.56 
  -2   4  -6    5.23    1.75 
  -4  -4  -4   36.25    9.49 
  -4   4  -4   23.23   10.20 
  -4   4  -4   21.61    4.04 
  -6  -4  -2   -1.48    1.24 
  -6  -4  -2   -0.07    0.86 
  -6   4  -2   -0.92    5.42 
  -8   4   0    3.06    3.49 
  -8  -4   0    1.33    1.33 
  -8  -4   0    2.33    1.83 
 -10   4   2    6.75    2.85 
 -10  -4   2    2.67    1.22 
 -10  -4   2    3.27    3.00 
 -10   4   2    1.94    1.33 
 -12   4   4   20.35    7.43 
 -12  -4   4   25.54    6.26 
 -12   4   4   31.48    8.80 
 -12  -4   4   46.29   13.75 
 -14   4   6   10.90    4.90 
 -14   4   6   16.25    7.23 
 -14  -4   6    6.56    4.45 
 -14  -4   6   17.68    4.10 
 -16   4   8   -0.07    2.83 
 -16  -4   8   -1.35    5.49 
 -16   4   8   -6.19    3.96 
 -18   4  10   38.71   14.54 
 -18  -4  10   55.10   21.44 
 -18   4  10   36.91   10.26 
 -20   4  12   12.67   12.23 
 -20  -4  12    6.52   14.50 
 -22  -4  14    4.05    6.17 
 -22   4  14   20.65   21.52 
 -24  -4  16   -7.62   10.12 
 -24   4  16    3.20    7.66 
   3   5 -11    1.65    1.38 
   1   5  -9   25.93   13.51 
  -1   5  -7    1.02    1.21 
  -1   5  -7   -2.32    3.98 
  -1   5  -7   -0.18    2.91 
  -3   5  -5  -11.11    7.42 
  -3   5  -5   16.85    4.68 
  -5  -5  -3   -0.89    1.75 
  -5   5  -3   -0.15    0.36 
  -7   5  -1    4.08    1.43 
  -7   5  -1    6.18    4.56 
  -7  -5  -1    3.73    2.48 
  -9   5   1    1.78    2.35 
  -9   5   1    0.52    1.32 
  -9  -5   1    1.42    2.32 
 -11   5   3   11.96    5.86 
 -11   5   3    5.98    3.06 
 -11  -5   3   14.77    6.98 
 -13   5   5    1.15    2.96 
 -13  -5   5    0.07    2.99 
 -13   5   5    0.63    1.24 
 -15   5   7   -0.38    1.85 
 -15  -5   7    0.40    3.87 
 -17   5   9   13.36    7.95 
 -17  -5   9   11.29   10.76 
 -19   5  11   -8.33    7.04 
 -19  -5  11    8.49    9.13 
 -21   5  13    0.34    3.23 
 -21  -5  13    3.67    6.20 
 -23  -5  15   12.04    6.92 
 -25  -5  17   38.20   20.31 
   2   6 -10   30.27   14.57 
   0   6  -8   19.22   10.35 
  -2   6  -6    0.17    3.41 
  -2   6  -6    0.50    0.65 
  -4   6  -4   29.60    9.86 
  -6   6  -2    5.06    3.82 
  -6  -6  -2    7.26    3.78 
  -6   6  -2    6.65    2.14 
  -8   6   0   26.14    9.10 
  -8  -6   0   30.07    8.37 
  -8   6   0   22.46    5.37 
 -10   6   2   43.90   11.42 
 -10   6   2   35.45    8.70 
 -10  -6   2   33.44   10.15 
 -12   6   4   -1.13    3.04 
 -12  -6   4   -1.36    1.99 
 -12   6   4   -1.34    2.68 
 -14   6   6   25.60    9.68 
 -14  -6   6   64.41   18.23 
 -16   6   8   42.85   14.31 
 -16  -6   8   29.22   13.83 
 -18   6  10   63.88   18.75 
 -18  -6  10   46.63   19.66 
 -20   6  12   80.72   23.29 
 -20  -6  12  147.17   36.87 
 -22   6  14   38.77   16.88 
 -22  -6  14   60.11   25.24 
 -24  -6  16   50.35   24.05 
   3   7 -11   50.89   18.94 
   1   7  -9   35.89   16.34 
  -1   7  -7    5.15    5.30 
  -3   7  -5   -0.61    3.56 
  -3   7  -5    2.57    1.18 
  -5   7  -3    1.44    1.67 
  -5   7  -3    7.42    4.89 
  -5   7  -3    6.84    2.23 
  -7   7  -1   38.19   11.49 
  -7  -7  -1   40.88   10.34 
  -7   7  -1   38.09    7.14 
  -9   7   1   30.06    9.63 
  -9  -7   1   26.45    8.44 
  -9   7   1   25.15    6.87 
 -11   7   3   32.33    9.46 
 -11  -7   3   26.33    8.98 
 -13   7   5   31.85   10.89 
 -13  -7   5   31.41   11.81 
 -15   7   7  138.16   24.23 
 -15  -7   7  108.23   24.12 
 -17   7   9  137.98   27.31 
 -17  -7   9  139.98   30.66 
 -19  -7  11  130.63   32.42 
 -19   7  11   95.94   24.34 
 -21   7  13  173.06   35.89 
 -21  -7  13  125.64   34.35 
 -23   7  15  113.70   31.10 
 -23  -7  15   85.62   29.05 
   2   8 -10   49.29   19.70 
   0   8  -8   10.10    9.87 
   0   8  -8   -0.76    3.69 
  -2   8  -6   35.38   12.92 
  -2   8  -6   20.59    9.98 
  -4   8  -4    0.07    3.47 
  -4   8  -4   -0.41    1.22 
  -4   8  -4    1.83    1.30 
  -6   8  -2    6.06    2.63 
  -6   8  -2    8.54    4.43 
  -6  -8  -2    4.55    4.13 
  -6   8  -2    7.71    2.99 
  -8   8   0   49.93   11.85 
  -8   8   0   55.12   13.75 
  -8  -8   0   60.68   13.26 
  -8   8   0   48.27    9.78 
 -10   8   2   76.77   14.50 
 -10  -8   2  121.52   20.55 
 -12   8   4   35.81   11.18 
 -12  -8   4   40.98   12.41 
 -14   8   6   72.48   17.24 
 -14  -8   6   87.37   20.21 
 -16   8   8  158.27   28.10 
 -16  -8   8  126.09   27.05 
 -18   8  10  218.69   36.18 
 -18  -8  10  129.73   30.90 
 -20   8  12  148.67   31.79 
 -20  -8  12   84.42   26.79 
 -22   8  14   67.18   23.16 
 -22  -8  14   70.90   25.92 
   1   9  -9    9.38    7.50 
   1   9  -9   42.45   14.93 
  -1   9  -7   33.08   11.32 
  -1   9  -7   27.52   12.48 
  -3   9  -5   -0.47    2.05 
  -3   9  -5    3.70    3.02 
  -5   9  -3   -0.63    1.39 
  -5   9  -3   -2.00    1.66 
  -5   9  -3   -3.40    3.68 
  -7   9  -1   62.42   15.60 
  -7   9  -1   53.05   13.20 
  -7  -9  -1   77.85   15.37 
  -7   9  -1   57.28   10.40 
  -9   9   1   65.67   15.63 
  -9   9   1   63.63   13.48 
  -9   9   1   70.24   13.41 
  -9  -9   1   72.80   15.66 
 -11  -9   3   79.07   17.25 
 -11   9   3   63.76   14.33 
 -13   9   5  107.00   20.65 
 -13  -9   5   87.41   19.82 
 -15   9   7  152.22   27.30 
 -15  -9   7  120.69   25.85 
 -17   9   9  254.82   38.20 
 -17  -9   9  171.35   33.06 
 -19   9  11  111.07   26.86 
 -19  -9  11   80.08   23.63 
 -21   9  13   70.72   24.12 
 -21  -9  13   99.67   28.06 
 -23  -9  15   29.79   14.44 
   2  10 -10   43.38   14.85 
   0  10  -8   -1.61    2.31 
   0  10  -8   15.62    8.86 
  -2  10  -6   38.03   13.96 
  -2  10  -6   29.04   11.39 
  -4  10  -4    0.39    3.67 
  -4  10  -4    0.79    2.25 
  -6  10  -2   23.73    9.18 
  -6  10  -2   30.78   11.00 
  -6  10  -2   31.94    7.89 
  -8  10   0   10.49    6.52 
  -8 -10   0    4.51    5.68 
  -8  10   0   -0.69    2.23 
  -8  10   0   -3.51    4.24 
 -10  10   2   41.23   11.00 
 -10 -10   2   80.65   17.62 
 -10  10   2   48.47   12.53 
 -12 -10   4  115.46   22.65 
 -12  10   4   79.37   17.44 
 -14  10   6  128.73   24.51 
 -14 -10   6  130.19   25.68 
 -16  10   8  104.90   24.06 
 -16 -10   8  141.42   28.38 
 -18  10  10   43.58   16.84 
 -18 -10  10   61.33   19.74 
 -20  10  12   63.29   21.50 
 -20 -10  12   85.01   25.20 
 -22  10  14   91.58   27.59 
 -22 -10  14   69.38   24.89 
   3  11 -11   14.24    9.96 
   1  11  -9   42.33   15.77 
   1  11  -9   28.22   13.77 
  -1  11  -7   14.08    9.50 
  -1  11  -7   18.04   10.88 
  -3  11  -5    3.81    5.09 
  -3  11  -5    0.15    1.25 
  -5  11  -3    7.38    6.54 
  -5  11  -3    2.14    2.70 
  -7  11  -1    2.98    3.25 
  -7 -11  -1   -0.87    2.26 
  -7  11  -1   -1.17    1.51 
  -9  11   1    7.58    5.57 
  -9 -11   1   15.65    8.24 
  -9  11   1    9.66    5.17 
 -11  11   3   25.35    8.75 
 -11 -11   3   20.75   10.35 
 -11  11   3   23.52    8.58 
 -13 -11   5   66.68   18.07 
 -13  11   5   62.16   16.96 
 -15 -11   7   67.74   19.23 
 -15  11   7   73.88   19.93 
 -17  11   9   31.52   14.24 
 -17 -11   9   29.73   12.88 
 -19  11  11   30.43   14.02 
 -19 -11  11   36.66   16.66 
 -21  11  13   50.94   20.06 
 -21 -11  13   32.13   14.15 
   2  12 -10    9.88    7.50 
   0  12  -8    1.10    3.61 
   0  12  -8    6.56    6.42 
  -2  12  -6    0.74    1.55 
  -2  12  -6   11.20    7.40 
  -4  12  -4   -8.65    6.26 
  -4  12  -4    1.11    3.37 
  -6  12  -2    0.83    1.79 
  -6  12  -2   -6.78    5.24 
  -8  12   0   -0.44    1.61 
  -8 -12   0    1.06    4.27 
  -8  12   0   -0.18    1.72 
 -10  12   2   11.95    7.02 
 -10 -12   2    6.85    6.02 
 -10  12   2    9.98    6.19 
 -12 -12   4   10.50    7.00 
 -12  12   4   12.17    6.80 
 -14 -12   6   42.44   15.41 
 -14  12   6   23.13   11.39 
 -16 -12   8   12.36    7.38 
 -16  12   8    4.97    6.70 
 -18  12  10   25.33   13.14 
 -18 -12  10   16.66    9.98 
 -20  12  12    8.01    7.79 
 -20 -12  12   20.99   12.19 
   1  13  -9    0.47    5.56 
  -1  13  -7    2.27    3.87 
  -1  13  -7    3.71    6.92 
  -3  13  -5  -16.70    9.18 
  -3  13  -5    4.23    3.84 
  -5  13  -3    1.09    4.12 
  -5  13  -3   -6.87    5.92 
  -7  13  -1    3.81    3.37 
  -7  13  -1    3.13    2.48 
  -9  13   1    0.12    3.16 
  -9 -13   1    2.73    4.36 
 -11 -13   3    7.31    4.34 
 -13 -13   5    2.70    4.46 
 -13  13   5   -9.18    6.67 
 -15 -13   7    6.45    5.61 
 -15  13   7    4.33    1.20 
 -17 -13   9   20.47   10.89 
 -17  13   9  -10.15    8.09 
 -19  13  11    5.61    5.76 
 -19 -13  11   -3.13    4.71 
   0  14  -8   -1.93    4.95 
  -2  14  -6    6.08   12.46 
  -2  14  -6    1.31    4.04 
  -4  14  -4    1.92    4.00 
  -4  14  -4    2.11    5.09 
  -6  14  -2    7.80    6.99 
  -6  14  -2    4.09    6.44 
  -8  14   0    3.61    4.93 
  -8  14   0    5.03    4.14 
 -10 -14   2    2.59    2.67 
 -12 -14   4   26.09   11.09 
 -14 -14   6   10.43    8.34 
 -14  14   6    1.24    2.88 
 -16 -14   8    5.21    6.03 
 -16  14   8   -6.39    6.39 
 -18  14  10   62.12   21.28 
  -1  15  -7    6.05    6.83 
  -3  15  -5  -10.51    7.89 
  -3  15  -5    2.42    5.23 
  -5  15  -3    6.26    6.73 
  -5  15  -3    5.46    6.82 
  -7  15  -1    6.48    5.65 
  -7  15  -1   -1.15    2.77 
  -9  15   1    1.28    3.66 
 -11 -15   3    4.00    5.33 
 -13 -15   5    6.66    8.91 
 -17  15   9  -12.78    9.61 
  -2  16  -6   -1.24    3.18 
  -4  16  -4    5.27    5.92 
  -4  16  -4   -1.72    5.47 
  -6  16  -2   -1.01    4.75 
  -6  16  -2  -10.52    8.28 
  -8  16   0    5.89    5.01 
  -5  17  -3    2.88    7.48 
   2   0 -11    0.16    3.69 
   0   0  -9    9.83    6.67 
  -2   0  -7   -2.21    4.55 
  -4   0  -5    1.76    3.02 
  -6   0  -3   -0.81    4.51 
  -6   0  -3    0.17    0.62 
  -8   0  -1    1.31    4.09 
  -8   0  -1    2.19    1.83 
 -10   0   1   -0.70    5.11 
 -10   0   1   -3.50    4.65 
 -12   0   3    4.83    4.39 
 -12   0   3    0.21    3.82 
 -14   0   5   11.31    4.58 
 -14   0   5    4.01    4.87 
 -16   0   7    1.23    4.78 
 -16   0   7   -1.39    1.82 
 -18   0   9    5.93    8.78 
 -18   0   9    1.66    3.34 
 -20   0  11    0.87   14.59 
 -22   0  13  -14.88   14.37 
 -24   0  15   20.61   21.97 
 -26   0  17    2.23   15.26 
   3   1 -12   10.15    6.92 
   1  -1 -10   51.11   12.24 
   1   1 -10   42.12   13.38 
  -1  -1  -8   35.46   10.71 
  -1   1  -8   25.69   10.76 
  -3   1  -6   23.17   10.79 
  -3  -1  -6   47.47   13.48 
  -5   1  -4  107.44   24.96 
  -5  -1  -4  129.83   23.26 
  -7  -1  -2   14.41   10.74 
  -7  -1  -2   32.11    5.82 
  -7   1  -2   40.01   16.07 
  -7   1  -2   31.24    5.51 
  -9  -1   0  249.34   37.43 
  -9  -1   0  313.00   30.83 
  -9   1   0  345.36   35.59 
 -11   1   2   86.50   20.78 
 -11  -1   2   94.79   20.89 
 -11  -1   2   94.53   19.69 
 -11   1   2   86.67   19.47 
 -13   1   4   77.95   17.64 
 -13  -1   4  106.59   21.68 
 -13  -1   4   95.28   24.05 
 -13   1   4   98.67   25.03 
 -15  -1   6  130.68   23.99 
 -15   1   6  127.80   21.79 
 -15  -1   6   86.71   25.74 
 -15   1   6  117.65   30.75 
 -17  -1   8  110.10   20.40 
 -17   1   8  101.18   18.56 
 -17  -1   8   83.06   26.59 
 -17   1   8   89.49   28.91 
 -19   1  10   26.12    8.86 
 -19  -1  10   13.50   19.57 
 -19   1  10   28.91   20.46 
 -21  -1  12  103.24   35.81 
 -21   1  12  107.91   37.30 
 -23  -1  14   31.70   24.42 
 -23   1  14   29.95   21.90 
 -25  -1  16   -0.88    6.93 
 -25   1  16   16.81   21.45 
   4   2 -13   53.71   13.56 
   2   2 -11   46.57   14.22 
   0  -2  -9    6.12    2.99 
   0   2  -9    5.30    3.29 
  -2  -2  -7  280.95   32.40 
  -2   2  -7  250.30   39.72 
  -4  -2  -5  261.83   30.74 
  -4   2  -5  174.17   34.14 
  -6  -2  -3  323.66   38.33 
  -6  -2  -3  393.37   27.96 
  -6   2  -3  427.85   54.40 
  -8  -2  -1  349.82   40.82 
  -8  -2  -1  417.80   33.13 
  -8   2  -1  442.14   52.92 
  -8   2  -1  512.84   40.57 
 -10  -2   1  492.20   44.09 
 -10   2   1  577.46   51.51 
 -12  -2   3 1059.02   83.00 
 -12   2   3 1130.38   78.79 
 -14  -2   5  210.82   28.51 
 -14  -2   5  232.31   39.27 
 -14   2   5  296.88   32.35 
 -16  -2   7  195.71   24.68 
 -16  -2   7  274.48   46.83 
 -16   2   7  181.81   25.07 
 -16   2   7  307.84   49.26 
 -18  -2   9   81.64   28.39 
 -18   2   9   97.07   17.43 
 -18   2   9  133.77   37.18 
 -20  -2  11  181.09   45.58 
 -20   2  11  182.34   46.11 
 -22  -2  13  164.60   46.83 
 -22   2  13  167.96   47.37 
 -24  -2  15   92.20   35.10 
 -24   2  15   61.36   31.78 
 -26  -2  17   80.33   37.09 
 -26   2  17   13.04   18.95 
   3   3 -12   57.14   15.20 
   1   3 -10   32.36   13.51 
  -1  -3  -8  169.51   23.46 
  -1   3  -8  145.94   30.07 
  -3  -3  -6  399.05   38.12 
  -3   3  -6  308.19   48.13 
  -5  -3  -4  926.09   68.06 
  -5   3  -4  759.30   81.18 
  -7  -3  -2 1261.49   87.61 
  -7  -3  -2 1209.16   76.20 
  -7   3  -2 1388.23  104.90 
  -9  -3   0  635.04   53.31 
  -9  -3   0  596.70   47.73 
 -11  -3   2  814.15   61.90 
 -11  -3   2  782.07   64.36 
 -11   3   2  825.92   65.69 
 -13  -3   4  941.08   68.43 
 -13  -3   4  948.29   84.01 
 -13   3   4 1048.93   74.72 
 -15  -3   6  364.08   31.94 
 -15  -3   6  443.02   56.12 
 -15   3   6  390.29   38.22 
 -17  -3   8  137.13   14.03 
 -17   3   8  147.43   21.49 
 -19  -3  10  513.55   73.97 
 -19   3  10  409.64   40.60 
 -21  -3  12  391.11   68.96 
 -21   3  12  220.60   53.32 
 -23  -3  14  139.75   43.67 
 -23   3  14  120.55   42.43 
 -25  -3  16   90.41   39.17 
 -25   3  16  125.41   45.26 
   2   4 -11   77.68   19.97 
   0   4  -9  133.10   29.62 
  -2   4  -7  178.27   14.93 
  -2   4  -7  178.04   35.78 
  -4  -4  -5  719.79   59.17 
  -4   4  -5  959.35   87.31 
  -6  -4  -3 1123.02   80.43 
  -6  -4  -3 1192.05   73.74 
  -6   4  -3 1133.52   65.11 
  -8  -4  -1 1154.89   75.54 
  -8  -4  -1 1025.79   69.00 
  -8   4  -1  968.61   80.92 
 -10  -4   1 1375.41   84.00 
 -10   4   1 1373.83   91.59 
 -12   4   3 1036.22   67.18 
 -12  -4   3  863.22   60.74 
 -12  -4   3  801.29   69.61 
 -12   4   3  796.37   65.88 
 -14   4   5 1002.24   71.76 
 -14  -4   5  971.66   62.11 
 -14   4   5  856.20   71.15 
 -14  -4   5  879.26   82.20 
 -16   4   7  441.57   41.56 
 -16   4   7  365.04   44.09 
 -16  -4   7  473.10   60.32 
 -18   4   9  198.01   26.15 
 -18   4   9  154.27   29.33 
 -18  -4   9  228.41   44.28 
 -20   4  11  348.14   37.55 
 -20  -4  11  372.40   63.18 
 -22  -4  13  421.41   71.90 
 -22   4  13  286.36   63.10 
 -24  -4  15  114.68   39.53 
 -24   4  15  180.82   55.03 
 -26  -4  17  125.63   41.68 
   3   5 -12   91.50   22.46 
   1   5 -10  132.00   30.33 
  -1   5  -8  205.62   39.63 
  -3   5  -6  396.98   53.94 
  -3   5  -6  340.30   28.24 
  -5   5  -4  642.17   40.56 
  -5   5  -4  708.23   67.80 
  -7  -5  -2  682.99   50.98 
  -7   5  -2  756.75   65.49 
  -9  -5   0  644.71   51.07 
  -9   5   0  687.59   58.78 
 -11   5   2  638.10   54.44 
 -11   5   2  672.27   48.61 
 -11  -5   2  536.50   50.93 
 -13   5   4  829.33   63.03 
 -13   5   4  776.80   60.91 
 -13  -5   4  665.30   64.73 
 -15   5   6  703.21   61.71 
 -15   5   6  763.47   59.42 
 -15  -5   6  596.10   67.29 
 -17   5   8  432.85   50.98 
 -17   5   8  582.78   49.05 
 -17  -5   8  439.11   61.07 
 -19   5  10  176.52   33.31 
 -19   5  10  260.44   30.96 
 -19  -5  10  261.84   48.69 
 -21   5  12  160.12   33.50 
 -21  -5  12  154.73   40.08 
 -23  -5  14  335.04   64.04 
 -25  -5  16   97.43   34.84 
 -25   5  16   29.51   24.27 
   2   6 -11  112.90   28.06 
   0   6  -9  135.53   32.38 
  -2   6  -7  264.85   45.34 
  -4   6  -5  260.84   39.99 
  -6  -6  -3  534.49   43.73 
  -6   6  -3  571.20   55.74 
  -8   6  -1  279.81   22.00 
  -8  -6  -1  302.62   30.13 
  -8   6  -1  299.14   35.66 
 -10   6   1  415.32   41.20 
 -10   6   1  350.64   31.03 
 -10  -6   1  378.14   37.27 
 -12   6   3  578.18   49.41 
 -12   6   3  456.71   42.03 
 -12  -6   3  455.07   46.61 
 -14   6   5  516.78   46.75 
 -14   6   5  446.83   43.41 
 -16   6   7  406.57   45.44 
 -16   6   7  426.26   41.72 
 -16  -6   7  312.53   46.95 
 -18   6   9  161.65   29.93 
 -18   6   9  186.99   26.52 
 -18  -6   9  205.28   39.24 
 -20   6  11  261.49   41.99 
 -20   6  11  306.44   35.72 
 -20  -6  11  263.76   49.80 
 -22   6  13   71.90   23.11 
 -22  -6  13   83.71   28.22 
 -24  -6  15   75.44   28.97 
   1   7 -10  109.85   29.17 
  -1   7  -8   26.66   11.94 
  -3   7  -6  132.00   28.01 
  -5   7  -4  300.38   39.64 
  -7   7  -2  144.93   12.89 
  -7  -7  -2  134.93   19.50 
  -7   7  -2  140.47   24.05 
  -9   7   0  145.06   23.72 
  -9   7   0  156.92   17.36 
  -9  -7   0  159.92   22.15 
 -11   7   2  203.94   24.00 
 -11   7   2  204.88   28.40 
 -11  -7   2  277.54   31.53 
 -13   7   4  203.01   27.02 
 -13  -7   4  201.92   29.95 
 -13   7   4  226.34   29.50 
 -15   7   6  141.46   24.23 
 -15   7   6  131.64   21.63 
 -15  -7   6  110.17   24.45 
 -17   7   8  210.34   31.86 
 -17  -7   8  115.93   27.74 
 -19   7  10   65.51   19.54 
 -19  -7  10   86.67   25.69 
 -21   7  12   68.54   21.63 
 -21   7  12   66.78   16.34 
 -21  -7  12   67.02   24.43 
 -23   7  14   24.13   13.71 
 -23  -7  14   18.00   13.39 
   0   8  -9   10.49    8.63 
  -2   8  -7   56.19   19.12 
  -4   8  -5   32.36   11.87 
  -6   8  -3   40.70    6.04 
  -6   8  -3   41.68   12.72 
  -8   8  -1    5.83    3.46 
  -8  -8  -1    6.43    3.77 
  -8   8  -1    9.11    3.80 
 -10  -8   1   11.33    5.54 
 -10   8   1    3.19    2.90 
 -10   8   1    8.58    4.96 
 -12   8   3   54.66   12.76 
 -12  -8   3   52.99   13.90 
 -12   8   3   58.76   14.68 
 -14   8   5   32.42   10.50 
 -14  -8   5   24.02    9.99 
 -16   8   7   33.53   12.18 
 -16  -8   7   33.06   12.32 
 -18   8   9   22.91   10.60 
 -18  -8   9   17.66   10.70 
 -20   8  11   19.80   11.48 
 -20  -8  11    4.46    2.61 
 -22   8  13    0.44    4.85 
 -22  -8  13   13.68   10.93 
 -24   8  15   14.14   11.28 
 -24  -8  15    1.58    6.71 
   1   9 -10   13.67   12.84 
  -1   9  -8   12.50   11.14 
  -3   9  -6   12.35    8.37 
  -5   9  -4    7.77    6.25 
  -5   9  -4    1.78    4.45 
  -7  -9  -2    5.38    3.97 
  -7   9  -2    4.35    4.89 
  -9  -9   0   11.69    6.85 
  -9   9   0    5.10    3.37 
  -9   9   0    5.37    6.06 
 -11   9   2   14.05    6.82 
 -11  -9   2   15.63    7.54 
 -11   9   2   15.74    5.45 
 -13   9   4    1.19    1.33 
 -13  -9   4    5.46    6.65 
 -15   9   6    0.66    3.07 
 -15  -9   6    0.45    4.57 
 -17   9   8   -0.51    4.82 
 -17  -9   8    0.53    3.04 
 -19   9  10    4.90    4.71 
 -19  -9  10    6.24    5.77 
 -21   9  12   -3.36    4.99 
 -21  -9  12  -13.70   10.22 
 -23   9  14    8.74    6.61 
 -23  -9  14    2.38    2.82 
   0  10  -9   12.56    9.77 
  -2  10  -7   23.94   10.55 
  -2  10  -7   25.87   12.97 
  -4  10  -5   57.23   17.31 
  -4  10  -5   72.05   18.02 
  -6  10  -3   37.69   12.34 
  -6  10  -3   27.86   10.91 
  -8  10  -1   99.84   19.58 
  -8  10  -1  132.01   24.51 
  -8 -10  -1  131.39   22.16 
 -10 -10   1   99.32   19.36 
 -10  10   1   79.90   15.05 
 -10  10   1   88.41   19.53 
 -12 -10   3   94.17   20.79 
 -12  10   3   70.96   15.98 
 -14 -10   5   34.14   13.13 
 -14  10   5   50.86   14.57 
 -16  10   7   41.66   14.00 
 -16 -10   7   21.72   11.56 
 -18  10   9   31.21   13.19 
 -18 -10   9   19.96    9.27 
 -20  10  11   19.08   10.58 
 -20 -10  11    9.96    6.08 
 -22  10  13   23.69   14.90 
 -22 -10  13   32.50   16.69 
  -1  11  -8   59.23   18.51 
  -1  11  -8   32.44   14.00 
  -3  11  -6   60.82   17.92 
  -3  11  -6   82.42   21.69 
  -5  11  -4  133.10   25.45 
  -5  11  -4  172.44   30.22 
  -7  11  -2  201.56   29.33 
  -7  11  -2  127.16   25.92 
  -9  11   0  159.63   25.46 
  -9  11   0  234.79   33.51 
  -9 -11   0  173.40   27.26 
 -11  11   2  201.86   27.64 
 -11 -11   2  195.70   30.51 
 -11  11   2  242.58   34.09 
 -13  11   4  129.54   23.67 
 -13 -11   4  162.32   28.47 
 -15 -11   6   79.93   21.12 
 -15  11   6   99.43   22.31 
 -17  11   8  130.84   27.40 
 -17 -11   8  115.43   26.66 
 -19  11  10   82.10   23.38 
 -19 -11  10   72.12   22.97 
 -21  11  12   60.71   21.70 
 -21 -11  12   25.49   14.18 
   0  12  -9   34.02   14.16 
  -2  12  -7   90.29   22.84 
  -2  12  -7  125.43   28.84 
  -4  12  -5   97.01   22.57 
  -4  12  -5  113.80   25.54 
  -6  12  -3  194.88   33.37 
  -6  12  -3  223.77   33.57 
  -8  12  -1  192.37   30.11 
  -8  12  -1  249.80   36.69 
  -8 -12  -1  270.15   35.44 
 -10  12   1  129.34   22.95 
 -10 -12   1  170.04   28.02 
 -10  12   1  153.80   28.14 
 -12  12   3  223.15   31.18 
 -12 -12   3  212.72   33.75 
 -14  12   5  147.87   27.28 
 -14 -12   5  205.62   33.63 
 -16  12   7  264.71   39.62 
 -16 -12   7  240.85   39.18 
 -18  12   9  175.26   33.74 
 -18 -12   9  142.82   31.23 
 -20  12  11   69.32   21.55 
 -20 -12  11   57.34   20.75 
  -1  13  -8  116.08   27.61 
  -1  13  -8   87.00   25.76 
  -3  13  -6  172.45   33.17 
  -3  13  -6  108.75   25.27 
  -5  13  -4  233.17   35.66 
  -5  13  -4  182.75   33.59 
  -7  13  -2  106.92   23.00 
  -7  13  -2  134.75   27.72 
  -9  13   0  198.83   30.48 
  -9  13   0  247.91   37.63 
  -9 -13   0  222.20   34.12 
 -11 -13   2  210.52   33.55 
 -11  13   2  215.84   35.36 
 -13 -13   4  203.24   34.00 
 -15  13   6  198.84   34.46 
 -15 -13   6  247.62   39.44 
 -17  13   8  227.00   38.50 
 -17 -13   8  182.15   35.74 
 -19  13  10  115.76   28.56 
 -19 -13  10   90.04   25.34 
  -2  14  -7  126.80   29.41 
  -2  14  -7   92.50   25.53 
  -4  14  -5  143.71   29.38 
  -4  14  -5  142.26   30.18 
  -6  14  -3  106.13   25.41 
  -6  14  -3   89.81   22.01 
  -8  14  -1   82.21   19.87 
  -8  14  -1   79.01   21.50 
 -10 -14   1  178.39   31.50 
 -10  14   1  167.54   31.82 
 -12 -14   3  186.77   32.99 
 -14 -14   5  209.67   36.19 
 -16 -14   7   95.54   25.11 
 -18  14   9   70.07   22.10 
  -3  15  -6   81.47   24.60 
  -3  15  -6   47.22   17.12 
  -5  15  -4   65.38   19.70 
  -5  15  -4   52.58   18.94 
  -7  15  -2   73.02   20.40 
  -7  15  -2   95.02   24.65 
  -9  15   0   64.65   20.21 
 -11 -15   2   75.13   20.21 
 -11  15   2  104.56   25.63 
 -13 -15   4  158.22   31.64 
  -4  16  -5   15.77   10.47 
  -4  16  -5   15.32   10.20 
  -6  16  -3   17.73   11.34 
  -6  16  -3   14.94    9.76 
  -8  16  -1   44.54   17.37 
 -10  16   1   39.58   16.13 
   2   0 -12  600.41   54.43 
   0   0 -10  462.09   47.26 
  -2   0  -8  668.37   62.85 
  -4   0  -6  538.09   57.84 
  -6   0  -4  521.68   59.36 
  -8   0  -2  419.49   53.71 
  -8   0  -2  428.02   30.21 
 -10   0   0  105.52   24.84 
 -10   0   0   77.87   14.96 
 -12   0   2 2531.99  170.30 
 -12   0   2 2248.28  157.73 
 -14   0   4 1073.04   88.53 
 -14   0   4  750.71   82.24 
 -16   0   6  114.40   30.01 
 -16   0   6  103.83   23.53 
 -18   0   8   49.74   20.26 
 -18   0   8   53.57   16.16 
 -20   0  10  268.97   56.67 
 -22   0  12   -2.87   12.40 
 -24   0  14   14.80   10.41 
 -26   0  16   19.42   12.41 
   3   1 -13  417.19   43.26 
   1  -1 -11  414.11   43.12 
   1   1 -11  461.35   47.85 
  -1  -1  -9  666.76   57.21 
  -1   1  -9  560.28   59.09 
  -3  -1  -7  803.72   65.01 
  -3   1  -7  545.13   63.87 
  -5  -1  -5  363.75   43.30 
  -5   1  -5  367.74   50.20 
  -7  -1  -3  474.26   31.69 
  -7   1  -3  482.44   28.29 
  -9  -1  -1  598.21   64.78 
  -9   1  -1  742.73   76.16 
  -9  -1  -1  645.47   47.67 
  -9   1  -1  782.04   53.67 
 -11  -1   1  973.90   87.10 
 -11   1   1 1011.76   92.12 
 -11  -1   1  983.66   75.97 
 -11   1   1 1090.76   83.00 
 -13  -1   3  695.40   69.63 
 -13   1   3  864.45   75.61 
 -13  -1   3  666.17   68.92 
 -13   1   3  724.95   72.83 
 -15  -1   5  172.92   30.00 
 -15   1   5  144.61   26.48 
 -15  -1   5  181.78   36.32 
 -15   1   5  207.27   38.68 
 -17   1   7   31.86   11.42 
 -17  -1   7   44.54   14.71 
 -17  -1   7   44.40   19.14 
 -17   1   7   31.34   18.75 
 -19   1   9  102.27   20.80 
 -19  -1   9   88.14   30.26 
 -19   1   9  121.54   37.05 
 -21  -1  11   82.97   32.38 
 -21   1  11   40.42   25.34 
 -23  -1  13   -5.75   11.54 
 -23   1  13   -8.85   13.52 
 -25  -1  15   13.20   13.88 
 -25   1  15    1.86    7.61 
   2   2 -12  265.03   34.94 
   0  -2 -10  440.28   43.87 
   0   2 -10  443.91   51.54 
  -2  -2  -8  217.14   29.02 
  -2   2  -8  216.61   36.41 
  -4  -2  -6  382.05   42.31 
  -4   2  -6  464.14   57.49 
  -6  -2  -4  422.32   45.73 
  -6   2  -4  493.00   61.63 
  -8  -2  -2  452.13   50.88 
  -8  -2  -2  549.46   39.53 
  -8   2  -2  516.65   64.04 
 -10  -2   0  503.56   42.33 
 -10   2   0  645.16   64.88 
 -10   2   0  668.96   53.58 
 -12  -2   2  234.69   34.55 
 -12  -2   2  321.14   37.87 
 -12   2   2  372.50   44.24 
 -14  -2   4   98.69   20.00 
 -14   2   4  146.59   24.50 
 -14  -2   4  133.16   27.54 
 -14   2   4  158.14   31.14 
 -16  -2   6  113.56   20.83 
 -16   2   6  171.15   25.68 
 -16  -2   6  118.54   29.45 
 -16   2   6  115.92   29.57 
 -18  -2   8   61.71   25.23 
 -18   2   8   55.02   13.94 
 -18   2   8   22.59   15.03 
 -18  -2   8   50.62   11.85 
 -20   2  10   -1.26    1.84 
 -20  -2  10   10.88   14.26 
 -20   2  10   -1.21    3.83 
 -22  -2  12    7.23   12.95 
 -22   2  12   13.42   13.19 
 -24  -2  14   -0.94   14.58 
 -24   2  14    0.06   13.66 
 -26  -2  16   -0.93   12.22 
 -26   2  16   -1.53   12.13 
   3   3 -13  106.37   21.26 
   1   3 -11  146.73   27.58 
  -1   3  -9   36.76   14.77 
  -1  -3  -9   40.20   11.30 
  -3  -3  -7  171.12   24.98 
  -3   3  -7  156.33   33.05 
  -5  -3  -5  167.89   24.67 
  -5   3  -5  157.58   33.96 
  -7  -3  -3  285.79   33.98 
  -7   3  -3  274.28   17.90 
  -7  -3  -3  301.14   25.11 
  -7   3  -3  362.79   50.50 
  -7   3  -3  314.42   22.66 
  -9  -3  -1  148.10   23.34 
  -9  -3  -1  186.59   20.15 
  -9   3  -1  200.35   33.67 
 -11   3   1   22.02    9.26 
 -11  -3   1   25.15    8.41 
 -11  -3   1   10.80    5.94 
 -13  -3   3  153.18   22.40 
 -13  -3   3  169.22   27.85 
 -13   3   3  156.78   24.82 
 -15   3   5   44.07   12.00 
 -15  -3   5   38.89   15.72 
 -15  -3   5   41.79   10.72 
 -17   3   7   14.24    7.23 
 -17  -3   7   12.37    4.35 
 -19   3   9   39.69   11.70 
 -19  -3   9   64.28   25.83 
 -21  -3  11    5.32   10.47 
 -21   3  11   -4.62   11.53 
 -23  -3  13  -21.80   16.43 
 -23   3  13    1.00    5.59 
 -25  -3  15   21.65   18.36 
 -25   3  15  -38.25   24.21 
   2   4 -12   11.86    7.36 
   0   4 -10   10.46    9.76 
  -2   4  -8   16.83    8.83 
  -4  -4  -6   15.17    6.84 
  -4   4  -6   25.37   12.44 
  -6   4  -4  131.51   29.43 
  -6  -4  -4   66.51   14.63 
  -8   4  -2   13.35    8.25 
  -8  -4  -2    6.21    3.43 
  -8  -4  -2    5.13    4.04 
 -10  -4   0   -0.73    2.43 
 -10  -4   0   -0.38    1.37 
 -10   4   0    3.66    4.15 
 -12   4   2    9.11    6.25 
 -12  -4   2    3.73    2.48 
 -12  -4   2    5.58    4.01 
 -14   4   4   12.44    6.30 
 -14  -4   4   14.22    4.96 
 -14  -4   4    6.06    8.10 
 -16  -4   6    2.31    1.71 
 -16   4   6    6.37    4.55 
 -16  -4   6    0.43    2.17 
 -18  -4   8   -8.35    8.30 
 -18   4   8   -0.12    2.53 
 -20  -4  10    1.83    8.40 
 -20   4  10    4.21    3.86 
 -22  -4  12   -1.38    7.35 
 -22   4  12    3.14   10.40 
 -24  -4  14    1.68    5.26 
 -24   4  14   -2.59   12.12 
 -26  -4  16    4.96    2.55 
 -26   4  16   12.18   16.28 
   1   5 -11   21.13   11.71 
  -1   5  -9   22.53   10.16 
  -3   5  -7   20.58   12.01 
  -5   5  -5  -12.55    9.07 
  -5   5  -5    2.21    1.09 
  -7   5  -3   10.10    7.79 
  -7  -5  -3   22.49    6.54 
  -7   5  -3   16.95    3.77 
  -9  -5  -1   92.70   15.81 
  -9  -5  -1   72.62   13.18 
  -9   5  -1   75.12   17.97 
 -11  -5   1   91.35   15.42 
 -11   5   1  103.34   20.07 
 -11  -5   1  112.26   18.09 
 -13  -5   3    3.38    2.82 
 -13   5   3    4.57    2.50 
 -13  -5   3    7.04    5.15 
 -13   5   3    9.52    5.51 
 -15   5   5   10.48    6.03 
 -15  -5   5   -1.56    6.81 
 -15   5   5    6.09    4.27 
 -17   5   7    0.41    1.77 
 -17   5   7   -1.07    4.89 
 -17  -5   7    4.81    5.51 
 -19   5   9    2.14    3.61 
 -19   5   9   -0.14    2.60 
 -19  -5   9    1.39    4.64 
 -21   5  11   11.06    6.58 
 -21  -5  11   24.21   16.50 
 -23  -5  13    2.10    7.06 
 -25  -5  15   17.67   11.82 
 -25   5  15   -9.35   15.32 
   0   6 -10  180.11   38.56 
  -2   6  -8  178.77   39.32 
  -4   6  -6   42.74   18.57 
  -6   6  -4  133.49   27.35 
  -8  -6  -2   75.58   13.52 
  -8   6  -2   81.85   18.99 
 -10   6   0  302.65   25.42 
 -10  -6   0  251.10   29.55 
 -12   6   2  159.56   20.65 
 -12  -6   2  190.48   26.30 
 -12   6   2  191.03   27.17 
 -14   6   4   73.33   16.61 
 -14   6   4   72.98   14.91 
 -14  -6   4   73.28   17.12 
 -16   6   6   32.12   10.63 
 -16  -6   6   28.53   13.09 
 -16   6   6   31.57   10.71 
 -18   6   8   29.80   12.20 
 -18  -6   8   63.85   20.67 
 -18   6   8   47.88   12.90 
 -20   6  10  -10.44    7.67 
 -20  -6  10    7.31    7.82 
 -20   6  10   -5.29    4.42 
 -22   6  12   -2.18    8.14 
 -22  -6  12   -1.49    9.30 
 -24  -6  14    2.25    9.82 
   1   7 -11  192.51   40.11 
  -1   7  -9  215.22   44.45 
  -3   7  -7  269.49   46.58 
  -5   7  -5  361.87   49.06 
  -7  -7  -3  227.18   26.73 
  -7   7  -3  258.58   36.70 
  -9   7  -1  260.04   21.46 
  -9  -7  -1  263.33   29.86 
  -9   7  -1  271.42   35.40 
 -11   7   1  195.46   21.85 
 -11  -7   1  188.43   26.27 
 -13   7   3  159.86   25.31 
 -13   7   3  169.04   22.68 
 -13  -7   3  136.00   23.79 
 -15   7   5  115.82   20.99 
 -15   7   5  171.50   25.77 
 -15  -7   5  133.10   25.42 
 -17   7   7   67.80   17.34 
 -17   7   7   99.50   19.35 
 -17  -7   7   57.57   18.47 
 -19   7   9   19.13    9.76 
 -19   7   9   17.41    8.35 
 -19  -7   9   24.89   12.91 
 -21   7  11    7.26    7.49 
 -21   7  11    3.91    3.93 
 -21  -7  11   -3.31    7.37 
 -23   7  13  -12.71    9.63 
 -23  -7  13    0.78    3.51 
 -25  -7  15   -9.45   10.19 
   0   8 -10  272.99   51.36 
  -2   8  -8  332.11   54.21 
  -4   8  -6  423.13   55.24 
  -6   8  -4  315.17   42.54 
  -8  -8  -2  299.61   33.52 
  -8   8  -2  351.54   42.10 
 -10   8   0  298.30   27.11 
 -10  -8   0  242.23   31.41 
 -12   8   2  248.52   33.28 
 -12   8   2  221.67   25.73 
 -12  -8   2  219.43   30.14 
 -14   8   4  157.13   23.65 
 -14   8   4  168.19   26.38 
 -14  -8   4  142.14   26.02 
 -16   8   6  103.01   20.25 
 -16   8   6   97.47   20.64 
 -16  -8   6  119.70   24.91 
 -18   8   8   32.52   12.49 
 -18  -8   8   17.51   11.24 
 -18   8   8   44.23   13.19 
 -20   8  10    9.64    6.80 
 -20  -8  10   15.08   10.09 
 -20   8  10    9.21    6.05 
 -22   8  12  -10.24    8.33 
 -22  -8  12    8.39    8.03 
 -22   8  12   12.67    5.93 
 -24   8  14   -8.34    8.25 
 -24  -8  14    2.72    9.46 
  -1   9  -9  518.16   72.70 
  -3   9  -7  435.63   58.69 
  -5   9  -5  400.18   50.77 
  -7   9  -3  356.31   44.54 
  -9   9  -1  175.75   29.45 
  -9  -9  -1  221.10   28.70 
 -11   9   1  399.39   45.38 
 -11   9   1  358.26   34.46 
 -11  -9   1  421.75   43.49 
 -13   9   3  106.54   21.23 
 -13   9   3  101.90   18.27 
 -13  -9   3  100.63   20.92 
 -15   9   5   88.23   18.45 
 -15   9   5  102.05   20.88 
 -15  -9   5   86.10   20.04 
 -17   9   7   49.13   15.18 
 -17  -9   7   53.41   16.98 
 -17   9   7   49.39   14.69 
 -19   9   9    9.84    5.83 
 -19   9   9   13.97    7.58 
 -19  -9   9    2.11    4.90 
 -21   9  11    4.20    3.86 
 -21   9  11    8.26    7.38 
 -21  -9  11    9.30    9.38 
 -23   9  13   11.51    9.95 
 -23  -9  13    6.74    8.84 
   0  10 -10  176.15   42.12 
  -2  10  -8  239.45   44.56 
  -4  10  -6  337.59   48.55 
  -6  10  -4  228.32   35.95 
  -8 -10  -2  367.77   40.45 
  -8  10  -2  364.00   45.33 
 -10  10   0  282.66   37.98 
 -10 -10   0  244.74   32.89 
 -12  10   2  118.82   19.71 
 -12  10   2  136.50   25.07 
 -12 -10   2  132.84   24.02 
 -14  10   4   33.17   12.09 
 -14  10   4   33.64   11.12 
 -14 -10   4   24.35   10.96 
 -16  10   6   64.30   16.87 
 -16  10   6   49.04   14.79 
 -16 -10   6   39.78   14.55 
 -18  10   8    9.71    6.74 
 -18 -10   8   18.40   10.32 
 -20  10  10   10.04    7.49 
 -20 -10  10    5.70    6.08 
 -22  10  12   -2.33    5.62 
 -22  10  12    7.85    6.50 
 -22 -10  12   -4.50    7.70 
  -1  11  -9  189.28   41.53 
  -3  11  -7  128.92   30.19 
  -5  11  -5  159.87   31.33 
  -7  11  -3   59.63   18.10 
  -9  11  -1  116.56   25.02 
  -9 -11  -1  182.89   28.12 
 -11  11   1  170.44   29.75 
 -11 -11   1  188.64   29.47 
 -13 -11   3   24.02   10.04 
 -13  11   3   24.85    9.21 
 -13  11   3   24.60   10.55 
 -15  11   5   10.07    6.30 
 -15 -11   5    8.76    6.56 
 -15  11   5    9.22    6.39 
 -17  11   7   13.02    8.61 
 -17 -11   7   13.21    7.49 
 -19  11   9    6.84    6.45 
 -19 -11   9   23.39   10.81 
 -21  11  11    1.71    3.29 
 -21 -11  11   -0.48    2.29 
 -23  11  13    1.53    2.68 
 -23  11  13    0.10    1.48 
  -2  12  -8   55.85   21.29 
  -4  12  -6   57.33   19.33 
  -6  12  -4   25.17   12.62 
  -8  12  -2   39.18   14.34 
 -10 -12   0   14.90    7.63 
 -10  12   0   23.53   12.02 
 -12 -12   2   14.10    6.69 
 -12  12   2   23.85   10.31 
 -14  12   4   11.93    8.52 
 -14 -12   4    7.73    6.62 
 -16  12   6  -11.40    7.35 
 -16 -12   6   14.27    9.41 
 -18  12   8    4.36    4.65 
 -18 -12   8   14.21    8.83 
 -20  12  10   -6.59    6.59 
 -20 -12  10    4.11    5.33 
 -22  12  12  -17.48   11.42 
 -22  12  12   -6.49    6.24 
  -3  13  -7    6.18    6.26 
  -5  13  -5   -1.47    3.10 
  -5  13  -5   -0.78    5.53 
  -7  13  -3    2.97    2.61 
  -7  13  -3    8.69    5.84 
  -9  13  -1    2.60    3.12 
 -11  13   1    6.14    7.51 
 -11 -13   1    1.05    5.50 
 -13  13   3    3.54    3.81 
 -13 -13   3   -2.10    6.71 
 -15  13   5   -3.72    4.65 
 -15 -13   5    4.00    4.60 
 -17 -13   7  -10.81    8.16 
 -19  13   9    8.23    7.14 
 -19 -13   9   -9.63    8.12 
 -21  13  11  -15.95   10.87 
  -4  14  -6   -5.24    6.12 
  -4  14  -6   -1.65    7.53 
  -6  14  -4  -10.67    7.83 
  -6  14  -4   11.36    8.47 
  -8  14  -2   18.75   10.85 
  -8  14  -2   16.83    9.57 
 -10  14   0   23.63   12.48 
 -12 -14   2    7.23    6.47 
 -12  14   2   15.21   10.25 
 -14 -14   4   19.59   11.25 
 -14  14   4   22.65   12.49 
 -16 -14   6   -3.12    4.55 
 -16  14   6    0.71    2.15 
  -3  15  -7   56.58   21.65 
  -5  15  -5   32.99   14.40 
  -5  15  -5   68.03   21.98 
  -7  15  -3   53.80   17.86 
  -7  15  -3   52.59   18.93 
  -9  15  -1   59.29   19.76 
 -11  15   1   42.24   16.80 
 -13 -15   3   26.65   13.16 
 -13  15   3    6.09    6.79 
  -4  16  -6   97.75   27.89 
  -6  16  -4   65.93   20.61 
  -6  16  -4   53.33   20.02 
  -8  16  -2   79.77   24.14 
   2   0 -13    0.78    3.95 
   0   0 -11   -7.26    5.38 
  -2   0  -9    0.75    3.09 
  -4   0  -7    0.42    2.17 
  -6   0  -5   -3.56    6.01 
  -8   0  -3    4.27    6.71 
  -8   0  -3    0.04    0.60 
 -10   0  -1    4.27    7.80 
 -10   0  -1   -1.89    3.02 
 -12   0   1    3.37    3.38 
 -12   0   1    7.91    5.13 
 -14   0   3   -0.02    3.93 
 -14   0   3    0.28    5.90 
 -16   0   5   -1.23    3.75 
 -16   0   5  -31.18   14.81 
 -18   0   7    0.49    4.61 
 -18   0   7  -11.57   10.19 
 -20   0   9   -0.25    2.20 
 -20   0   9  -10.65   12.30 
 -22   0  11    7.84   11.14 
 -24   0  13   12.53   10.83 
 -26   0  15  -27.21   20.59 
   3   1 -14   19.50    8.19 
   1  -1 -12   16.12    7.41 
   1   1 -12   22.93    9.68 
  -1  -1 -10   17.36    8.16 
  -1   1 -10   27.21   10.96 
  -3  -1  -8    2.52    4.03 
  -3   1  -8   -0.47    6.25 
  -5   1  -6    6.47    8.91 
  -5  -1  -6    4.69    4.58 
  -7   1  -4    1.22    3.60 
  -7  -1  -4    0.48    5.40 
  -9  -1  -2    2.22    2.36 
  -9   1  -2    9.36    8.07 
  -9  -1  -2    2.80    1.95 
  -9   1  -2    2.71    1.88 
 -11  -1   0   -1.39    4.72 
 -11  -1   0    4.83    2.53 
 -11   1   0    5.49    4.95 
 -13  -1   2   24.29   10.66 
 -13  -1   2   18.15    8.53 
 -13   1   2   21.66    9.33 
 -13   1   2   29.92   13.94 
 -15   1   4   10.73    7.76 
 -15  -1   4    9.20    7.37 
 -15  -1   4    2.59    5.51 
 -15   1   4   -0.03    5.98 
 -17   1   6    9.20    7.54 
 -17  -1   6   -1.63    2.32 
 -17  -1   6    3.82    6.68 
 -17   1   6   -0.72    7.33 
 -19   1   8   90.64   21.20 
 -19  -1   8   66.55   16.54 
 -19  -1   8   66.69   26.37 
 -19   1   8   65.34   27.35 
 -21  -1  10   74.88   29.41 
 -21   1  10   89.40   30.97 
 -23  -1  12   16.14   12.06 
 -23   1  12  -22.49   16.94 
 -25  -1  14    4.72    9.49 
 -25   1  14   20.64   17.07 
 -27  -1  16   61.67   31.09 
 -27   1  16    2.27   14.32 
   2   2 -13   86.07   19.19 
   0  -2 -11   65.47   15.36 
   0   2 -11   73.31   19.26 
  -2  -2  -9   52.21   14.04 
  -2   2  -9   50.02   17.69 
  -4   2  -7   52.53   18.12 
  -4  -2  -7   15.38    7.77 
  -6   2  -5    0.93    4.94 
  -6  -2  -5   -0.34    6.74 
  -8  -2  -3   17.89    4.73 
  -8   2  -3   12.85    2.63 
  -8   2  -3   16.18    9.91 
  -8  -2  -3   15.30    8.76 
 -10  -2  -1    2.06    1.52 
 -10   2  -1   -0.60    3.29 
 -10   2  -1    2.99    4.63 
 -10  -2  -1    2.05    4.48 
 -12  -2   1   46.91   14.66 
 -12   2   1   76.12   21.44 
 -12  -2   1   86.08   16.23 
 -12   2   1   86.49   20.03 
 -14  -2   3   54.45   15.88 
 -14   2   3   74.10   19.73 
 -14  -2   3  109.77   23.25 
 -14   2   3   95.08   22.94 
 -16  -2   5   53.63   15.14 
 -16   2   5   27.22   11.08 
 -16  -2   5   42.53   16.26 
 -16   2   5   32.38   13.78 
 -18  -2   7   53.72   13.45 
 -18   2   7   66.45   16.83 
 -18  -2   7   80.84   26.17 
 -18   2   7   29.32   16.42 
 -20   2   9   17.42    7.71 
 -20  -2   9   20.07   12.01 
 -20   2   9   23.81   16.14 
 -22  -2  11  169.07   45.03 
 -22   2  11  143.68   42.68 
 -24  -2  13   89.47   34.79 
 -24   2  13   50.18   23.57 
 -26  -2  15  111.52   39.99 
 -26   2  15   59.94   30.32 
   1   3 -12   98.05   22.58 
  -1   3 -10   74.42   22.43 
  -3   3  -8   60.10   20.29 
  -3  -3  -8   88.04   17.98 
  -5   3  -6   25.12   13.35 
  -5  -3  -6   29.86   10.17 
  -7  -3  -4   44.42    8.13 
  -7  -3  -4   21.79    9.49 
  -7   3  -4   46.29   19.30 
  -9  -3  -2   33.18    7.62 
  -9  -3  -2   25.07    8.66 
  -9   3  -2   28.43    8.34 
  -9   3  -2   45.93   18.05 
 -11  -3   0    5.17    4.13 
 -11  -3   0    0.84    3.74 
 -11   3   0   -0.56    1.43 
 -13   3   2   51.39   15.01 
 -13  -3   2   38.17   12.31 
 -13  -3   2   29.10   10.00 
 -15  -3   4  155.19   24.19 
 -15  -3   4  173.04   30.71 
 -15   3   4  246.15   32.96 
 -17  -3   6  144.74   21.33 
 -17  -3   6  152.97   34.10 
 -17   3   6  153.98   25.30 
 -19  -3   8  110.28   31.33 
 -19   3   8  149.19   36.71 
 -19   3   8  105.50   20.63 
 -21  -3  10  115.61   35.11 
 -21   3  10  118.15   22.18 
 -21   3  10   76.63   30.03 
 -23  -3  12  293.90   61.23 
 -23   3  12  207.59   52.57 
 -25  -3  14  147.64   44.62 
 -25   3  14  144.22   47.39 
 -27  -3  16   67.16   32.12 
 -27   3  16   38.76   26.06 
   2   4 -13   80.75   20.20 
   0   4 -11  144.53   30.61 
  -2   4  -9   81.14   25.01 
  -4  -4  -7   47.92   12.64 
  -4   4  -7   44.79   17.68 
  -6  -4  -5    5.62    3.19 
  -6   4  -5   10.17   11.45 
  -8   4  -3    2.10    5.73 
  -8   4  -3    0.93    0.98 
  -8  -4  -3   -0.46    1.49 
  -8  -4  -3    0.05    1.97 
  -8   4  -3    1.14    0.82 
 -10   4  -1   -0.57    3.02 
 -10  -4  -1    1.79    1.55 
 -10  -4  -1   -0.29    4.62 
 -12  -4   1   21.72    7.74 
 -12  -4   1   23.96    8.56 
 -12   4   1   30.01   11.71 
 -14  -4   3  100.77   17.20 
 -14  -4   3   94.61   20.00 
 -14   4   3  101.65   20.24 
 -16  -4   5  237.25   27.00 
 -16  -4   5  275.43   40.61 
 -16   4   5  296.62   35.54 
 -18   4   7   47.50   13.58 
 -18  -4   7   34.35    7.86 
 -18  -4   7   36.26   15.92 
 -20  -4   9  199.75   42.16 
 -20   4   9  196.07   28.80 
 -22  -4  11  145.03   40.36 
 -22   4  11  211.22   54.16 
 -24  -4  13  294.68   58.84 
 -24   4  13  165.85   52.37 
 -26  -4  15  152.42   44.91 
 -26   4  15   99.99   44.36 
   1   5 -12  130.12   29.92 
  -1   5 -10   62.13   22.61 
  -3   5  -8   56.42   21.60 
  -5   5  -6   13.44   10.74 
  -7   5  -4    2.54    1.54 
  -7  -5  -4    1.76    1.83 
  -7   5  -4    1.69    0.82 
  -9  -5  -2   13.92    6.08 
  -9   5  -2   28.25   11.04 
  -9  -5  -2   14.93    5.44 
 -11  -5   0   15.24    6.98 
 -11  -5   0   23.46    7.62 
 -11   5   0   30.82   11.18 
 -13   5   2   39.02   12.43 
 -13  -5   2   65.97   13.18 
 -13  -5   2   49.37   13.29 
 -15  -5   4  117.82   17.23 
 -15  -5   4  125.06   24.10 
 -15   5   4  124.00   22.29 
 -17   5   6   69.09   16.18 
 -17  -5   6   78.42   20.98 
 -19  -5   8  172.69   37.02 
 -19   5   8  160.40   25.82 
 -21  -5  10  105.43   31.30 
 -21   5  10  114.22   21.51 
 -23  -5  12  143.62   38.49 
 -25  -5  14  178.02   46.21 
 -25   5  14  106.16   38.09 
   0   6 -11   37.01   17.35 
  -2   6  -9    9.48    6.69 
  -4   6  -7   24.85   15.55 
  -6   6  -5   12.51    9.87 
  -8  -6  -3    8.86    4.50 
  -8   6  -3   14.59    8.88 
 -10  -6  -1    4.95    3.90 
 -10   6  -1    2.66    3.50 
 -12   6   1   70.75   17.19 
 -12  -6   1   38.00   10.83 
 -14   6   3   17.60    6.99 
 -14  -6   3   34.26   11.54 
 -14   6   3   22.65    9.34 
 -16   6   5   11.78    6.57 
 -16  -6   5    2.46    2.65 
 -18   6   7   95.54   19.51 
 -18   6   7   81.84   19.21 
 -20   6   9  174.66   27.26 
 -20   6   9  128.23   27.07 
 -20  -6   9  217.62   41.89 
 -22   6  11   94.49   20.09 
 -22  -6  11   95.62   29.32 
 -24  -6  13  131.68   36.65 
 -26  -6  15  124.69   38.25 
  -1   7 -10   23.44   13.09 
  -3   7  -8    4.71    6.39 
  -5   7  -6    3.81    5.75 
  -7   7  -4   61.03   18.65 
  -9  -7  -2    3.03    2.55 
  -9   7  -2    2.61    2.93 
 -11   7   0    5.67    5.38 
 -11  -7   0    4.83    3.57 
 -13   7   2   18.63    6.88 
 -13  -7   2   26.31    9.78 
 -13   7   2   15.83    7.73 
 -15   7   4    6.66    4.31 
 -15   7   4    8.85    5.89 
 -15  -7   4   12.55    7.73 
 -17   7   6   21.83    8.46 
 -17   7   6   20.37    9.42 
 -17  -7   6   17.44   11.06 
 -19   7   8   51.45   15.95 
 -19   7   8   49.44   14.43 
 -19  -7   8   55.75   19.50 
 -21   7  10   39.11   14.96 
 -21   7  10   45.20   14.05 
 -21  -7  10   30.75   16.14 
 -23   7  12   47.72   18.32 
 -23  -7  12   62.65   24.76 
 -25  -7  14   76.18   28.29 
   0   8 -11   15.60   12.84 
  -2   8  -9  -13.22   11.08 
  -4   8  -7    4.12    3.36 
  -6   8  -5   -2.35    3.52 
  -8  -8  -3    2.03    1.41 
  -8   8  -3   -1.44    3.67 
 -10   8  -1    9.83    6.56 
 -10  -8  -1    6.99    4.53 
 -12   8   1   -1.54    2.45 
 -12  -8   1    5.75    3.44 
 -12   8   1    0.93    5.75 
 -14   8   3   12.83    7.45 
 -14   8   3    8.38    4.38 
 -14  -8   3   16.72    7.59 
 -16   8   5    9.73    6.40 
 -16  -8   5    4.71    4.82 
 -16   8   5    4.86    3.92 
 -18   8   7    0.37    3.64 
 -18  -8   7    6.69    8.00 
 -18   8   7    3.14    3.24 
 -20   8   9   16.21    8.08 
 -20   8   9   22.38   11.85 
 -20  -8   9   21.57   11.91 
 -22   8  11    5.54    6.54 
 -22  -8  11   10.45   10.08 
 -22   8  11   12.05    6.01 
 -24   8  13  -11.42    9.30 
 -24  -8  13   10.93    9.99 
  -1   9 -10  -14.08   11.72 
  -3   9  -8  -11.12    9.75 
  -5   9  -6   -8.33    7.50 
  -7   9  -4    8.74    6.13 
  -9   9  -2   -2.67    5.45 
  -9  -9  -2    3.57    2.05 
 -11  -9   0    3.97    3.01 
 -11   9   0   15.16    8.62 
 -13   9   2   10.03    6.96 
 -13   9   2    2.36    1.76 
 -13  -9   2   11.10    7.75 
 -15   9   4   -0.15    1.87 
 -15  -9   4   -0.63    2.51 
 -15   9   4   -1.52    2.00 
 -17   9   6    1.99    3.20 
 -17   9   6    2.09    2.55 
 -19   9   8   13.23    9.33 
 -19   9   8    4.52    1.59 
 -19  -9   8   10.39    9.44 
 -21   9  10   -2.87    3.76 
 -21   9  10    3.14    3.50 
 -21  -9  10    4.77    5.87 
 -23   9  12    2.65    4.45 
 -23   9  12   -1.79    7.17 
 -23  -9  12   -4.68    6.27 
 -25   9  14   -1.53    5.86 
  -2  10  -9   16.96   12.62 
  -4  10  -7   21.08   12.49 
  -6  10  -5   14.06    9.26 
  -8  10  -3   -2.27    6.60 
 -10 -10  -1    5.48    3.64 
 -10  10  -1   -2.34    4.55 
 -12  10   1    2.34    3.23 
 -12 -10   1    1.34    2.77 
 -14  10   3    6.23    3.46 
 -14 -10   3   14.70    7.53 
 -14  10   3   20.59   10.37 
 -16  10   5    1.06    1.62 
 -16 -10   5   -0.10    2.88 
 -18  10   7   12.89    6.39 
 -18 -10   7   25.35   12.70 
 -18  10   7   17.21    8.41 
 -20  10   9   22.80   11.69 
 -20 -10   9    3.63    4.97 
 -20  10   9   16.25    9.03 
 -22  10  11    7.67    5.76 
 -22  10  11    9.79    7.68 
 -22 -10  11   15.54   10.56 
 -24  10  13   -4.87    6.12 
  -3  11  -8   14.97   10.55 
  -5  11  -6    8.87    6.87 
  -7  11  -4   11.77    8.56 
  -9 -11  -2    4.13    3.36 
  -9  11  -2    4.56   10.37 
 -11  11   0   35.09   13.75 
 -11 -11   0   35.15   12.70 
 -13 -11   2    4.35    1.82 
 -13  11   2   15.82    8.47 
 -15  11   4    0.46    5.16 
 -15 -11   4   14.51    8.42 
 -17  11   6   61.19   17.10 
 -17 -11   6   44.56   16.51 
 -17  11   6   48.80   16.24 
 -19  11   8   26.59   11.93 
 -19  11   8   27.95   12.17 
 -19 -11   8   14.35    9.62 
 -21  11  10   42.52   16.49 
 -21 -11  10   31.54   14.20 
 -21  11  10   34.17   13.63 
 -23  11  12   10.83    6.45 
 -23  11  12   17.96   10.05 
  -2  12  -9   22.86   14.65 
  -4  12  -7   13.04   10.70 
  -6  12  -5    0.52    3.92 
  -8  12  -3    4.99    4.85 
 -10 -12  -1    1.05    2.27 
 -10  12  -1    1.17    2.62 
 -12  12   1    5.18    7.33 
 -12 -12   1   22.55   10.60 
 -14  12   3   29.91   12.81 
 -14 -12   3   25.90   11.74 
 -16 -12   5    0.74    5.18 
 -16  12   5   18.61   10.32 
 -18  12   7   66.46   18.92 
 -18  12   7   82.73   21.12 
 -18 -12   7   47.20   17.32 
 -20  12   9   35.86   14.47 
 -20  12   9   31.50   14.94 
 -20 -12   9   69.65   21.84 
 -22  12  11   40.87   17.11 
 -22  12  11   34.24   12.62 
  -3  13  -8   24.24   14.32 
  -5  13  -6    9.50    8.15 
  -7  13  -4   10.88    8.33 
  -9  13  -2    4.64    5.66 
 -11  13   0    7.86    7.66 
 -11 -13   0    7.86    6.76 
 -13 -13   2   14.39    9.05 
 -13  13   2   19.63   10.69 
 -15  13   4   35.08   15.33 
 -15 -13   4   43.64   15.35 
 -17 -13   6   17.72    9.21 
 -17  13   6   20.59   10.42 
 -19  13   8   66.52   20.11 
 -19 -13   8   90.65   25.17 
 -21  13  10   49.40   18.33 
  -4  14  -7   18.42   12.24 
  -6  14  -5    8.10    7.55 
  -8  14  -3   -0.69    4.12 
 -10  14  -1   -6.82    6.52 
 -12 -14   1    9.99    7.38 
 -12  14   1    5.86    6.00 
 -14  14   3   18.89   10.11 
 -14 -14   3   19.57   10.88 
 -16 -14   5   59.36   19.13 
 -16  14   5   38.19   15.55 
  -5  15  -6   -0.39    4.05 
  -7  15  -4    6.79    4.73 
  -9  15  -2   11.32    8.66 
 -11  15   0   -3.15    6.44 
 -13 -15   2    8.90    7.25 
 -13  15   2    7.26    6.84 
   2   0 -14   10.06    6.96 
   0   0 -12   43.61   13.84 
  -2   0 -10  229.75   33.98 
  -4   0  -8  383.76   48.82 
  -6   0  -6  382.76   50.61 
  -8   0  -4  360.81   51.98 
  -8   0  -4  419.18   26.59 
 -10   0  -2  256.42   42.89 
 -10   0  -2  261.49   22.62 
 -12   0   0  945.14   92.08 
 -12   0   0  905.39   69.70 
 -14   0   2  762.12   79.62 
 -14   0   2  661.37   66.68 
 -16   0   4  875.76   83.52 
 -16   0   4  626.56   73.77 
 -18   0   6 1266.68  108.70 
 -18   0   6 1178.79  115.75 
 -20   0   8  260.10   41.28 
 -20   0   8  187.41   42.42 
 -22   0  10  696.46   95.89 
 -24   0  12  322.14   67.52 
 -26   0  14  107.61   43.02 
   1  -1 -13    6.98    4.55 
   1   1 -13    9.55    7.27 
  -1  -1 -11   96.15   20.46 
  -1   1 -11  129.51   25.78 
  -3  -1  -9  289.60   38.65 
  -3   1  -9  277.19   41.49 
  -5  -1  -7  245.29   36.04 
  -5   1  -7  210.27   38.05 
  -7  -1  -5  199.69   34.05 
  -7   1  -5  283.86   45.63 
  -9  -1  -3  266.63   42.64 
  -9   1  -3  395.66   55.87 
  -9  -1  -3  334.20   25.74 
  -9   1  -3  347.52   23.32 
 -11  -1  -1  552.72   66.58 
 -11   1  -1  716.73   80.42 
 -11  -1  -1  661.13   49.41 
 -11   1  -1  733.29   53.52 
 -13  -1   1  582.11   66.07 
 -13   1   1  659.44   74.66 
 -13  -1   1  568.13   53.54 
 -13   1   1  576.20   58.00 
 -15  -1   3  743.86   74.56 
 -15   1   3  777.93   79.16 
 -15  -1   3  616.58   66.38 
 -15   1   3  557.26   66.69 
 -17  -1   5  656.46   67.24 
 -17   1   5  517.40   63.07 
 -17  -1   5  444.19   62.27 
 -17   1   5  537.22   69.80 
 -19  -1   7  612.78   63.67 
 -19   1   7  526.86   62.82 
 -19  -1   7  537.38   73.72 
 -19   1   7  491.82   71.57 
 -21   1   9  889.18   84.53 
 -21  -1   9  813.76  102.61 
 -21   1   9  918.37  109.39 
 -23  -1  11  257.66   57.96 
 -23   1  11  313.00   65.46 
 -25  -1  13  151.08   46.99 
 -25   1  13  162.40   46.91 
 -27  -1  15  119.09   43.18 
 -27   1  15   97.78   41.90 
   2   2 -14   17.04    8.02 
   0   2 -12   19.99   11.79 
  -2  -2 -10  108.78   21.54 
  -2   2 -10  148.36   30.21 
  -4   2  -8   78.91   23.71 
  -4  -2  -8   99.85   20.36 
  -6   2  -6  133.63   30.52 
  -6  -2  -6  103.89   21.85 
  -8  -2  -4  236.18   20.33 
  -8   2  -4  236.76   44.53 
  -8  -2  -4  172.97   30.15 
 -10  -2  -2  323.22   42.40 
 -10   2  -2  376.65   54.99 
 -10  -2  -2  254.55   25.03 
 -10   2  -2  335.64   28.08 
 -12   2   0  711.34   79.03 
 -12  -2   0  767.90   56.06 
 -12   2   0  723.51   62.01 
 -14   2   2  459.43   56.17 
 -14  -2   2  343.13   40.46 
 -14   2   2  385.56   48.08 
 -16  -2   4  363.34   47.60 
 -16   2   4  530.57   58.79 
 -16  -2   4  469.82   55.45 
 -16   2   4  396.15   55.75 
 -18  -2   6  358.02   44.69 
 -18   2   6  442.82   52.64 
 -18  -2   6  512.43   65.52 
 -18   2   6  396.53   59.88 
 -20  -2   8  447.97   45.80 
 -20   2   8  401.47   50.29 
 -20  -2   8  349.39   60.03 
 -20   2   8  557.47   76.97 
 -22  -2  10  227.32   51.28 
 -22   2  10  190.67   46.74 
 -24  -2  12   92.27   34.27 
 -24   2  12  113.39   41.43 
 -26  -2  14  100.12   38.83 
 -26   2  14  143.64   50.53 
   1   3 -13    2.63    5.33 
  -1   3 -11   17.33    9.48 
  -3   3  -9   62.66   19.42 
  -3  -3  -9   86.63   18.44 
  -5   3  -7   28.40   14.24 
  -5  -3  -7   20.95    9.04 
  -7   3  -5   44.20   19.49 
  -7  -3  -5   36.98   12.14 
  -9  -3  -3   76.30   11.47 
  -9   3  -3   68.74    8.75 
  -9  -3  -3   52.81   15.02 
  -9   3  -3   78.25   24.82 
 -11  -3  -1  343.76   44.40 
 -11  -3  -1  454.91   38.47 
 -11   3  -1  483.24   44.80 
 -13   3   1   78.29   21.76 
 -13  -3   1   74.31   14.90 
 -13  -3   1   36.62   12.78 
 -13   3   1   68.77   17.78 
 -15   3   3   32.72   12.93 
 -15  -3   3   34.25   13.07 
 -15  -3   3   19.64    8.08 
 -15   3   3   33.47   14.07 
 -17  -3   5  163.31   26.32 
 -17  -3   5  196.75   35.39 
 -17   3   5  291.27   46.55 
 -17   3   5  264.53   36.43 
 -19  -3   7  336.56   36.03 
 -19  -3   7  406.47   58.63 
 -19   3   7  354.07   59.49 
 -19   3   7  380.90   44.82 
 -21   3   9    4.63    2.43 
 -21  -3   9   17.80   13.36 
 -21   3   9   22.26   16.76 
 -23  -3  11   57.96   27.06 
 -23   3  11   45.07   22.24 
 -25  -3  13   59.59   27.40 
 -25   3  13   45.35   23.24 
 -27  -3  15   74.40   32.92 
 -27   3  15  110.31   42.91 
   0   4 -12    4.85    4.54 
  -2   4 -10    8.14    9.83 
  -4  -4  -8    1.78    3.94 
  -4   4  -8    6.48    8.00 
  -6  -4  -6   -3.41    4.28 
  -6   4  -6   12.06   13.10 
  -8  -4  -4   26.38    6.82 
  -8  -4  -4   31.23   10.31 
  -8   4  -4   42.84   18.57 
 -10   4  -2   82.75   23.55 
 -10  -4  -2   55.41   10.89 
 -10  -4  -2   47.47   13.20 
 -10   4  -2   68.06   13.26 
 -12   4   0    4.59    4.05 
 -12  -4   0    6.31    3.85 
 -12  -4   0    7.84    4.34 
 -14   4   2   24.26    9.72 
 -14  -4   2   18.96    7.51 
 -14  -4   2   11.65    6.96 
 -16  -4   4   15.12    6.83 
 -16  -4   4   19.08    9.76 
 -16   4   4   23.16    9.95 
 -18  -4   6   55.86   11.84 
 -18  -4   6   31.75   14.48 
 -18   4   6   56.42   15.33 
 -20  -4   8   -2.44    2.56 
 -20   4   8   -4.46    4.33 
 -22  -4  10    4.44    4.54 
 -22   4  10   12.29   10.38 
 -22   4  10   14.59    8.37 
 -24  -4  12   33.38   21.89 
 -24   4  12    7.54   13.29 
 -26  -4  14    8.29   11.18 
 -26   4  14    4.12   11.17 
  -1   5 -11   13.30    8.34 
  -3   5  -9   10.32    9.28 
  -5   5  -7   13.72    9.30 
  -7  -5  -5    9.94    5.84 
  -7   5  -5    4.25    6.26 
  -9   5  -3   13.40    8.59 
  -9  -5  -3   12.21    5.94 
  -9  -5  -3   16.64    5.79 
 -11   5  -1   28.59   12.85 
 -11  -5  -1   14.11    7.83 
 -11  -5  -1   11.09    5.47 
 -13  -5   1   28.57    9.53 
 -13  -5   1   32.26   10.23 
 -13   5   1   32.74   12.09 
 -15  -5   3   28.33    8.55 
 -15  -5   3   36.63   12.42 
 -15   5   3   47.29   14.51 
 -17   5   5   11.12    5.32 
 -17  -5   5   14.60    6.01 
 -17  -5   5   11.64    9.16 
 -19   5   7   59.17   15.43 
 -19  -5   7   53.82   20.74 
 -21   5   9   33.93   12.07 
 -21  -5   9   58.48   22.87 
 -23  -5  11   13.57    9.80 
 -25  -5  13    9.04    3.97 
 -25   5  13  -24.89   18.32 
 -27  -5  15   21.50   18.37 
   0   6 -12   40.28   16.12 
  -2   6 -10    5.84    4.02 
  -4   6  -8   41.14   20.59 
  -6   6  -6  103.09   29.92 
  -8   6  -4   78.34   23.05 
 -10  -6  -2  177.74   23.21 
 -10   6  -2  274.17   40.86 
 -12  -6   0   53.54   13.52 
 -12   6   0   64.40   17.95 
 -14  -6   2  139.28   23.33 
 -14   6   2  143.04   26.05 
 -16  -6   4  128.09   25.14 
 -16   6   4  184.36   29.01 
 -18   6   6  109.54   21.57 
 -18  -6   6   95.08   24.12 
 -20  -6   8  185.88   37.71 
 -20   6   8  148.75   26.13 
 -22   6  10   83.24   19.46 
 -22  -6  10   70.22   24.11 
 -24  -6  12   57.73   23.93 
 -26  -6  14   29.87   20.28 
 -26   6  14   22.32   17.83 
  -1   7 -11   57.30   22.69 
  -3   7  -9  108.68   32.36 
  -5   7  -7   82.81   28.42 
  -7   7  -5  259.02   45.52 
  -9  -7  -3  197.63   24.90 
  -9   7  -3  181.63   34.64 
 -11  -7  -1  180.18   24.61 
 -11   7  -1  169.92   30.79 
 -13  -7   1  131.23   22.37 
 -13   7   1  176.18   29.11 
 -15   7   3  347.48   36.48 
 -15  -7   3  381.45   43.47 
 -15   7   3  423.03   46.73 
 -17   7   5  182.44   27.84 
 -17  -7   5  212.32   33.79 
 -17   7   5  237.40   33.76 
 -19   7   7  227.16   33.38 
 -19   7   7  231.96   34.24 
 -19  -7   7  232.68   39.58 
 -21   7   9  177.54   29.35 
 -21   7   9  155.32   30.19 
 -21  -7   9  175.22   36.92 
 -23   7  11  147.55   27.61 
 -23  -7  11  142.74   36.45 
 -25  -7  13  103.06   32.47 
  -2   8 -10   34.02   15.84 
  -4   8  -8  220.41   47.07 
  -6   8  -6  162.33   36.35 
  -8   8  -4  264.54   42.72 
 -10  -8  -2  372.97   38.87 
 -10   8  -2  385.25   49.36 
 -12  -8   0  222.87   30.68 
 -12   8   0  355.02   43.21 
 -14   8   2  315.10   31.57 
 -14  -8   2  260.44   35.31 
 -14   8   2  283.72   38.73 
 -16   8   4  441.86   48.76 
 -16   8   4  381.54   40.86 
 -16  -8   4  361.13   44.88 
 -18   8   6  292.95   39.01 
 -18   8   6  256.31   35.88 
 -18  -8   6  321.03   43.84 
 -20   8   8  309.69   40.46 
 -20   8   8  262.27   39.06 
 -20  -8   8  261.62   43.32 
 -22   8  10  173.28   29.72 
 -22   8  10  154.58   31.80 
 -22  -8  10  159.30   36.31 
 -24  -8  12  173.99   40.73 
  -3   9  -9   88.08   30.23 
  -5   9  -7  213.98   43.66 
  -7   9  -5  142.89   31.66 
  -9  -9  -3  145.10   23.36 
  -9   9  -3  188.20   33.76 
 -11  -9  -1  415.19   43.25 
 -11   9  -1  387.13   49.26 
 -13  -9   1  419.23   45.86 
 -13   9   1  434.97   50.66 
 -15   9   3  216.90   33.39 
 -15   9   3  182.74   25.61 
 -15  -9   3  209.09   32.17 
 -17   9   5  369.38   44.75 
 -17   9   5  338.45   39.61 
 -17  -9   5  279.21   41.34 
 -19   9   7  211.49   33.24 
 -19   9   7  168.02   30.07 
 -19  -9   7  271.04   41.40 
 -21   9   9  176.30   30.63 
 -21   9   9  131.64   28.42 
 -21  -9   9  157.16   34.01 
 -23   9  11  100.13   26.46 
 -23   9  11  140.25   27.11 
 -23  -9  11   80.52   26.19 
 -25   9  13  139.58   32.96 
  -2  10 -10   42.41   20.70 
  -4  10  -8  178.47   41.87 
  -6  10  -6  119.16   30.46 
  -8  10  -4  151.38   31.48 
 -10 -10  -2  216.74   30.58 
 -10  10  -2  208.72   35.29 
 -12 -10   0  238.13   33.11 
 -12  10   0  224.65   35.94 
 -14  10   2  330.53   42.85 
 -14 -10   2  243.08   36.00 
 -16  10   4  158.66   29.18 
 -16 -10   4  155.77   29.15 
 -18  10   6  174.25   30.53 
 -18  10   6  147.66   26.85 
 -18 -10   6  188.86   33.84 
 -20  10   8  183.17   31.20 
 -20  10   8  138.97   28.04 
 -20 -10   8  131.23   30.42 
 -22  10  10  108.96   26.24 
 -22 -10  10   78.31   24.09 
 -22  10  10   90.30   22.49 
 -24  10  12  122.58   30.52 
 -24  10  12  100.75   24.50 
  -3  11  -9   15.65    7.59 
  -5  11  -7   35.55   16.85 
  -7  11  -5   79.85   23.28 
  -9  11  -3   65.02   20.10 
 -11 -11  -1  160.36   26.80 
 -11  11  -1  138.51   28.80 
 -13 -11   1   78.33   18.82 
 -13  11   1   84.18   21.93 
 -15  11   3  110.47   25.15 
 -15 -11   3  156.45   28.83 
 -17 -11   5   45.73   16.48 
 -17  11   5   57.25   16.40 
 -19  11   7   37.92   13.76 
 -19 -11   7   64.61   20.29 
 -19  11   7   91.08   22.03 
 -21  11   9  127.41   28.47 
 -21 -11   9   73.77   23.09 
 -21  11   9  102.51   24.25 
 -23  11  11   40.77   16.92 
 -23  11  11   52.43   17.14 
  -4  12  -8   25.20   15.75 
  -6  12  -6   16.66   10.16 
  -8  12  -4   13.43    7.90 
 -10  12  -2   52.63   17.78 
 -12 -12   0   35.80   13.19 
 -12  12   0   23.40   11.59 
 -14  12   2   25.02   11.77 
 -14 -12   2   10.23    8.76 
 -16 -12   4   11.78    8.47 
 -16  12   4   22.93   11.05 
 -18 -12   6   21.98   11.05 
 -18  12   6   19.39    9.44 
 -20  12   8   32.41   13.95 
 -20 -12   8    6.23    7.88 
 -22  12  10   12.85    8.44 
 -22  12  10   17.74    9.88 
  -5  13  -7   -7.90    8.21 
  -7  13  -5    0.86    4.80 
  -9  13  -3    2.63    2.95 
 -11 -13  -1   -1.47    4.56 
 -11  13  -1    8.33    7.85 
 -13  13   1    0.46    3.87 
 -13 -13   1   -1.14    2.30 
 -15  13   3    1.53    5.46 
 -15 -13   3    0.25    5.14 
 -17 -13   5    9.64    7.41 
 -17  13   5    1.44    3.02 
 -19  13   7    3.02    2.72 
 -19 -13   7    4.64    6.63 
  -4  14  -8    2.12    4.59 
  -6  14  -6  -17.13   11.86 
  -8  14  -4   13.08   10.49 
 -10  14  -2   -2.96    3.28 
 -12 -14   0   11.76    7.99 
 -12  14   0   27.14   13.10 
 -14  14   2   15.90   10.91 
 -14 -14   2   11.66    8.95 
 -16 -14   4   12.43    9.17 
 -16  14   4   22.92   11.86 
  -5  15  -7   29.46   16.46 
  -7  15  -5   24.86   13.14 
  -9  15  -3   26.93   14.75 
 -11  15  -1   65.30   21.40 
 -13 -15   1   43.61   16.94 
   0   0 -13   -3.73    4.28 
  -2   0 -11   -2.16    3.56 
  -4   0  -9   24.67   14.55 
  -6   0  -7   -2.77    4.34 
  -8   0  -5   -5.05    8.29 
 -10   0  -3    8.16   10.18 
 -10   0  -3    0.69    0.63 
 -12   0  -1    2.03    6.24 
 -12   0  -1    1.21    2.06 
 -14   0   1   -6.38    6.98 
 -14   0   1   -3.43    4.83 
 -16   0   3    6.75    4.86 
 -16   0   3   -1.96    2.97 
 -18   0   5    6.72    8.67 
 -18   0   5    5.29    9.06 
 -20   0   7   -1.18    5.21 
 -20   0   7   -5.79   10.33 
 -22   0   9   -8.26   14.17 
 -24   0  11   -4.83    4.55 
 -26   0  13    0.23    7.50 
 -28   0  15  -30.40   21.99 
   1   1 -14   24.65   10.17 
  -1  -1 -12   24.24   10.77 
  -1   1 -12   20.00    9.10 
  -3  -1 -10   60.11   16.35 
  -3   1 -10   53.41   17.48 
  -5  -1  -8   69.88   18.99 
  -5   1  -8   34.12   13.01 
  -7   1  -6  146.35   32.41 
  -7  -1  -6   71.95   20.90 
  -9   1  -4  101.70   27.38 
  -9  -1  -4   93.36   10.71 
  -9  -1  -4   68.12   20.98 
 -11  -1  -2   68.43   21.66 
 -11  -1  -2   77.51   11.57 
 -11   1  -2   86.36   11.96 
 -11   1  -2   99.77   29.54 
 -13  -1   0   45.69   16.18 
 -13   1   0   40.51   17.83 
 -13  -1   0   30.16    9.22 
 -13   1   0   30.96   10.36 
 -15  -1   2   -0.62    6.30 
 -15  -1   2   -0.62    1.80 
 -15   1   2   -2.33    6.25 
 -15   1   2    2.91    5.27 
 -17  -1   4   61.17   20.92 
 -17  -1   4   49.76   17.18 
 -17   1   4  103.54   27.15 
 -17   1   4   64.54   22.61 
 -19  -1   6    5.16    5.11 
 -19  -1   6    3.61    6.04 
 -19   1   6    7.31    4.24 
 -19   1   6    1.72    2.27 
 -21  -1   8   82.16   20.99 
 -21  -1   8   92.15   29.64 
 -21   1   8   66.07   26.51 
 -21   1   8   79.52   23.63 
 -23  -1  10   -3.07   11.66 
 -23   1  10  -22.53   16.25 
 -25  -1  12    0.99   14.51 
 -25   1  12   18.83   17.19 
 -27  -1  14    6.31    8.37 
 -27   1  14  -32.57   22.28 
   0   2 -13   72.53   18.72 
  -2  -2 -11  144.78   26.09 
  -2   2 -11  162.79   31.18 
  -4  -2  -9  179.00   29.32 
  -4   2  -9  164.85   34.26 
  -6  -2  -7  240.44   36.91 
  -6   2  -7  304.31   49.24 
  -8  -2  -5  342.61   45.27 
  -8   2  -5  452.76   62.70 
 -10  -2  -3  198.32   19.77 
 -10   2  -3  211.44   16.16 
 -10   2  -3  204.32   42.58 
 -10  -2  -3  138.04   28.85 
 -12  -2  -1  166.83   20.42 
 -12   2  -1  194.80   25.04 
 -12   2  -1  181.74   39.15 
 -12  -2  -1  126.19   27.83 
 -14  -2   1   89.99   22.18 
 -14  -2   1   95.31   18.52 
 -14   2   1  130.83   25.04 
 -14   2   1   82.53   25.02 
 -16   2   3   68.82   22.12 
 -16  -2   3   47.51   15.22 
 -16  -2   3   32.79   12.79 
 -16   2   3   51.46   17.76 
 -18   2   5  150.11   32.06 
 -18  -2   5  191.94   32.53 
 -18  -2   5  237.50   40.81 
 -18   2   5  171.48   37.48 
 -20  -2   7  217.62   33.12 
 -20   2   7  182.33   34.95 
 -20  -2   7  234.55   45.44 
 -20   2   7  263.35   50.48 
 -22   2   9    2.62    2.85 
 -22  -2   9   -2.36   11.75 
 -22   2   9  -14.35   12.50 
 -24  -2  11   10.41    6.54 
 -24   2  11   -3.74   13.30 
 -26  -2  13   16.15   17.08 
 -26   2  13   26.06   17.07 
 -28  -2  15    3.81   17.61 
 -28   2  15    6.00   13.04 
  -1   3 -12  185.62   34.36 
  -3  -3 -10  289.43   37.46 
  -3   3 -10  259.51   44.89 
  -5  -3  -8  406.80   46.11 
  -5   3  -8  363.17   57.55 
  -7  -3  -6  447.23   50.68 
  -7   3  -6  574.38   73.56 
  -9  -3  -4  482.02   55.12 
  -9  -3  -4  590.67   42.73 
 -11  -3  -2  372.16   48.37 
 -11  -3  -2  476.41   39.80 
 -11   3  -2  548.46   71.86 
 -11   3  -2  651.67   46.22 
 -13  -3   0  366.47   35.68 
 -13   3   0  409.27   44.29 
 -15   3   2  174.38   33.96 
 -15  -3   2  159.17   25.92 
 -15   3   2  164.38   30.20 
 -15  -3   2  101.64   22.64 
 -17  -3   4  170.71   27.95 
 -17   3   4  164.72   31.89 
 -17  -3   4  189.78   33.30 
 -17   3   4  260.44   44.06 
 -19   3   6   55.60   17.32 
 -19  -3   6   66.26   21.92 
 -19  -3   6   49.35   13.44 
 -19   3   6   48.25   19.93 
 -21   3   8  141.21   28.04 
 -21  -3   8  143.76   34.70 
 -21   3   8   89.63   31.70 
 -23  -3  10   83.45   30.98 
 -23   3  10   65.98   26.55 
 -25  -3  12    2.73    4.10 
 -25   3  12    9.30   12.10 
 -27  -3  14   30.92   20.25 
 -27   3  14   15.80   24.28 
   0   4 -13  224.97   38.46 
  -2   4 -11  445.31   60.86 
  -4  -4  -9  356.40   42.31 
  -4   4  -9  342.97   56.12 
  -6  -4  -7  479.15   50.53 
  -6   4  -7  487.00   70.05 
  -8  -4  -5  478.27   50.46 
  -8   4  -5  525.74   72.90 
 -10  -4  -3  517.09   56.41 
 -10  -4  -3  591.51   47.39 
 -10   4  -3  830.13   89.10 
 -10   4  -3  740.53   47.67 
 -12  -4  -1  299.13   39.40 
 -12  -4  -1  386.41   35.72 
 -12   4  -1  415.88   57.93 
 -12   4  -1  427.10   42.65 
 -14  -4   1  308.07   38.33 
 -14  -4   1  297.80   34.76 
 -14   4   1  365.74   50.01 
 -14   4   1  397.18   46.46 
 -16  -4   3  160.58   26.50 
 -16  -4   3  238.96   34.03 
 -18  -4   5   97.39   18.13 
 -18   4   5  115.46   24.14 
 -18  -4   5  120.97   27.18 
 -20  -4   7  143.88   20.28 
 -20  -4   7  144.95   33.05 
 -20   4   7  148.36   27.87 
 -20   4   7  145.83   37.34 
 -22  -4   9  147.52   36.51 
 -22   4   9   88.72   20.97 
 -22   4   9  119.13   34.89 
 -24  -4  11   32.58   19.18 
 -24   4  11   31.69   19.78 
 -26  -4  13   27.81   16.58 
 -26   4  13    4.48   20.89 
  -1   5 -12  230.76   43.11 
  -3   5 -10  450.57   66.76 
  -5   5  -8  296.90   54.37 
  -7  -5  -6  574.57   54.69 
  -7   5  -6  447.37   69.49 
  -9  -5  -4  478.35   50.08 
  -9  -5  -4  524.09   42.76 
  -9   5  -4  604.52   76.56 
 -11  -5  -2  419.23   45.61 
 -11  -5  -2  412.30   38.77 
 -13  -5   0  219.59   29.54 
 -13  -5   0  201.50   26.24 
 -13   5   0  240.67   39.63 
 -15  -5   2  213.47   28.75 
 -15  -5   2  256.78   32.16 
 -15   5   2  198.70   33.88 
 -17  -5   4  121.93   20.05 
 -17  -5   4  131.40   25.79 
 -17   5   4  176.01   29.87 
 -19  -5   6  201.30   24.68 
 -19  -5   6  218.91   38.03 
 -19   5   6  259.52   36.60 
 -21   5   8   62.06   17.49 
 -21  -5   8   80.77   24.78 
 -23   5  10   16.01    8.78 
 -23  -5  10   50.05   22.04 
 -25  -5  12    8.26    2.80 
 -25   5  12    3.39    7.69 
 -27  -5  14   10.59   10.94 
 -27   5  14  -16.48   15.67 
  -2   6 -11  189.77   41.72 
  -4   6  -9  336.31   58.48 
  -6   6  -7  251.69   49.86 
  -8   6  -5  223.22   44.82 
 -10  -6  -3  583.95   49.99 
 -10   6  -3  833.95   83.70 
 -12  -6  -1  303.99   36.25 
 -12  -6  -1  292.43   32.85 
 -12   6  -1  386.08   50.22 
 -14  -6   1   62.55   14.31 
 -14  -6   1   68.12   15.32 
 -14   6   1  109.60   24.25 
 -16  -6   3  117.29   23.15 
 -16   6   3  160.82   28.82 
 -18  -6   5  294.48   41.60 
 -18   6   5  232.07   35.25 
 -20   6   7   42.35   14.50 
 -20  -6   7   36.49   14.94 
 -22   6   9   20.35   11.11 
 -22  -6   9   20.07   13.66 
 -24   6  11   12.69    7.81 
 -24  -6  11   18.35   12.05 
 -26  -6  13   38.89   21.63 
 -26   6  13    4.40    6.88 
  -1   7 -12   67.22   24.48 
  -3   7 -10  119.10   34.13 
  -5   7  -8   73.52   26.98 
  -7   7  -6  160.27   39.61 
  -9   7  -4  194.82   38.86 
 -11  -7  -2   83.18   15.93 
 -11   7  -2   68.27   20.34 
 -13  -7   0  100.57   18.87 
 -13   7   0  110.40   24.72 
 -15   7   2   68.08   18.76 
 -15  -7   2   51.67   14.18 
 -17  -7   4  215.19   33.11 
 -17   7   4  192.49   31.43 
 -19   7   6   14.23    7.77 
 -19  -7   6   24.39   11.53 
 -21   7   8   13.70    7.19 
 -21  -7   8    1.00    2.76 
 -23   7  10   -0.02    3.13 
 -23  -7  10    0.47    4.04 
 -25  -7  12   16.12   12.38 
  -2   8 -11    9.29    9.68 
  -4   8  -9   20.71   15.33 
  -6   8  -7   17.96   14.30 
  -8   8  -5   90.29   26.65 
 -10  -8  -3   72.43   15.64 
 -10   8  -3   63.14   20.46 
 -12  -8  -1   -7.78    5.06 
 -12   8  -1   -3.34    5.25 
 -14   8   1   13.57    7.20 
 -14  -8   1   10.02    5.69 
 -16  -8   3  139.79   25.49 
 -16   8   3  119.05   24.84 
 -18   8   5    0.08    3.26 
 -18  -8   5   -0.91    5.09 
 -18   8   5   10.60    8.44 
 -20   8   7   -0.33    2.19 
 -20  -8   7   -0.22    3.68 
 -20   8   7   -0.29    1.73 
 -22  -8   9    2.95    5.07 
 -22   8   9   -9.39    6.85 
 -24  -8  11    6.24    4.85 
 -24   8  11   -5.77    5.52 
  -3   9 -10  -16.99   13.45 
  -5   9  -8   20.60   13.80 
  -7   9  -6   19.16   12.66 
  -9   9  -4   10.25    7.78 
 -11  -9  -2   -4.44    3.96 
 -11   9  -2  -10.47    7.96 
 -13   9   0  -22.01   10.84 
 -13  -9   0    1.82    2.73 
 -15   9   2   -3.55    5.21 
 -15  -9   2    1.10    3.10 
 -17  -9   4    3.36    5.56 
 -17   9   4    1.61    5.24 
 -19   9   6    7.13    4.85 
 -19   9   6    8.06    6.67 
 -21   9   8    1.23    2.66 
 -21  -9   8   -2.09    3.86 
 -21   9   8    5.45    4.91 
 -23   9  10    1.07    2.59 
 -23  -9  10    0.31    4.86 
 -23   9  10   -1.77    5.27 
 -25  -9  12   -0.04    1.14 
  -4  10  -9   15.24   12.24 
  -6  10  -7   31.63   16.03 
  -8  10  -5  156.49   35.66 
 -10  10  -3   53.68   19.11 
 -12  10  -1   21.92   11.46 
 -12 -10  -1    6.92    5.93 
 -14  10   1   19.55    9.48 
 -14 -10   1   15.09    7.66 
 -16 -10   3   87.93   21.08 
 -16  10   3   49.11   16.22 
 -18 -10   5    4.10    4.68 
 -18  10   5    2.55    3.84 
 -20  10   7    4.46    3.23 
 -20  10   7   -1.94    3.20 
 -20 -10   7    6.33    6.35 
 -22  10   9   14.37    8.28 
 -22  10   9   12.25    7.64 
 -22 -10   9    1.98    7.00 
 -24  10  11    3.26    3.05 
 -24  10  11    4.23    5.38 
  -5  11  -8  120.30   35.64 
  -7  11  -6   81.24   25.71 
  -9  11  -4  141.80   32.44 
 -11  11  -2  134.22   29.38 
 -11 -11  -2   65.12   17.10 
 -13  11   0   90.68   23.37 
 -13 -11   0   67.12   17.47 
 -15 -11   2   50.15   15.49 
 -15  11   2   44.06   15.85 
 -17 -11   4   89.32   22.88 
 -17  11   4  117.08   26.00 
 -19  11   6   24.52   11.94 
 -19 -11   6   26.78   11.96 
 -21  11   8   11.80    8.93 
 -21 -11   8   21.57   12.07 
 -23  11  10   17.13   10.63 
 -23  11  10   26.05   12.49 
 -23 -11  10    8.82    8.34 
 -25  11  12    6.17    6.21 
 -25  11  12    7.33    7.05 
  -4  12  -9  145.87   40.96 
  -6  12  -7  177.62   41.50 
  -8  12  -5  152.65   34.52 
 -10  12  -3  147.88   33.46 
 -12  12  -1  143.08   30.98 
 -12 -12  -1  132.25   25.88 
 -14 -12   1  106.59   23.33 
 -14  12   1  120.61   27.62 
 -16 -12   3   53.81   17.67 
 -16  12   3   94.25   24.27 
 -18  12   5  112.11   26.54 
 -18 -12   5   89.68   24.17 
 -20  12   7   79.46   22.12 
 -20 -12   7   37.85   16.13 
 -22  12   9   21.02   10.99 
  -5  13  -8  133.80   38.30 
  -7  13  -6  173.28   39.81 
  -9  13  -4  169.53   36.43 
 -11  13  -2  134.80   31.24 
 -13 -13   0  122.50   26.08 
 -13  13   0  144.01   31.62 
 -15 -13   2  111.64   25.00 
 -15  13   2   72.78   22.27 
 -17  13   4   72.81   21.84 
 -17 -13   4   34.91   14.06 
 -19  13   6   78.06   21.96 
 -19 -13   6   60.95   21.16 
  -6  14  -7  114.37   34.14 
  -8  14  -5  115.39   31.56 
 -10  14  -3  148.09   34.13 
 -12  14  -1   93.84   26.19 
 -14 -14   1   88.63   23.27 
 -14  14   1   66.77   21.81 
 -16  14   3   53.56   19.31 
 -16 -14   3   36.07   15.16 
   0   0 -14  169.38   29.06 
  -2   0 -12  109.34   24.19 
  -4   0 -10  117.13   26.44 
  -6   0  -8   15.68   10.48 
  -8   0  -6  140.51   30.83 
 -10   0  -4   94.23   25.01 
 -10   0  -4  109.37   10.66 
 -12   0  -2   99.96   26.77 
 -12   0  -2   49.02    9.01 
 -14   0   0   32.90   14.92 
 -14   0   0   26.83    9.42 
 -16   0   2  115.09   30.13 
 -16   0   2   96.87   22.00 
 -18   0   4  131.25   32.76 
 -18   0   4   92.19   25.19 
 -20   0   6    5.69    4.44 
 -20   0   6    0.47    6.78 
 -22   0   8  219.24   40.06 
 -22   0   8  173.81   44.06 
 -24   0  10  192.84   46.66 
 -26   0  12   81.59   33.48 
 -28   0  14  131.20   44.75 
  -1  -1 -13  125.04   24.77 
  -1   1 -13   96.34   22.65 
  -3  -1 -11  139.44   27.04 
  -3   1 -11  114.81   26.68 
  -5  -1  -9   53.31   17.48 
  -5   1  -9   55.76   19.45 
  -7   1  -7   49.07   20.00 
  -7  -1  -7   36.07   13.41 
  -9   1  -5  104.79   28.92 
  -9  -1  -5  109.68   26.37 
 -11  -1  -3   14.28    9.02 
 -11   1  -3   39.85   19.32 
 -11   1  -3   28.29    5.28 
 -11  -1  -3   25.09    5.92 
 -13  -1  -1   57.37   19.36 
 -13   1  -1   33.32   17.23 
 -13  -1  -1   31.66    8.24 
 -13   1  -1   42.18   10.04 
 -15  -1   1   51.80   19.12 
 -15   1   1   48.14   19.30 
 -15  -1   1   46.09   13.24 
 -15   1   1   44.23   14.21 
 -17  -1   3   26.80   12.94 
 -17   1   3   43.85   17.49 
 -17  -1   3   28.64   12.92 
 -17   1   3   25.33   13.20 
 -19  -1   5   29.93   13.03 
 -19  -1   5   38.36   16.43 
 -19   1   5   22.84    9.26 
 -19   1   5   38.72   18.53 
 -21  -1   7  350.79   49.19 
 -21   1   7  302.60   50.13 
 -21  -1   7  276.82   51.69 
 -21   1   7  282.18   53.67 
 -23  -1   9  158.33   42.18 
 -23   1   9   83.78   30.04 
 -25  -1  11  110.52   37.28 
 -25   1  11   93.33   37.97 
 -27  -1  13   59.55   30.22 
 -27   1  13   79.44   34.07 
   0   2 -14   40.33   14.04 
  -2  -2 -12   66.64   17.83 
  -2   2 -12   44.68   15.94 
  -4  -2 -10   73.65   19.06 
  -4   2 -10   52.41   19.18 
  -6   2  -8   32.77   14.73 
  -6  -2  -8   29.87   12.27 
  -8   2  -6   52.49   21.00 
  -8  -2  -6   43.09   14.23 
 -10  -2  -4   46.87    8.28 
 -10  -2  -4   33.95   13.75 
 -12  -2  -2    8.28    3.92 
 -12   2  -2    2.62    8.26 
 -12   2  -2   13.92    4.96 
 -12  -2  -2   14.03    6.92 
 -14  -2   0    5.65    4.72 
 -14   2   0   -7.64    5.55 
 -14   2   0    1.74    7.37 
 -14  -2   0   -9.41    9.43 
 -16  -2   2   21.55   11.07 
 -16  -2   2    3.98    7.26 
 -16   2   2   13.29   10.66 
 -16   2   2   -4.33    4.73 
 -18  -2   4   31.35   12.88 
 -18  -2   4   33.43   13.71 
 -18   2   4   40.54   18.99 
 -18   2   4   33.63   16.04 
 -20   2   6   98.22   26.61 
 -20  -2   6   80.21   20.29 
 -20  -2   6   48.02   18.05 
 -20   2   6   61.62   23.01 
 -22   2   8  153.37   33.44 
 -22  -2   8  185.00   42.09 
 -22   2   8  132.73   37.15 
 -24  -2  10   53.98   24.27 
 -24   2  10   35.60   20.41 
 -26  -2  12   54.98   24.28 
 -26   2  12   83.13   34.61 
 -28  -2  14   39.64   24.61 
 -28   2  14  117.78   44.38 
  -1   3 -13   11.52    9.21 
  -3  -3 -11   30.55   12.03 
  -3   3 -11   43.58   18.00 
  -5   3  -9   35.66   16.92 
  -5  -3  -9   26.93   10.52 
  -7   3  -7    2.46    6.86 
  -7  -3  -7    9.01    6.60 
  -9   3  -5  103.46   31.56 
  -9  -3  -5   32.10   11.82 
 -11  -3  -3    1.30    2.11 
 -11   3  -3    3.00    1.65 
 -11  -3  -3   -4.37    8.63 
 -13  -3  -1   -0.65    1.21 
 -13   3  -1  -14.27    6.85 
 -13  -3  -1    4.35    5.48 
 -13   3  -1    2.08    8.26 
 -15  -3   1    1.26    5.13 
 -15   3   1    0.79    5.66 
 -15  -3   1    3.36    8.43 
 -15   3   1   -1.02    3.30 
 -17   3   3    7.32    4.84 
 -17  -3   3    6.39    6.49 
 -17   3   3    2.25    3.05 
 -17  -3   3    4.59    2.80 
 -19   3   5    2.29    5.30 
 -19  -3   5   -0.82    5.23 
 -19   3   5    8.55   10.35 
 -19  -3   5    8.97    8.48 
 -21   3   7  154.97   31.46 
 -21  -3   7   65.77   23.63 
 -21  -3   7   98.89   20.11 
 -21   3   7  122.25   33.76 
 -23   3   9   25.00   13.31 
 -23  -3   9   16.47   13.08 
 -23   3   9   16.89   14.66 
 -25  -3  11   -5.03    6.38 
 -25   3  11    3.08   10.45 
 -27  -3  13   22.33   14.72 
 -27   3  13   51.95   28.37 
  -2   4 -12    1.33    4.44 
  -4   4 -10   17.68   13.55 
  -6   4  -8   25.71   17.38 
  -6  -4  -8    0.64    1.42 
  -8  -4  -6    1.96    2.79 
  -8   4  -6   12.12   12.46 
 -10  -4  -4    4.57    2.61 
 -10  -4  -4   10.04    7.28 
 -12  -4  -2   13.39    5.34 
 -12  -4  -2   23.65    9.98 
 -12   4  -2   18.67    7.12 
 -12   4  -2   13.86    9.27 
 -14   4   0   -1.57    2.71 
 -14  -4   0    5.74    4.34 
 -14  -4   0    8.00    5.67 
 -14   4   0   13.39    8.17 
 -16  -4   2    1.60    3.30 
 -16  -4   2    3.09    5.00 
 -16   4   2   -0.64    3.55 
 -18   4   4   21.04   11.85 
 -18  -4   4    6.82    5.86 
 -18  -4   4   14.75    8.32 
 -18   4   4   17.10   10.97 
 -20   4   6   80.96   21.43 
 -20  -4   6   48.93   13.70 
 -20  -4   6   57.62   19.56 
 -20   4   6   76.88   25.92 
 -22   4   8    3.66    2.77 
 -22  -4   8    4.26    6.31 
 -22   4   8    6.32    7.41 
 -24   4  10   -0.46    2.26 
 -24  -4  10    2.97    2.04 
 -26  -4  12   -2.19    4.77 
 -26   4  12    8.68   14.23 
 -28  -4  14    5.68    8.07 
 -28   4  14    0.81   10.78 
  -1   5 -13    9.41    7.53 
  -3   5 -11    7.49    5.69 
  -5   5  -9    9.58    9.15 
  -7  -5  -7    7.11    6.19 
  -7   5  -7    3.01    7.35 
  -9  -5  -5   17.12    9.33 
  -9   5  -5   25.93   14.85 
 -11  -5  -3   41.62    9.95 
 -11  -5  -3   58.62   14.81 
 -11   5  -3   43.83   17.06 
 -13  -5  -1   25.53   10.56 
 -13  -5  -1   30.53    9.19 
 -13   5  -1   17.61    8.17 
 -15   5   1   -2.01    6.04 
 -15  -5   1   11.40    5.69 
 -15  -5   1    5.88    3.76 
 -17  -5   3    2.35    2.57 
 -17   5   3    4.61    6.56 
 -17  -5   3    2.42    2.55 
 -19  -5   5    1.73    1.06 
 -19  -5   5    0.86    5.11 
 -19   5   5   -7.88    6.60 
 -21  -5   7   16.69    9.37 
 -21   5   7   17.63    9.35 
 -23  -5   9   24.41   13.68 
 -23   5   9   32.16   13.68 
 -23   5   9   21.59   16.12 
 -25  -5  11    1.75    6.33 
 -25   5  11   23.02   18.32 
 -27  -5  13    0.97   10.62 
 -27   5  13   22.27   19.07 
  -2   6 -12   25.49   15.20 
  -4   6 -10    6.97    3.62 
  -6   6  -8   92.10   30.04 
  -8   6  -6   27.43   17.37 
 -10   6  -4   -6.18    7.57 
 -10  -6  -4    2.89    2.03 
 -12  -6  -2  -10.32    6.32 
 -12   6  -2    0.18    5.65 
 -12  -6  -2    2.61    3.67 
 -14  -6   0   41.76   12.63 
 -14   6   0   43.57   16.10 
 -14  -6   0   37.96   11.03 
 -16  -6   2    0.65    1.35 
 -16  -6   2    0.43    2.75 
 -16   6   2    4.23    4.95 
 -18  -6   4    4.19    3.17 
 -18   6   4  -11.81    7.88 
 -20  -6   6  105.44   25.65 
 -20   6   6   98.07   23.29 
 -22   6   8    2.33    2.57 
 -22  -6   8   11.36    6.97 
 -24  -6  10   20.68   13.06 
 -24   6  10   14.64    8.05 
 -26  -6  12   22.56   17.51 
 -26   6  12   16.35   14.52 
  -3   7 -11   23.11   13.93 
  -5   7  -9   45.79   21.34 
  -7   7  -7   39.99   19.34 
  -9   7  -5   43.79   21.26 
 -11   7  -3   46.43   19.17 
 -11  -7  -3   10.87    5.53 
 -13  -7  -1   10.29    5.43 
 -13   7  -1   24.88   12.02 
 -15  -7   1   18.62    8.44 
 -15   7   1   45.33   15.94 
 -17  -7   3    9.84    7.77 
 -17   7   3    6.88    4.28 
 -19   7   5   93.24   22.96 
 -19  -7   5  103.98   23.65 
 -21   7   7   32.02   12.77 
 -21  -7   7   17.15    9.67 
 -23   7   9   18.90    9.59 
 -23  -7   9   23.86   13.64 
 -25   7  11   34.62   14.10 
 -25  -7  11   32.84   18.21 
 -27   7  13   84.07   38.21 
  -4   8 -10   50.02   22.69 
  -6   8  -8  107.62   34.45 
  -8   8  -6   41.25   20.01 
 -10   8  -4   -0.13    4.02 
 -12  -8  -2   19.74    7.89 
 -12   8  -2   21.48   10.45 
 -14  -8   0    5.81    3.91 
 -14   8   0    3.23    5.20 
 -16   8   2   -2.02    4.81 
 -16  -8   2    1.78    1.22 
 -18   8   4   40.85   14.47 
 -18  -8   4   28.16   12.47 
 -20   8   6   70.85   18.85 
 -20  -8   6   70.32   21.00 
 -22   8   8   46.05   15.91 
 -22  -8   8   40.75   17.09 
 -24   8  10   49.52   16.74 
 -24  -8  10   41.72   18.09 
 -26  -8  12   66.77   25.40 
  -3   9 -11   41.78   22.00 
  -5   9  -9   89.05   33.26 
  -7   9  -7   31.72   19.74 
  -9   9  -5   40.42   18.07 
 -11  -9  -3    3.03    3.02 
 -11   9  -3    5.98    5.57 
 -13  -9  -1   -4.51    4.13 
 -13   9  -1   -0.23    2.72 
 -15   9   1   11.20    8.27 
 -15  -9   1   13.02    7.09 
 -17   9   3    3.54    4.71 
 -17  -9   3    3.25    6.12 
 -19   9   5   11.34    8.64 
 -19  -9   5    5.35    3.83 
 -21  -9   7   44.32   16.72 
 -21   9   7   48.78   16.76 
 -23  -9   9   53.22   19.28 
 -23   9   9   75.92   21.25 
 -25   9  11   66.50   19.98 
 -25  -9  11   55.82   22.03 
  -4  10 -10   36.44   18.55 
  -6  10  -8   35.12   19.83 
  -8  10  -6   44.22   20.10 
 -10  10  -4   17.20   11.44 
 -12 -10  -2    0.29    1.25 
 -12  10  -2    3.20    2.93 
 -14  10   0   27.80   13.20 
 -14 -10   0   27.94   11.17 
 -16  10   2   12.68   11.02 
 -16 -10   2   -1.81    3.05 
 -18 -10   4   36.82   14.75 
 -18  10   4   33.69   14.39 
 -20 -10   6   47.93   17.20 
 -20  10   6   32.95   12.97 
 -22 -10   8    6.55    4.05 
 -22  10   8   32.50   13.83 
 -24 -10  10   31.82   16.32 
 -24  10  10   47.46   17.45 
  -5  11  -9   32.84   21.33 
  -7  11  -7   13.83   12.57 
  -9  11  -5    7.77   10.44 
 -11  11  -3   -1.82    2.49 
 -13  11  -1    2.14    3.89 
 -13 -11  -1   14.48    8.21 
 -15  11   1    3.30    3.68 
 -15 -11   1    2.89    3.39 
 -17 -11   3   -7.93    6.56 
 -17  11   3   19.18   10.68 
 -19 -11   5    8.87    8.37 
 -19  11   5   18.72   10.12 
 -21 -11   7   12.25    9.48 
 -21  11   7   15.50    9.79 
 -23 -11   9    6.32    8.10 
 -23  11   9   10.00    6.90 
 -25  11  11   32.40   14.43 
  -6  12  -8   34.87   18.83 
  -8  12  -6    6.69    7.05 
 -10  12  -4  -12.85   10.16 
 -12  12  -2   -1.84    3.30 
 -14  12   0    0.32    6.51 
 -14 -12   0    2.01    2.45 
 -16 -12   2    0.88    4.66 
 -16  12   2    0.33    3.13 
 -18 -12   4   -0.19    5.71 
 -18  12   4    1.24    3.33 
 -20 -12   6    0.05    1.91 
 -20  12   6    3.56    6.36 
 -22  12   8   14.36    9.59 
  -7  13  -7   -8.38    9.27 
  -9  13  -5    7.09    5.24 
 -11  13  -3   -3.20    7.69 
 -13  13  -1    9.35    6.29 
 -13 -13  -1    0.44    3.40 
 -15 -13   1    5.48    5.43 
 -15  13   1   -1.38    7.53 
 -17 -13   3   -0.31    3.45 
 -17  13   3   -1.89    4.43 
 -19 -13   5   -7.87    7.12 
 -19  13   5    5.61    8.28 
  -6  14  -8    2.30    4.96 
  -8  14  -6    5.22    7.21 
 -10  14  -4    8.96    9.50 
 -12  14  -2   14.41   10.51 
 -14  14   0   13.20   10.68 
 -14 -14   0   -7.47    6.63 
 -16 -14   2    2.85    4.14 
   0   0 -15   -4.67    4.84 
  -2   0 -13   -2.80    3.92 
  -4   0 -11    0.50    2.76 
  -6   0  -9   -4.93    8.12 
  -8   0  -7   -2.04    8.23 
 -10   0  -5  -11.75    9.95 
 -12   0  -3    3.01    7.98 
 -12   0  -3    0.29    1.51 
 -14   0  -1    2.34    7.69 
 -14   0  -1    2.37    2.88 
 -16   0   1  -26.19   14.57 
 -16   0   1    0.42    1.77 
 -18   0   3   13.85   10.43 
 -18   0   3   -1.02    5.02 
 -20   0   5   -9.51    8.72 
 -20   0   5  -12.43    9.86 
 -22   0   7    0.98    4.03 
 -22   0   7    7.13    5.61 
 -24   0   9    7.08    6.42 
 -26   0  11    9.19   14.76 
 -28   0  13  -23.57   18.31 
  -1  -1 -14    8.40    6.96 
  -1   1 -14   17.26   10.55 
  -3  -1 -12   -1.29    3.00 
  -3   1 -12    3.14    6.57 
  -5  -1 -10    1.92    2.19 
  -5   1 -10   -4.20    5.59 
  -7  -1  -8   14.18    5.43 
  -7   1  -8   25.28   13.99 
  -9   1  -6   79.28   27.15 
  -9  -1  -6  124.64   28.07 
 -11   1  -4   11.95   10.45 
 -11  -1  -4   13.04    3.83 
 -11  -1  -4    6.05    7.48 
 -13  -1  -2   45.97   16.86 
 -13   1  -2   48.20   19.89 
 -13  -1  -2   62.66   11.00 
 -13   1  -2   55.57   10.28 
 -15  -1   0   56.99   20.68 
 -15  -1   0   50.51   12.66 
 -15   1   0   51.55   13.73 
 -17  -1   2   60.94   20.74 
 -17   1   2   34.13   16.03 
 -17  -1   2   56.01   15.93 
 -17   1   2   57.19   17.77 
 -19  -1   4   20.66   12.19 
 -19   1   4   10.75    6.97 
 -19  -1   4   19.11   11.24 
 -19   1   4    6.81    4.84 
 -21  -1   6  136.52   31.91 
 -21   1   6  131.02   33.02 
 -21  -1   6  146.93   35.81 
 -21   1   6  102.99   30.39 
 -23   1   8  112.19   30.14 
 -23  -1   8   71.92   26.76 
 -23   1   8   46.99   20.94 
 -25  -1  10   35.02   22.14 
 -25   1  10   30.66   22.29 
 -27  -1  12   30.08   17.21 
 -27   1  12   35.13   21.72 
 -29  -1  14   32.89   23.36 
 -29   1  14    9.77   13.61 
  -2  -2 -13    9.92    5.62 
  -2   2 -13    9.89    8.77 
  -4  -2 -11   -1.42    4.01 
  -4   2 -11   -6.17    5.69 
  -6  -2  -9   31.40   12.94 
  -6   2  -9   38.57   17.95 
  -8   2  -7  157.47   36.99 
  -8  -2  -7  118.71   26.26 
 -10   2  -5  176.24   39.94 
 -10  -2  -5  102.33   24.99 
 -12   2  -3   32.52   16.92 
 -12  -2  -3   24.66    6.33 
 -12  -2  -3   21.20   10.11 
 -14  -2  -1  183.35   22.65 
 -14   2  -1  190.01   25.30 
 -14   2  -1  212.91   44.47 
 -14  -2  -1  164.62   34.06 
 -16  -2   1  175.80   26.71 
 -16   2   1  198.08   32.53 
 -16   2   1  181.77   40.65 
 -16  -2   1  180.65   34.84 
 -18  -2   3  363.15   49.39 
 -18   2   3  360.88   57.03 
 -18  -2   3  282.59   41.04 
 -18   2   3  235.69   41.44 
 -20  -2   5  289.87   43.99 
 -20   2   5  335.70   54.38 
 -20  -2   5  236.41   43.01 
 -20   2   5  321.54   52.81 
 -22  -2   7  228.23   36.27 
 -22  -2   7  131.47   34.24 
 -22   2   7  171.96   41.62 
 -22   2   7  193.91   40.49 
 -24  -2   9  103.80   32.59 
 -24   2   9   92.22   32.80 
 -24   2   9  108.93   29.50 
 -26  -2  11   84.69   32.53 
 -26   2  11   94.64   37.55 
 -28  -2  13   89.92   34.52 
 -28   2  13   60.81   30.65 
  -1   3 -14    9.58    8.98 
  -3   3 -12   46.44   19.54 
  -5  -3 -10   25.40   11.16 
  -5   3 -10   25.87   11.20 
  -7   3  -8   78.29   27.38 
  -7  -3  -8   87.65   21.26 
  -9   3  -6  303.39   54.01 
  -9  -3  -6  160.94   30.55 
 -11  -3  -4  216.23   22.21 
 -11  -3  -4  177.09   32.33 
 -13  -3  -2  157.73   19.92 
 -13   3  -2  176.41   21.00 
 -13   3  -2  202.97   43.80 
 -13  -3  -2  115.67   26.08 
 -15  -3   0  215.42   38.08 
 -15   3   0  370.30   59.41 
 -15  -3   0  333.05   34.72 
 -15   3   0  345.95   41.46 
 -17  -3   2  377.49   49.27 
 -17  -3   2  350.71   43.60 
 -17   3   2  466.41   56.54 
 -19  -3   4  258.08   38.34 
 -19   3   4  264.90   46.50 
 -19  -3   4  305.44   43.89 
 -19   3   4  275.57   46.77 
 -21  -3   6  399.69   47.25 
 -21   3   6  428.93   60.18 
 -21  -3   6  461.71   61.57 
 -21   3   6  389.32   62.71 
 -23   3   8  370.72   55.50 
 -23  -3   8  352.72   58.88 
 -23   3   8  414.26   69.76 
 -25  -3  10  282.16   56.24 
 -25   3  10  291.64   62.46 
 -27  -3  12  232.51   54.54 
 -27   3  12  189.66   52.30 
 -29  -3  14  135.09   43.10 
 -29   3  14  141.18   48.85 
  -2   4 -13   11.53    9.09 
  -4   4 -11   28.81   15.58 
  -6   4  -9  100.63   30.52 
  -6  -4  -9   91.96   22.02 
  -8   4  -7   90.80   30.24 
  -8  -4  -7  111.83   23.90 
 -10  -4  -5   94.98   22.27 
 -10   4  -5  184.48   43.19 
 -12  -4  -3  430.56   36.70 
 -12   4  -3  512.06   72.87 
 -14  -4  -1  294.32   31.29 
 -14   4  -1  342.36   38.70 
 -16  -4   1  245.54   37.29 
 -16  -4   1  294.02   35.63 
 -16   4   1  343.96   45.83 
 -18  -4   3  241.50   35.52 
 -18  -4   3  307.02   40.58 
 -18   4   3  318.09   49.98 
 -18   4   3  331.33   49.05 
 -20  -4   5  458.27   50.59 
 -20  -4   5  693.34   70.14 
 -20   4   5  547.60   66.74 
 -20   4   5  580.65   72.89 
 -22  -4   7  390.08   57.64 
 -22   4   7  385.51   53.36 
 -22   4   7  315.90   58.01 
 -24   4   9  256.19   43.51 
 -24   4   9  194.13   50.25 
 -26  -4  11  258.08   52.35 
 -26   4  11  147.51   45.14 
 -28  -4  13  190.84   48.48 
 -28   4  13  115.12   40.95 
  -3   5 -12   26.11   15.27 
  -5   5 -10   54.36   23.88 
  -7   5  -8   82.88   27.47 
  -9  -5  -6  191.14   31.53 
  -9   5  -6  242.69   50.52 
 -11  -5  -4  117.33   17.56 
 -11  -5  -4  101.66   22.33 
 -13  -5  -2  244.12   36.35 
 -13  -5  -2  327.08   33.16 
 -15  -5   0  210.45   33.41 
 -15  -5   0  324.72   35.49 
 -15   5   0  355.21   54.77 
 -15   5   0  377.45   44.13 
 -17  -5   2  202.07   30.53 
 -17  -5   2  262.88   34.50 
 -17   5   2  286.56   46.38 
 -17   5   2  278.63   41.82 
 -19  -5   4  349.92   40.75 
 -19  -5   4  419.17   50.25 
 -19   5   4  453.11   57.66 
 -19   5   4  478.97   62.97 
 -21  -5   6  260.35   31.23 
 -21  -5   6  296.92   45.85 
 -21   5   6  275.42   43.34 
 -21   5   6  258.60   48.77 
 -23  -5   8  300.20   50.85 
 -23   5   8  297.42   44.74 
 -23   5   8  280.18   54.40 
 -25  -5  10  271.81   52.33 
 -25   5  10  274.88   43.35 
 -25   5  10  179.56   46.68 
 -27  -5  12  282.08   56.41 
 -27   5  12  180.75   49.93 
  -4   6 -11    1.88    4.64 
  -6   6  -9   21.51   14.82 
  -8   6  -7   56.29   24.56 
 -10   6  -5  278.66   55.10 
 -12   6  -3  221.92   45.59 
 -12  -6  -3  128.23   24.99 
 -12  -6  -3  175.90   23.23 
 -14  -6  -1  113.46   19.19 
 -14  -6  -1   77.42   18.51 
 -16  -6   1  320.99   38.92 
 -16  -6   1  355.68   40.09 
 -16   6   1  345.02   51.38 
 -18  -6   3  120.61   21.84 
 -18  -6   3  159.61   28.04 
 -18   6   3  146.73   30.94 
 -20  -6   5  290.38   42.52 
 -20   6   5  253.68   41.10 
 -22  -6   7  193.38   37.85 
 -22   6   7  184.76   34.24 
 -24  -6   9  215.94   43.38 
 -24   6   9  152.75   31.14 
 -24   6   9  158.26   42.18 
 -26  -6  11  173.21   41.07 
 -26   6  11  126.71   41.04 
 -28   6  13  142.60   49.65 
  -3   7 -12    3.51    8.21 
  -5   7 -10   14.36   11.89 
  -7   7  -8    6.79    5.90 
  -9   7  -6   95.26   31.58 
 -11   7  -4   56.44   21.74 
 -11  -7  -4   56.43   13.22 
 -13   7  -2  141.68   33.93 
 -13  -7  -2   99.10   18.51 
 -15   7   0   29.80   14.16 
 -15  -7   0   33.71   10.51 
 -17  -7   2  149.14   26.18 
 -17   7   2  154.96   32.47 
 -19  -7   4  189.09   32.81 
 -19   7   4  305.76   44.15 
 -21  -7   6   90.08   23.42 
 -21   7   6   83.86   22.19 
 -23  -7   8   28.40   14.94 
 -23   7   8   47.99   16.99 
 -25  -7  10   71.12   25.62 
 -25   7  10   79.43   21.96 
 -27  -7  12   81.21   29.99 
 -27   7  12   51.71   26.89 
  -4   8 -11    9.41   11.87 
  -6   8  -9   15.89   13.38 
  -8   8  -7    4.13    6.96 
 -10   8  -5   15.38   11.99 
 -12   8  -3   10.32    8.37 
 -12  -8  -3   17.96    8.28 
 -14  -8  -1   14.85    7.10 
 -14   8  -1   29.29   14.11 
 -16  -8   1    7.15    6.75 
 -16   8   1  -10.21    8.01 
 -18  -8   3  116.82   24.27 
 -18   8   3  118.24   27.50 
 -20   8   5   66.62   20.79 
 -20  -8   5   58.82   18.63 
 -22   8   7    4.48    2.29 
 -22  -8   7    0.82    3.70 
 -24   8   9   -7.39    6.64 
 -24  -8   9    7.34    8.28 
 -26  -8  11   28.95   16.21 
  -5   9 -10    4.97   12.33 
  -7   9  -8   11.43   11.45 
  -9   9  -6    3.15    5.46 
 -11   9  -4   13.75   11.39 
 -13  -9  -2    0.80    3.57 
 -13   9  -2    5.79    6.26 
 -15  -9   0    1.51    2.60 
 -15   9   0    4.35    5.85 
 -17  -9   2   -4.39    4.57 
 -17   9   2    0.17    2.67 
 -19   9   4    8.89    7.48 
 -19  -9   4   -6.08    5.63 
 -21   9   6   -1.49    4.05 
 -21  -9   6    4.87    5.68 
 -23   9   8   11.98    8.60 
 -23  -9   8    1.06    8.45 
 -25   9  10    1.40    4.40 
 -25  -9  10  -10.06    9.08 
  -6  10  -9   19.26   15.76 
  -8  10  -7   10.87    6.41 
 -10  10  -5   56.38   22.15 
 -12 -10  -3   28.42   11.01 
 -12  10  -3   64.70   23.06 
 -14 -10  -1   20.57    9.32 
 -14  10  -1   22.00   12.94 
 -16 -10   1   -0.28    2.40 
 -16  10   1    5.08    3.49 
 -18  10   3   88.92   24.00 
 -18 -10   3  125.65   25.80 
 -20  10   5   36.83   15.34 
 -20 -10   5   23.66   11.58 
 -22  10   7   31.14   13.47 
 -22 -10   7   40.22   17.13 
 -24  10   9   25.85   12.42 
 -24 -10   9   -9.80    8.64 
 -26  10  11   28.13   12.65 
  -5  11 -10   32.89   20.92 
  -7  11  -8   20.09   15.89 
  -9  11  -6   56.71   23.42 
 -11  11  -4   86.48   27.26 
 -13 -11  -2   43.00   14.37 
 -13  11  -2   54.36   20.72 
 -15 -11   0   36.81   12.78 
 -15  11   0   30.97   14.99 
 -17  11   2  122.64   28.87 
 -17 -11   2  143.54   28.53 
 -19  11   4  125.59   28.44 
 -19 -11   4   99.64   24.51 
 -21  11   6   73.96   21.69 
 -21 -11   6   41.52   16.28 
 -23 -11   8   70.10   22.19 
 -23  11   8   35.97   14.74 
 -25  11  10   80.09   23.80 
  -6  12  -9   73.16   30.64 
  -8  12  -7   68.95   27.99 
 -10  12  -5  101.34   31.27 
 -12  12  -3   54.78   21.82 
 -14 -12  -1   64.65   18.27 
 -14  12  -1   81.15   25.19 
 -16  12   1  148.55   32.86 
 -16 -12   1  115.96   25.71 
 -18  12   3  132.97   30.36 
 -18 -12   3  106.54   25.58 
 -20 -12   5   88.50   24.77 
 -20  12   5  109.52   27.48 
 -22  12   7  116.79   28.82 
  -7  13  -8   44.82   24.07 
  -9  13  -6   59.61   24.29 
 -11  13  -4   45.56   19.18 
 -13  13  -2  120.59   31.46 
 -15  13   0  139.82   32.76 
 -15 -13   0  119.45   26.43 
 -17  13   2   98.54   27.38 
 -17 -13   2  134.88   28.83 
 -19 -13   4  100.87   26.27 
 -19  13   4  107.14   28.17 
  -2   0 -14  180.85   32.34 
  -4   0 -12  206.74   36.29 
  -6   0 -10  180.19   34.91 
  -8   0  -8  355.56   52.95 
 -10   0  -6  315.11   51.20 
 -12   0  -4  493.82   67.36 
 -14   0  -2  546.62   72.00 
 -14   0  -2  478.81   38.34 
 -16   0   0  382.11   60.68 
 -16   0   0  397.28   41.47 
 -18   0   2  356.08   57.79 
 -18   0   2  296.86   41.85 
 -20   0   4  358.76   58.83 
 -20   0   4  480.62   60.86 
 -22   0   6  411.66   60.64 
 -22   0   6  393.03   61.92 
 -24   0   8   52.41   24.24 
 -26   0  10   21.93   11.27 
 -28   0  12    6.72    4.99 
  -3  -1 -13  149.01   29.23 
  -3   1 -13  123.34   27.42 
  -5  -1 -11  170.28   32.21 
  -5   1 -11  188.89   36.23 
  -7  -1  -9  240.75   41.46 
  -7   1  -9  273.49   47.15 
  -9  -1  -7  225.56   40.35 
  -9   1  -7  314.81   52.72 
 -11  -1  -5  330.84   50.17 
 -11   1  -5  348.29   57.14 
 -13  -1  -3  563.74   71.34 
 -13   1  -3  683.20   84.30 
 -13  -1  -3  579.86   42.18 
 -15  -1  -1  276.99   50.05 
 -15  -1  -1  321.51   33.16 
 -15   1  -1  394.75   36.85 
 -17  -1   1  461.13   62.86 
 -17  -1   1  343.75   42.11 
 -17   1   1  398.80   46.87 
 -19  -1   3  301.77   51.01 
 -19   1   3  338.48   57.49 
 -19  -1   3  343.31   46.79 
 -19   1   3  335.72   49.61 
 -21  -1   5  173.98   36.48 
 -21   1   5  143.77   35.78 
 -21  -1   5  145.00   32.69 
 -21   1   5  107.03   30.46 
 -23  -1   7  211.33   39.77 
 -23   1   7  249.20   47.94 
 -23  -1   7  179.47   41.09 
 -23   1   7  174.47   42.45 
 -25  -1   9   74.84   28.62 
 -25   1   9   36.20   22.63 
 -27  -1  11   21.95   18.26 
 -27   1  11   36.67   20.14 
 -29  -1  13    7.41    8.52 
 -29   1  13    9.03    5.37 
  -2   2 -14  100.04   24.86 
  -4  -2 -12   61.04   18.17 
  -4   2 -12   73.26   23.83 
  -6  -2 -10  183.71   32.79 
  -6   2 -10  153.44   35.96 
  -8  -2  -8  306.00   45.41 
  -8   2  -8  378.84   58.63 
 -10   2  -6   61.94   23.68 
 -10  -2  -6   34.78   13.98 
 -12   2  -4  210.94   45.69 
 -12  -2  -4  165.21   17.97 
 -12  -2  -4  139.63   30.30 
 -14  -2  -2  349.17   51.17 
 -14  -2  -2  364.95   33.36 
 -16  -2   0  348.44   51.86 
 -16   2   0  396.36   64.39 
 -16  -2   0  321.50   35.65 
 -16   2   0  359.02   41.37 
 -18  -2   2  257.64   43.17 
 -18   2   2  355.37   59.00 
 -18  -2   2  209.05   32.87 
 -18   2   2  257.61   39.94 
 -20  -2   4   61.16   19.66 
 -20  -2   4   77.57   21.53 
 -20   2   4   84.54   25.62 
 -20   2   4   87.58   29.59 
 -22  -2   6  211.63   40.93 
 -22   2   6  173.59   40.70 
 -22   2   6  203.77   43.67 
 -22  -2   6  178.66   34.17 
 -24  -2   8   50.00   21.51 
 -24   2   8   67.87   27.38 
 -24   2   8   36.31   17.76 
 -26  -2  10   10.66    8.54 
 -26   2  10   30.39   20.48 
 -28  -2  12   34.68   20.41 
 -28   2  12    8.94   11.00 
  -3   3 -13   32.31   14.67 
  -5  -3 -11   40.31   14.18 
  -5   3 -11   39.98   17.69 
  -7   3  -9  149.11   37.01 
  -7  -3  -9  103.28   24.56 
  -9   3  -7  140.34   37.33 
  -9  -3  -7  130.46   27.59 
 -11   3  -5   49.80   21.19 
 -11  -3  -5   21.04   12.46 
 -13  -3  -3    6.48    3.75 
 -13   3  -3    3.74    5.86 
 -13  -3  -3   -0.79    3.10 
 -15  -3  -1  170.49   22.69 
 -15   3  -1  220.27   28.61 
 -15   3  -1  266.30   51.57 
 -15  -3  -1  134.33   29.86 
 -17  -3   1  125.38   21.89 
 -17   3   1  130.21   26.61 
 -17  -3   1  101.64   24.78 
 -17   3   1  138.56   36.66 
 -19  -3   3  149.60   28.38 
 -19   3   3  148.87   32.66 
 -19  -3   3  131.67   27.93 
 -19   3   3  206.36   43.58 
 -21  -3   5   11.56    5.43 
 -21   3   5   10.27   12.35 
 -21  -3   5   15.99    7.26 
 -21   3   5    5.29    8.08 
 -23   3   7   56.45   21.97 
 -23  -3   7   19.40   12.26 
 -23   3   7   22.72   16.68 
 -25  -3   9   22.70   12.59 
 -25   3   9   48.68   23.29 
 -25   3   9   47.40   20.63 
 -27  -3  11   18.77   15.53 
 -27   3  11   26.16   18.97 
 -29  -3  13   -4.75    9.43 
 -29   3  13   17.50   13.45 
  -4   4 -12    2.57    8.17 
  -6   4 -10   11.04   11.35 
  -6  -4 -10    5.12    2.58 
  -8   4  -8    8.11    5.76 
  -8  -4  -8    2.34    3.37 
 -10   4  -6   -3.50    6.09 
 -10  -4  -6   -2.35    4.72 
 -12  -4  -4   52.14   10.84 
 -12  -4  -4   41.57   14.47 
 -12   4  -4   54.73   22.93 
 -14  -4  -2   13.73    5.75 
 -14  -4  -2    2.46    2.27 
 -14   4  -2   14.41   14.30 
 -16  -4   0   19.71    7.87 
 -16  -4   0    3.25    3.42 
 -16   4   0   19.77   10.58 
 -18   4   2   30.58   17.09 
 -18  -4   2   32.88   11.57 
 -18  -4   2   17.42   10.30 
 -18   4   2   43.33   15.71 
 -20   4   4   12.28   11.75 
 -20  -4   4   15.22    9.50 
 -20  -4   4   17.37    9.24 
 -20   4   4    4.73    2.99 
 -22   4   6   -6.27   10.59 
 -22  -4   6    4.09    4.60 
 -22  -4   6    6.64    5.05 
 -22   4   6    2.77    7.02 
 -24   4   8   20.46   13.41 
 -24  -4   8   39.60   17.47 
 -24   4   8    6.41   11.16 
 -26  -4  10    5.82   10.24 
 -26   4  10   -0.69    6.29 
 -28  -4  12   25.36   17.06 
 -28   4  12   -0.62   11.94 
  -3   5 -13    8.84    6.08 
  -5   5 -11    2.61    5.35 
  -7   5  -9    8.89   10.30 
  -9  -5  -7    5.09    5.71 
  -9   5  -7    3.14    8.60 
 -11  -5  -5   27.51   12.24 
 -11   5  -5   43.01   21.28 
 -13  -5  -3    4.63    3.58 
 -13  -5  -3    4.39    5.28 
 -13   5  -3    7.67    9.28 
 -15  -5  -1   52.88   13.08 
 -15  -5  -1   46.80   15.78 
 -15   5  -1   56.09   23.34 
 -17   5   1   23.63   15.88 
 -17  -5   1   15.83    7.90 
 -17  -5   1   31.27   10.32 
 -17   5   1   44.12   15.64 
 -19   5   3    2.80    6.14 
 -19  -5   3    3.66    2.67 
 -19  -5   3    3.74    5.92 
 -19   5   3   -1.67    4.08 
 -21   5   5   14.04    9.19 
 -21  -5   5   20.37    8.98 
 -21  -5   5   19.08   11.36 
 -21   5   5   26.52   16.16 
 -23   5   7    4.31    3.26 
 -23   5   7   -0.34    5.98 
 -25   5   9  -14.22    9.94 
 -25  -5   9   -1.57    4.59 
 -25   5   9    7.67    8.08 
 -27  -5  11   -2.98    7.58 
 -27   5  11   -8.64   10.74 
 -29   5  13   -6.98   10.28 
  -4   6 -12   38.19   18.44 
  -6   6 -10  121.18   36.48 
  -8   6  -8  112.43   35.29 
 -10   6  -6  107.16   35.53 
 -12  -6  -4   71.94   18.73 
 -12  -6  -4   64.28   13.76 
 -12   6  -4   92.92   31.73 
 -14   6  -2   54.22   23.65 
 -14  -6  -2   54.17   16.04 
 -14  -6  -2   72.65   14.89 
 -16  -6   0  125.24   21.72 
 -16  -6   0  115.13   23.17 
 -18   6   2   81.16   25.14 
 -18  -6   2   52.91   14.77 
 -18  -6   2   61.45   16.41 
 -20  -6   4   64.83   15.79 
 -20   6   4   87.44   24.87 
 -20  -6   4   73.52   19.20 
 -22   6   6   12.76    8.28 
 -22  -6   6    8.60    7.29 
 -22   6   6    9.27   10.38 
 -24   6   8   14.99    8.10 
 -24  -6   8   16.50   11.33 
 -24   6   8   13.15   11.43 
 -26   6  10   27.50   13.77 
 -26  -6  10   39.49   19.01 
 -26   6  10   23.64   16.56 
 -28  -6  12    2.05    3.51 
 -28   6  12  -10.96   12.90 
  -5   7 -11  193.03   47.37 
  -7   7  -9  156.66   42.43 
  -9   7  -7  233.70   52.94 
 -11   7  -5  268.76   55.72 
 -13   7  -3  107.90   32.61 
 -13  -7  -3  104.13   18.76 
 -15   7  -1  200.26   42.24 
 -15  -7  -1  196.05   27.83 
 -17  -7   1  124.43   23.01 
 -17   7   1   98.90   28.27 
 -19  -7   3  167.27   29.38 
 -19   7   3  194.78   37.14 
 -21  -7   5   54.38   18.07 
 -21   7   5   57.85   19.84 
 -23  -7   7   31.21   14.55 
 -23   7   7   15.68   10.93 
 -25  -7   9   52.33   20.51 
 -25   7   9   51.94   18.69 
 -27  -7  11   46.21   20.78 
 -27   7  11   34.58   22.04 
  -6   8 -10  173.28   46.09 
  -8   8  -8  229.16   53.21 
 -10   8  -6  453.10   75.83 
 -12   8  -4  269.92   53.74 
 -14  -8  -2  182.02   27.71 
 -14   8  -2  287.66   50.94 
 -16  -8   0  224.78   32.82 
 -16   8   0  304.40   49.77 
 -18  -8   2  230.07   34.49 
 -18   8   2  246.33   42.63 
 -20  -8   4   89.83   22.47 
 -20   8   4   91.45   24.40 
 -22  -8   6   65.16   20.19 
 -22   8   6   59.67   20.36 
 -24  -8   8   39.42   18.32 
 -24   8   8   63.21   20.21 
 -26  -8  10   77.19   24.79 
 -26   8  10   41.65   16.52 
  -5   9 -11  218.52   51.80 
  -7   9  -9  168.92   46.67 
  -9   9  -7  185.25   47.14 
 -11   9  -5  344.71   63.01 
 -13   9  -3  221.59   45.68 
 -13  -9  -3  172.23   27.33 
 -15  -9  -1  178.49   28.68 
 -15   9  -1  191.58   39.90 
 -17  -9   1  290.92   38.53 
 -17   9   1  240.49   43.19 
 -19  -9   3  124.82   25.86 
 -19   9   3   76.90   22.35 
 -21  -9   5  163.54   32.12 
 -21   9   5  150.94   32.68 
 -23   9   7   59.66   19.80 
 -23  -9   7   52.80   18.51 
 -25   9   9   54.34   20.15 
 -25  -9   9   59.19   21.69 
  -6  10 -10  119.75   39.97 
  -8  10  -8  172.99   47.74 
 -10  10  -6  200.91   48.04 
 -12  10  -4  193.04   43.65 
 -14 -10  -2  133.27   24.61 
 -14  10  -2  134.52   34.28 
 -16 -10   0  104.65   22.74 
 -16  10   0  140.55   33.18 
 -18 -10   2  123.07   25.57 
 -18  10   2   90.32   25.61 
 -20  10   4   86.13   25.02 
 -20 -10   4   97.39   23.89 
 -22  10   6   73.80   22.21 
 -22 -10   6   55.31   19.85 
 -24  10   8   28.99   14.19 
 -24 -10   8   45.37   18.16 
 -26  10  10   29.65   14.70 
  -7  11  -9   98.80   36.01 
  -9  11  -7  131.79   40.35 
 -11  11  -5  126.49   36.96 
 -13  11  -3  106.84   31.21 
 -15 -11  -1   45.11   14.79 
 -15  11  -1   44.29   19.08 
 -17 -11   1   63.12   18.46 
 -17  11   1   52.35   19.89 
 -19  11   3   65.12   21.50 
 -19 -11   3   65.57   19.29 
 -21  11   5   12.13    7.77 
 -21 -11   5    4.64    5.67 
 -23  11   7   21.15   12.40 
 -23 -11   7    3.53    4.97 
 -25  11   9   36.98   16.08 
  -8  12  -8   11.18   12.10 
 -10  12  -6   34.71   19.40 
 -12  12  -4    3.93    2.40 
 -14 -12  -2   10.17    7.28 
 -14  12  -2   24.18   15.29 
 -16 -12   0   17.72    9.67 
 -16  12   0   22.82   12.88 
 -18  12   2    5.88    9.12 
 -18 -12   2   13.80    7.44 
 -20  12   4   10.70    8.54 
 -20 -12   4    6.58    6.23 
 -22  12   6    7.61    7.34 
  -9  13  -7    8.81   10.40 
 -11  13  -5   11.13    9.16 
 -13  13  -3   -2.02    6.77 
 -15 -13  -1   10.06    8.91 
 -15  13  -1    1.60    2.84 
 -17  13   1    2.04    5.15 
 -17 -13   1   10.84    7.90 
 -19 -13   3    4.54    2.07 
  -2   0 -15    0.27    1.28 
  -4   0 -13   -1.79    3.63 
  -6   0 -11   -0.91    4.39 
  -8   0  -9    4.24    9.02 
 -10   0  -7    7.40    8.41 
 -12   0  -5   10.00    5.55 
 -14   0  -3    8.57   12.16 
 -16   0  -1   -7.81    8.04 
 -16   0  -1    3.44    3.15 
 -18   0   1   15.25    9.98 
 -18   0   1    4.56    4.49 
 -20   0   3    4.15    4.52 
 -20   0   3    2.51    2.23 
 -22   0   5   -2.78    8.95 
 -22   0   5    3.44    8.35 
 -24   0   7    5.77    8.07 
 -24   0   7  -17.59   13.05 
 -26   0   9   -2.41   11.05 
 -28   0  11  -10.35   11.54 
 -30   0  13  -17.08   15.89 
  -3  -1 -14    1.59    4.86 
  -3   1 -14   17.11   10.46 
  -5  -1 -12   25.87   12.63 
  -5   1 -12   25.06   12.54 
  -7  -1 -10   15.91    9.25 
  -7   1 -10   35.58   16.43 
  -9  -1  -8   18.94   10.40 
  -9   1  -8   -0.91    6.79 
 -11   1  -6   35.50   15.07 
 -11  -1  -6   21.94   14.14 
 -13   1  -4   59.52   23.44 
 -13  -1  -4   49.04   19.77 
 -15  -1  -2   17.87    9.32 
 -15   1  -2   37.28   19.72 
 -15  -1  -2   13.92    5.37 
 -17  -1   0   10.67    8.76 
 -17   1   0   12.91   13.35 
 -17  -1   0   -1.74    3.38 
 -17   1   0    0.82    1.48 
 -19  -1   2   -4.18   10.17 
 -19   1   2    7.06    9.89 
 -19  -1   2   16.04    8.48 
 -19   1   2    5.85    4.53 
 -21  -1   4    1.01    4.19 
 -21   1   4    8.44    8.58 
 -21  -1   4   -2.37    7.33 
 -21   1   4   -0.87    5.28 
 -23  -1   6  -17.74   11.60 
 -23   1   6   -8.23    8.76 
 -23  -1   6    7.75    5.93 
 -23   1   6    2.82    3.60 
 -25   1   8   -2.70    7.48 
 -25   1   8   -1.05    8.04 
 -27  -1  10   19.30   16.58 
 -27   1  10   26.27   18.36 
 -29  -1  12    5.44   10.61 
 -29   1  12   19.56   15.98 
  -4  -2 -13   61.83   18.77 
  -4   2 -13   80.55   22.84 
  -6  -2 -11  102.53   24.61 
  -6   2 -11   58.91   21.45 
  -8  -2  -9   16.39    9.28 
  -8   2  -9   22.87   15.30 
 -10   2  -7   41.37   20.43 
 -10  -2  -7   12.85   10.06 
 -12   2  -5   10.72   15.53 
 -12  -2  -5   28.53   14.22 
 -14   2  -3   23.39   14.98 
 -14  -2  -3   11.90    4.76 
 -14  -2  -3   17.00   10.86 
 -16   2  -1   16.33   15.19 
 -16  -2  -1    7.93    4.51 
 -16   2  -1   10.10    5.56 
 -16  -2  -1   -0.62    8.93 
 -18   2   1   18.23   10.21 
 -18  -2   1   13.62    7.26 
 -18   2   1   12.07    6.54 
 -18  -2   1   27.87   13.25 
 -20  -2   3    0.48    1.30 
 -20   2   3    3.40   12.43 
 -20   2   3   -7.89   10.43 
 -20  -2   3    1.66    3.95 
 -22  -2   5    0.38    2.87 
 -22   2   5    6.64    6.97 
 -22   2   5    2.43    3.04 
 -22  -2   5    1.42    5.03 
 -24  -2   7   11.36    9.42 
 -24   2   7    4.38    6.60 
 -24   2   7   -3.88   10.22 
 -26  -2   9    9.78   10.45 
 -26   2   9   17.39   12.65 
 -28  -2  11   62.67   27.09 
 -28   2  11   29.97   17.61 
 -30  -2  13   79.69   33.08 
 -30   2  13  103.57   39.28 
  -3   3 -14  131.34   30.07 
  -5  -3 -12  115.04   25.82 
  -5   3 -12  135.31   33.07 
  -7  -3 -10   90.36   22.98 
  -7   3 -10   88.23   28.22 
  -9   3  -8    7.10    8.38 
  -9  -3  -8   17.77    9.73 
 -11   3  -6   86.11   30.34 
 -11  -3  -6   34.59   15.25 
 -13   3  -4   47.34   22.49 
 -13  -3  -4   25.84   13.35 
 -15  -3  -2    0.10    1.02 
 -15   3  -2   -2.63    9.42 
 -15  -3  -2    1.82    4.08 
 -17  -3   0    2.00    2.09 
 -17   3   0    9.49   16.49 
 -17   3   0    1.64    3.62 
 -17  -3   0    7.22    8.18 
 -19  -3   2    1.97    2.45 
 -19   3   2    7.06    3.39 
 -19  -3   2    0.15    4.74 
 -21  -3   4   -0.87    2.31 
 -21   3   4  -14.16   10.50 
 -21  -3   4   -4.07    5.85 
 -21   3   4   -5.37    7.45 
 -23  -3   6   43.56   18.45 
 -23   3   6   31.69   18.19 
 -23  -3   6   16.05    8.67 
 -23   3   6   39.54   18.77 
 -25  -3   8   43.86   18.76 
 -25   3   8   14.75    9.19 
 -25   3   8   38.20   19.18 
 -27  -3  10   94.24   30.81 
 -27   3  10   48.43   25.71 
 -29  -3  12   68.18   29.25 
 -29   3  12   35.78   27.98 
  -4   4 -13   89.83   27.40 
  -6   4 -11  116.01   32.60 
  -8   4  -9  126.23   35.59 
  -8  -4  -9  103.33   24.89 
 -10   4  -7  142.56   39.74 
 -10  -4  -7   91.68   23.37 
 -12   4  -5   26.56   16.87 
 -12  -4  -5   16.76   10.84 
 -14  -4  -3   25.06    7.70 
 -14  -4  -3   29.15   12.56 
 -14   4  -3   38.54   20.51 
 -16  -4  -1   -1.13    1.99 
 -16  -4  -1   -1.00    6.05 
 -16   4  -1   10.89    8.62 
 -18  -4   1    6.04    3.58 
 -18  -4   1    1.13    6.07 
 -18   4   1   11.83    9.14 
 -18   4   1  -12.26   10.93 
 -20  -4   3   -7.20    5.88 
 -20  -4   3   -4.25    8.19 
 -20   4   3   -7.37    7.86 
 -20   4   3  -10.70    9.91 
 -22   4   5   -1.38   10.36 
 -22  -4   5    9.60    8.77 
 -22  -4   5   12.80    8.70 
 -22   4   5   20.88   15.78 
 -24   4   7   37.23   18.14 
 -24  -4   7   17.24   12.21 
 -24   4   7   28.47   15.85 
 -26   4   9   48.81   19.70 
 -26  -4   9   83.39   27.02 
 -26   4   9   74.27   31.21 
 -28  -4  11   23.80   15.56 
 -28   4  11   46.17   24.48 
  -5   5 -12   89.46   29.04 
  -7   5 -10  176.56   43.15 
  -9  -5  -8   59.56   18.14 
  -9   5  -8   95.15   31.91 
 -11  -5  -6   50.95   16.64 
 -11   5  -6  122.49   36.58 
 -13  -5  -4    7.69    3.88 
 -13  -5  -4   -1.36    2.91 
 -13   5  -4    1.24    6.31 
 -15  -5  -2   37.72   10.42 
 -15  -5  -2   28.39   13.00 
 -15   5  -2   33.80   19.46 
 -17  -5   0   -0.65    4.53 
 -17  -5   0    0.53    2.99 
 -17   5   0    0.55    6.56 
 -19   5   2    2.40    3.65 
 -19  -5   2    7.62    7.13 
 -19  -5   2    7.91    6.42 
 -19   5   2    0.36    2.56 
 -21   5   4    3.81    2.36 
 -21  -5   4    0.41    3.41 
 -21  -5   4    5.24    5.02 
 -21   5   4   -3.08    5.66 
 -23   5   6    8.85    8.49 
 -23  -5   6   18.52   11.69 
 -23   5   6   -5.00    8.97 
 -25   5   8   85.40   26.55 
 -25  -5   8   86.49   26.29 
 -25   5   8   44.33   22.65 
 -27  -5  10   52.26   22.97 
 -27   5  10   44.82   24.17 
 -29  -5  12   86.93   31.15 
 -29   5  12   63.26   29.42 
  -6   6 -11  102.57   32.46 
  -8   6  -9   99.13   34.02 
 -10   6  -7   35.93   20.38 
 -12  -6  -5   13.11    8.32 
 -12   6  -5    5.93    7.99 
 -14  -6  -3   17.84    9.72 
 -14  -6  -3   23.01    8.36 
 -14   6  -3   29.37   18.71 
 -16   6  -1   25.25   17.23 
 -16  -6  -1   12.75    7.84 
 -16  -6  -1   29.47   10.08 
 -18  -6   1   -0.07    2.74 
 -18  -6   1    4.62    5.72 
 -20   6   3   17.41   11.66 
 -20  -6   3   17.90    9.10 
 -20  -6   3   22.05   11.02 
 -20   6   3   23.44   15.31 
 -22  -6   5   28.34   10.69 
 -22   6   5    6.72    4.87 
 -22  -6   5   29.76   12.97 
 -22   6   5   21.70   14.68 
 -24   6   7  -12.59    9.71 
 -24  -6   7    1.77    3.65 
 -24   6   7    2.59    8.50 
 -26   6   9   26.08   13.53 
 -26  -6   9   35.86   17.93 
 -26   6   9    7.92   15.41 
 -28  -6  11   64.17   24.67 
 -28   6  11   45.43   25.95 
  -5   7 -12   47.79   22.33 
  -7   7 -10   33.06   19.22 
  -9   7  -8   19.24   15.47 
 -11   7  -6   15.51   12.78 
 -13  -7  -4   10.54    5.54 
 -13   7  -4   13.85    9.21 
 -15   7  -2   18.36   12.17 
 -15  -7  -2   11.70    6.25 
 -17   7   0   11.70   15.10 
 -17  -7   0    7.69    5.42 
 -19   7   2   38.48   18.05 
 -19  -7   2   26.29   10.19 
 -21   7   4    6.38    6.52 
 -21  -7   4    1.41    1.51 
 -23   7   6    4.49    3.48 
 -23  -7   6   -3.22    4.63 
 -25   7   8   -2.09    4.29 
 -25  -7   8    0.97    2.92 
 -25   7   8    0.46   13.84 
 -27   7  10    9.08    5.06 
 -27  -7  10   20.14   12.78 
 -27   7  10   37.52   20.05 
  -6   8 -11   46.82   23.60 
  -8   8  -9   -1.20    6.15 
 -10   8  -7    4.78    6.09 
 -12   8  -5    2.14    7.28 
 -14   8  -3   13.34   12.81 
 -14  -8  -3    3.67    3.32 
 -16   8  -1    7.49    7.87 
 -16  -8  -1    0.94    3.63 
 -18   8   1    1.99    4.27 
 -18  -8   1   -2.96    3.74 
 -20  -8   3   10.28    3.83 
 -20   8   3    9.56   11.17 
 -22  -8   5   -4.95    5.46 
 -22   8   5   -4.49    7.41 
 -24  -8   7    0.42    5.87 
 -24   8   7    1.35    3.31 
 -26  -8   9    1.36    5.24 
 -26   8   9   -1.65    3.06 
 -28   8  11   -5.93    9.13 
  -7   9 -10   10.52   11.60 
  -9   9  -8    7.10    9.53 
 -11   9  -6    2.49    6.87 
 -13   9  -4  -11.84   11.36 
 -15   9  -2    2.76    8.06 
 -15  -9  -2   -3.54    3.79 
 -17   9   0   10.82    8.07 
 -17  -9   0   -1.95    3.00 
 -19  -9   2    1.77    3.35 
 -19   9   2    0.78    4.18 
 -21  -9   4    5.07    5.82 
 -21   9   4    1.80    4.18 
 -23  -9   6    2.48    3.79 
 -23   9   6   -6.31    6.76 
 -25  -9   8   -7.39    7.48 
 -25   9   8  -10.81    8.80 
 -27   9  10   -1.52    3.57 
  -8  10  -9  -15.67   14.64 
 -10  10  -7  -22.07   16.79 
 -12  10  -5   -2.20    5.12 
 -14  10  -3  -22.78   14.85 
 -14 -10  -3    2.60    3.67 
 -16 -10  -1    3.47    4.20 
 -16  10  -1   -4.72    5.33 
 -18 -10   1   11.58    6.91 
 -18  10   1    5.20    9.13 
 -20 -10   3    4.68    4.15 
 -20  10   3    2.74    5.23 
 -22 -10   5    6.73    6.80 
 -22  10   5   19.07   12.61 
 -24 -10   7   -1.60    5.68 
 -24  10   7   19.62   11.89 
 -26  10   9   17.45   11.20 
  -7  11 -10   10.59    8.50 
  -9  11  -8   26.91   18.97 
 -11  11  -6    4.76    7.53 
 -13  11  -4   -0.22    2.08 
 -15 -11  -2   -0.08    1.88 
 -15  11  -2   -8.82    9.05 
 -17 -11   0   20.10   10.04 
 -17  11   0    9.75    4.87 
 -19 -11   2    5.74    7.62 
 -19  11   2   -4.04    5.56 
 -21 -11   4    8.64    5.53 
 -21  11   4    5.90    5.73 
 -23  11   6    4.56    5.05 
 -23 -11   6    1.46    3.45 
 -25  11   8   -9.38    8.50 
 -10  12  -7   25.53   18.15 
 -12  12  -5   17.00   15.20 
 -14  12  -3  -24.89   15.65 
 -16 -12  -1    3.29    4.18 
 -16  12  -1    6.63    8.45 
 -18 -12   1   -2.02    5.29 
 -18  12   1   18.59   12.88 
 -20 -12   3    6.17    7.27 
 -20  12   3   -2.68    4.70 
 -17 -13   0   -2.27    3.70 
  -4   0 -14   11.43   10.56 
  -6   0 -12   -1.86    2.62 
  -8   0 -10   22.06   13.25 
 -10   0  -8   28.19   12.23 
 -12   0  -6   18.12   12.25 
 -14   0  -4  417.42   65.13 
 -16   0  -2  347.01   58.59 
 -18   0   0  558.45   74.45 
 -18   0   0  370.49   40.65 
 -20   0   2  446.36   66.31 
 -20   0   2  267.77   40.03 
 -22   0   4  550.39   77.13 
 -22   0   4  639.95   72.76 
 -24   0   6  309.25   54.28 
 -24   0   6  248.78   49.36 
 -26   0   8  219.07   47.76 
 -28   0  10  165.55   45.55 
 -30   0  12  147.24   47.11 
  -3   1 -15   -0.85    6.70 
  -5  -1 -13    5.92    6.60 
  -5   1 -13    7.36   10.88 
  -7  -1 -11    2.94    2.30 
  -7   1 -11   18.29   10.45 
  -9  -1  -9    7.49    4.97 
  -9   1  -9  -20.96   13.02 
 -11  -1  -7   84.48   26.09 
 -11   1  -7   90.14   28.51 
 -13   1  -5   69.40   25.52 
 -13  -1  -5  110.96   30.00 
 -15   1  -3  265.32   52.47 
 -15  -1  -3  249.60   46.91 
 -17  -1  -1  446.19   64.37 
 -17   1  -1  501.12   73.28 
 -17  -1  -1  348.48   35.69 
 -19  -1   1  300.05   50.98 
 -19   1   1  351.60   59.48 
 -19  -1   1  179.70   29.62 
 -19   1   1  265.87   36.36 
 -21  -1   3  269.06   49.67 
 -21   1   3  319.90   56.84 
 -21  -1   3  262.79   40.26 
 -21   1   3  229.47   39.98 
 -23  -1   5  412.11   58.89 
 -23   1   5  306.04   56.87 
 -23  -1   5  260.16   45.13 
 -23   1   5  243.20   46.84 
 -25   1   7  248.14   49.99 
 -25  -1   7  239.55   48.18 
 -25   1   7  202.60   46.81 
 -27  -1   9  241.92   51.64 
 -27   1   9  167.27   45.79 
 -29  -1  11  125.26   39.86 
 -29   1  11  154.55   44.75 
  -4   2 -14    8.81    8.79 
  -6  -2 -12    2.64    3.71 
  -6   2 -12   10.28   11.26 
  -8  -2 -10   20.54   11.68 
  -8   2 -10    7.25    5.73 
 -10   2  -8   -1.64    8.30 
 -10  -2  -8   10.87    8.26 
 -12   2  -6  132.00   36.77 
 -12  -2  -6  116.76   29.56 
 -14   2  -4    6.21    3.50 
 -14  -2  -4    9.76    6.48 
 -16  -2  -2  174.53   21.79 
 -16  -2  -2  138.78   33.02 
 -18  -2   0  319.69   51.65 
 -18  -2   0  285.32   33.97 
 -20  -2   2  142.54   26.62 
 -20   2   2  231.84   50.47 
 -20   2   2  159.51   31.91 
 -20  -2   2  185.37   38.60 
 -22  -2   4  181.90   34.23 
 -22   2   4  245.36   51.17 
 -22   2   4  164.69   36.79 
 -22  -2   4  211.08   40.42 
 -24   2   6  173.90   42.57 
 -24  -2   6  175.96   37.00 
 -24   2   6  130.22   35.41 
 -24  -2   6  183.04   36.06 
 -26   2   8  154.21   40.51 
 -26  -2   8  151.46   37.33 
 -26   2   8  113.37   34.51 
 -28  -2  10  177.31   43.83 
 -28   2  10   83.81   34.75 
 -30  -2  12   69.95   30.18 
 -30   2  12   38.35   25.08 
  -5   3 -13  -16.29   11.27 
  -7  -3 -11   -3.47    4.72 
  -7   3 -11   12.52   10.36 
  -9   3  -9   32.25   17.67 
  -9  -3  -9   15.19    7.60 
 -11   3  -7   19.77   12.79 
 -11  -3  -7    5.09    5.64 
 -13   3  -5  -11.75   11.43 
 -13  -3  -5   11.05    8.70 
 -15   3  -3   13.72   16.96 
 -15  -3  -3    7.65    8.60 
 -17  -3  -1   76.73   15.18 
 -17   3  -1   98.10   31.74 
 -17  -3  -1   42.29   16.44 
 -19  -3   1  107.86   20.77 
 -19   3   1  109.23   34.53 
 -19   3   1  138.04   28.05 
 -19  -3   1  100.85   26.18 
 -21  -3   3   82.20   20.17 
 -21   3   3   57.94   20.12 
 -21   3   3   97.97   33.65 
 -21  -3   3   93.93   24.22 
 -23  -3   5   25.18   12.45 
 -23   3   5   25.28   14.96 
 -23  -3   5   26.59   12.89 
 -23   3   5   24.01   17.01 
 -25  -3   7   39.67   19.24 
 -25   3   7   44.19   22.45 
 -25   3   7   83.15   27.69 
 -27  -3   9  122.53   33.94 
 -27   3   9   83.13   31.00 
 -29  -3  11   44.31   22.98 
 -29   3  11   27.72   15.54 
  -6   4 -12   11.42    9.01 
  -8   4 -10   -6.47    9.86 
  -8  -4 -10   -0.76    3.72 
 -10   4  -8   -0.73    6.46 
 -10  -4  -8   -1.43    3.23 
 -12   4  -6   28.71   15.01 
 -12  -4  -6   17.20    9.65 
 -14   4  -4    5.83    8.69 
 -14  -4  -4    1.56    3.01 
 -16  -4  -2    2.75    3.01 
 -16  -4  -2   -3.73    7.38 
 -16   4  -2   -1.83    5.71 
 -18  -4   0    6.92    5.58 
 -18  -4   0   31.12   13.65 
 -18   4   0    5.70   11.14 
 -20  -4   2   -0.57    3.27 
 -20  -4   2   -3.98    5.74 
 -20   4   2   -7.27    6.91 
 -20   4   2    3.81    5.74 
 -22  -4   4    9.70    5.49 
 -22  -4   4   10.49    7.77 
 -22   4   4    4.88   10.27 
 -22   4   4   22.52   14.41 
 -24  -4   6   -7.61    7.30 
 -24   4   6    5.88   10.23 
 -24   4   6    3.67    7.76 
 -26  -4   8   23.75   14.65 
 -26   4   8   38.24   22.46 
 -26   4   8   17.18   11.38 
 -28  -4  10   32.97   17.16 
 -28   4  10    6.32    8.76 
 -30   4  12   -6.80   10.21 
  -5   5 -13    6.57    7.67 
  -7   5 -11   20.46   16.37 
  -9   5  -9   13.21   10.59 
 -11   5  -7    8.21    9.88 
 -11  -5  -7    0.23    5.24 
 -13  -5  -5    1.82    1.41 
 -13   5  -5    1.64   10.43 
 -15  -5  -3   23.60    7.89 
 -15  -5  -3   34.70   13.40 
 -17  -5  -1   29.30    9.78 
 -17  -5  -1   25.68   10.97 
 -17   5  -1   31.97   17.64 
 -19  -5   1    8.30    4.50 
 -19  -5   1    6.42    4.68 
 -19   5   1    3.53    8.62 
 -21   5   3    2.31    6.31 
 -21  -5   3   -0.56    5.87 
 -21  -5   3   -8.84    6.53 
 -21   5   3    3.75    4.53 
 -23   5   5   32.43   17.07 
 -23  -5   5   20.91    9.97 
 -23  -5   5   15.41    9.77 
 -23   5   5   11.76    4.32 
 -25   5   7   12.55   10.66 
 -25  -5   7   29.59   15.24 
 -25   5   7   -3.13   11.70 
 -27   5   9   -5.00    6.83 
 -27  -5   9   -1.30   11.12 
 -27   5   9  -12.78   12.38 
 -29  -5  11    9.11   10.18 
 -29   5  11    6.62    9.35 
  -6   6 -12    0.79   10.46 
  -8   6 -10   14.63   13.03 
 -10   6  -8   -8.51   10.36 
 -12  -6  -6   -0.18    3.09 
 -12   6  -6   -1.76    9.26 
 -14  -6  -4   25.32    8.57 
 -14  -6  -4   21.34   10.93 
 -16  -6  -2  100.73   18.83 
 -16  -6  -2   86.37   21.59 
 -18   6   0   97.50   31.81 
 -18  -6   0   41.52   14.76 
 -18  -6   0   91.90   18.86 
 -20   6   2   68.49   25.14 
 -20  -6   2   67.02   18.04 
 -20  -6   2   91.34   20.67 
 -22   6   4   87.27   28.15 
 -22  -6   4   35.17   12.77 
 -22  -6   4   46.19   16.26 
 -22   6   4   66.21   24.00 
 -24   6   6   29.51   15.20 
 -24   6   6   10.06    8.77 
 -26   6   8   74.69   26.17 
 -26  -6   8   45.33   18.59 
 -26   6   8   49.14   22.69 
 -28  -6  10   64.02   24.51 
 -28   6  10   13.52   19.22 
  -7   7 -11    2.48    5.50 
  -9   7  -9   59.94   27.51 
 -11   7  -7   10.20   12.62 
 -13   7  -5   74.76   29.66 
 -15  -7  -3   82.77   17.32 
 -15   7  -3  100.71   35.17 
 -17   7  -1   97.29   31.99 
 -17  -7  -1  101.50   20.15 
 -19   7   1  245.34   49.18 
 -19  -7   1  162.68   27.65 
 -21   7   3  204.31   43.34 
 -21  -7   3  149.19   28.79 
 -23   7   5   77.36   26.36 
 -23  -7   5   91.67   23.63 
 -23   7   5   53.94   19.88 
 -25   7   7  104.24   29.62 
 -25  -7   7   87.80   25.16 
 -25   7   7   91.87   29.60 
 -27   7   9   72.41   24.72 
 -27  -7   9   74.16   24.30 
 -27   7   9   36.42   19.05 
 -29   7  11  126.66   41.75 
  -6   8 -12   10.25   10.67 
  -8   8 -10   -8.08   10.12 
 -10   8  -8   29.18   13.79 
 -12   8  -6   63.24   26.95 
 -14   8  -4   93.98   33.73 
 -16   8  -2  128.96   37.58 
 -16  -8  -2  132.19   23.44 
 -18   8   0  162.07   40.94 
 -18  -8   0  196.51   30.39 
 -20   8   2  180.63   40.28 
 -20  -8   2  130.16   25.94 
 -22   8   4  147.70   35.43 
 -22  -8   4  141.63   29.30 
 -24   8   6  156.42   36.33 
 -24  -8   6  166.00   33.30 
 -26   8   8  150.60   36.15 
 -26  -8   8  125.58   31.73 
 -26   8   8  154.29   41.46 
 -28   8  10   69.68   33.92 
  -7   9 -11  -14.35   13.60 
  -9   9  -9   14.01   13.73 
 -11   9  -7   52.53   24.87 
 -13   9  -5   41.73   23.82 
 -15   9  -3  111.13   36.72 
 -15  -9  -3   87.94   19.39 
 -17   9  -1   65.18   25.65 
 -17  -9  -1   64.04   17.00 
 -19  -9   1  190.10   32.10 
 -19   9   1  193.19   42.30 
 -21  -9   3  133.19   27.44 
 -21   9   3  157.06   36.73 
 -23  -9   5  142.30   30.19 
 -23   9   5  123.79   32.11 
 -25  -9   7  147.62   33.40 
 -25   9   7  118.29   30.72 
 -27   9   9   96.88   28.62 
  -8  10 -10    5.86    5.19 
 -10  10  -8   38.10   22.43 
 -12  10  -6   37.04   22.39 
 -14  10  -4   82.12   32.71 
 -16  10  -2   75.05   27.21 
 -16 -10  -2   41.60   13.72 
 -18  10   0  117.43   32.86 
 -18 -10   0  120.34   24.99 
 -20 -10   2   73.43   20.19 
 -20  10   2   85.19   28.50 
 -22 -10   4   88.05   23.00 
 -22  10   4   85.05   27.04 
 -24 -10   6  133.08   30.66 
 -24  10   6  111.36   30.94 
 -26  10   8  113.67   31.14 
 -11  11  -7   -9.53   11.42 
 -13  11  -5   28.62   19.05 
 -15  11  -3   44.55   23.00 
 -17  11  -1   57.33   24.14 
 -17 -11  -1   21.34   10.39 
 -19 -11   1   43.90   15.51 
 -19  11   1   35.94   18.61 
 -21 -11   3   49.10   17.40 
 -21  11   3   41.94   19.35 
 -23 -11   5   65.22   21.08 
 -23  11   5   74.82   24.95 
 -16 -12  -2   14.38    8.84 
 -18 -12   0   17.32   10.18 
 -20 -12   2   44.41   16.78 
  -6   0 -13    8.28    8.71 
  -8   0 -11   -4.35    7.50 
 -10   0  -9   10.71   11.95 
 -12   0  -7   15.97   14.98 
 -14   0  -5    5.37   11.26 
 -16   0  -3   -4.39   12.56 
 -18   0  -1  -11.73   10.75 
 -20   0   1   -2.10    9.21 
 -20   0   1   -1.51    2.58 
 -22   0   3   -1.85    4.64 
 -22   0   3    0.59    1.99 
 -24   0   5    7.66    5.42 
 -24   0   5   -2.99    5.14 
 -26   0   7   13.03   11.74 
 -26   0   7  -21.56   14.11 
 -28   0   9  -17.51   14.05 
 -30   0  11    5.88   11.74 
  -5  -1 -14   22.55   11.71 
  -5   1 -14   27.67   12.92 
  -7  -1 -12   24.57   12.95 
  -7   1 -12   50.84   19.20 
  -9  -1 -10    3.53    3.29 
  -9   1 -10   18.14   13.33 
 -11  -1  -8   22.56   12.75 
 -11   1  -8   17.97   12.36 
 -13   1  -6   61.14   26.37 
 -13  -1  -6   54.08   20.70 
 -15   1  -4   50.39   22.54 
 -15  -1  -4   37.13   15.11 
 -17   1  -2   84.36   29.49 
 -17  -1  -2   71.11   23.27 
 -19  -1   0   37.30   20.16 
 -19   1   0   41.50   20.23 
 -19  -1   0   48.11   12.70 
 -21  -1   2   -2.14    6.28 
 -21   1   2   14.67   10.77 
 -21  -1   2   24.33   12.09 
 -21   1   2    7.08    3.98 
 -23  -1   4   42.79   18.20 
 -23   1   4   21.15   15.71 
 -23  -1   4   38.50   15.96 
 -23   1   4   13.90   10.69 
 -25  -1   6   34.75   15.98 
 -25   1   6   24.19   14.75 
 -25  -1   6   40.16   16.65 
 -25   1   6   14.26   13.34 
 -27  -1   8    6.64   11.02 
 -27   1   8   18.77   15.97 
 -29  -1  10    6.12    8.01 
 -29   1  10   19.49    9.05 
 -31   1  12    1.51    5.14 
  -6  -2 -13   69.44   21.62 
  -6   2 -13   77.71   24.63 
  -8  -2 -11   61.51   20.40 
  -8   2 -11   88.13   26.72 
 -10  -2  -9   98.26   27.03 
 -10   2  -9  118.91   33.48 
 -12   2  -7   16.24   14.19 
 -12  -2  -7   18.58   11.40 
 -14   2  -5  174.98   43.37 
 -14  -2  -5  131.15   32.47 
 -16   2  -3  257.98   54.09 
 -16  -2  -3  190.90   40.19 
 -18   2  -1  119.18   36.17 
 -18  -2  -1  120.01   19.10 
 -18  -2  -1  110.27   29.48 
 -20   2   1  113.12   35.58 
 -20  -2   1   83.77   18.31 
 -20  -2   1   78.48   25.27 
 -22  -2   3  171.91   31.28 
 -22   2   3  193.32   37.80 
 -22   2   3  190.07   46.57 
 -22  -2   3  194.13   39.97 
 -24   2   5   77.12   29.73 
 -24  -2   5   84.40   24.05 
 -24   2   5   92.22   29.23 
 -24  -2   5  127.43   30.40 
 -26   2   7   41.82   21.51 
 -26  -2   7   67.60   23.36 
 -26   2   7   70.07   25.92 
 -28  -2   9   16.73   14.62 
 -28   2   9   27.92   19.34 
 -30  -2  11   -3.96    7.08 
 -30   2  11   -0.53   11.02 
  -5   3 -14   95.12   27.42 
  -7  -3 -12  146.43   31.67 
  -7   3 -12  170.90   38.64 
  -9  -3 -10  150.29   32.02 
  -9   3 -10  170.39   40.88 
 -11   3  -8   55.57   24.02 
 -11  -3  -8   24.15   11.33 
 -13   3  -6  368.24   63.07 
 -13  -3  -6  174.19   36.41 
 -15   3  -4  557.83   79.32 
 -15  -3  -4  186.43   38.15 
 -17   3  -2  320.42   61.69 
 -17  -3  -2  226.60   42.14 
 -19  -3   0  155.33   24.40 
 -19  -3   0  165.65   34.85 
 -21  -3   2  204.90   39.56 
 -21  -3   2  244.50   35.08 
 -21   3   2  257.81   41.32 
 -21   3   2  219.06   51.06 
 -23  -3   4  216.17   37.31 
 -23   3   4  251.94   53.95 
 -23   3   4  208.77   41.91 
 -23  -3   4  190.71   36.84 
 -25  -3   6  125.04   30.93 
 -25   3   6  161.94   42.49 
 -25   3   6   92.36   30.50 
 -27  -3   8   74.09   26.15 
 -27   3   8   63.93   25.63 
 -27   3   8   48.62   23.31 
 -29  -3  10   13.52   12.62 
 -29   3  10   40.47   23.90 
  -6   4 -13  175.95   39.29 
  -8  -4 -11  152.67   31.58 
  -8   4 -11  132.71   36.07 
 -10   4  -9  221.26   49.80 
 -10  -4  -9   96.30   24.98 
 -12   4  -7  512.44   76.58 
 -12  -4  -7  154.89   32.66 
 -14   4  -5  326.14   63.27 
 -14  -4  -5  179.53   35.60 
 -16   4  -3  308.79   60.49 
 -16  -4  -3  158.04   33.26 
 -18  -4  -1  244.56   29.55 
 -18   4  -1  225.98   52.37 
 -18  -4  -1  167.48   34.62 
 -20  -4   1  368.16   50.23 
 -20  -4   1  284.60   36.82 
 -20   4   1  327.88   63.20 
 -22  -4   3  236.26   38.90 
 -22  -4   3  226.12   35.68 
 -22   4   3  227.75   42.30 
 -22   4   3  233.02   51.77 
 -24  -4   5  192.93   35.81 
 -24  -4   5  153.01   29.65 
 -24   4   5  180.22   41.08 
 -24   4   5  211.77   48.82 
 -26  -4   7   86.68   26.64 
 -26   4   7   79.93   30.03 
 -26   4   7   81.80   30.27 
 -28  -4   9   75.17   26.86 
 -28   4   9   67.40   29.34 
 -30  -4  11   55.39   28.52 
 -30   4  11   19.64   16.41 
  -7   5 -12   89.62   29.92 
  -9   5 -10  170.42   43.68 
 -11   5  -8  380.84   67.94 
 -11  -5  -8  151.99   32.11 
 -13  -5  -6  221.32   38.74 
 -13   5  -6  391.43   69.59 
 -15  -5  -4  148.90   31.53 
 -15   5  -4  285.16   60.32 
 -17  -5  -2  210.97   27.49 
 -17  -5  -2  161.37   32.54 
 -19  -5   0  183.14   27.49 
 -19  -5   0  140.15   29.12 
 -21  -5   2  248.32   38.95 
 -21   5   2  320.91   61.27 
 -21  -5   2  261.20   36.87 
 -23  -5   4  126.17   25.92 
 -23  -5   4  143.93   28.85 
 -23   5   4  163.32   37.35 
 -23   5   4  178.82   43.98 
 -25   5   6  124.27   36.46 
 -25  -5   6  145.97   32.03 
 -25   5   6  101.18   33.22 
 -27   5   8   68.03   27.73 
 -27  -5   8   49.26   19.86 
 -27   5   8   29.45   20.70 
 -29  -5  10   42.27   19.91 
 -29   5  10   14.01   11.81 
  -6   6 -13   20.84   14.81 
  -8   6 -11  108.76   35.44 
 -10   6  -9  144.03   42.31 
 -12   6  -7  167.37   46.30 
 -14  -6  -5   94.24   23.85 
 -14   6  -5  173.49   46.89 
 -16  -6  -3  167.57   23.91 
 -16  -6  -3   90.04   23.49 
 -16   6  -3  190.98   48.80 
 -18  -6  -1  301.85   34.74 
 -18   6  -1  254.92   56.43 
 -20  -6   1  100.09   23.15 
 -20  -6   1   93.85   20.67 
 -20   6   1  122.99   36.86 
 -22   6   3   90.00   31.47 
 -22  -6   3   76.96   20.12 
 -22  -6   3   89.79   21.86 
 -24   6   5  112.21   34.33 
 -24  -6   5   88.19   23.80 
 -24   6   5   68.59   25.35 
 -26   6   7   87.48   28.64 
 -26  -6   7   87.11   24.67 
 -26   6   7  118.02   36.68 
 -28   6   9   30.05   16.99 
 -28  -6   9   40.63   18.20 
 -28   6   9   -3.47    7.06 
  -7   7 -12   32.75   18.82 
  -9   7 -10   57.94   26.48 
 -11   7  -8   25.95   14.45 
 -13   7  -6  121.02   39.85 
 -15   7  -4   65.51   29.39 
 -17  -7  -2   93.55   19.22 
 -17   7  -2  109.18   36.66 
 -19   7   0   22.29   16.86 
 -19  -7   0   64.42   16.86 
 -21   7   2   41.24   19.24 
 -21  -7   2   31.81   12.96 
 -23   7   4   69.96   25.92 
 -23  -7   4   41.97   15.14 
 -25   7   6   46.69   20.29 
 -25  -7   6   42.20   16.81 
 -25   7   6   38.87   19.00 
 -27  -7   8   18.48   11.12 
 -27   7   8    5.51    3.96 
 -29   7  10   13.27   10.51 
  -8   8 -11    5.90    8.60 
 -10   8  -9   24.09   15.69 
 -12   8  -7   -0.27   13.37 
 -14   8  -5   45.83   25.48 
 -16  -8  -3    9.26    5.91 
 -16   8  -3   17.72    8.00 
 -18   8  -1   29.36   16.15 
 -18  -8  -1   17.35    8.52 
 -20   8   1   50.23   23.59 
 -20  -8   1    9.97    6.42 
 -22   8   3  -16.08   12.37 
 -22  -8   3   -5.46    5.38 
 -24   8   5    9.23    8.94 
 -24  -8   5    5.79    5.98 
 -26   8   7    2.18    4.81 
 -26  -8   7    2.04    7.06 
 -26   8   7    5.98   10.02 
 -28   8   9   22.98   14.50 
 -28   8   9   47.28   24.74 
  -9   9 -10    9.01   11.10 
 -11   9  -8  -12.90   13.40 
 -13   9  -6  -15.48   14.52 
 -15   9  -4    4.28    3.85 
 -17   9  -2   -7.52    9.34 
 -17  -9  -2    3.74    3.98 
 -19   9   0   -2.09    5.33 
 -19  -9   0    2.67    1.80 
 -21   9   2    7.78    8.56 
 -21  -9   2    2.78    2.34 
 -23   9   4    6.06    7.61 
 -23  -9   4    1.84    3.31 
 -25   9   6   -0.33    2.00 
 -25  -9   6  -17.96   10.96 
 -27   9   8   11.07    9.95 
 -27   9   8    7.42   10.11 
 -12  10  -7   61.00   29.24 
 -14  10  -5   35.54   23.38 
 -16  10  -3   24.10   16.62 
 -16 -10  -3   19.65    9.49 
 -18  10  -1   30.55   17.39 
 -18 -10  -1   25.57   11.07 
 -20  10   1    9.37    9.78 
 -20 -10   1   15.26    8.75 
 -22  10   3   35.56   19.00 
 -22 -10   3   -0.40    4.69 
 -24 -10   5   25.61   12.84 
 -24  10   5   25.81   15.38 
 -26  10   7   31.18   16.65 
 -15  11  -4  111.44   37.54 
 -17  11  -2   67.12   26.82 
 -17 -11  -2   77.84   20.06 
 -19  11   0   47.90   20.62 
 -19 -11   0   50.97   16.77 
 -21 -11   2   29.65   13.54 
 -23 -11   4   37.46   15.90 
 -18 -12  -1   99.07   23.90 
 -20 -12   1   75.19   21.42 
  -8   0 -12   75.29   22.75 
 -10   0 -10   92.83   26.33 
 -12   0  -8  152.13   36.56 
 -14   0  -6  131.26   35.81 
 -16   0  -4    0.72   10.44 
 -18   0  -2   32.45   18.29 
 -20   0   0    0.91    9.66 
 -22   0   2   41.43   20.17 
 -22   0   2   21.77   11.22 
 -24   0   4   18.31   12.26 
 -24   0   4    8.24    6.85 
 -26   0   6   34.97   17.20 
 -26   0   6   25.88   15.03 
 -28   0   8    7.89    9.78 
 -30   0  10   66.16   26.58 
  -7  -1 -13   77.61   23.13 
  -7   1 -13   84.00   25.21 
  -9  -1 -11  107.27   27.24 
  -9   1 -11   77.76   24.53 
 -11  -1  -9   36.91   17.68 
 -11   1  -9   19.05    9.68 
 -13  -1  -7  219.64   43.41 
 -13   1  -7  174.84   42.39 
 -15   1  -5   50.29   22.61 
 -15  -1  -5   39.11   16.36 
 -17   1  -3    1.18    9.60 
 -17  -1  -3    1.04    6.00 
 -19   1  -1   74.30   27.74 
 -19  -1  -1   56.23   23.97 
 -21  -1   1   11.36    4.13 
 -21  -1   1   -0.60    3.96 
 -23  -1   3   -5.17    8.87 
 -23   1   3    0.04    9.53 
 -23  -1   3   -1.10    5.48 
 -23   1   3  -12.77    8.83 
 -25  -1   5   21.48   15.37 
 -25   1   5   34.03   19.14 
 -25  -1   5    6.19    3.22 
 -25   1   5   10.25    6.28 
 -27   1   7    0.94    8.46 
 -27   1   7    8.72    8.46 
 -29  -1   9   12.27    7.24 
 -29   1   9    9.93    8.45 
 -31  -1  11   21.81   16.32 
 -31   1  11   22.84   20.36 
  -8  -2 -12   55.18   19.70 
  -8   2 -12   36.01   17.49 
 -10  -2 -10   29.36   15.18 
 -10   2 -10   26.94   17.85 
 -12  -2  -8   48.75   19.09 
 -12   2  -8   80.15   28.20 
 -14   2  -6   51.80   23.81 
 -14  -2  -6   28.87   15.81 
 -16   2  -4   30.44   20.36 
 -16  -2  -4   25.54   13.78 
 -18   2  -2   10.60   14.22 
 -18  -2  -2   13.92   11.96 
 -20   2   0   73.30   28.04 
 -20  -2   0   47.44   20.41 
 -22   2   2   10.35    9.63 
 -22  -2   2    0.18    3.53 
 -22  -2   2   -6.11    9.29 
 -24   2   4    8.43   15.46 
 -24  -2   4   -1.85    2.05 
 -24   2   4   -1.99    5.39 
 -24  -2   4   -0.41    8.55 
 -26   2   6    4.32    8.64 
 -26  -2   6   12.53    8.85 
 -28  -2   8    5.90    4.42 
 -28   2   8    5.33    4.76 
 -30  -2  10   -1.05   13.92 
 -30   2  10   -1.62   10.61 
  -7   3 -13   16.61   11.44 
  -9  -3 -11   11.26    8.04 
  -9   3 -11   -7.26    8.78 
 -11   3  -9    2.94    6.52 
 -11  -3  -9   33.96   15.76 
 -13   3  -7   34.09   20.77 
 -13  -3  -7   26.08   13.32 
 -15   3  -5    5.83    8.60 
 -15  -3  -5   18.25   11.60 
 -17   3  -3   23.06   16.15 
 -17  -3  -3   19.02   13.52 
 -19   3  -1    3.68    6.38 
 -19  -3  -1    1.67    4.86 
 -21   3   1    2.52    7.13 
 -21  -3   1    0.73    2.92 
 -21  -3   1    1.85    7.35 
 -23   3   3   11.91   13.37 
 -23  -3   3    9.37    7.59 
 -23  -3   3    9.63   10.71 
 -25  -3   5    4.59    3.76 
 -25   3   5  -11.58   11.47 
 -25   3   5  -21.80   13.73 
 -25  -3   5    4.30    3.20 
 -27  -3   7   -4.53    6.16 
 -27   3   7  -10.87   11.20 
 -27   3   7    3.26    7.47 
 -29  -3   9   20.37   13.31 
 -29   3   9   -0.34    3.57 
 -31   3  11   -4.71   12.32 
  -8   4 -12   12.04    9.43 
 -10   4 -10    6.05    8.50 
 -10  -4 -10    0.64    2.59 
 -12   4  -8   -0.09    5.73 
 -12  -4  -8    2.58    4.13 
 -14   4  -6    3.77   12.91 
 -14  -4  -6  -16.06   10.42 
 -16   4  -4  -11.34   11.71 
 -16  -4  -4   -3.31    6.26 
 -18   4  -2    8.80   13.99 
 -18  -4  -2   -1.67    6.09 
 -20  -4   0    1.28    2.19 
 -20   4   0   -3.76   10.40 
 -20  -4   0   -6.08    6.46 
 -22  -4   2    2.51    2.59 
 -22  -4   2   -2.73    5.69 
 -22   4   2  -11.91   11.99 
 -24  -4   4   -5.75    5.81 
 -24  -4   4   -1.74    7.32 
 -24   4   4   11.32    9.45 
 -24   4   4    3.17    6.22 
 -26  -4   6   -1.69   10.49 
 -26   4   6  -16.35   12.63 
 -26   4   6  -24.05   16.56 
 -28  -4   8   -1.73    7.21 
 -28   4   8   -3.50   11.31 
 -28   4   8  -14.94   13.02 
 -30  -4  10  -27.21   16.49 
 -30   4  10   10.12    9.41 
  -7   5 -13  -32.89   18.01 
  -9   5 -11   14.90   14.86 
 -11   5  -9    7.68    5.17 
 -11  -5  -9    6.23    7.61 
 -13   5  -7    7.43   13.39 
 -13  -5  -7    3.63    3.40 
 -15   5  -5   20.32   19.92 
 -15  -5  -5   -2.55    7.27 
 -17  -5  -3    0.53    5.13 
 -17   5  -3    0.35    4.22 
 -19  -5  -1    6.77    4.24 
 -19  -5  -1    0.17    4.34 
 -19   5  -1   -2.12    5.66 
 -21  -5   1   -5.69    4.85 
 -21  -5   1   16.52    9.80 
 -21   5   1    8.54    8.59 
 -23  -5   3   -2.50    7.73 
 -23  -5   3    0.90    2.67 
 -23   5   3  -16.34   13.79 
 -25  -5   5   11.74    9.78 
 -25   5   5   -2.84    6.19 
 -27  -5   7   -7.43    7.51 
 -27   5   7    5.70    3.95 
 -27   5   7   16.34   13.03 
 -29  -5   9    5.04    7.47 
 -29   5   9    2.86    8.86 
  -8   6 -12   34.69   20.45 
 -10   6 -10   41.75   22.27 
 -12   6  -8   33.11   19.49 
 -14  -6  -6   11.18    8.87 
 -14   6  -6   34.33   20.42 
 -16  -6  -4   19.33   11.09 
 -16   6  -4   12.78    7.97 
 -18  -6  -2   -0.02    4.54 
 -18   6  -2   23.82   17.84 
 -20  -6   0   12.74    9.17 
 -20  -6   0    6.31    5.58 
 -20   6   0    1.28    4.12 
 -22  -6   2   -1.94    3.90 
 -22  -6   2  -10.80    7.11 
 -24  -6   4    3.29    3.46 
 -24  -6   4  -10.87    7.78 
 -24   6   4   -2.30   11.87 
 -26   6   6    4.86   10.77 
 -26  -6   6    1.54    4.15 
 -26   6   6    0.68   12.20 
 -28   6   8    7.36    9.03 
 -28  -6   8    0.48    3.71 
 -28   6   8   15.95   13.40 
 -30   6  10    4.04    9.06 
  -9   7 -11   38.10   21.44 
 -11   7  -9   81.13   31.77 
 -13   7  -7   56.61   24.96 
 -15   7  -5   73.20   30.20 
 -17   7  -3    6.17   10.99 
 -19  -7  -1    4.48    4.28 
 -19   7  -1   25.91   19.20 
 -21  -7   1   -0.40    1.42 
 -21   7   1  -14.53   13.03 
 -23   7   3   -7.66    9.11 
 -23  -7   3    6.53    6.30 
 -25   7   5    2.96    6.72 
 -25  -7   5   10.46    7.84 
 -27   7   7   14.38   12.20 
 -27  -7   7    4.98    3.83 
 -27   7   7   -0.92    5.61 
 -29   7   9   18.28   14.64 
 -29   7   9   10.07    8.09 
 -10   8 -10   72.70   31.09 
 -12   8  -8   50.62   27.48 
 -14   8  -6   -1.90   14.88 
 -16   8  -4   35.98   21.53 
 -18  -8  -2    5.58    3.74 
 -18   8  -2   17.03   11.95 
 -20   8   0   17.93   12.50 
 -20  -8   0    9.72    5.42 
 -22   8   2   14.57   10.06 
 -22  -8   2    1.24    3.28 
 -24   8   4   -0.08    4.60 
 -24  -8   4   -4.33    5.92 
 -26   8   6   12.17   11.24 
 -26  -8   6    4.76    4.79 
 -28   8   8    2.80    4.62 
 -28   8   8   30.02   20.41 
 -13   9  -7   76.31   33.27 
 -15   9  -5   -5.30    8.83 
 -17   9  -3   80.79   33.05 
 -19   9  -1    8.45    8.65 
 -19  -9  -1    7.52    5.89 
 -21   9   1   -5.19    7.58 
 -21  -9   1    1.83    3.08 
 -23   9   3   -0.38   11.12 
 -23  -9   3   -1.15    2.57 
 -25   9   5   -4.00   11.52 
 -25  -9   5  -12.50    8.99 
 -27   9   7   13.54   11.48 
 -16  10  -4  -10.81   12.15 
 -18  10  -2    9.93   10.96 
 -18 -10  -2   -8.76    6.45 
 -20  10   0    3.76    9.34 
 -20 -10   0   13.56    8.14 
 -22  10   2   -0.25    2.50 
 -22 -10   2    3.61    4.72 
 -24 -10   4   -7.73    7.00 
 -19 -11  -1   -0.26    1.62 
 -21 -11   1    3.57    4.47 
 -18 -12  -2   -2.57    3.87 
 -10   0 -11    0.19    4.91 
 -12   0  -9   12.41   13.18 
 -14   0  -7  -39.03   19.00 
 -16   0  -5    0.89   11.72 
 -18   0  -3    3.51    6.82 
 -20   0  -1   -1.27   11.35 
 -22   0   1   -0.86    3.05 
 -24   0   3   -2.07    4.42 
 -24   0   3    5.00    5.32 
 -26   0   5    6.33   11.66 
 -26   0   5    0.27    4.13 
 -28   0   7    8.09    8.67 
 -30   0   9   11.62   15.10 
  -9   1 -12    0.56    5.60 
 -11  -1 -10    8.20    9.36 
 -11   1 -10    3.69    6.02 
 -13  -1  -8  -12.65   10.28 
 -13   1  -8    5.54    9.47 
 -15  -1  -6   -0.35    2.79 
 -15   1  -6    4.12    8.80 
 -17   1  -4   43.45   20.89 
 -17  -1  -4   21.36   13.13 
 -19   1  -2   31.06   22.10 
 -19  -1  -2   11.61   11.12 
 -21   1   0   -1.01    8.18 
 -21  -1   0  -15.77   12.25 
 -23  -1   2   33.41   18.64 
 -23   1   2   22.58   12.80 
 -25  -1   4   27.30   17.01 
 -25   1   4   21.46    9.55 
 -25  -1   4    4.98    3.97 
 -25   1   4   31.13   14.32 
 -27   1   6   71.27   28.03 
 -27  -1   6   41.36   18.53 
 -27   1   6   52.87   21.81 
 -29  -1   8   28.53   16.31 
 -29   1   8   14.19   12.55 
 -31  -1  10  -18.94   14.46 
 -31   1  10  -25.60   17.65 
 -10  -2 -11   11.61    7.94 
 -10   2 -11    4.91    7.88 
 -12  -2  -9    2.55    8.97 
 -12   2  -9  -20.34   14.22 
 -14   2  -7   30.16   18.51 
 -14  -2  -7    4.50    8.08 
 -16   2  -5   50.87   23.58 
 -16  -2  -5   90.06   27.45 
 -18   2  -3   50.58   24.35 
 -18  -2  -3   24.22   13.57 
 -20   2  -1   61.50   26.58 
 -20  -2  -1   62.49   23.35 
 -22   2   1   46.76   22.51 
 -22  -2   1   42.10   19.80 
 -24   2   3  121.79   37.04 
 -24  -2   3   79.71   21.32 
 -24  -2   3   84.73   26.90 
 -26   2   5  124.91   38.90 
 -26  -2   5  103.87   26.96 
 -26   2   5  101.32   28.85 
 -26  -2   5  126.56   31.84 
 -28   2   7  126.36   38.41 
 -28  -2   7  106.85   29.29 
 -28   2   7   91.23   30.19 
 -30  -2   9  134.61   36.74 
 -30   2   9   68.89   28.88 
  -9   3 -12   14.16   12.10 
 -11  -3 -10    4.75    9.54 
 -11   3 -10    4.69    5.49 
 -13   3  -8   16.49   13.93 
 -13  -3  -8    4.53    6.30 
 -15   3  -6   19.71   17.54 
 -15  -3  -6   25.51   10.57 
 -17   3  -4   63.55   28.22 
 -17  -3  -4   97.20   27.74 
 -19   3  -2   51.99   25.01 
 -19  -3  -2   64.69   21.56 
 -21   3   0   71.37   29.84 
 -21  -3   0   62.50   21.57 
 -23  -3   2  111.24   23.56 
 -23  -3   2  164.56   36.45 
 -25  -3   4  177.59   33.54 
 -25   3   4  245.82   54.94 
 -25  -3   4  194.63   38.30 
 -27   3   6  113.10   36.91 
 -27  -3   6  122.43   30.16 
 -27   3   6  126.92   35.30 
 -29  -3   8  150.15   36.63 
 -29   3   8  149.95   41.66 
 -31  -3  10  153.09   40.59 
 -31   3  10  124.41   39.80 
 -10   4 -11   11.12   11.14 
 -12   4  -9   14.17   10.72 
 -12  -4  -9   16.59   11.89 
 -14   4  -7   32.82   22.04 
 -14  -4  -7    5.20    3.65 
 -16   4  -5   49.42   25.17 
 -16  -4  -5   50.80   19.58 
 -18   4  -3  104.62   35.69 
 -18  -4  -3   63.63   21.20 
 -20   4  -1   81.06   31.45 
 -20  -4  -1   59.80   20.24 
 -22  -4   1  144.53   25.50 
 -22   4   1  191.39   49.28 
 -22  -4   1  148.62   33.64 
 -24  -4   3  158.38   29.72 
 -24  -4   3  179.80   35.21 
 -24   4   3  222.06   53.14 
 -26  -4   5  151.16   31.76 
 -26   4   5  198.76   49.89 
 -28  -4   7  238.66   44.27 
 -28   4   7  157.62   44.78 
 -28   4   7  164.35   44.38 
 -30  -4   9  128.74   35.30 
 -30   4   9  121.41   38.25 
 -11   5 -10   11.93   11.80 
 -13   5  -8   54.71   26.26 
 -13  -5  -8   40.18   16.90 
 -15   5  -6   52.37   25.32 
 -15  -5  -6   30.89   14.90 
 -17   5  -4   89.12   36.36 
 -17  -5  -4   37.21   16.23 
 -19  -5  -2   43.89   16.59 
 -19   5  -2   60.19   28.18 
 -21  -5   0  147.75   24.92 
 -21  -5   0  125.96   29.02 
 -21   5   0  131.48   41.84 
 -23  -5   2  112.63   23.81 
 -23  -5   2  145.73   30.59 
 -25  -5   4  153.85   30.34 
 -25  -5   4  161.21   31.08 
 -25   5   4  165.99   45.71 
 -27  -5   6  137.54   31.32 
 -27   5   6  128.59   41.24 
 -29  -5   8  145.04   34.38 
 -29   5   8   62.92   26.22 
 -29   5   8  111.31   36.57 
 -31   5  10  112.79   40.45 
 -12   6  -9   19.06   19.12 
 -14   6  -7   53.70   25.00 
 -16  -6  -5   41.65   16.76 
 -16   6  -5   28.60   19.10 
 -18  -6  -3   35.55   14.83 
 -18   6  -3   62.22   28.65 
 -20  -6  -1   66.54   20.07 
 -20   6  -1   64.75   28.41 
 -22  -6   1   77.99   21.52 
 -22  -6   1   84.33   19.96 
 -22   6   1  114.49   38.20 
 -24  -6   3  179.84   32.06 
 -24  -6   3  128.50   27.03 
 -24   6   3  174.99   47.63 
 -26  -6   5   80.52   22.61 
 -26   6   5  100.79   35.66 
 -28  -6   7   62.31   21.58 
 -28   6   7   74.37   29.61 
 -30   6   9   50.86   26.96 
 -13   7  -8  -14.59   14.16 
 -15   7  -6   37.39   20.72 
 -17   7  -4   18.27   13.82 
 -19   7  -2   16.64   14.97 
 -21  -7   0   26.40   10.55 
 -21   7   0   20.02   11.72 
 -23  -7   2   60.24   17.73 
 -23   7   2   16.91   14.55 
 -25   7   4  101.88   34.86 
 -25  -7   4   49.94   17.14 
 -27   7   6   68.40   28.48 
 -27  -7   6   72.39   21.88 
 -29   7   8   46.47   23.44 
 -14   8  -7   -2.54   12.22 
 -16   8  -5   12.01   13.05 
 -18   8  -3   33.71   21.88 
 -20  -8  -1   10.65    6.51 
 -20   8  -1   49.65   22.57 
 -22  -8   1    5.11    5.00 
 -22   8   1    9.90   12.69 
 -24   8   3    6.24    8.65 
 -24  -8   3    3.09    3.26 
 -26   8   5    0.05    1.60 
 -26  -8   5    9.20    7.64 
 -28   8   7   33.82   17.51 
 -17   9  -4  -43.58   24.92 
 -19   9  -2   12.28   14.80 
 -21   9   0   13.57   10.35 
 -21  -9   0  -14.55    8.44 
 -23   9   2    5.17    7.77 
 -23  -9   2    1.42    4.82 
 -25   9   4   -3.05    6.28 
 -25  -9   4    0.18    2.93 
 -20 -10  -1    6.27    5.57 
 -22 -10   1    7.52    6.39 
 -24 -10   3   22.24   11.34 
 -21 -11   0   21.19    9.98 
 -12   0 -10  121.04   32.95 
 -14   0  -8  194.32   43.26 
 -16   0  -6  383.73   64.07 
 -18   0  -4  348.18   61.74 
 -20   0  -2  183.86   44.18 
 -22   0   0  312.72   59.93 
 -24   0   2  309.41   58.43 
 -26   0   4   77.98   28.49 
 -28   0   6  108.12   30.64 
 -30   0   8  143.65   38.13 
 -13  -1  -9  119.28   31.38 
 -13   1  -9  115.02   32.38 
 -15  -1  -7  231.68   45.90 
 -15   1  -7  218.05   48.98 
 -17  -1  -5  226.94   46.89 
 -17   1  -5  238.36   51.91 
 -19   1  -3  274.71   54.95 
 -19  -1  -3  204.33   44.54 
 -21   1  -1  162.06   44.89 
 -21  -1  -1  179.76   40.97 
 -23   1   1  286.54   57.79 
 -23  -1   1  210.48   46.21 
 -25   1   3  120.00   36.84 
 -25  -1   3  143.76   36.73 
 -27   1   5   98.24   31.86 
 -27  -1   5  104.89   28.43 
 -27   1   5  101.94   27.96 
 -27  -1   5  123.40   33.25 
 -29  -1   7   84.71   27.46 
 -29   1   7   41.41   18.65 
 -31  -1   9   23.47   12.94 
 -31   1   9   49.53   21.83 
 -12   2 -10   85.47   29.05 
 -14  -2  -8  180.02   37.73 
 -14   2  -8  119.66   35.48 
 -16   2  -6  150.47   41.40 
 -16  -2  -6  134.57   33.64 
 -18   2  -4  185.32   46.70 
 -18  -2  -4  155.60   36.91 
 -20   2  -2   76.66   33.01 
 -20  -2  -2   97.98   30.08 
 -22   2   0  238.21   54.85 
 -22  -2   0  213.83   44.84 
 -24   2   2  167.94   45.16 
 -24  -2   2  104.68   29.55 
 -26   2   4   92.82   34.75 
 -26  -2   4   74.62   21.40 
 -26  -2   4   86.33   26.88 
 -28   2   6   75.34   28.77 
 -28  -2   6   55.77   20.59 
 -28   2   6   66.98   25.67 
 -30  -2   8   49.64   20.90 
 -30   2   8   49.62   22.79 
 -13  -3  -9   35.57   17.14 
 -13   3  -9   41.42   20.86 
 -15   3  -7   62.26   27.66 
 -15  -3  -7   60.67   21.90 
 -17   3  -5  103.46   34.55 
 -17  -3  -5   38.22   18.66 
 -19   3  -3   35.89   21.38 
 -19  -3  -3   71.91   24.28 
 -21   3  -1   46.21   24.68 
 -21  -3  -1   33.19   15.66 
 -23   3   1   56.90   27.40 
 -23  -3   1   64.11   24.01 
 -25   3   3   37.78   22.22 
 -25  -3   3   38.56   13.95 
 -25  -3   3   49.26   19.90 
 -27   3   5   47.80   24.79 
 -27  -3   5   28.96   14.04 
 -29   3   7   13.06   10.28 
 -29  -3   7   16.58   11.77 
 -29   3   7    1.66    2.49 
 -31  -3   9   11.13    8.48 
 -31   3   9   42.15   20.23 
 -14   4  -8    2.86    9.20 
 -14  -4  -8   -5.01    6.06 
 -16   4  -6    7.21    3.04 
 -16  -4  -6   12.40    9.43 
 -18   4  -4   -4.06    7.44 
 -18  -4  -4   12.62    9.96 
 -20   4  -2    5.33    9.73 
 -20  -4  -2   -0.06    6.67 
 -22   4   0    4.01    5.50 
 -22  -4   0   -0.35    3.86 
 -24   4   2   25.88   15.61 
 -24  -4   2    9.53    6.28 
 -24  -4   2   28.40   13.78 
 -26  -4   4   -6.06    5.91 
 -26   4   4  -15.31   14.02 
 -26  -4   4   -0.71    7.23 
 -28  -4   6   11.76    9.37 
 -28   4   6    0.61    4.18 
 -30  -4   8  -15.07   11.26 
 -30   4   8  -18.06   14.34 
 -13   5  -9   28.26   16.88 
 -15   5  -7   15.82   13.67 
 -15  -5  -7   29.02   13.53 
 -17   5  -5   25.28   18.37 
 -17  -5  -5    1.70    4.65 
 -19   5  -3   11.29   11.12 
 -19  -5  -3   -1.69    7.61 
 -21  -5  -1    0.19    8.13 
 -21   5  -1   10.08   10.21 
 -23  -5   1   -7.64    7.19 
 -23   5   1    9.65   10.35 
 -25  -5   3   16.64   10.17 
 -25  -5   3    8.59    6.69 
 -25   5   3   -8.25   11.97 
 -27  -5   5   -2.54    4.07 
 -27   5   5   -2.18    5.66 
 -29  -5   7  -12.58    9.82 
 -29   5   7   -5.23    8.18 
 -31   5   9   34.49   20.45 
 -16  -6  -6   50.27   18.77 
 -16   6  -6   74.73   32.95 
 -18  -6  -4   39.51   16.66 
 -18   6  -4   73.72   31.57 
 -20  -6  -2   47.65   18.19 
 -20   6  -2   56.11   26.86 
 -22  -6   0   25.60   12.14 
 -22   6   0   31.51   19.90 
 -24  -6   2   47.75   16.53 
 -24  -6   2   28.54   11.39 
 -24   6   2   59.40   28.48 
 -26  -6   4   40.52   15.39 
 -26   6   4   23.02   13.19 
 -28  -6   6   14.18   10.09 
 -28   6   6   -6.39    9.29 
 -30   6   8   26.52   19.54 
 -17   7  -5  179.79   51.72 
 -19   7  -3   95.28   35.66 
 -21   7  -1  131.49   43.49 
 -23  -7   1   68.39   18.41 
 -23   7   1   81.16   32.31 
 -25  -7   3   50.69   16.91 
 -25   7   3   43.35   24.78 
 -27  -7   5  103.19   26.41 
 -27   7   5   75.88   31.12 
 -29   7   7   37.99   23.18 
 -20   8  -2  114.11   39.99 
 -22   8   0  214.50   55.44 
 -24  -8   2   82.22   21.49 
 -24   8   2   95.21   34.05 
 -26   8   4   54.39   27.18 
 -26  -8   4   80.36   22.30 
 -23  -9   1   87.82   22.30 
 -25  -9   3  116.00   27.24 
 -22 -10   0  104.47   23.93 
 -24 -10   2   53.59   17.86 
 -16   0  -7  -12.48   11.06 
 -18   0  -5  -18.54   13.70 
 -20   0  -3   -2.88   10.34 
 -22   0  -1   -7.21   13.23 
 -24   0   1  -12.24   11.70 
 -26   0   3   -5.88    8.38 
 -28   0   5    2.23    9.99 
 -30   0   7   -0.47    2.51 
 -32   0   9   17.86   13.65 
 -15  -1  -8   14.51   11.53 
 -15   1  -8    6.38    9.43 
 -17  -1  -6    5.95    7.88 
 -17   1  -6    1.98    7.29 
 -19   1  -4    9.25    4.75 
 -19  -1  -4    1.88    6.75 
 -21   1  -2   17.43   12.01 
 -21  -1  -2    4.72    7.47 
 -23   1   0    7.87    8.98 
 -23  -1   0   21.04   17.93 
 -25   1   2    1.02    4.65 
 -25  -1   2    0.24    6.01 
 -27   1   4  -30.93   18.76 
 -27  -1   4    0.61    3.93 
 -29  -1   6   -8.32    8.06 
 -31  -1   8   -7.85    8.71 
 -31   1   8    6.71    6.53 
 -16  -2  -7   29.45   16.95 
 -16   2  -7   37.47   20.72 
 -18   2  -5   18.88   12.02 
 -18  -2  -5   52.35   19.31 
 -20   2  -3   17.91   14.01 
 -20  -2  -3   45.25   22.81 
 -22   2  -1   35.84   20.02 
 -22  -2  -1   36.77   17.39 
 -24   2   1   31.76   19.07 
 -24  -2   1    8.33    5.86 
 -26   2   3    1.67    7.71 
 -26  -2   3    6.58    5.27 
 -28   2   5   14.95   13.27 
 -28  -2   5   -3.83    9.33 
 -30  -2   7    3.17    5.16 
 -32   2   9   15.31   13.84 
 -15   3  -8  143.68   41.31 
 -17   3  -6   62.74   27.22 
 -17  -3  -6   51.93   20.51 
 -19   3  -4   46.45   20.72 
 -19  -3  -4   44.35   18.96 
 -21   3  -2  102.05   36.51 
 -21  -3  -2   77.94   26.52 
 -23   3   0   10.44   18.28 
 -23  -3   0    2.77    4.22 
 -25   3   2  -11.33   11.96 
 -25  -3   2   -5.28    6.82 
 -27   3   4    7.33    5.47 
 -27  -3   4    5.97    4.06 
 -27  -3   4   13.02   12.24 
 -29   3   6    4.75    5.52 
 -29  -3   6    6.42    6.78 
 -31  -3   8   18.39   14.14 
 -16   4  -7   95.02   33.95 
 -18   4  -5  134.34   41.88 
 -18  -4  -5   39.50   17.24 
 -20   4  -3   56.38   25.97 
 -20  -4  -3   58.98   21.70 
 -22   4  -1   41.69   22.01 
 -22  -4  -1   17.50   11.68 
 -24   4   1   -5.93    8.99 
 -24  -4   1   -4.63    4.44 
 -26   4   3   -3.48    5.53 
 -26  -4   3    3.31    3.84 
 -28   4   5    7.12    9.88 
 -28  -4   5   -3.94    4.95 
 -30   4   7  -16.56   14.65 
 -30  -4   7  -19.34   12.15 
 -17   5  -6  154.16   45.16 
 -17  -5  -6   84.91   25.14 
 -19   5  -4   32.57   22.87 
 -19  -5  -4   57.07   20.65 
 -21   5  -2   56.25   30.25 
 -21  -5  -2    7.61    7.30 
 -23   5   0   37.69   23.09 
 -23  -5   0   27.99   14.38 
 -25  -5   2   -3.80    4.29 
 -25   5   2    5.82    6.94 
 -27  -5   4   -6.26    5.96 
 -27   5   4    6.63    9.46 
 -29  -5   6   -7.70    7.20 
 -29   5   6   26.50   18.66 
 -18  -6  -5   25.41   12.65 
 -20  -6  -3   55.53   19.80 
 -20   6  -3   61.16   33.14 
 -22  -6  -1    2.90    4.38 
 -22   6  -1    3.92    7.87 
 -24  -6   1   21.36   11.43 
 -24   6   1    6.59    7.16 
 -26  -6   3    4.48    4.92 
 -26   6   3  -11.07   12.34 
 -28  -6   5   -8.96    7.51 
 -28   6   5   14.47   13.90 
 -30   6   7   -4.95    8.23 
 -23   7   0    1.62    6.23 
 -25   7   2    3.07    9.54 
 -27  -7   4   -7.54    6.77 
 -26  -8   3   -0.40    3.82 
 -25  -9   2    4.13    6.65 
 -18   0  -6   40.60   20.81 
 -20   0  -4    2.10    4.03 
 -22   0  -2   68.72   26.72 
 -24   0   0  108.61   34.27 
 -26   0   2   91.97   31.76 
 -28   0   4   99.56   32.74 
 -32   0   8   66.22   24.63 
 -19  -1  -5   23.06   14.53 
 -19   1  -5   41.97   21.44 
 -21   1  -3   61.35   24.82 
 -21  -1  -3   19.60   12.48 
 -23   1  -1   55.58   22.96 
 -23  -1  -1   82.75   28.45 
 -25   1   1   86.45   31.97 
 -25  -1   1  112.81   33.88 
 -27   1   3  136.58   40.19 
 -27  -1   3  110.65   32.68 
 -29   1   5  152.15   42.95 
 -31  -1   7  135.20   34.16 
 -18  -2  -6   14.26   12.33 
 -20   2  -4    7.55    9.04 
 -20  -2  -4   57.38   22.83 
 -22   2  -2   57.08   26.94 
 -22  -2  -2   18.41   14.53 
 -24   2   0   90.84   33.92 
 -24  -2   0   53.20   23.58 
 -26   2   2  110.71   36.74 
 -26  -2   2   97.69   30.35 
 -28   2   4  106.05   35.88 
 -28  -2   4   79.15   26.42 
 -19   3  -5   -5.94   14.08 
 -19  -3  -5    4.51    6.61 
 -21   3  -3   41.19   22.97 
 -21  -3  -3    8.03    6.71 
 -23   3  -1   10.77    3.88 
 -23  -3  -1   17.73   10.59 
 -25   3   1   29.65   20.90 
 -25  -3   1   -2.41    7.78 
 -27   3   3   35.17   21.47 
 -27  -3   3   51.28   20.81 
 -29   3   5   83.29   32.55 
 -31  -3   7   33.29   15.93 
 -20   4  -4   22.35   21.44 
 -20  -4  -4   -5.15   10.79 
 -22   4  -2   -6.54   17.14 
 -22  -4  -2    1.06    7.13 
 -24   4   0  -10.32   11.95 
 -24  -4   0    2.13    7.31 
 -26   4   2    0.66    6.60 
 -26  -4   2   12.57   11.95 
 -28   4   4   23.79   16.72 
 -30   4   6   19.01   15.80 
 -30  -4   6   -4.11    8.05 
 -21  -5  -3   -0.98    6.46 
 -23   5  -1    7.60   10.84 
 -23  -5  -1    5.93    4.04 
 -25   5   1   14.12   10.59 
 -25  -5   1    8.29    7.64 
 -27  -5   3    5.94    4.16 
 -27   5   3  -34.41   21.93 
 -29  -5   5    2.45    5.29 
 -29   5   5   -2.25    5.59 
 -22  -6  -2    8.53    5.72 
 -24  -6   0   27.80   11.75 
 -26  -6   2    0.27    1.82 
 -22   0  -3   -5.28   13.05 
 -24   0  -1    3.01    4.23 
 -26   0   1    9.34   11.73 
 -28   0   3    3.67    5.35 
 -23   1  -2   -0.81   10.64 
 -23  -1  -2   -9.30   12.30 
 -25   1   0   40.20   23.71 
 -25  -1   0   43.28   21.59 
 -27   1   2   25.84   17.14 
 -27  -1   2   45.83   22.88 
 -29   1   4    9.21    9.23 
 -29  -1   4    7.50   10.22 
 -22  -2  -3   65.84   25.03 
 -24   2  -1   70.21   31.08 
 -24  -2  -1  114.25   33.71 
 -26   2   1   90.38   33.33 
 -26  -2   1   67.78   25.16 
 -28   2   3   28.33   18.01 
 -28  -2   3   71.92   25.75 
 -30   2   5   37.48   23.56 
 -23  -3  -2  134.37   33.92 
 -25   3   0  125.19   41.09 
 -25  -3   0  136.68   34.46 
 -27   3   2  134.55   43.57 
 -27  -3   2  120.28   33.65 
 -29   3   4  180.90   48.38 
 -24  -4  -1  149.82   35.72 
 -26  -4   1  118.50   31.44 
 -28  -4   3  146.21   33.69 
 -25  -5   0  123.30   31.21 
 -27  -5   2  127.79   30.94 
 -26  -6   1   61.51   20.69 
 -28   0   2    2.66    8.23 
 -30   0   4   27.09   16.12 
 -27  -1   1   27.20   18.35 
 -29   1   3    6.56    4.14 
 -29  -1   3   -2.11    8.72 
 -28  -2   2   -3.12    5.84 
 -27  -3   1    2.81    4.16 
 -29  -3   3   -0.03   12.07 
 -28  -4   2  -15.21   11.13 
   0   0   0    0.00    0.00 
;
_shelx_hkl_checksum              37696
loop_
_space_group_symop_operation_xyz
'x, y, z'
'-x, y, -z+1/2'
'x+1/2, y+1/2, z'
'-x+1/2, y+1/2, -z+1/2'
'-x, -y, -z'
'x, -y, z-1/2'
'-x+1/2, -y+1/2, -z'
'x+1/2, -y+1/2, z-1/2'
loop_
_atom_site_label
_atom_site_type_symbol
_atom_site_fract_x
_atom_site_fract_y
_atom_site_fract_z
_atom_site_U_iso_or_equiv
_atom_site_adp_type
_atom_site_occupancy
_atom_site_site_symmetry_order
_atom_site_calc_flag
_atom_site_refinement_flags_posn
_atom_site_refinement_flags_adp
_atom_site_refinement_flags_occupancy
_atom_site_disorder_assembly
_atom_site_disorder_group
Eu1 Eu 0.33897(2) 1.19302(3) 0.59886(3) 0.0200(3) Uani 1 1 d . . . . .
N1 N 0.4041(12) 0.9103(11) 0.7860(15) 0.108(5) Uani 0.540(15) 1 d D U P A 1
N1' N 0.3934(11) 0.8968(11) 0.7605(16) 0.108(5) Uani 0.460(15) 1 d D . P A 2
O1 O -0.1029(4) 0.7367(7) -0.2212(6) 0.053(2) Uani 1 1 d . . . . .
O2 O -0.0073(12) 0.771(2) -0.0752(19) 0.055(4) Uani 0.48(3) 1 d . U P B 1
O2' O -0.0120(11) 0.725(2) -0.0537(18) 0.055(4) Uani 0.52(3) 1 d . . P B 2
O3 O -0.0174(4) 0.8983(6) 0.0419(6) 0.044(2) Uani 1 1 d . . . . .
O4 O 0.2234(4) 1.1658(5) 0.4163(5) 0.0284(16) Uani 1 1 d . . . . .
O5 O 0.3069(4) 1.0771(6) 0.4486(6) 0.042(2) Uani 1 1 d . . . . .
O6 O 0.3378(4) 1.3010(5) 0.4735(6) 0.039(2) Uani 1 1 d . . . . .
O7 O 0.2376(4) 1.3715(5) 0.3661(6) 0.0365(18) Uani 1 1 d . . . . .
O8 O 0.4467(6) 1.1607(15) 0.6301(12) 0.066(4) Uani 0.76(3) 1 d . U P C 1
H8E H 0.4635 1.1954 0.6043 0.079 Uiso 0.76(3) 1 d R U P C 1
H8F H 0.4747 1.1577 0.6991 0.079 Uiso 0.76(3) 1 d R U P C 1
O8' O 0.448(2) 1.224(5) 0.654(4) 0.066(4) Uani 0.24(3) 1 d . . P C 2
H8'C H 0.4646 1.2245 0.6172 0.079 Uiso 0.24(3) 1 d R U P C 2
H8'D H 0.4796 1.2234 0.7213 0.079 Uiso 0.24(3) 1 d R U P C 2
O9 O 0.3831(5) 1.0361(7) 0.6834(8) 0.072(2) Uani 1 1 d D U . . .
C1 C -0.0700(6) 0.7554(9) -0.1248(9) 0.042(2) Uani 1 1 d . U . . .
C2 C -0.1057(7) 0.7918(9) -0.0758(10) 0.043(2) Uani 1 1 d . U . . .
C3 C -0.1691(7) 0.7551(10) -0.1170(10) 0.054(3) Uani 1 1 d . U . . .
H3 H -0.1872 0.7063 -0.1703 0.065 Uiso 1 1 calc R U . . .
C4 C -0.2066(8) 0.7918(10) -0.0780(11) 0.059(3) Uani 1 1 d . U . . .
H4 H -0.2498 0.7697 -0.1078 0.070 Uiso 1 1 calc R U . . .
C5 C -0.1775(7) 0.8608(10) 0.0047(10) 0.056(3) Uani 1 1 d . U . . .
H5 H -0.2007 0.8835 0.0327 0.067 Uiso 1 1 calc R U . . .
C6 C -0.1155(6) 0.8958(10) 0.0457(9) 0.048(2) Uani 1 1 d . U . . .
H6 H -0.0970 0.9431 0.1007 0.057 Uiso 1 1 calc R U . . .
C7 C -0.0791(6) 0.8620(9) 0.0064(9) 0.043(2) Uani 1 1 d . U . . .
C8 C 0.0172(5) 0.9590(8) 0.1336(8) 0.0327(18) Uani 1 1 d . U . . .
H8A H 0.0153 0.9320 0.1919 0.039 Uiso 1 1 calc R U . . .
H8B H -0.0028 1.0240 0.1157 0.039 Uiso 1 1 calc R U . . .
C9 C 0.0881(5) 0.9650(7) 0.1691(8) 0.0278(17) Uani 1 1 d . U . . .
C10 C 0.1120(5) 0.9100(7) 0.1216(8) 0.0308(19) Uani 1 1 d . U . . .
H10 H 0.0832 0.8683 0.0639 0.037 Uiso 1 1 calc R U . . .
C11 C 0.1787(5) 0.9155(7) 0.1583(8) 0.0262(17) Uani 1 1 d . U . . .
C12 C 0.2222(5) 0.9750(7) 0.2467(7) 0.0267(18) Uani 1 1 d . U . . .
H12 H 0.2672 0.9767 0.2737 0.032 Uiso 1 1 calc DR U . . .
C13 C 0.1324(5) 1.0274(7) 0.2566(8) 0.0262(18) Uani 1 1 d . U . . .
H13 H 0.1166 1.0659 0.2888 0.031 Uiso 1 1 calc R U . . .
C14 C 0.1989(5) 1.0322(7) 0.2954(8) 0.0278(18) Uani 1 1 d . U . . .
C15 C 0.2466(5) 1.0946(7) 0.3927(8) 0.0279(18) Uani 1 1 d . U . . .
C16 C 0.2963(5) 1.3565(7) 0.3973(8) 0.026(2) Uani 1 1 d . U . . .
C17 C 0.3784(11) 0.9474(10) 0.6880(14) 0.095(6) Uani 0.540(15) 1 d D U P A 1
H17 H 0.3579 0.9080 0.6258 0.114 Uiso 0.540(15) 1 calc R U P A 1
C18 C 0.436(2) 0.9703(19) 0.8857(16) 0.141(8) Uani 0.540(15) 1 d D U P A 1
H18A H 0.4513 0.9286 0.9476 0.211 Uiso 0.540(15) 1 calc R U P A 1
H18B H 0.4738 1.0044 0.8956 0.211 Uiso 0.540(15) 1 calc R U P A 1
H18C H 0.4048 1.0172 0.8792 0.211 Uiso 0.540(15) 1 calc R U P A 1
C19 C 0.401(2) 0.8039(13) 0.803(3) 0.122(9) Uani 0.540(15) 1 d D U P A 1
H19A H 0.4222 0.7910 0.8789 0.182 Uiso 0.540(15) 1 calc R U P A 1
H19B H 0.3552 0.7833 0.7621 0.182 Uiso 0.540(15) 1 calc R U P A 1
H19C H 0.4237 0.7683 0.7774 0.182 Uiso 0.540(15) 1 calc R U P A 1
C17' C 0.3746(8) 0.9894(12) 0.7425(15) 0.095(6) Uani 0.460(15) 1 d D . P A 2
H17' H 0.3553 1.0179 0.7748 0.114 Uiso 0.460(15) 1 calc R U P A 2
C18' C 0.424(2) 0.8478(18) 0.713(3) 0.141(8) Uani 0.460(15) 1 d D . P A 2
H18D H 0.4337 0.7807 0.7368 0.211 Uiso 0.460(15) 1 calc R U P A 2
H18E H 0.3939 0.8496 0.6343 0.211 Uiso 0.460(15) 1 calc R U P A 2
H18F H 0.4648 0.8809 0.7352 0.211 Uiso 0.460(15) 1 calc R U P A 2
C19' C 0.3839(19) 0.835(2) 0.833(3) 0.122(9) Uani 0.460(15) 1 d D . P A 2
H19D H 0.4003 0.7700 0.8364 0.182 Uiso 0.460(15) 1 calc R U P A 2
H19E H 0.4081 0.8633 0.9045 0.182 Uiso 0.460(15) 1 calc R U P A 2
H19F H 0.3373 0.8321 0.8033 0.182 Uiso 0.460(15) 1 calc R U P A 2
loop_
_atom_site_aniso_label
_atom_site_aniso_U_11
_atom_site_aniso_U_22
_atom_site_aniso_U_33
_atom_site_aniso_U_23
_atom_site_aniso_U_13
_atom_site_aniso_U_12
Eu1 0.0207(4) 0.0221(4) 0.0168(4) 0.00089(17) 0.0106(3) -0.00018(17)
N1 0.102(8) 0.073(7) 0.101(7) 0.026(6) 0.030(7) 0.000(6)
N1' 0.102(8) 0.073(7) 0.101(7) 0.026(6) 0.030(7) 0.000(6)
O1 0.039(5) 0.077(6) 0.021(4) -0.015(4) 0.004(4) 0.006(5)
O2 0.040(6) 0.075(8) 0.041(6) -0.015(6) 0.018(5) -0.006(7)
O2' 0.040(6) 0.075(8) 0.041(6) -0.015(6) 0.018(5) -0.006(7)
O3 0.034(5) 0.064(5) 0.037(4) -0.020(4) 0.022(4) -0.017(4)
O4 0.025(4) 0.023(3) 0.029(4) -0.015(3) 0.011(3) -0.004(3)
O5 0.022(4) 0.047(5) 0.044(4) -0.019(4) 0.011(4) 0.003(3)
O6 0.036(5) 0.047(5) 0.041(5) 0.023(4) 0.026(4) 0.008(4)
O7 0.027(4) 0.049(5) 0.035(4) 0.014(3) 0.018(4) -0.005(3)
O8 0.034(6) 0.092(11) 0.064(7) 0.030(8) 0.024(5) 0.006(8)
O8' 0.034(6) 0.092(11) 0.064(7) 0.030(8) 0.024(5) 0.006(8)
O9 0.078(5) 0.061(5) 0.079(5) 0.024(4) 0.047(4) 0.008(4)
C1 0.033(4) 0.055(5) 0.034(4) -0.013(4) 0.016(4) -0.006(4)
C2 0.034(4) 0.058(4) 0.038(4) -0.009(3) 0.020(3) -0.011(3)
C3 0.042(4) 0.066(4) 0.042(4) -0.016(4) 0.017(3) -0.016(4)
C4 0.041(4) 0.078(5) 0.050(4) -0.013(4) 0.023(4) -0.019(4)
C5 0.043(4) 0.074(5) 0.047(4) -0.017(4) 0.023(4) -0.013(4)
C6 0.036(4) 0.064(4) 0.041(4) -0.013(4) 0.022(3) -0.010(4)
C7 0.034(3) 0.058(4) 0.036(3) -0.008(3) 0.019(3) -0.008(3)
C8 0.029(3) 0.042(3) 0.032(3) -0.010(3) 0.020(3) -0.007(3)
C9 0.028(3) 0.033(3) 0.029(3) -0.007(3) 0.020(3) -0.003(3)
C10 0.029(3) 0.035(4) 0.031(3) -0.009(3) 0.018(3) -0.005(3)
C11 0.026(3) 0.030(3) 0.027(3) -0.011(3) 0.018(3) -0.001(3)
C12 0.025(3) 0.031(3) 0.029(3) -0.007(3) 0.019(3) 0.001(3)
C13 0.026(3) 0.025(3) 0.029(3) -0.010(3) 0.017(3) 0.003(3)
C14 0.027(3) 0.030(3) 0.030(3) -0.010(3) 0.018(3) -0.004(3)
C15 0.033(3) 0.029(3) 0.030(3) -0.004(3) 0.023(3) 0.000(3)
C16 0.030(5) 0.025(5) 0.026(4) -0.003(4) 0.018(4) -0.005(4)
C17 0.095(8) 0.072(7) 0.089(8) 0.031(6) 0.036(7) 0.003(7)
C18 0.125(11) 0.108(11) 0.112(11) 0.041(10) 0.023(10) -0.002(10)
C19 0.120(11) 0.087(10) 0.112(11) 0.030(9) 0.040(10) -0.001(10)
C17' 0.095(8) 0.072(7) 0.089(8) 0.031(6) 0.036(7) 0.003(7)
C18' 0.125(11) 0.108(11) 0.112(11) 0.041(10) 0.023(10) -0.002(10)
C19' 0.120(11) 0.087(10) 0.112(11) 0.030(9) 0.040(10) -0.001(10)
loop_
_atom_type_symbol
_atom_type_description
_atom_type_scat_dispersion_real
_atom_type_scat_dispersion_imag
_atom_type_scat_source
C C 0.0033 0.0016 'International Tables Vol C Tables 4.2.6.8 and 6.1.1.4'
H H 0.0000 0.0000 'International Tables Vol C Tables 4.2.6.8 and 6.1.1.4'
N N 0.0061 0.0033 'International Tables Vol C Tables 4.2.6.8 and 6.1.1.4'
O O 0.0106 0.0060 'International Tables Vol C Tables 4.2.6.8 and 6.1.1.4'
Eu Eu -0.1578 3.6682 'International Tables Vol C Tables 4.2.6.8 and 6.1.1.4'
loop_
_geom_angle_atom_site_label_1
_geom_angle_atom_site_label_2
_geom_angle_atom_site_label_3
_geom_angle
_geom_angle_site_symmetry_1
_geom_angle_site_symmetry_3
O1 Eu1 O8' 74.1(14) 3_556 .
O1 Eu1 O6 119.1(3) 3_556 .
O8' Eu1 O6 70.2(11) . .
O1 Eu1 O7 82.8(3) 3_556 7_576
O8' Eu1 O7 150.7(11) . 7_576
O6 Eu1 O7 138.4(3) . 7_576
O1 Eu1 O4 80.5(3) 3_556 7_576
O8' Eu1 O4 115.4(16) . 7_576
O6 Eu1 O4 73.0(3) . 7_576
O7 Eu1 O4 77.1(3) 7_576 7_576
O1 Eu1 O9 79.9(4) 3_556 .
O8' Eu1 O9 84.0(14) . .
O6 Eu1 O9 140.0(3) . .
O7 Eu1 O9 74.3(3) 7_576 .
O4 Eu1 O9 147.0(3) 7_576 .
O1 Eu1 O8 87.0(5) 3_556 .
O6 Eu1 O8 77.6(4) . .
O7 Eu1 O8 142.2(4) 7_576 .
O4 Eu1 O8 136.6(5) 7_576 .
O9 Eu1 O8 68.2(5) . .
O1 Eu1 O5 153.3(3) 3_556 .
O8' Eu1 O5 97.8(17) . .
O6 Eu1 O5 79.9(3) . .
O7 Eu1 O5 94.9(3) 7_576 .
O4 Eu1 O5 125.1(2) 7_576 .
O9 Eu1 O5 73.9(3) . .
O8 Eu1 O5 78.7(5) . .
O1 Eu1 O4 147.4(3) 3_556 .
O8' Eu1 O4 137.0(13) . .
O6 Eu1 O4 75.2(3) . .
O7 Eu1 O4 70.1(2) 7_576 .
O4 Eu1 O4 76.3(2) 7_576 .
O9 Eu1 O4 108.4(3) . .
O8 Eu1 O4 125.6(4) . .
O5 Eu1 O4 50.8(2) . .
O1 Eu1 Eu1 117.2(2) 3_556 7_576
O8' Eu1 Eu1 138.2(12) . 7_576
O6 Eu1 Eu1 69.7(2) . 7_576
O7 Eu1 Eu1 68.82(17) 7_576 7_576
O4 Eu1 Eu1 40.05(16) 7_576 7_576
O9 Eu1 Eu1 136.0(2) . 7_576
O8 Eu1 Eu1 145.9(3) . 7_576
O5 Eu1 Eu1 86.06(17) . 7_576
O4 Eu1 Eu1 36.25(14) . 7_576
O1 Eu1 H8F 70.6 3_556 .
O6 Eu1 H8F 90.2 . .
O7 Eu1 H8F 131.4 7_576 .
O4 Eu1 H8F 133.6 7_576 .
O9 Eu1 H8F 61.7 . .
O8 Eu1 H8F 17.1 . .
O5 Eu1 H8F 92.1 . .
O4 Eu1 H8F 141.6 . .
Eu1 Eu1 H8F 159.8 7_576 .
C17 N1 C18 123.4(9) . .
C17 N1 C19 121.5(9) . .
C18 N1 C19 115.1(8) . .
C17' N1' C18' 123.7(9) . .
C17' N1' C19' 120.6(9) . .
C18' N1' C19' 115.7(8) . .
C1 O1 Eu1 176.4(9) . 3_444
C7 O3 C8 120.3(9) . .
C15 O4 Eu1 162.3(6) . 7_576
C15 O4 Eu1 90.6(6) . .
Eu1 O4 Eu1 103.7(2) 7_576 .
C15 O5 Eu1 97.2(6) . .
C16 O6 Eu1 136.8(7) . .
C16 O7 Eu1 137.7(6) . 7_576
Eu1 O8 H8E 124.3 . .
Eu1 O8 H8F 105.8 . .
H8E O8 H8F 108.2 . .
Eu1 O8' H8'C 130.8 . .
Eu1 O8' H8'D 119.9 . .
H8'C O8' H8'D 108.2 . .
C17' O9 Eu1 130.1(10) . .
C17 O9 Eu1 152.0(11) . .
O1 C1 O2' 126.5(15) . .
O1 C1 O2 118.8(16) . .
O1 C1 C2 118.2(11) . .
O2' C1 C2 112.6(15) . .
O2 C1 C2 119.9(14) . .
C3 C2 C7 118.4(12) . .
C3 C2 C1 118.4(11) . .
C7 C2 C1 123.2(11) . .
C2 C3 C4 120.4(12) . .
C2 C3 H3 119.8 . .
C4 C3 H3 119.8 . .
C5 C4 C3 118.7(13) . .
C5 C4 H4 120.6 . .
C3 C4 H4 120.6 . .
C6 C5 C4 120.9(13) . .
C6 C5 H5 119.6 . .
C4 C5 H5 119.6 . .
C5 C6 C7 120.8(12) . .
C5 C6 H6 119.6 . .
C7 C6 H6 119.6 . .
O3 C7 C2 116.3(11) . .
O3 C7 C6 122.9(11) . .
C2 C7 C6 120.7(11) . .
O3 C8 C9 107.8(8) . .
O3 C8 H8A 110.1 . .
C9 C8 H8A 110.1 . .
O3 C8 H8B 110.1 . .
C9 C8 H8B 110.1 . .
H8A C8 H8B 108.5 . .
C10 C9 C13 118.7(10) . .
C10 C9 C8 122.5(9) . .
C13 C9 C8 118.7(9) . .
C9 C10 C11 121.1(9) . .
C9 C10 H10 119.4 . .
C11 C10 H10 119.4 . .
C12 C11 C10 119.5(9) . .
C12 C11 C16 120.2(9) . 4_545
C10 C11 C16 120.3(9) . 4_545
C11 C12 C14 120.3(9) . .
C11 C12 H12 119.8 . .
C14 C12 H12 119.8 . .
C14 C13 C9 120.8(9) . .
C14 C13 H13 119.6 . .
C9 C13 H13 119.6 . .
C13 C14 C12 119.4(9) . .
C13 C14 C15 120.5(9) . .
C12 C14 C15 120.0(9) . .
O5 C15 O4 120.8(9) . .
O5 C15 C14 120.7(9) . .
O4 C15 C14 118.6(9) . .
O7 C16 O6 126.7(9) . .
O7 C16 C11 116.6(9) . 4
O6 C16 C11 116.6(9) . 4
O9 C17 N1 116.2(11) . .
O9 C17 H17 121.9 . .
N1 C17 H17 121.9 . .
N1 C18 H18A 109.5 . .
N1 C18 H18B 109.5 . .
H18A C18 H18B 109.5 . .
N1 C18 H18C 109.5 . .
H18A C18 H18C 109.5 . .
H18B C18 H18C 109.5 . .
N1 C19 H19A 109.5 . .
N1 C19 H19B 109.5 . .
H19A C19 H19B 109.5 . .
N1 C19 H19C 109.5 . .
H19A C19 H19C 109.5 . .
H19B C19 H19C 109.5 . .
O9 C17' N1' 118.0(10) . .
O9 C17' H17' 121.0 . .
N1' C17' H17' 121.0 . .
N1' C18' H18D 109.5 . .
N1' C18' H18E 109.5 . .
H18D C18' H18E 109.5 . .
N1' C18' H18F 109.5 . .
H18D C18' H18F 109.5 . .
H18E C18' H18F 109.5 . .
N1' C19' H19D 109.5 . .
N1' C19' H19E 109.5 . .
H19D C19' H19E 109.5 . .
N1' C19' H19F 109.5 . .
H19D C19' H19F 109.5 . .
H19E C19' H19F 109.5 . .
loop_
_geom_bond_atom_site_label_1
_geom_bond_atom_site_label_2
_geom_bond_distance
_geom_bond_site_symmetry_2
Eu1 O1 2.282(7) 3_556
Eu1 O8' 2.33(5) .
Eu1 O6 2.366(7) .
Eu1 O7 2.379(7) 7_576
Eu1 O4 2.380(7) 7_576
Eu1 O9 2.398(8) .
Eu1 O8 2.434(14) .
Eu1 O5 2.473(7) .
Eu1 O4 2.590(7) .
Eu1 Eu1 3.9108(10) 7_576
Eu1 H8F 2.7878 .
N1 C17 1.318(8) .
N1 C18 1.469(9) .
N1 C19 1.477(9) .
N1' C17' 1.314(8) .
N1' C18' 1.460(9) .
N1' C19' 1.483(9) .
O1 C1 1.207(13) .
O1 Eu1 2.282(7) 3_444
O2 C1 1.28(3) .
O2' C1 1.26(2) .
O3 C7 1.371(14) .
O3 C8 1.394(12) .
O4 C15 1.269(12) .
O4 Eu1 2.380(7) 7_576
O5 C15 1.230(13) .
O6 C16 1.252(12) .
O7 C16 1.246(12) .
O7 Eu1 2.379(7) 7_576
O8 H8E 0.8501 .
O8 H8F 0.8500 .
O8' H8'C 0.8499 .
O8' H8'D 0.8500 .
O9 C17' 1.199(9) .
O9 C17 1.218(10) .
C1 C2 1.506(18) .
C2 C3 1.391(18) .
C2 C7 1.388(16) .
C3 C4 1.43(2) .
C3 H3 0.9300 .
C4 C5 1.380(18) .
C4 H4 0.9300 .
C5 C6 1.353(17) .
C5 H5 0.9300 .
C6 C7 1.395(17) .
C6 H6 0.9300 .
C8 C9 1.496(15) .
C8 H8A 0.9700 .
C8 H8B 0.9700 .
C9 C10 1.371(14) .
C9 C13 1.405(13) .
C10 C11 1.391(14) .
C10 H10 0.9300 .
C11 C12 1.385(13) .
C11 C16 1.513(13) 4_545
C12 C14 1.389(13) .
C12 H12 0.9300 .
C13 C14 1.380(14) .
C13 H13 0.9300 .
C14 C15 1.499(14) .
C16 C11 1.513(13) 4
C17 H17 0.9300 .
C18 H18A 0.9600 .
C18 H18B 0.9600 .
C18 H18C 0.9600 .
C19 H19A 0.9600 .
C19 H19B 0.9600 .
C19 H19C 0.9600 .
C17' H17' 0.9300 .
C18' H18D 0.9600 .
C18' H18E 0.9600 .
C18' H18F 0.9600 .
C19' H19D 0.9600 .
C19' H19E 0.9600 .
C19' H19F 0.9600 .
