#------------------------------------------------------------------------------
#$Date: 2019-10-28 05:08:38 +0200 (Mon, 28 Oct 2019) $
#$Revision: 219662 $
#$URL: file:///home/coder/svn-repositories/cod/cif/4/51/44/4514473.cif $
#------------------------------------------------------------------------------
#
# This file is available in the Crystallography Open Database (COD),
# http://www.crystallography.net/
#
# All data on this site have been placed in the public domain by the
# contributors.
#
data_4514473
loop_
_publ_author_name
'Mi, Xiuna'
'Sheng, Dafei'
'Yu, Yu'e'
'Wang, Yuhao'
'Zhao, Limin'
'Lu, Jing'
'Li, Yunwu'
'Li, Dacheng'
'Dou, Jianmin'
'Duan, Jingui'
'Wang, Suna'
_publ_section_title
;
 Tunable Light Emission and Multiresponsive Luminescent Sensitivities in
 Aqueous Solutions of Two Series of Lanthanide Metal-Organic Frameworks
 Based on Structurally Related Ligands.
;
_journal_issue                   8
_journal_name_full               'ACS applied materials &amp; interfaces'
_journal_page_first              7914
_journal_page_last               7926
_journal_paper_doi               10.1021/acsami.8b18320
_journal_volume                  11
_journal_year                    2019
_chemical_formula_sum            'C21 H23 Eu N2 O10'
_chemical_formula_weight         615.37
_space_group_crystal_system      triclinic
_space_group_IT_number           2
_space_group_name_Hall           '-P 1'
_space_group_name_H-M_alt        'P -1'
_symmetry_space_group_name_Hall  '-P 1'
_symmetry_space_group_name_H-M   'P -1'
_atom_sites_solution_hydrogens   mixed
_audit_creation_method           SHELXL-2014/7
_cell_angle_alpha                89.791(2)
_cell_angle_beta                 88.975(2)
_cell_angle_gamma                68.1260(10)
_cell_formula_units_Z            2
_cell_length_a                   9.3443(8)
_cell_length_b                   10.2351(9)
_cell_length_c                   14.0620(13)
_cell_measurement_reflns_used    2017
_cell_measurement_temperature    298(2)
_cell_measurement_theta_max      26.721
_cell_measurement_theta_min      2.5195
_cell_volume                     1247.86(19)
_computing_cell_refinement       'Bruker SMART'
_computing_data_collection       'Bruker SMART'
_computing_data_reduction        'Bruker SHELXTL'
_computing_molecular_graphics    'Bruker SHELXTL'
_computing_publication_material  'Bruker SHELXTL'
_computing_structure_refinement  'SHELXL-2014/7 (Sheldrick, 2014)'
_computing_structure_solution    'Bruker SHELXTL'
_diffrn_ambient_temperature      298(2)
_diffrn_measured_fraction_theta_full 0.976
_diffrn_measured_fraction_theta_max 0.976
_diffrn_measurement_device_type  'CCD area detector'
_diffrn_measurement_method       'phi and omega scans'
_diffrn_radiation_type           MoK\a
_diffrn_radiation_wavelength     0.71073
_diffrn_reflns_av_R_equivalents  0.0699
_diffrn_reflns_av_unetI/netI     0.0997
_diffrn_reflns_Laue_measured_fraction_full 0.976
_diffrn_reflns_Laue_measured_fraction_max 0.976
_diffrn_reflns_limit_h_max       11
_diffrn_reflns_limit_h_min       -10
_diffrn_reflns_limit_k_max       9
_diffrn_reflns_limit_k_min       -12
_diffrn_reflns_limit_l_max       15
_diffrn_reflns_limit_l_min       -16
_diffrn_reflns_number            6228
_diffrn_reflns_point_group_measured_fraction_full 0.976
_diffrn_reflns_point_group_measured_fraction_max 0.976
_diffrn_reflns_theta_full        25.019
_diffrn_reflns_theta_max         25.019
_diffrn_reflns_theta_min         2.523
_exptl_absorpt_coefficient_mu    2.568
_exptl_absorpt_correction_T_max  1.0
_exptl_absorpt_correction_T_min  0.95
_exptl_absorpt_correction_type   multi-scan
_exptl_absorpt_process_details   sadabs
_exptl_crystal_colour            colorless
_exptl_crystal_density_diffrn    1.638
_exptl_crystal_description       cluster
_exptl_crystal_F_000             612
_exptl_crystal_size_max          0.280
_exptl_crystal_size_mid          0.170
_exptl_crystal_size_min          0.080
_refine_diff_density_max         4.915
_refine_diff_density_min         -2.710
_refine_diff_density_rms         0.282
_refine_ls_extinction_method     none
_refine_ls_goodness_of_fit_ref   1.014
_refine_ls_hydrogen_treatment    constr
_refine_ls_matrix_type           full
_refine_ls_number_parameters     311
_refine_ls_number_reflns         4294
_refine_ls_number_restraints     122
_refine_ls_restrained_S_all      1.007
_refine_ls_R_factor_all          0.1097
_refine_ls_R_factor_gt           0.0797
_refine_ls_shift/su_max          0.000
_refine_ls_shift/su_mean         0.000
_refine_ls_structure_factor_coef Fsqd
_refine_ls_weighting_details
'w=1/[\s^2^(Fo^2^)+(0.1443P)^2^] where P=(Fo^2^+2Fc^2^)/3'
_refine_ls_weighting_scheme      calc
_refine_ls_wR_factor_gt          0.1945
_refine_ls_wR_factor_ref         0.2149
_reflns_Friedel_coverage         0.000
_reflns_number_gt                3144
_reflns_number_total             4294
_reflns_threshold_expression     'I > 2\s(I)'
_cod_data_source_file            am8b18320_si_002.cif
_cod_data_source_block           151016d
_cod_database_code               4514473
_shelx_shelxl_version_number     2014/7
_shelx_space_group_comment
;
The symmetry employed for this shelxl refinement is uniquely defined
by the following loop, which should always be used as a source of
symmetry information in preference to the above space-group names.
They are only intended as comments.
;
_shelx_estimated_absorpt_t_min   0.533
_shelx_estimated_absorpt_t_max   0.821
_shelx_res_file
;

    151016d.res created by SHELXL-2014/7

TITL 151016d in P-1
CELL 0.71073   9.3443  10.2351  14.0620  89.791  88.975  68.126
ZERR    2.00   0.0008   0.0009   0.0013   0.002   0.002   0.001
LATT 1
SFAC C  H  N  O  Eu
UNIT 42 46 4 20 2
OMIT  -1.00  50.04
L.S. 16
ACTA
BOND $H
FMAP 2
PLAN 30
HTAB C15 O5
HTAB O7 O4_$1
HTAB C15 O5
HTAB O7 O4_$1
HTAB C15 O5
HTAB O7 O4_$1
HTAB C15 O5
HTAB O7 O4_$1
HTAB C15 O5
HTAB O7 O4_$1
HTAB C15 O5
HTAB O7 O4_$1
EQIV $1 -x+2, -y, -z
HTAB
CONF
SIZE 0.28 0.17 0.08
isor 0.01 o10 n2 c17 c19 c20 c21 C12
simu 0.01 0.02 3.8 o10 n1 c16 c17 n2 c19 c20 c21
dfix 1.33 0.01 n2 c19
dfix 1.24 0.01 o10 c19
HTAB O7 O4_$1
HTAB C15 O5
HTAB O7 O4_$1
HTAB C15 O5
FREE Eu1  C8
FREE Eu1  C18
TEMP 25
WGHT    0.144300
FVAR       0.18100
EU1   5    0.651753    0.103147   -0.014208    11.00000    0.02160    0.01224 =
         0.05787   -0.00007   -0.01007   -0.01142
O1    4    0.526337    0.140036    0.142134    11.00000    0.03803    0.03764 =
         0.05933   -0.00287   -0.00498   -0.02883
O2    4    0.328212    0.060034    0.142881    11.00000    0.02735    0.02605 =
         0.05917   -0.01089   -0.00400   -0.01914
O3    4    0.202595    0.416811    0.192762    11.00000    0.02770    0.02685 =
         0.06878    0.00143   -0.01397   -0.01219
O4    4    0.830310    0.173824    0.097026    11.00000    0.02908    0.01324 =
         0.07417    0.00475   -0.00984   -0.01416
O5    4    0.638477    0.343979    0.024835    11.00000    0.03419    0.02020 =
         0.07511    0.00127   -0.02188   -0.01567
O6    4    0.587948    0.245170   -0.161913    11.00000    0.05414    0.02607 =
         0.06625    0.00646    0.00066   -0.01257
O7    4    0.900574    0.063864   -0.099843    11.00000    0.03385    0.03704 =
         0.07012   -0.00005   -0.01294   -0.01515
AFIX   3
H7C   2    0.964774   -0.019696   -0.092113    11.00000   -1.20000
H7A   2    0.929324    0.123614   -0.072433    11.00000   -1.20000
AFIX   0
O8    4    0.612006   -0.145889    0.042099    11.00000    0.02257    0.03000 =
         0.06145   -0.00023   -0.01490   -0.01057
O9    4    0.837612   -0.119925    0.053828    11.00000    0.02369    0.01481 =
         0.07738    0.01209   -0.01852   -0.01265
O10   4    0.848692    0.808836    0.326310    11.00000    0.18530    0.17039 =
         0.16077   -0.00495    0.01740   -0.08526
N1    3    0.479032    0.426084   -0.265808    11.00000    0.06461    0.04920 =
         0.05584    0.01022   -0.02167   -0.02277
N2    3    0.973305    0.947140    0.342903    11.00000    0.14840    0.14464 =
         0.14048    0.00372    0.00700   -0.07416
C1    1    0.404780    0.128966    0.179347    11.00000    0.04966    0.01506 =
         0.05284    0.01071   -0.01517   -0.01236
C2    1    0.339739    0.199445    0.274271    11.00000    0.03195    0.02889 =
         0.04906    0.00046   -0.01376   -0.01923
C3    1    0.386530    0.121010    0.360798    11.00000    0.04664    0.03589 =
         0.05644   -0.00302   -0.00417   -0.00587
AFIX  43
H3    2    0.463888    0.031756    0.360168    11.00000   -1.20000
AFIX   0
C4    1    0.312930    0.182187    0.445794    11.00000    0.08638    0.10130 =
         0.04554    0.00619   -0.02417   -0.01698
AFIX  43
H4    2    0.335812    0.129655    0.501465    11.00000   -1.20000
AFIX   0
C5    1    0.204982    0.321416    0.449201    11.00000    0.07207    0.08408 =
         0.06291   -0.03003    0.00295   -0.01831
AFIX  43
H5    2    0.162791    0.362498    0.507201    11.00000   -1.20000
AFIX   0
C6    1    0.159668    0.400860    0.361376    11.00000    0.04407    0.05233 =
         0.06802   -0.02365   -0.00286   -0.00496
AFIX  43
H6    2    0.084597    0.491284    0.361278    11.00000   -1.20000
AFIX   0
C7    1    0.232966    0.336267    0.277831    11.00000    0.03790    0.03969 =
         0.04716   -0.00352   -0.01481   -0.01306
C8    1    0.763038    0.304229    0.073203    11.00000    0.02921    0.01839 =
         0.05178    0.00657   -0.00144   -0.01033
C9    1    0.835507    0.412617    0.096515    11.00000    0.02547    0.02175 =
         0.03575   -0.00292   -0.00687   -0.01428
C10   1    0.979463    0.365055    0.142003    11.00000    0.02868    0.01725 =
         0.06033   -0.00285   -0.00311   -0.01363
AFIX  43
H10A  2    1.025853    0.271566    0.160580    11.00000   -1.20000
AFIX   0
C11   1    1.051137    0.460488    0.158679    11.00000    0.01763    0.02545 =
         0.04984    0.00075   -0.00213   -0.00726
C12   1    0.980527    0.603279    0.129883    11.00000    0.02321    0.01959 =
         0.05594   -0.00137   -0.00505   -0.01679
AFIX  43
H12   2    1.030368    0.665757    0.138472    11.00000   -1.20000
AFIX   0
C13   1    0.834135    0.648885    0.088185    11.00000    0.03482    0.01861 =
         0.04066    0.00258   -0.00504   -0.01666
C14   1    0.766033    0.550395    0.068871    11.00000    0.02702    0.02205 =
         0.03964   -0.00936    0.00189   -0.01653
AFIX  43
H14   2    0.673006    0.578963    0.037051    11.00000   -1.20000
AFIX   0
C15   1    0.555640    0.369850   -0.186508    11.00000    0.04589    0.04902 =
         0.05077   -0.00152   -0.00417   -0.02481
AFIX  43
H15   2    0.586449    0.427481   -0.147586    11.00000   -1.20000
AFIX   0
C16   1    0.439540    0.571846   -0.289447    11.00000    0.07830    0.05528 =
         0.08088    0.02304   -0.01871   -0.02955
AFIX 137
H16A  2    0.455067    0.621490   -0.235258    11.00000   -1.50000
H16B  2    0.333344    0.611909   -0.307401    11.00000   -1.50000
H16C  2    0.503814    0.579564   -0.341484    11.00000   -1.50000
AFIX   0
C17   1    0.426628    0.342918   -0.326869    11.00000    0.10297    0.07342 =
         0.08882    0.00449   -0.03800   -0.03229
AFIX 137
H17A  2    0.451884    0.356426   -0.391699    11.00000   -1.50000
H17B  2    0.316887    0.370958   -0.319572    11.00000   -1.50000
H17C  2    0.475826    0.245368   -0.310451    11.00000   -1.50000
AFIX   0
C18   1    0.757369   -0.199007    0.059985    11.00000    0.01828    0.00818 =
         0.06230    0.00172   -0.01174   -0.00740
C19   1    0.847277    0.930541    0.312858    11.00000    0.16036    0.15416 =
         0.14916    0.00206    0.00826   -0.06882
AFIX  43
H19   2    0.765968    1.002057    0.284627    11.00000   -1.20000
AFIX   0
C20   1    1.102733    0.833192    0.376212    11.00000    0.17578    0.16423 =
         0.15936    0.00222    0.01016   -0.06573
AFIX 137
H20A  2    1.070589    0.759141    0.397810    11.00000   -1.50000
H20B  2    1.147779    0.864567    0.427883    11.00000   -1.50000
H20C  2    1.177525    0.798664    0.325511    11.00000   -1.50000
AFIX   0
C21   1    1.007554    1.073151    0.325506    11.00000    0.16820    0.15567 =
         0.15147   -0.00246    0.00421   -0.07797
AFIX 137
H21A  2    0.926377    1.139156    0.289222    11.00000   -1.50000
H21B  2    1.103402    1.048109    0.290698    11.00000   -1.50000
H21C  2    1.015423    1.115110    0.385148    11.00000   -1.50000
AFIX   0
HKLF 4

REM  151016d in P-1
REM R1 =  0.0797 for    3144 Fo > 4sig(Fo)  and  0.1097 for all    4294 data
REM    311 parameters refined using    122 restraints

END

WGHT      0.1440      0.0000

REM Instructions for potential hydrogen bonds
HTAB O7 O4_$1
HTAB C15 O5

REM Highest difference peak  4.915,  deepest hole -2.710,  1-sigma level  0.282
Q1    1   0.6358  0.0966  0.0587  11.00000  0.05    4.91
Q2    1   0.6714  0.1047 -0.0847  11.00000  0.05    4.55
Q3    1   1.0420  0.6970  0.0433  11.00000  0.05    1.98
Q4    1   0.6369  0.1015  0.1314  11.00000  0.05    1.71
Q5    1   0.6603  0.1031 -0.1586  11.00000  0.05    1.71
Q6    1   0.5343  0.1877  0.0562  11.00000  0.05    1.67
Q7    1   0.7665  0.0081 -0.0844  11.00000  0.05    1.30
Q8    1   0.9160  0.7461  0.3488  11.00000  0.05    1.21
Q9    1   0.7311  0.0601  0.0015  11.00000  0.05    1.16
Q10   1   0.7772  0.0752  0.0520  11.00000  0.05    1.03
Q11   1   0.7568  0.8721  0.3087  11.00000  0.05    1.02
Q12   1   0.5075  0.2818 -0.0975  11.00000  0.05    0.98
Q13   1   0.4235  0.2239  0.0853  11.00000  0.05    0.85
Q14   1   0.8870  0.0386 -0.0159  11.00000  0.05    0.84
Q15   1   0.7081  0.1755 -0.1237  11.00000  0.05    0.80
Q16   1   0.5543  0.1147  0.2077  11.00000  0.05    0.78
Q17   1   1.1991  0.9456  0.3192  11.00000  0.05    0.76
Q18   1   0.4939  0.1376  0.1626  11.00000  0.05    0.75
Q19   1   0.5232  0.0988  0.0910  11.00000  0.05    0.74
Q20   1   0.6452  0.2265 -0.2417  11.00000  0.05    0.71
Q21   1   0.4112  0.1786  0.2272  11.00000  0.05    0.70
Q22   1   0.8787  0.3754  0.0376  11.00000  0.05    0.69
Q23   1   0.8723 -0.0304 -0.1251  11.00000  0.05    0.69
Q24   1   0.9553  0.0017 -0.0349  11.00000  0.05    0.68
Q25   1   1.1107  0.7408  0.1061  11.00000  0.05    0.67
Q26   1   0.6046 -0.1413  0.1079  11.00000  0.05    0.67
Q27   1   0.6736  0.3401 -0.0419  11.00000  0.05    0.65
Q28   1   0.2869  0.3457  0.2076  11.00000  0.05    0.65
Q29   1   0.7597 -0.0849 -0.0068  11.00000  0.05    0.62
Q30   1   0.3008  0.3437  0.3564  11.00000  0.05    0.62
;
_shelx_res_checksum              38914
_shelx_hkl_file
;
   0   0   3  425.61    6.54
   0   0   4    9.88    1.78
   0   0   5   24.49    2.14
   0   0   6  257.63    6.40
   0   0   7  115.35    4.44
   0   0   8   26.53    2.85
   0   0   9   15.97    2.66
   0   0  10    5.20    2.42
   0   0  11   38.77    3.97
   0  -1  12   -3.17    2.43
   0  -1  11    1.57    2.54
   0  -1  10    1.97    2.42
   0  -1   9   10.06    2.39
   0  -1   8    6.78    2.26
   0  -1   7    0.13    1.82
   0  -1   6    2.15    1.61
   0  -1   5   29.48    2.90
   0  -1   4    3.24    1.94
   0  -1   3  228.02    6.07
   0  -1   2  363.15    6.99
   0  -1   1  164.23    3.99
   0   1   5  139.92    3.60
   0   1   6  421.26    7.07
   0   1   7  185.36    5.19
   0   1   8  114.36    4.54
   0   1   9   97.70    4.36
   0   1  10   53.58    3.53
   0  -2  14   13.50    3.65
   0  -2  13   17.34    3.66
   0  -2  12   18.17    3.92
   0  -2  11   47.89    4.91
   0  -2  10   20.06    3.33
   0  -2   9   12.20    2.91
   0  -2   8   13.41    3.02
   0  -2   7   73.93    4.78
   0  -2   6   56.46    4.08
   0  -2   5  102.76    5.26
   0  -2   4  125.34    5.59
   0  -2   3    9.03    2.08
   0  -2   2    3.75    1.82
   0  -2   1   21.52    2.51
   0  -2   0   28.07    2.32
   0   2   7  132.43    3.50
   0   2   8  100.69    3.58
   0  -3  15    6.47    3.63
   0  -3  14   10.86    3.62
   0  -3  13   30.57    4.89
   0  -3  12   40.69    5.22
   0  -3  11   55.24    5.47
   0  -3  10   35.61    4.09
   0  -3   9   24.15    3.28
   0  -3   8   40.82    4.31
   0  -3   7   53.32    4.69
   0  -3   6   82.65    5.42
   0  -3   5  392.94   10.39
   0  -3   4  224.16    7.94
   0  -3   3  149.48    6.39
   0  -3   2   91.48    4.62
   0  -3   1   21.22    2.44
   0  -3   0  126.06    4.71
   0  -3  -1  169.42    4.59
   0  -3  -2   29.27    1.95
   0  -4  16   -0.01    2.98
   0  -4  15    3.19    3.71
   0  -4  14   18.89    4.78
   0  -4  13   17.01    4.68
   0  -4  12   37.94    5.56
   0  -4  11   56.80    5.95
   0  -4  10   57.67    5.52
   0  -4   9   32.44    4.50
   0  -4   8   34.70    4.43
   0  -4   7   79.77    5.79
   0  -4   6  103.68    6.14
   0  -4   5   94.00    5.99
   0  -4   4  145.54    7.04
   0  -4   3  215.01    7.77
   0  -4   2  325.18    9.42
   0  -4   1  524.40   10.89
   0  -4   0 1204.43   16.01
   0  -4  -1  407.72    8.27
   0  -4  -2  248.23    5.76
   0  -4  -3  193.34    4.64
   0  -5  17   -4.39    3.36
   0  -5  16   -1.06    3.78
   0  -5  15   -3.80    3.81
   0  -5  14    3.20    4.15
   0  -5  13    3.83    4.49
   0  -5  12   14.89    4.75
   0  -5  11   -1.97    3.26
   0  -5  10    7.37    3.07
   0  -5   9   35.84    4.98
   0  -5   8   29.95    4.09
   0  -5   7   29.78    4.64
   0  -5   6   85.93    6.50
   0  -5   5  128.67    7.31
   0  -5   4  124.86    6.73
   0  -5   3  296.60    9.96
   0  -5   2  373.49   10.65
   0  -5   1  357.07    9.82
   0  -5   0  230.39    7.60
   0  -5  -1  249.72    7.33
   0  -5  -2  387.69    8.25
   0  -5  -3  303.42    6.77
   0  -5  -4  196.11    4.62
   0  -6  16    2.76    3.80
   0  -6  15    0.69    3.75
   0  -6  14   -0.27    3.30
   0  -6  13    3.42    3.93
   0  -6  12   -0.80    4.19
   0  -6  11    0.17    3.60
   0  -6  10   -1.53    3.13
   0  -6   9    0.48    2.93
   0  -6   8   -0.64    3.16
   0  -6   7    1.98    3.44
   0  -6   6   21.92    4.43
   0  -6   5   -1.21    2.65
   0  -6   4    3.42    3.29
   0  -6   3   16.97    3.78
   0  -6   2   24.52    4.04
   0  -6   1  139.49    6.90
   0  -6   0  175.58    7.16
   0  -6  -1  122.37    5.77
   0  -6  -2   54.38    4.02
   0  -6  -3  106.27    4.71
   0  -7  15    9.05    5.19
   0  -7  14   11.25    4.90
   0  -7  12   10.05    5.32
   0  -7  11   17.45    4.68
   0  -7  10    9.51    4.43
   0  -7   9   16.88    5.02
   0  -7   8   20.54    4.97
   0  -7   7    9.65    4.07
   0  -7   6    2.37    2.98
   0  -7   5   20.51    4.31
   0  -7   4    7.42    2.87
   0  -7   3    5.32    2.85
   0  -7   2    4.93    3.06
   0  -7   1    1.34    2.88
   0  -7   0    3.56    3.12
   0  -7  -1   27.51    3.91
   0  -8  14    3.43    4.01
   0  -8  13   16.73    6.34
   0  -8  12   21.10    5.19
   0  -8  11   14.79    5.44
   0  -8  10   20.58    5.91
   0  -8   9   11.03    5.24
   0  -8   8   32.19    6.20
   0  -8   7   41.03    5.95
   0  -8   6  123.49    9.22
   0  -8   5   77.21    7.13
   0  -8   4   40.04    5.34
   0  -8   3   58.63    6.23
   0  -8   2   67.36    6.31
   0  -8   1   54.43    5.76
   0  -8   0   24.58    4.49
   0  -9  12   10.78    4.84
   0  -9  11   25.23    6.79
   0  -9  10   24.94    6.72
   0  -9   9   32.43    6.86
   0  -9   8   31.53    5.93
   0  -9   7   48.15    7.46
   0  -9   6   43.55    6.31
   0  -9   5   55.69    6.84
   0  -9   4   82.62    7.59
   0  -9   3  130.86    9.38
   0  -9   2  104.31    8.02
   0  -9   1  101.50    7.80
   0 -10  11   -0.46    4.72
   0 -10  10   -5.06    3.90
   0 -10   9    2.79    4.94
   0 -10   8    7.29    5.79
   0 -10   7   11.32    4.91
   0 -10   6    8.45    4.83
   0 -10   5   18.74    5.29
   0 -10   4   34.09    5.90
   0 -10   3   53.86    7.05
   0 -10   2   72.43    7.46
   0 -11   9   -6.42    4.74
   0 -11   8   -6.48    4.91
   0 -11   7   -5.49    3.47
   0 -11   6   -2.23    4.11
   0 -11   5   -1.10    3.30
   0 -11   4    4.03    4.70
   0 -12   6   10.68    4.97
   1 -11   5   37.55    7.15
   1 -11   6   16.16    5.24
   1 -11   7   10.08    5.55
   1 -11   8   10.91    5.80
   1 -10   3   56.03    7.01
   1 -10   4   45.70    6.82
   1 -10   5   36.26    6.50
   1 -10   6   46.89    7.15
   1 -10   7   47.25    7.35
   1 -10   8   47.72    7.78
   1 -10   9   25.43    6.23
   1 -10  10   15.30    6.42
   1  -9   2   -2.16    3.46
   1  -9   3    6.00    4.22
   1  -9   4   13.20    4.59
   1  -9   5   18.58    4.66
   1  -9   6   27.54    5.12
   1  -9   7   24.97    5.06
   1  -9   8   11.32    4.62
   1  -9   9   19.34    5.81
   1  -9  10   12.37    5.71
   1  -9  11   15.47    5.25
   1  -9  12   11.86    5.00
   1  -8   0   12.07    3.82
   1  -8   1    8.44    3.50
   1  -8   2    5.51    3.69
   1  -8   3    7.88    3.39
   1  -8   4   17.30    4.46
   1  -8   5   13.57    4.01
   1  -8   6   -1.47    3.56
   1  -8   7   -1.89    2.75
   1  -8   8   -3.19    3.20
   1  -8   9    2.04    3.68
   1  -8  10    3.67    4.53
   1  -8  11    6.13    4.96
   1  -8  12    3.66    5.15
   1  -8  13    2.64    5.28
   1  -7  -1  127.45    6.61
   1  -7   0  130.07    7.12
   1  -7   1  115.15    6.82
   1  -7   2  112.38    6.90
   1  -7   3   63.13    5.60
   1  -7   4  117.55    7.92
   1  -7   5   45.25    5.29
   1  -7   6    9.46    3.90
   1  -7   7   15.28    4.09
   1  -7   8    0.76    4.11
   1  -7   9    1.90    3.59
   1  -7  10    0.63    2.88
   1  -7  11   -2.70    3.06
   1  -7  12   -0.05    3.57
   1  -7  13   -1.28    4.79
   1  -7  14   -0.99    3.97
   1  -7  15   -5.28    4.81
   1  -6  -2   33.17    3.66
   1  -6  -1   92.47    5.33
   1  -6   0  185.87    7.50
   1  -6   1  184.69    7.61
   1  -6   2  245.52    9.45
   1  -6   3  123.44    7.02
   1  -6   4  123.74    7.81
   1  -6   5   43.29    5.15
   1  -6   6  114.63    7.86
   1  -6   7  152.70    9.48
   1  -6   8   52.30    5.70
   1  -6   9   16.55    4.06
   1  -6  10   21.19    4.34
   1  -6  11   18.62    4.22
   1  -6  12   17.26    4.78
   1  -6  13    7.92    4.58
   1  -6  14    2.90    3.98
   1  -6  15    0.53    4.01
   1  -6  16   -2.51    4.59
   1  -5  -2   29.23    2.81
   1  -5  -1  150.19    5.88
   1  -5   0  125.38    5.60
   1  -5   1  248.70    8.32
   1  -5   2  207.62    7.87
   1  -5   3  102.87    6.44
   1  -5   4   32.90    4.04
   1  -5   5  113.81    6.97
   1  -5   6  119.69    7.41
   1  -5   7   83.81    6.95
   1  -5   8  153.20    8.81
   1  -5   9  102.53    7.26
   1  -5  10   46.58    5.58
   1  -5  11   26.61    4.99
   1  -5  12   30.92    4.97
   1  -5  13   36.25    5.67
   1  -5  14   17.48    4.34
   1  -5  15   11.09    4.78
   1  -5  16    7.75    4.85
   1  -5  17    0.14    4.26
   1  -4  -4    0.80    1.22
   1  -4  -3    3.57    1.45
   1  -4  -2   15.37    2.25
   1  -4  -1    2.50    1.88
   1  -4   0    1.02    1.74
   1  -4   1   13.78    2.74
   1  -4   2   73.14    4.80
   1  -4   3    0.12    1.89
   1  -4   4    5.60    2.76
   1  -4   5   12.58    2.80
   1  -4   6   75.73    5.95
   1  -4   7   89.22    6.23
   1  -4   8   55.09    5.54
   1  -4   9   41.73    5.08
   1  -4  10   35.30    4.55
   1  -4  11   53.02    5.75
   1  -4  12   26.12    4.40
   1  -4  13   11.64    4.06
   1  -4  14   11.46    4.20
   1  -4  15    3.82    3.52
   1  -4  16    2.01    3.28
   1  -3  -3  106.36    3.09
   1  -3  -2   51.28    2.54
   1  -3  -1   23.16    2.05
   1  -3   0    1.01    1.64
   1  -3   1   83.20    4.06
   1  -3   2  214.64    6.83
   1  -3   3  213.25    7.28
   1  -3   4  101.59    5.63
   1  -3   5   -0.56    2.29
   1  -3   6   10.26    3.15
   1  -3   7   -0.74    1.98
   1  -3   8    2.10    2.20
   1  -3   9   -2.96    1.78
   1  -3  10    3.98    3.32
   1  -3  11    3.39    2.68
   1  -3  12    9.77    3.55
   1  -3  13   14.23    4.07
   1  -3  14   16.93    3.95
   1  -3  15    6.44    3.43
  -1   2   7   71.30    2.73
   1  -2  -2   72.62    2.46
   1  -2  -1    2.35    1.30
   1  -2   0  131.19    3.82
   1  -2   1  440.30    7.82
   1  -2   2  363.20    7.51
   1  -2   3  215.57    6.28
   1  -2   4   70.65    4.07
   1  -2   5    2.85    2.39
   1  -2   6   31.29    3.63
   1  -2   7   43.77    4.19
   1  -2   8   36.13    4.01
   1  -2   9   34.55    4.18
   1  -2  10   17.52    3.49
   1  -2  11    3.54    2.92
   1  -2  12   -1.03    2.33
   1  -2  13   -0.80    2.71
   1  -2  14   -1.17    2.93
  -1   1   9    6.30    1.96
  -1   1   8   83.79    4.22
  -1   1   7  157.33    5.24
  -1   1   6  192.68    4.64
  -1   1   5  214.03    4.16
  -1   1   4    2.69    0.77
   1  -1  -1  769.55    8.01
   1  -1   0   74.31    2.50
   1  -1   1 1025.87   11.03
   1  -1   2  682.06    9.40
   1  -1   3  134.60    4.50
   1  -1   4  166.33    5.30
   1  -1   5  304.20    7.57
   1  -1   6  161.59    5.98
   1  -1   7   77.76    4.30
   1  -1   8  160.16    6.47
   1  -1   9   76.20    4.78
   1  -1  10   66.14    4.97
   1  -1  11   21.71    3.56
   1  -1  12   26.80    4.07
   1  -1  13   17.98    3.71
  -1   0  10    5.04    2.28
  -1   0   9   43.21    3.60
  -1   0   8    3.61    2.27
  -1   0   7   26.70    2.90
  -1   0   6   48.04    3.02
  -1   0   5  260.27    5.82
  -1   0   4 1047.71   10.91
  -1   0   3  144.06    3.20
   1   0  -2  107.90    2.60
   1   0   1  452.46    5.98
   1   0   2    9.13    1.36
   1   0   3   19.92    1.98
   1   0   4   25.70    2.26
   1   0   5  130.84    4.56
   1   0   6  131.61    4.91
   1   0   7  242.89    6.94
   1   0   8  153.13    5.95
   1   0   9   70.54    4.53
   1   0  10   32.16    3.59
   1   0  11   69.56    4.76
   1   0  12   61.94    5.01
  -1  -1  12   47.07    4.34
  -1  -1  11   38.40    3.94
  -1  -1  10   74.94    5.03
  -1  -1   9   69.17    4.97
  -1  -1   8   53.89    4.74
  -1  -1   7   18.96    3.22
  -1  -1   6    7.64    2.21
  -1  -1   5   17.68    2.11
  -1  -1   4   38.37    2.45
  -1  -1   3  172.78    4.27
  -1  -1   2   85.49    2.79
   1   1  -1    4.64    1.02
   1   1   0   58.56    1.84
   1   1   1    1.20    0.74
   1   1   2  133.75    2.95
   1   1   3    3.70    1.21
   1   1   4    8.55    1.51
   1   1   5   63.23    2.81
   1   1   6   44.06    2.84
   1   1   7   36.71    2.93
   1   1   8   28.88    2.88
   1   1   9   14.25    2.60
   1   1  10    1.79    2.28
  -1  -2  13   28.78    3.95
  -1  -2  12   35.27    4.51
  -1  -2  11  109.83    6.53
  -1  -2  10  136.85    7.18
  -1  -2   9   87.73    6.10
  -1  -2   8   93.34    6.27
  -1  -2   7  106.54    6.25
  -1  -2   6  297.46    8.87
  -1  -2   5  303.04    8.51
  -1  -2   4  216.85    6.22
  -1  -2   3  153.77    5.10
  -1  -2   2  214.40    5.40
  -1  -2   1    1.68    1.25
  -1  -2   0  436.89    6.32
   1   2   1  658.59    7.73
   1   2   2   -0.78    0.93
   1   2   3   -0.08    0.84
   1   2   4   32.25    1.67
   1   2   5   -0.26    1.09
   1   2   6   -0.70    1.45
   1   2   7    0.88    1.48
   1   2   8    0.20    1.45
   1   2   9   -0.80    1.62
  -1  -3  14   -0.84    2.78
  -1  -3  13    1.64    2.60
  -1  -3  12   10.34    3.47
  -1  -3  11   36.16    4.56
  -1  -3  10   32.01    4.49
  -1  -3   9   88.99    6.54
  -1  -3   8  125.33    7.65
  -1  -3   7  192.03    9.10
  -1  -3   6  115.00    6.72
  -1  -3   5  227.47    8.22
  -1  -3   4  433.11   10.86
  -1  -3   3  183.25    6.04
  -1  -3   2  442.14    9.26
  -1  -3   1  354.28    7.39
  -1  -3   0  431.49    7.78
  -1  -3  -1  454.89    7.34
  -1  -3  -2  428.54    6.20
  -1  -3  -3  283.23    4.78
   1   3   4  175.80    3.45
   1   3   7  123.97    3.09
  -1  -4  15   -1.69    3.60
  -1  -4  14   -2.33    3.36
  -1  -4  13    0.50    2.31
  -1  -4  12   -3.80    3.28
  -1  -4  11    2.21    2.76
  -1  -4  10    4.07    3.32
  -1  -4   9    0.04    2.39
  -1  -4   8    7.98    3.66
  -1  -4   7   17.08    3.65
  -1  -4   6   46.60    5.59
  -1  -4   5  256.48   10.41
  -1  -4   4  362.22   11.38
  -1  -4   3  397.61   10.91
  -1  -4   2  348.02    9.78
  -1  -4   1  420.16    9.41
  -1  -4   0  715.44   11.35
  -1  -4  -1  563.92    9.55
  -1  -4  -2  423.01    7.95
  -1  -4  -3  455.69    7.54
  -1  -5  16    6.50    4.27
  -1  -5  15   13.05    4.98
  -1  -5  14    4.68    3.38
  -1  -5  13   11.68    4.02
  -1  -5  12   12.91    3.97
  -1  -5  11    6.54    3.10
  -1  -5  10   10.50    4.00
  -1  -5   9   -0.92    3.46
  -1  -5   8   -2.11    3.36
  -1  -5   7   -6.39    3.30
  -1  -5   6    5.11    3.97
  -1  -5   5    0.48    3.42
  -1  -5   4   20.03    3.83
  -1  -5   3   -2.54    3.05
  -1  -5   2   70.35    5.50
  -1  -5   1   90.19    5.53
  -1  -5   0  141.25    6.24
  -1  -5  -1   88.19    4.81
  -1  -5  -2  121.50    5.21
  -1  -5  -3  183.47    6.13
  -1  -5  -4  145.03    5.26
  -1  -6  16   14.59    5.43
  -1  -6  15   15.91    4.55
  -1  -6  14   16.13    5.09
  -1  -6  13   32.50    5.58
  -1  -6  12   24.96    5.21
  -1  -6  11   27.70    5.52
  -1  -6  10   40.51    5.83
  -1  -6   9   71.07    7.15
  -1  -6   8   35.44    5.49
  -1  -6   7   36.90    5.14
  -1  -6   6   62.98    6.75
  -1  -6   5   24.28    4.36
  -1  -6   4   41.90    5.49
  -1  -6   3   99.16    7.52
  -1  -6   2   70.04    5.98
  -1  -6   1   29.51    4.67
  -1  -6   0    8.10    3.43
  -1  -6  -1    2.20    2.85
  -1  -6  -2   22.06    3.69
  -1  -6  -3   11.93    2.88
  -1  -7  16    5.19    4.02
  -1  -7  15    9.67    4.84
  -1  -7  14   12.69    5.03
  -1  -7  13   18.00    4.89
  -1  -7  12   27.11    5.08
  -1  -7  11   23.43    4.57
  -1  -7  10   22.97    5.47
  -1  -7   9   44.26    5.95
  -1  -7   8   77.76    7.24
  -1  -7   7  113.60    8.22
  -1  -7   6   72.21    7.31
  -1  -7   5   81.57    7.48
  -1  -7   4  142.32    9.22
  -1  -7   3   83.17    6.62
  -1  -7   2  116.68    8.06
  -1  -7   1  135.05    8.17
  -1  -7   0  183.01    8.93
  -1  -7  -1   62.24    5.28
  -1  -7  -2   23.38    3.56
  -1  -8  14   -0.92    5.27
  -1  -8  13    5.35    5.61
  -1  -8  12    1.53    4.17
  -1  -8  11    4.71    3.60
  -1  -8  10   36.87    6.26
  -1  -8   9   47.71    6.42
  -1  -8   8   45.21    6.26
  -1  -8   7   61.10    7.01
  -1  -8   6   82.77    7.70
  -1  -8   5   99.96    7.71
  -1  -8   4   59.09    6.62
  -1  -8   3   55.53    6.10
  -1  -8   2  123.28    8.29
  -1  -8   1  187.85    9.38
  -1  -8   0  203.41    9.37
  -1  -8  -1  171.70    8.33
  -1  -9  13  -13.00    5.16
  -1  -9  12   -0.16    4.56
  -1  -9  11   -6.06    4.78
  -1  -9  10    2.77    3.69
  -1  -9   9    3.11    3.92
  -1  -9   8    2.77    4.31
  -1  -9   7   -2.81    3.94
  -1  -9   6    9.62    3.99
  -1  -9   5   10.81    5.04
  -1  -9   4   21.83    4.69
  -1  -9   3   69.56    6.91
  -1  -9   2   75.01    6.95
  -1  -9   1  125.72    8.43
  -1  -9   0  193.76    9.69
  -1 -10  11    1.69    5.41
  -1 -10  10    1.71    5.81
  -1 -10   9    5.93    5.60
  -1 -10   8    0.69    4.82
  -1 -10   7    5.61    4.15
  -1 -10   6    2.11    4.45
  -1 -10   5    4.43    3.63
  -1 -10   4   -2.22    3.67
  -1 -10   3    3.42    3.75
  -1 -10   2    6.43    3.98
  -1 -11   9   14.59    6.93
  -1 -11   8   16.36    6.43
  -1 -11   7   21.81    5.75
  -1 -11   6   21.12    6.41
  -1 -11   5   21.83    6.45
  -1 -11   4   12.64    5.70
  -1 -11   3    3.90    4.78
  -1 -12   7   35.72    8.11
  -1 -12   6   30.10    6.91
  -1 -12   5   34.72    6.94
   2 -11   5   35.73    7.24
   2 -11   6   22.63    6.25
   2 -10   4    2.59    4.50
   2 -10   5    0.09    4.93
   2 -10   6   -1.50    4.76
   2 -10   7    5.01    5.29
   2 -10   8   10.01    5.33
   2 -10   9   10.25    6.08
   2  -9   2   11.87    4.69
   2  -9   3   18.23    5.20
   2  -9   4   11.74    4.17
   2  -9   5   10.28    4.17
   2  -9   6   -4.99    3.75
   2  -9   7   -3.10    3.96
   2  -9   8   -3.62    4.30
   2  -9   9   -5.68    4.43
   2  -9  10   -2.39    3.93
   2  -9  11   -2.38    5.02
   2  -8   1  132.15    8.45
   2  -8   2  126.00    8.03
   2  -8   3  142.76    8.80
   2  -8   4   82.55    6.95
   2  -8   5   53.89    6.43
   2  -8   6   22.39    5.01
   2  -8   7    9.02    4.85
   2  -8   8   10.31    5.00
   2  -8   9   11.20    4.65
   2  -8  10    9.79    5.18
   2  -8  11    5.90    4.12
   2  -8  12    0.28    4.73
   2  -7   0  178.92    8.78
   2  -7   1  176.42    8.84
   2  -7   2  113.29    7.22
   2  -7   3   65.41    5.95
   2  -7   4   77.59    6.79
   2  -7   5   86.00    7.24
   2  -7   6   61.86    6.90
   2  -7   7   32.86    5.39
   2  -7   8   48.24    6.56
   2  -7   9   56.82    7.19
   2  -7  10   28.89    5.22
   2  -7  11   15.04    4.87
   2  -7  12   18.85    5.51
   2  -7  13    1.68    4.76
   2  -7  14   -2.84    4.06
   2  -6  -2    5.29    2.64
   2  -6  -1    6.70    2.86
   2  -6   0   72.68    5.41
   2  -6   1   79.30    5.74
   2  -6   2   69.14    5.46
   2  -6   3   63.74    5.51
   2  -6   4   59.29    5.91
   2  -6   5    5.75    3.24
   2  -6   6   33.92    5.15
   2  -6   7  131.31    8.55
   2  -6   8   93.14    7.86
   2  -6   9   66.94    6.93
   2  -6  10   49.63    6.55
   2  -6  11   28.07    4.97
   2  -6  12   14.16    4.17
   2  -6  14   19.50    5.34
   2  -6  15    8.15    5.08
   2  -5  -3   29.22    3.16
   2  -5  -2   12.95    2.46
   2  -5  -1   22.22    3.15
   2  -5   0   21.99    3.60
   2  -5   1   -1.74    2.08
   2  -5   2    1.36    2.55
   2  -5   3    0.60    2.88
   2  -5   4   -2.05    1.99
   2  -5   5    3.08    3.15
   2  -5   6   14.35    3.34
   2  -5   7    8.58    3.77
   2  -5   8   18.65    3.92
   2  -5   9   61.67    6.44
   2  -5  10   31.70    4.72
   2  -5  11   15.11    4.36
   2  -5  12   14.21    4.26
   2  -5  13    4.25    3.18
   2  -5  14    3.77    4.07
   2  -5  15    5.99    4.59
   2  -5  16    5.63    5.03
   2  -4  -4  321.04    6.84
   2  -4  -3  444.69    8.52
   2  -4  -2  403.86    8.67
   2  -4  -1  187.67    6.24
   2  -4   0  199.94    6.75
   2  -4   1  113.38    5.73
   2  -4   2  100.76    5.20
   2  -4   3   66.72    4.52
   2  -4   4   79.51    5.51
   2  -4   5   30.63    4.18
   2  -4   6    3.24    2.40
   2  -4   7   -0.04    2.19
   2  -4   8    3.92    2.71
   2  -4   9    3.41    3.70
   2  -4  10    0.11    2.95
   2  -4  11    3.94    2.90
   2  -4  12   -2.58    2.44
   2  -4  13    0.99    3.55
   2  -4  14    1.07    3.44
   2  -4  16   -0.65    3.51
   2  -4  17    3.39    4.00
   2  -3  -5  139.13    3.84
   2  -3  -4  217.35    5.21
   2  -3  -3  302.04    6.38
   2  -3  -2  220.25    5.73
   2  -3  -1  350.39    7.42
   2  -3   0  257.58    6.78
   2  -3   1  125.40    5.09
   2  -3   2  312.46    8.60
   2  -3   3  383.88    9.45
   2  -3   4  232.62    7.91
   2  -3   5  129.81    6.45
   2  -3   6   64.20    4.72
   2  -3   7   53.24    4.96
   2  -3   8   37.45    4.14
   2  -3   9   43.68    4.98
   2  -3  10   21.27    3.68
   2  -3  11   -2.25    2.25
   2  -3  12   10.18    3.48
   2  -3  13    2.57    3.39
   2  -3  14    7.18    3.46
   2  -3  15    1.76    4.13
   2  -3  16   -5.02    3.61
  -2   2   7    1.50    1.03
   2  -2  -5    1.54    1.15
   2  -2  -4  103.11    3.41
   2  -2  -3  231.83    5.32
   2  -2  -2  163.26    4.50
   2  -2  -1   63.02    3.23
   2  -2   0   35.55    2.57
   2  -2   1  155.37    5.07
   2  -2   2  205.41    6.33
   2  -2   3  222.31    7.01
   2  -2   4  325.30    8.47
   2  -2   5   73.63    4.30
   2  -2   6  119.72    5.63
   2  -2   7  196.65    7.71
   2  -2   8  124.67    6.56
   2  -2   9  110.81    6.22
   2  -2  10   54.93    4.91
   2  -2  11   32.34    4.26
   2  -2  12   29.14    4.03
   2  -2  13   21.68    4.48
   2  -2  14    4.83    3.61
   2  -2  15    5.22    3.89
  -2   1   8   61.71    3.30
  -2   1   7   83.67    3.34
  -2   1   6    1.59    1.11
   2  -1  -5   16.07    1.75
   2  -1  -4    2.24    1.16
   2  -1  -3   21.12    1.76
   2  -1  -2   42.95    2.47
   2  -1  -1    6.62    1.58
   2  -1   0   25.23    2.10
   2  -1   1  103.63    3.95
   2  -1   2   71.35    3.69
   2  -1   3   52.24    3.34
   2  -1   4  160.14    5.80
   2  -1   5  119.18    5.46
   2  -1   6  184.42    6.81
   2  -1   7  103.16    5.41
   2  -1   8   78.15    4.92
   2  -1   9  128.64    6.55
   2  -1  10   75.33    5.34
   2  -1  11   44.56    4.81
   2  -1  12   27.48    4.21
   2  -1  13   24.79    4.24
  -2   0  10   49.32    4.65
  -2   0   9   36.06    3.66
  -2   0   8    7.76    2.09
  -2   0   7   28.84    2.53
  -2   0   6   -0.92    0.98
  -2   0   5   23.50    2.04
   2   0  -4  228.20    5.31
   2   0  -3  198.40    4.65
   2   0  -2  563.22    7.86
   2   0  -1  225.59    4.92
   2   0   0   36.99    2.47
   2   0   1    5.40    1.70
   2   0   2   57.06    3.13
   2   0   3    5.39    1.81
   2   0   4   35.40    2.86
   2   0   5    0.73    1.82
   2   0   6   53.73    3.76
   2   0   7   38.23    3.37
   2   0   8   40.06    3.90
   2   0   9    7.22    2.79
   2   0  10   -2.28    2.58
   2   0  11    0.69    2.78
   2   0  12   21.27    3.78
  -2  -1  11   17.50    3.61
  -2  -1  10   27.05    4.07
  -2  -1   9   64.20    4.69
  -2  -1   8  123.33    5.21
  -2  -1   7  389.09    9.01
  -2  -1   6  289.76    7.17
  -2  -1   5  217.39    5.64
  -2  -1   4  268.11    6.15
   2   1  -3   95.32    3.66
   2   1  -2   37.23    2.34
   2   1  -1  828.83   10.24
   2   1   0  228.22    4.71
   2   1   1   27.70    2.15
   2   1   2  286.61    5.61
   2   1   3  166.52    4.46
   2   1   4  251.48    5.98
   2   1   5  107.21    4.31
   2   1   6  105.54    4.34
   2   1   7   28.00    2.70
   2   1   8    5.48    2.03
   2   1   9   -2.22    1.84
   2   1  10    2.00    2.20
   2   1  11    3.41    2.72
  -2  -2  12    0.70    3.01
  -2  -2  11    0.32    3.07
  -2  -2  10   50.27    5.49
  -2  -2   9   65.15    5.02
  -2  -2   8   42.36    3.73
  -2  -2   7   63.78    4.36
  -2  -2   6  183.43    6.36
  -2  -2   5  183.29    5.93
  -2  -2   4  244.72    6.40
  -2  -2   3  262.44    6.29
   2   2  -2  155.79    5.02
   2   2  -1   43.88    2.75
   2   2   0    8.71    1.54
   2   2   1 1310.09   13.38
   2   2   2  481.01    7.17
   2   2   3  261.18    5.46
   2   2   4  277.60    5.88
   2   2   5  237.83    5.66
   2   2   6  214.90    5.50
   2   2   7  142.89    5.02
   2   2   8   85.82    4.39
   2   2   9   39.88    3.45
  -2  -3  14    1.99    3.14
  -2  -3  13   -2.26    2.89
  -2  -3  12   -3.51    2.99
  -2  -3  11   -3.82    3.08
  -2  -3  10   -0.81    3.07
  -2  -3   9   -0.38    2.19
  -2  -3   8   -0.34    2.57
  -2  -3   7    1.25    2.11
  -2  -3   6   23.91    2.92
  -2  -3   5   21.39    2.88
  -2  -3   4   67.37    4.03
  -2  -3   3   73.63    3.99
  -2  -3   2  161.63    5.12
  -2  -3   1   73.32    3.61
   2   3   0  274.41    6.44
   2   3   1  346.08    6.76
   2   3   2  140.16    4.26
   2   3   3  504.86    7.89
   2   3   4  771.74    9.91
   2   3   5  405.16    6.95
   2   3   6  158.72    4.53
   2   3   7  311.65    6.63
   2   3   8  134.23    4.69
  -2  -4  15    5.93    3.64
  -2  -4  14   18.20    4.18
  -2  -4  13   22.06    4.65
  -2  -4  12   37.84    5.58
  -2  -4  11   27.16    5.25
  -2  -4  10   20.78    4.88
  -2  -4   9   10.10    4.09
  -2  -4   8   -0.18    2.18
  -2  -4   7   -2.62    2.26
  -2  -4   6   26.03    3.59
  -2  -4   5    9.87    2.39
  -2  -4   4    6.64    2.57
  -2  -4   3    4.43    2.14
  -2  -4   2    2.37    1.71
  -2  -4   1   42.15    3.29
  -2  -4   0   54.60    3.13
  -2  -4  -1   41.79    2.80
  -2  -4  -2  112.37    4.34
   2   4   3   69.09    3.33
   2   4   4   76.80    3.34
   2   4   5   67.20    3.11
   2   4   6   38.13    2.45
   2   4   7   39.97    2.43
  -2  -5  16    3.41    3.58
  -2  -5  15   15.18    4.49
  -2  -5  14   18.19    4.94
  -2  -5  13   12.76    4.38
  -2  -5  12   27.25    5.01
  -2  -5  11   33.73    5.38
  -2  -5  10   34.56    6.07
  -2  -5   9   47.81    6.56
  -2  -5   8  128.66    9.04
  -2  -5   7  193.88    9.86
  -2  -5   6  125.98    7.94
  -2  -5   5   97.10    6.41
  -2  -5   4  154.24    6.93
  -2  -5   3   84.94    5.55
  -2  -5   2   65.29    4.66
  -2  -5   1  113.09    5.51
  -2  -5   0   38.66    3.22
  -2  -5  -1  176.78    5.92
  -2  -5  -2  197.95    6.17
  -2  -5  -3   14.03    1.87
  -2  -5  -5   15.80    1.88
  -2  -6  16    0.58    4.46
  -2  -6  15    4.48    3.31
  -2  -6  14   11.01    4.90
  -2  -6  13   15.15    4.13
  -2  -6  12    9.57    4.66
  -2  -6  11   10.65    4.06
  -2  -6  10   45.17    6.91
  -2  -6   9   69.08    8.05
  -2  -6   8   92.54    8.36
  -2  -6   7  150.61   10.20
  -2  -6   6  190.25   10.55
  -2  -6   5  221.83   10.48
  -2  -6   4  195.22    9.69
  -2  -6   3  143.56    7.74
  -2  -6   2  238.08    8.84
  -2  -6   1  228.98    8.34
  -2  -6   0  201.69    7.86
  -2  -6  -1  588.57   12.89
  -2  -6  -2  238.38    7.78
  -2  -6  -3   38.90    3.19
  -2  -6  -4   29.29    2.90
  -2  -7  16    0.82    5.26
  -2  -7  15    0.23    4.25
  -2  -7  14   -1.33    3.71
  -2  -7  13   -2.80    4.37
  -2  -7  12   -2.40    4.09
  -2  -7  11   -2.60    3.65
  -2  -7  10    0.76    3.48
  -2  -7   9    6.16    3.84
  -2  -7   8   46.62    6.44
  -2  -7   7   68.70    7.85
  -2  -7   6   51.52    7.37
  -2  -7   5   44.35    6.66
  -2  -7   4   64.84    6.80
  -2  -7   3  115.72    7.99
  -2  -7   2  244.44   10.64
  -2  -7   1  379.26   12.68
  -2  -7   0  496.43   14.15
  -2  -7  -1  268.68    9.88
  -2  -7  -2  128.72    6.73
  -2  -7  -3  211.50    8.16
  -2  -8  15   -0.89    4.73
  -2  -8  14   -1.33    4.59
  -2  -8  13   -2.35    4.94
  -2  -8  12   -0.62    4.91
  -2  -8  11   -2.94    4.31
  -2  -8  10   -8.57    4.07
  -2  -8   9   -3.61    3.18
  -2  -8   8   -3.05    4.08
  -2  -8   7    9.59    5.43
  -2  -8   6    0.07    4.02
  -2  -8   5    8.15    4.11
  -2  -8   4    0.71    4.68
  -2  -8   3   -6.48    4.34
  -2  -8   2   54.32    6.89
  -2  -8   1  173.09   10.44
  -2  -8   0  333.18   13.49
  -2  -8  -1  419.52   14.57
  -2  -9  13   17.11    5.76
  -2  -9  12   17.89    5.75
  -2  -9  11   14.74    5.12
  -2  -9  10    5.90    5.09
  -2  -9   9    5.67    3.98
  -2  -9   8    6.30    5.24
  -2  -9   7   15.56    5.12
  -2  -9   6   10.48    4.46
  -2  -9   5    4.74    3.65
  -2  -9   4    9.46    4.11
  -2  -9   3   -2.53    4.25
  -2  -9   2    0.69    3.82
  -2  -9   1    0.28    4.03
  -2  -9   0    0.97    3.80
  -2 -10  12    9.52    5.17
  -2 -10  11   20.17    6.07
  -2 -10  10   21.58    6.59
  -2 -10   9   30.66    6.34
  -2 -10   8   33.10    6.62
  -2 -10   7   36.25    6.82
  -2 -10   6   37.45    6.81
  -2 -10   5   42.58    6.28
  -2 -10   4   56.96    7.49
  -2 -10   3   27.13    5.51
  -2 -10   2   46.45    6.56
  -2 -10   1   54.73    6.39
  -2 -11  10    7.65    5.23
  -2 -11   9    7.26    4.26
  -2 -11   8   13.01    4.77
  -2 -11   7   12.74    5.39
  -2 -11   6   25.71    6.68
  -2 -11   5   31.95    6.32
  -2 -11   4   60.32    7.88
  -2 -11   3   81.36    8.35
  -2 -12   8    0.98    6.02
  -2 -12   7    6.13    5.15
  -2 -12   6   12.72    5.94
  -2 -12   5   14.43    5.04
  -2 -12   4   12.55    5.03
   3 -10   5    9.51    5.74
   3 -10   6    6.22    5.75
   3 -10   7   -1.24    4.81
   3  -9   3   94.27    8.36
   3  -9   4   67.34    7.54
   3  -9   6   38.57    6.58
   3  -9   7   16.41    6.46
   3  -9   8    4.89    4.59
   3  -9   9   12.83    5.25
   3  -8   2   54.64    6.21
   3  -8   3   65.86    6.88
   3  -8   4   85.77    8.09
   3  -8   5   80.21    8.09
   3  -8   6   28.09    5.89
   3  -8   7   25.15    5.05
   3  -8   8   34.39    6.55
   3  -8   9   40.86    7.08
   3  -8  10   30.98    6.04
   3  -8  11   12.94    5.69
   3  -7   0    3.33    3.08
   3  -7   1    5.42    3.80
   3  -7   2   11.70    3.96
   3  -7   3    2.14    3.46
   3  -7   4   10.43    4.71
   3  -7   5   19.56    4.53
   3  -7   6   21.49    5.31
   3  -7   7   14.92    4.24
   3  -7   8   24.29    5.67
   3  -7   9   31.61    6.17
   3  -7  10   24.49    5.42
   3  -7  11   21.20    6.15
   3  -7  12   28.42    5.74
   3  -7  13   19.82    6.01
   3  -6  -1  105.83    6.68
   3  -6   0   74.65    5.47
   3  -6   1   45.98    5.13
   3  -6   2    8.47    3.70
   3  -6   3   -0.48    3.82
   3  -6   4   -0.44    3.33
   3  -6   5   -1.26    3.51
   3  -6   6    3.12    3.52
   3  -6   7    0.69    3.83
   3  -6   8    8.74    3.91
   3  -6   9   13.01    4.16
   3  -6  10    8.94    4.85
   3  -6  11    7.58    3.98
   3  -6  12    2.65    4.84
   3  -6  13   -0.48    4.73
   3  -6  14    3.35    4.57
   3  -5  -2  199.62    7.59
   3  -5  -1  286.53    9.36
   3  -5   0  216.31    7.93
   3  -5   1  145.70    7.12
   3  -5   2   61.05    4.98
   3  -5   3  100.40    6.80
   3  -5   4   43.89    4.78
   3  -5   5   85.13    6.99
   3  -5   6   68.47    6.59
   3  -5   7   14.82    4.02
   3  -5   8    4.38    3.22
   3  -5   9    3.75    3.26
   3  -5  10   13.41    4.70
   3  -5  11    4.82    3.84
   3  -5  12   -3.16    4.47
   3  -5  13   -4.26    4.09
   3  -5  14   -0.24    3.95
   3  -5  15    2.81    4.35
   3  -4  -4   96.05    4.76
   3  -4  -3  143.99    5.74
   3  -4  -2  231.13    7.40
   3  -4  -1  171.00    6.74
   3  -4   0  108.19    5.49
   3  -4   1  188.57    7.29
   3  -4   2  158.42    7.18
   3  -4   3  132.60    6.88
   3  -4   4  193.72    8.60
   3  -4   5  252.07    9.97
   3  -4   6  117.19    7.52
   3  -4   7  192.23    9.68
   3  -4   8  204.67   10.31
   3  -4   9   95.97    7.74
   3  -4  10   19.90    4.46
   3  -4  11    8.24    4.29
   3  -4  12    6.23    3.24
   3  -4  13   -1.56    2.44
   3  -4  14    2.25    2.73
   3  -4  15   -0.66    3.65
   3  -4  16   -0.55    3.54
   3  -3  -5    0.62    1.71
   3  -3  -4   30.24    2.82
   3  -3  -3   19.34    2.66
   3  -3  -2   33.42    3.12
   3  -3  -1   48.53    3.66
   3  -3   0   70.52    4.41
   3  -3   1   23.71    2.81
   3  -3   2   76.97    4.53
   3  -3   3  111.31    5.73
   3  -3   4  166.41    7.31
   3  -3   5   88.63    5.60
   3  -3   6   63.41    5.44
   3  -3   7   52.41    4.88
   3  -3   8   35.62    4.91
   3  -3   9   72.64    6.46
   3  -3  10  101.77    7.02
   3  -3  11  122.06    8.28
   3  -3  12   44.68    5.55
   3  -3  13   17.23    3.99
   3  -3  14   19.15    4.53
   3  -3  15   10.37    4.09
   3  -3  16   10.15    3.72
   3  -2  -6   45.75    3.01
   3  -2  -5   47.50    3.07
   3  -2  -4   20.32    2.27
   3  -2  -3   13.58    2.16
   3  -2  -2   17.12    2.34
   3  -2  -1    1.85    1.75
   3  -2   0    8.05    2.26
   3  -2   1    4.70    1.91
   3  -2   2   25.40    2.77
   3  -2   3   33.16    3.44
   3  -2   4   31.45    3.39
   3  -2   5   21.44    3.15
   3  -2   6    9.48    3.17
   3  -2   7   32.90    4.30
   3  -2   8   51.33    4.62
   3  -2   9   61.60    5.42
   3  -2  10   48.38    4.83
   3  -2  11   37.13    5.00
   3  -2  12   36.30    4.90
   3  -2  13   39.69    5.03
   3  -2  14   29.95    4.78
   3  -2  15   32.17    5.07
  -3   1   8   43.78    2.87
  -3   1   7   14.96    2.00
   3  -1  -6   70.07    3.65
   3  -1  -5   86.49    3.81
   3  -1  -4  112.13    4.23
   3  -1  -3  216.44    5.69
   3  -1  -2   92.97    4.05
   3  -1  -1   50.98    3.04
   3  -1   0  119.13    4.65
   3  -1   1    5.22    2.11
   3  -1   2   18.53    2.70
   3  -1   3  108.30    5.00
   3  -1   4   32.70    3.21
   3  -1   5   15.68    2.44
   3  -1   6    7.40    2.73
   3  -1   7   -0.25    1.93
   3  -1   8   -1.35    2.66
   3  -1   9    1.83    2.42
   3  -1  10    4.01    2.92
   3  -1  11    3.06    3.03
   3  -1  12   10.53    3.57
   3  -1  13   22.12    4.12
   3  -1  14    3.43    3.38
  -3   0   9   22.23    2.79
  -3   0   8   86.09    4.46
  -3   0   7  154.74    5.31
   3   0  -6  379.06    8.48
   3   0  -5  184.21    5.58
   3   0  -4  187.89    5.49
   3   0  -3  377.59    7.61
   3   0  -2  494.08    8.45
   3   0  -1  308.66    6.94
   3   0   0  155.92    5.02
   3   0   1  164.00    5.21
   3   0   2   97.93    4.05
   3   0   3   92.94    4.52
   3   0   4  222.28    6.78
   3   0   5  326.15    8.70
   3   0   6  172.39    6.47
   3   0   7  177.41    6.71
   3   0   8   93.95    5.32
   3   0   9   30.08    3.67
   3   0  10   12.55    3.10
   3   0  11    0.82    2.43
   3   0  12    3.70    2.81
   3   0  13    1.14    2.78
  -3  -1  11   15.57    3.59
  -3  -1  10    1.86    1.96
  -3  -1   9    2.65    1.95
  -3  -1   8   17.66    2.54
  -3  -1   7   36.23    2.97
  -3  -1   6   45.26    3.22
   3   1  -5  150.69    5.38
   3   1  -4  194.35    5.87
   3   1  -3   30.85    2.53
   3   1  -2   38.31    2.83
   3   1  -1  408.49    8.05
   3   1   0  761.19   11.05
   3   1   1   87.67    4.03
   3   1   2  270.43    6.61
   3   1   3  298.97    7.13
   3   1   4  218.72    6.16
   3   1   5  225.96    6.80
   3   1   6  141.37    5.58
   3   1   7  156.25    6.35
   3   1   8   65.22    4.62
   3   1   9   69.70    4.91
   3   1  10   62.15    4.95
   3   1  11   67.82    5.45
  -3  -2  12   -1.83    3.08
  -3  -2  11   12.06    3.44
  -3  -2  10    1.77    2.25
  -3  -2   9   -1.01    2.19
  -3  -2   8   -0.07    1.81
  -3  -2   7   -1.33    1.50
  -3  -2   6   -0.54    1.29
  -3  -2   5    2.20    1.86
   3   2  -4   12.99    2.55
   3   2  -3   10.80    1.83
   3   2  -2    9.24    2.01
   3   2  -1  120.18    4.48
   3   2   0   37.81    2.92
   3   2   1   56.64    3.11
   3   2   2  543.97    9.34
   3   2   3   85.03    4.01
   3   2   4   11.71    2.07
   3   2   5   61.46    3.66
   3   2   6  197.47    6.37
   3   2   7  124.09    5.12
   3   2   8  217.62    6.99
   3   2   9  152.72    6.32
   3   2  10   55.76    4.50
  -3  -3  13   12.00    4.34
  -3  -3  12   39.71    5.79
  -3  -3  11   58.36    5.81
  -3  -3  10   12.53    3.39
  -3  -3   9   25.10    3.50
  -3  -3   8   21.43    3.35
  -3  -3   7   45.90    4.00
  -3  -3   6   50.06    3.78
  -3  -3   5   51.48    3.73
  -3  -3   4   58.99    3.80
  -3  -3   3    8.19    1.97
   3   3  -2    1.71    1.43
   3   3  -1    3.55    1.50
   3   3   0    4.29    1.59
   3   3   1  193.87    5.76
   3   3   2    5.97    1.71
   3   3   3   -0.19    1.43
   3   3   4    0.85    1.47
   3   3   5   -0.28    1.58
   3   3   6   37.36    3.17
   3   3   7   46.47    3.29
   3   3   8   40.97    3.46
   3   3   9   57.80    3.91
  -3  -4  14   10.60    3.92
  -3  -4  13   24.54    5.36
  -3  -4  12   34.54    5.66
  -3  -4  11   13.03    4.23
  -3  -4  10   26.56    4.34
  -3  -4   9   46.70    4.71
  -3  -4   8   41.21    4.45
  -3  -4   7   85.84    5.88
  -3  -4   6  214.06    8.54
  -3  -4   5  214.93    7.77
  -3  -4   4  123.29    5.91
  -3  -4   3   88.09    4.64
  -3  -4   2    2.21    1.49
  -3  -4   1   10.49    2.05
   3   4   0  102.97    4.78
   3   4   1  285.65    7.34
   3   4   2  730.55   11.89
   3   4   3  463.63    8.98
   3   4   4  122.18    4.67
   3   4   5    9.89    1.86
   3   4   6   15.27    2.26
   3   4   7    5.10    1.87
  -3  -5  15    1.67    4.09
  -3  -5  14    0.22    3.53
  -3  -5  13    3.98    3.48
  -3  -5  12   18.80    5.39
  -3  -5  11   31.10    6.29
  -3  -5  10   30.21    5.38
  -3  -5   9   39.13    5.50
  -3  -5   8   49.74    5.00
  -3  -5   7   95.75    6.59
  -3  -5   6  267.59   10.51
  -3  -5   5  169.38    7.54
  -3  -5   4  218.57    8.55
  -3  -5   3  269.44    9.11
  -3  -5   2  120.76    5.87
  -3  -5   1  261.68    7.93
  -3  -5   0  388.65    9.50
  -3  -5  -1  238.77    7.47
   3   5   2  269.69    7.91
   3   5   3  300.10    7.70
   3   5   4  184.92    5.93
   3   5   5  181.60    5.69
   3   5   6   75.10    3.98
  -3  -6  16   -3.49    4.60
  -3  -6  14    0.31    4.26
  -3  -6  13   -3.02    4.28
  -3  -6  12   -2.08    4.10
  -3  -6  11   -1.51    3.66
  -3  -6  10   -2.82    3.99
  -3  -6   9   16.85    4.93
  -3  -6   8   13.88    4.67
  -3  -6   7   30.33    4.67
  -3  -6   6   36.23    4.34
  -3  -6   5   15.93    3.83
  -3  -6   4   57.93    5.31
  -3  -6   3  154.56    7.61
  -3  -6   2  118.68    6.42
  -3  -6   1   98.46    5.50
  -3  -6   0  126.31    6.27
  -3  -6  -1  192.14    6.91
  -3  -6  -2  288.27    8.11
  -3  -6  -3  145.73    5.65
  -3  -6  -4   85.59    4.27
  -3  -7  16    7.20    5.45
  -3  -7  15    2.38    4.49
  -3  -7  14    7.50    4.48
  -3  -7  13    2.71    5.08
  -3  -7  12    2.72    3.94
  -3  -7  11    5.60    5.48
  -3  -7  10    4.90    4.41
  -3  -7   9   12.78    5.70
  -3  -7   8    0.40    3.81
  -3  -7   7   -1.28    3.06
  -3  -7   6    0.99    4.03
  -3  -7   5    1.24    3.17
  -3  -7   4   -0.42    2.25
  -3  -7   3   -0.64    2.05
  -3  -7   2    5.11    2.66
  -3  -7   1   54.62    4.86
  -3  -7   0  165.72    7.48
  -3  -7  -1  167.54    7.45
  -3  -7  -2   21.49    3.18
  -3  -7  -3   38.48    3.53
  -3  -8  15    1.51    5.77
  -3  -8  14    5.32    4.21
  -3  -8  13   16.91    6.19
  -3  -8  12   28.34    7.04
  -3  -8  11   15.21    5.73
  -3  -8  10   28.15    6.26
  -3  -8   9   28.78    6.11
  -3  -8   8   45.31    7.06
  -3  -8   7   55.03    7.62
  -3  -8   6   30.43    5.76
  -3  -8   5    8.25    3.85
  -3  -8   4   -4.82    3.92
  -3  -8   3   -1.63    3.42
  -3  -8   2    2.92    3.27
  -3  -8   1   -0.02    2.33
  -3  -8   0    2.15    2.74
  -3  -8  -1    3.12    2.97
  -3  -8  -2   14.72    3.16
  -3  -9  13   10.72    5.15
  -3  -9  12    9.75    5.02
  -3  -9  11   16.64    5.37
  -3  -9  10   10.61    4.85
  -3  -9   9   18.90    6.17
  -3  -9   8   49.88    8.45
  -3  -9   7   66.77    8.99
  -3  -9   6   72.87    8.99
  -3  -9   5   68.11    8.75
  -3  -9   4   83.33    9.04
  -3  -9   3  139.90   10.15
  -3  -9   2  163.41   10.15
  -3  -9   1  128.47    8.96
  -3  -9   0   75.02    7.03
  -3  -9  -1   60.95    6.25
  -3 -10  12    8.11    5.78
  -3 -10  11   11.19    5.39
  -3 -10  10    8.47    5.33
  -3 -10   9   21.30    6.94
  -3 -10   8   25.42    5.92
  -3 -10   7   55.15    8.79
  -3 -10   6   43.43    8.40
  -3 -10   5   65.19    8.78
  -3 -10   4  160.61   12.41
  -3 -10   3  118.60   10.97
  -3 -10   2   76.56    8.89
  -3 -10   1   92.45    9.24
  -3 -11  10   -6.36    5.27
  -3 -11   9    0.61    4.20
  -3 -11   8   -0.10    5.65
  -3 -11   7    4.04    5.89
  -3 -11   6   11.17    6.42
  -3 -11   5   27.05    7.18
  -3 -11   4   35.81    6.88
  -3 -11   3   35.11    7.14
  -3 -11   2   40.22    6.85
  -3 -12   8    3.46    6.25
  -3 -12   7    7.46    5.95
  -3 -12   6   -0.64    5.41
  -3 -12   5   -7.54    4.20
  -3 -12   4    0.37    5.36
  -3 -13   5   16.64    6.59
   4  -9   4   24.72    5.52
   4  -9   5   19.42    5.05
   4  -9   6   30.52    6.28
   4  -9   7   26.70    6.06
   4  -9   8   14.03    6.22
   4  -8   2    1.17    3.51
   4  -8   3   -1.46    3.60
   4  -8   4    3.97    3.18
   4  -8   5    7.20    4.74
   4  -8   6    3.19    4.82
   4  -8   7    0.23    3.66
   4  -8   8    1.28    5.30
   4  -8   9   -4.90    4.98
   4  -8  10    0.78    4.82
   4  -7   1   62.33    6.21
   4  -7   2   19.24    4.38
   4  -7   3   11.77    3.51
   4  -7   4    6.60    3.96
   4  -7   5    3.60    3.34
   4  -7   6    4.27    3.81
   4  -7   7   -0.41    3.81
   4  -7   8   -7.56    3.92
   4  -7   9   -0.12    4.85
   4  -7  10   -0.20    4.93
   4  -7  11    0.62    4.99
   4  -7  12   -1.74    3.81
   4  -6  -1  133.80    7.61
   4  -6   0  153.11    8.30
   4  -6   1   77.46    6.28
   4  -6   2   64.82    5.87
   4  -6   3   40.98    4.86
   4  -6   4   40.35    4.89
   4  -6   5   42.08    5.94
   4  -6   6   23.60    5.14
   4  -6   7   19.18    4.64
   4  -6   8   13.76    4.87
   4  -6   9    3.54    3.42
   4  -6  10    4.55    3.55
   4  -6  11    7.98    4.96
   4  -6  12    7.06    4.29
   4  -6  13    3.13    4.64
   4  -5  -2   48.50    4.54
   4  -5  -1  126.53    6.95
   4  -5   0  184.23    8.42
   4  -5   1  127.82    7.17
   4  -5   2  115.63    6.79
   4  -5   3  104.37    6.81
   4  -5   4   58.34    5.75
   4  -5   5   45.25    5.08
   4  -5   6  174.44    9.52
   4  -5   7   93.16    7.30
   4  -5   8   51.71    6.26
   4  -5   9   22.38    4.61
   4  -5  10   18.72    4.55
   4  -5  11   21.37    5.14
   4  -5  12   10.53    3.86
   4  -5  13   21.31    5.54
   4  -5  14   17.12    5.22
   4  -4  -3    1.83    2.53
   4  -4  -2    0.30    2.40
   4  -4  -1   -0.55    2.52
   4  -4   0   12.94    3.22
   4  -4   1   53.26    4.98
   4  -4   2  120.45    7.03
   4  -4   3  164.98    7.72
   4  -4   4  187.05    8.44
   4  -4   5  155.48    7.92
   4  -4   6   40.92    5.33
   4  -4   7   11.64    3.93
   4  -4   8   13.79    3.63
   4  -4   9   17.81    3.96
   4  -4  10   14.37    3.78
   4  -4  11   14.18    3.74
   4  -4  12   26.53    5.11
   4  -4  13   20.51    4.77
   4  -4  14    5.81    3.20
   4  -4  15    9.19    3.70
   4  -3  -4   47.89    3.96
   4  -3  -3   56.09    4.33
   4  -3  -2   55.09    4.22
   4  -3  -1   41.64    3.65
   4  -3   0   18.25    3.26
   4  -3   1    6.94    2.72
   4  -3   2    1.28    2.17
   4  -3   3    0.85    2.24
   4  -3   4   -1.65    2.52
   4  -3   5   11.52    3.20
   4  -3   6    4.54    2.84
   4  -3   7   27.28    4.52
   4  -3   8   23.64    4.66
   4  -3   9   17.23    4.18
   4  -3  10   15.94    3.91
   4  -3  11   17.87    4.52
   4  -3  12    6.37    3.24
   4  -3  13    8.58    4.20
   4  -3  14   12.32    4.16
   4  -3  15   11.81    4.20
   4  -3  16    7.75    4.06
   4  -2  -6  101.28    4.95
   4  -2  -5  158.18    6.05
   4  -2  -4  174.97    6.27
   4  -2  -3  181.84    6.53
   4  -2  -2  176.33    6.51
   4  -2  -1  155.41    6.20
   4  -2   0   81.68    4.77
   4  -2   1  215.77    7.49
   4  -2   2  121.28    5.85
   4  -2   3   51.68    4.61
   4  -2   4   19.17    3.40
   4  -2   5    7.06    2.90
   4  -2   6    3.04    2.17
   4  -2   7    2.36    2.70
   4  -2   8    2.85    2.23
   4  -2   9   -1.15    2.95
   4  -2  10    0.76    3.08
   4  -2  11   -0.80    3.15
   4  -2  12    1.49    2.65
   4  -2  13   -0.77    3.03
   4  -2  14    0.16    3.19
   4  -2  15    4.40    3.53
   4  -1  -7   34.93    3.24
   4  -1  -6   30.48    3.15
   4  -1  -5   95.92    4.83
   4  -1  -4  168.25    6.04
   4  -1  -3  171.95    6.05
   4  -1  -2  192.46    6.54
   4  -1  -1  194.28    6.40
   4  -1   0  481.07   10.32
   4  -1   1  436.76   10.03
   4  -1   2  296.84    8.40
   4  -1   3  315.62    9.06
   4  -1   4  233.12    8.17
   4  -1   5  137.98    6.72
   4  -1   6  110.53    6.28
   4  -1   7   52.63    4.77
   4  -1   8   40.46    4.38
   4  -1   9   28.16    4.04
   4  -1  10   28.73    4.16
   4  -1  11   22.73    4.00
   4  -1  12   12.97    3.51
   4  -1  13   -1.98    2.96
   4  -1  14   -0.12    3.09
  -4   0   9    1.48    1.82
  -4   0   8    4.75    1.95
   4   0  -7   13.28    2.42
   4   0  -6   59.81    4.02
   4   0  -5    9.16    2.26
   4   0  -4   -4.09    1.57
   4   0  -3   47.04    3.59
   4   0  -2   61.30    3.57
   4   0  -1   82.01    4.21
   4   0   0  195.31    6.49
   4   0   1  396.77    9.26
   4   0   2  518.64   10.73
   4   0   3  605.05   11.70
   4   0   4  495.11   11.10
   4   0   5  381.59   10.11
   4   0   6   84.27    5.06
   4   0   7   57.04    4.83
   4   0   8   96.05    5.91
   4   0   9   79.72    5.76
   4   0  10   76.08    6.00
   4   0  11   48.26    5.16
   4   0  12   22.66    4.11
   4   0  13   19.40    4.31
  -4  -1  10   27.54    3.57
  -4  -1   9   38.99    3.81
  -4  -1   8   16.00    2.55
  -4  -1   7   12.22    2.49
   4   1  -6    9.34    2.25
   4   1  -5   12.77    2.32
   4   1  -3   96.14    4.76
   4   1  -2   45.19    3.47
   4   1  -1    4.48    1.93
   4   1   0  140.10    5.44
   4   1   1  260.63    7.58
   4   1   2  111.89    5.09
   4   1   3   33.77    3.25
   4   1   4   12.37    2.24
   4   1   5   39.15    3.66
   4   1   6   43.95    3.93
   4   1   7  183.44    7.24
   4   1   8  130.24    6.63
   4   1   9   46.97    4.78
   4   1  10   58.15    5.39
   4   1  11   51.36    5.28
   4   1  12   26.82    4.50
  -4  -2  11   30.85    4.39
  -4  -2  10   67.87    5.27
  -4  -2   9   55.12    4.46
  -4  -2   8   96.94    5.51
  -4  -2   7   62.59    4.27
  -4  -2   6   93.70    5.51
   4   2  -5  122.68    5.76
   4   2  -4  157.72    6.16
   4   2  -3  250.30    7.71
   4   2  -2  127.26    5.25
   4   2  -1  110.31    4.87
   4   2   0   28.67    2.76
   4   2   1   34.66    3.04
   4   2   2    2.65    1.53
   4   2   3    1.66    2.06
   4   2   4   -2.46    1.78
   4   2   5   -2.90    1.79
   4   2   6   -0.67    1.73
   4   2   7   17.26    2.95
   4   2   8   49.84    4.20
   4   2   9   67.11    4.85
   4   2  10   22.61    3.36
   4   2  11   17.96    3.31
  -4  -3  12   10.82    3.76
  -4  -3  11   45.60    4.91
  -4  -3  10   50.97    5.14
  -4  -3   9   27.46    3.88
  -4  -3   8   48.15    4.39
  -4  -3   7   52.66    4.26
  -4  -3   6   97.82    5.33
  -4  -3   5  232.10    8.39
   4   3  -4  209.85    7.46
   4   3  -3  183.66    6.78
   4   3  -2  210.63    7.14
   4   3  -1  108.33    5.13
   4   3   0  446.00    9.71
   4   3   1  364.63    8.65
   4   3   2  128.89    5.22
   4   3   3  264.66    7.29
   4   3   4  128.72    5.41
   4   3   5   94.64    4.83
   4   3   6   17.14    2.78
   4   3   7    3.90    2.21
   4   3   8    5.75    2.48
   4   3   9    3.68    2.33
  -4  -4  14    0.41    4.42
  -4  -4  13   -5.36    2.88
  -4  -4  12    3.05    3.12
  -4  -4  11   13.65    3.37
  -4  -4  10    7.30    2.58
  -4  -4   9    7.96    2.78
  -4  -4   8   16.08    3.36
  -4  -4   7   15.19    3.00
  -4  -4   6   14.80    2.71
  -4  -4   5   83.66    5.14
  -4  -4   4  198.63    7.63
   4   4  -2  597.61   12.48
   4   4  -1  563.10   11.81
   4   4   0  549.27   11.45
   4   4   1  368.82    9.24
   4   4   2  739.37   12.98
   4   4   3  626.84   12.01
   4   4   4  277.39    7.82
   4   4   5   78.82    4.42
   4   4   6  106.60    4.94
   4   4   7  113.04    5.42
   4   4   8   68.44    4.50
  -4  -5  15   -2.61    4.55
  -4  -5  14   -2.71    3.81
  -4  -5  13    4.80    5.01
  -4  -5  12   -3.15    3.28
  -4  -5  11   14.49    5.14
  -4  -5  10   -2.81    2.10
  -4  -5   9   -0.38    3.02
  -4  -5   8   -3.46    2.08
  -4  -5   7   -3.59    1.84
  -4  -5   6   -4.85    2.12
  -4  -5   5   30.59    4.02
  -4  -5   4   36.99    3.86
  -4  -5   3   13.83    2.87
  -4  -5   2   40.93    3.92
   4   5   0   79.06    4.75
   4   5   1  341.49    9.41
   4   5   2  403.49    9.83
   4   5   3  218.06    7.37
   4   5   4  271.89    7.79
   4   5   5  202.64    6.84
   4   5   6  169.60    6.40
   4   5   7  118.96    5.38
  -4  -6  16    2.36    4.19
  -4  -6  15    8.42    4.66
  -4  -6  14    4.85    5.20
  -4  -6  13   -1.82    4.81
  -4  -6  12    3.41    5.28
  -4  -6  11   15.07    5.32
  -4  -6  10   24.93    5.52
  -4  -6   9   18.86    3.90
  -4  -6   8   23.14    4.07
  -4  -6   7   16.92    3.96
  -4  -6   6    4.69    3.29
  -4  -6   5   64.32    5.77
  -4  -6   4   52.36    4.64
  -4  -6   3   16.39    3.17
  -4  -6   2    1.96    2.25
  -4  -6   1    0.92    1.68
  -4  -6   0    1.08    2.01
  -4  -6  -1    0.62    2.10
   4   6   2   33.45    3.73
   4   6   3   21.92    3.20
   4   6   4   33.05    3.45
   4   6   5   99.87    5.11
   4   6   6   43.42    3.70
  -4  -7  15    2.85    5.48
  -4  -7  14   10.53    5.98
  -4  -7  13   14.79    5.74
  -4  -7  12   13.37    5.29
  -4  -7  11   13.50    5.68
  -4  -7  10   27.31    6.16
  -4  -7   9   31.39    5.95
  -4  -7   8   33.27    4.95
  -4  -7   7   44.26    5.33
  -4  -7   6  102.02    8.07
  -4  -7   5   88.85    6.96
  -4  -7   4   48.24    4.91
  -4  -7   3  111.02    7.26
  -4  -7   2   97.30    6.18
  -4  -7   1   71.88    5.67
  -4  -7   0   59.96    4.73
  -4  -7  -1   31.10    3.57
  -4  -7  -2   16.17    2.90
  -4  -7  -3   13.30    2.60
  -4  -7  -4    3.45    2.00
  -4  -8  15   -1.88    5.61
  -4  -8  14    9.04    5.71
  -4  -8  13    5.34    5.58
  -4  -8  12   73.58   10.05
  -4  -8  11   10.38    5.57
  -4  -8  10    9.70    6.09
  -4  -8   9   23.85    5.73
  -4  -8   8   26.90    5.33
  -4  -8   7   19.31    5.13
  -4  -8   6   10.68    3.96
  -4  -8   5   25.34    4.27
  -4  -8   4  100.05    7.49
  -4  -8   3  217.87   10.45
  -4  -8   2  295.16   11.54
  -4  -8   1  456.51   14.20
  -4  -8   0  318.15   11.29
  -4  -8  -1  107.55    6.68
  -4  -8  -2  179.54    8.09
  -4  -8  -3  194.26    8.24
  -4  -9  13    1.91    6.36
  -4  -9  12   -3.56    6.33
  -4  -9  11   -4.90    5.11
  -4  -9  10   -5.09    4.39
  -4  -9   9    3.84    4.78
  -4  -9   8   11.78    5.21
  -4  -9   7   31.99    6.23
  -4  -9   6   72.82    7.86
  -4  -9   5   75.34    8.03
  -4  -9   4   44.73    5.90
  -4  -9   3   59.86    6.32
  -4  -9   2   53.38    5.62
  -4  -9   1  106.22    7.91
  -4  -9   0  167.53    9.49
  -4  -9  -1  202.97    9.84
  -4 -10  12    0.34    6.23
  -4 -10  11   -1.65    6.21
  -4 -10  10   11.84    7.61
  -4 -10   9   -5.77    6.09
  -4 -10   8   -0.11    6.21
  -4 -10   7   -1.26    4.52
  -4 -10   6   -7.27    5.85
  -4 -10   5    1.09    4.42
  -4 -10   4    1.20    5.03
  -4 -10   3   22.41    5.75
  -4 -10   2   10.74    4.48
  -4 -10   1   15.13    4.85
  -4 -10   0   12.47    4.26
  -4 -11  10    4.59    5.99
  -4 -11   9    1.59    5.46
  -4 -11   8    7.16    6.99
  -4 -11   7    0.61    5.63
  -4 -11   6   22.22    7.27
  -4 -11   5    4.88    6.97
  -4 -11   4   -2.76    5.92
  -4 -11   3    0.51    6.23
  -4 -11   2    0.62    5.28
  -4 -11   1   -0.13    5.24
  -4 -12   8   10.38    7.32
  -4 -12   7   19.33    7.63
  -4 -12   6    5.62    6.02
  -4 -12   5   10.63    7.07
  -4 -12   4   29.92    8.09
  -4 -12   3   10.66    6.56
  -4 -13   5   32.25    7.79
   5  -9   5   -8.75    4.75
   5  -8   3   50.38    6.76
   5  -8   4   45.75    6.69
   5  -8   5   50.49    7.30
   5  -8   6   14.60    5.54
   5  -8   7   13.29    5.31
   5  -8   8    2.74    4.07
   5  -7   1   51.82    6.50
   5  -7   2   50.74    6.23
   5  -7   3   69.75    7.55
   5  -7   4   58.47    6.99
   5  -7   5   29.57    5.38
   5  -7   6   34.91    5.49
   5  -7   7   52.07    6.56
   5  -7   8   34.95    6.15
   5  -7   9   27.50    5.38
   5  -7  10   17.03    5.20
   5  -6   0   26.87    4.71
   5  -6   1   37.36    5.57
   5  -6   2   17.00    4.29
   5  -6   3   17.42    4.77
   5  -6   4   46.44    6.12
   5  -6   5   58.40    6.49
   5  -6   6   78.50    7.28
   5  -6   7   46.45    5.97
   5  -6   8   31.61    5.13
   5  -6   9   27.16    5.49
   5  -6  10   35.82    6.29
   5  -6  11   29.41    6.14
   5  -6  12   29.43    5.61
   5  -5  -1    3.91    3.20
   5  -5   0   -0.32    2.99
   5  -5   1   -3.00    3.29
   5  -5   2   10.41    4.28
   5  -5   3   25.44    4.19
   5  -5   4   15.06    3.76
   5  -5   5    6.36    3.93
   5  -5   6   15.06    3.91
   5  -5   7   26.71    4.56
   5  -5   8   16.91    4.50
   5  -5   9   16.41    4.06
   5  -5  10   15.04    4.55
   5  -5  11   16.56    4.48
   5  -5  12   12.12    3.86
   5  -5  13   16.56    5.17
   5  -4  -3   42.74    4.68
   5  -4  -2   18.76    3.67
   5  -4  -1    5.98    3.10
   5  -4   0   -0.23    2.82
   5  -4   1    1.73    3.29
   5  -4   2   16.60    3.77
   5  -4   3   62.75    5.86
   5  -4   4   56.22    5.71
   5  -4   5   48.76    5.76
   5  -4   6    8.13    3.49
   5  -4   7    7.02    3.17
   5  -4   8   -0.85    2.53
   5  -4   9   -1.84    3.28
   5  -4  10    1.11    3.65
   5  -4  11    0.13    3.59
   5  -4  13   -0.68    2.96
   5  -4  14    9.65    4.05
   5  -3  -4  128.80    6.50
   5  -3  -3   82.51    5.61
   5  -3  -2   74.47    5.37
   5  -3  -1   71.85    5.20
   5  -3   0  138.23    6.95
   5  -3   1  105.59    6.02
   5  -3   2  122.75    7.03
   5  -3   3   72.75    6.06
   5  -3   4   49.66    5.12
   5  -3   5   23.40    4.19
   5  -3   6   40.76    5.23
   5  -3   7   60.17    6.12
   5  -3   8   14.35    4.16
   5  -3   9   11.43    3.41
   5  -3  10    4.54    3.02
   5  -3  11    3.19    2.94
   5  -3  12    3.89    2.90
   5  -3  13    6.92    4.22
   5  -3  14   -1.46    2.80
   5  -3  15    0.85    3.35
   5  -2  -5   92.03    5.42
   5  -2  -4   44.58    4.04
   5  -2  -3   78.79    5.12
   5  -2  -2   87.56    5.53
   5  -2  -1   72.56    5.05
   5  -2   0   62.82    4.83
   5  -2   1   52.59    4.29
   5  -2   2   93.07    5.39
   5  -2   3  133.55    6.74
   5  -2   4  128.65    6.82
   5  -2   5   78.40    5.69
   5  -2   6   96.49    6.58
   5  -2   7   14.29    3.54
   5  -2   8   20.75    3.82
   5  -2   9   51.42    5.58
   5  -2  10   47.42    5.41
   5  -2  11   38.23    5.18
   5  -2  12   19.67    4.08
   5  -2  13   21.12    4.92
   5  -2  15    4.03    3.94
   5  -2  16    1.35    4.02
   5  -1  -6    0.09    2.18
   5  -1  -5   12.70    2.77
   5  -1  -4   46.99    4.12
   5  -1  -3   72.39    4.75
   5  -1  -2   36.29    3.61
   5  -1  -1    8.80    2.75
   5  -1   0   10.68    2.45
   5  -1   1   60.04    4.34
   5  -1   2   92.16    5.33
   5  -1   3  201.26    7.73
   5  -1   4  121.50    6.32
   5  -1   5   68.71    5.18
   5  -1   6   79.82    5.87
   5  -1   7   60.04    5.26
   5  -1   8   63.08    5.43
   5  -1   9   65.13    6.03
   5  -1  10   39.53    4.98
   5  -1  11   51.68    5.88
   5  -1  12   62.92    6.40
   5  -1  13   24.51    4.57
   5  -1  14   12.84    4.54
   5  -1  15   13.66    4.55
   5   0  -8   57.87    4.41
   5   0  -7   30.14    3.45
   5   0  -6    5.56    2.47
   5   0  -5    6.85    2.50
   5   0  -4   27.03    3.19
   5   0  -3    6.42    2.38
   5   0  -2   -0.92    1.81
   5   0  -1   -2.46    1.95
   5   0   0   45.79    4.08
   5   0   1   28.44    3.42
   5   0   2    0.78    1.71
   5   0   3    1.94    1.92
   5   0   4   10.70    2.95
   5   0   5   12.16    2.65
   5   0   6   28.49    3.92
   5   0   7    1.72    2.85
   5   0   8   13.03    3.74
   5   0   9   41.51    5.07
   5   0  10   31.48    4.75
   5   0  11   16.18    4.49
   5   0  12   12.19    4.53
   5   0  13    2.05    3.78
   5   0  14   10.09    4.47
  -5  -1   9   99.58    5.98
  -5  -1   8  114.59    6.66
   5   1  -7  124.06    6.37
   5   1  -6   52.79    4.23
   5   1  -5   45.60    4.07
   5   1  -4   51.23    4.12
   5   1  -3   68.05    4.59
   5   1  -2  186.72    6.99
   5   1  -1  182.29    6.71
   5   1   0  127.46    5.86
   5   1   1  144.49    6.27
   5   1   2   35.02    3.74
   5   1   3    6.27    2.19
   5   1   4   34.69    3.76
   5   1   5   19.10    3.27
   5   1   6    4.00    2.68
   5   1   7   -1.38    2.61
   5   1   8   -0.17    2.02
   5   1   9   -2.37    2.58
   5   1  10    0.10    2.28
   5   1  11   -1.24    2.95
   5   1  12   -1.39    3.00
   5   1  13    4.58    3.38
  -5  -2  11   21.40    3.82
  -5  -2  10   41.54    4.57
  -5  -2   9   61.05    4.86
  -5  -2   8   77.15    5.41
  -5  -2   7   53.26    4.87
   5   2  -6   69.54    4.92
   5   2  -5  142.13    6.51
   5   2  -4   85.78    5.09
   5   2  -3  131.28    6.15
   5   2  -2  255.89    8.47
   5   2  -1  361.71    9.66
   5   2   0  202.59    7.19
   5   2   1  150.75    6.25
   5   2   2  211.16    7.46
   5   2   3  135.06    6.27
   5   2   4  106.31    5.74
   5   2   5   67.18    4.82
   5   2   6   70.90    5.07
   5   2   7   11.18    2.57
   5   2   8    5.79    2.59
   5   2   9    3.56    2.84
   5   2  10   10.62    3.26
   5   2  11    6.19    2.90
  -5  -3  12   -3.08    3.03
  -5  -3  11   -1.39    2.55
  -5  -3  10   13.24    3.13
  -5  -3   9   10.59    2.85
  -5  -3   8    3.46    1.90
  -5  -3   7    7.81    2.56
  -5  -3   6   18.56    3.27
   5   3  -5   24.58    3.24
   5   3  -4  123.81    6.25
   5   3  -3  165.90    6.90
   5   3  -2  143.08    6.38
   5   3  -1  147.92    6.47
   5   3   0  189.50    7.20
   5   3   1  460.52   10.86
   5   3   2  257.40    8.08
   5   3   3  167.04    6.75
   5   3   4  241.48    8.15
   5   3   5  230.48    8.11
   5   3   6  131.12    6.58
   5   3   7   81.04    5.25
   5   3   8   98.58    5.88
   5   3   9   48.77    4.72
   5   3  10   35.23    4.25
  -5  -4  13    9.30    4.18
  -5  -4  12    4.05    3.25
  -5  -4  11    4.40    3.46
  -5  -4  10    8.10    3.41
  -5  -4   9    7.39    2.73
  -5  -4   8    2.94    2.63
  -5  -4   7    0.76    1.81
  -5  -4   6   17.30    3.26
  -5  -4   5   28.90    3.97
   5   4  -4   34.22    3.79
   5   4  -3   40.78    3.82
   5   4  -2   17.75    2.72
   5   4  -1    8.59    2.28
   5   4   0   90.67    5.09
   5   4   1   25.55    3.40
   5   4   2   44.63    3.84
   5   4   3  362.18    9.92
   5   4   4  161.17    6.92
   5   4   5  104.66    5.40
   5   4   6  107.92    5.78
   5   4   7  109.11    5.89
   5   4   8  111.81    6.07
   5   4   9  151.83    7.13
  -5  -5  14   13.07    5.43
  -5  -5  13   26.45    5.53
  -5  -5  12   18.87    4.23
  -5  -5  11   31.84    5.31
  -5  -5  10   63.00    6.68
  -5  -5   9   21.00    4.42
  -5  -5   8   21.98    3.80
  -5  -5   7   46.45    4.90
  -5  -5   6   47.31    4.56
  -5  -5   5   38.42    4.36
  -5  -5   4   37.78    4.33
   5   5  -2   25.54    3.66
   5   5  -1   12.25    2.56
   5   5   0   -0.17    1.67
   5   5   1   11.66    2.86
   5   5   2    7.12    2.59
   5   5   3   17.79    3.03
   5   5   4   22.73    3.14
   5   5   5   16.23    2.91
   5   5   6   10.10    2.72
   5   5   7    5.24    2.52
  -5  -6  15    4.94    5.73
  -5  -6  14    9.70    6.26
  -5  -6  13   17.95    4.96
  -5  -6  12   23.88    5.75
  -5  -6  11   44.77    6.06
  -5  -6  10   40.79    5.38
  -5  -6   9   52.85    6.26
  -5  -6   8   68.80    6.11
  -5  -6   7   86.75    6.81
  -5  -6   6   79.27    6.50
  -5  -6   5   95.01    6.51
  -5  -6   4  152.75    7.66
  -5  -6   3  158.99    7.92
  -5  -6   2  136.74    7.10
   5   6   0  133.91    6.89
   5   6   1   84.09    5.57
   5   6   2   30.64    3.70
   5   6   3   19.31    3.00
   5   6   4    8.59    2.52
   5   6   5    0.30    2.39
   5   6   6    3.23    2.13
  -5  -7  15    0.99    6.09
  -5  -7  14    7.74    6.47
  -5  -7  13   -1.91    5.63
  -5  -7  12    2.86    5.12
  -5  -7  11   13.45    5.63
  -5  -7  10   35.91    5.69
  -5  -7   9   44.47    6.24
  -5  -7   8   43.71    6.15
  -5  -7   7   35.01    5.32
  -5  -7   6   50.73    5.87
  -5  -7   5  100.09    7.21
  -5  -7   4  131.18    8.24
  -5  -7   3  163.40    8.40
  -5  -7   2  247.77    9.90
  -5  -7   1  192.63    8.76
  -5  -7   0  190.88    8.47
  -5  -7  -1  279.72   10.13
   5   7   3   85.95    5.62
   5   7   4  154.79    7.06
   5   7   5   97.51    5.77
  -5  -8  14   -0.33    5.57
  -5  -8  13    6.79    5.60
  -5  -8  12    1.26    6.05
  -5  -8  11   -1.70    5.17
  -5  -8  10    5.46    4.63
  -5  -8   9    3.01    3.64
  -5  -8   8    3.14    3.89
  -5  -8   7   21.98    4.55
  -5  -8   6   56.76    6.65
  -5  -8   5   77.72    7.04
  -5  -8   4   63.36    6.48
  -5  -8   3   52.63    5.50
  -5  -8   2  157.17    9.00
  -5  -8   1  209.92    9.92
  -5  -8   0  208.05    9.01
  -5  -8  -1  165.02    8.04
  -5  -8  -2  148.42    7.55
  -5  -8  -3  145.74    7.32
  -5  -9  13    3.79    6.88
  -5  -9  12    8.11    6.69
  -5  -9  11    2.15    5.85
  -5  -9  10   -1.45    5.72
  -5  -9   9   -6.88    3.41
  -5  -9   8   -5.81    4.17
  -5  -9   7   -0.41    3.78
  -5  -9   6    1.63    3.51
  -5  -9   5   -1.60    2.90
  -5  -9   4    0.10    3.07
  -5  -9   3    0.70    2.69
  -5  -9   2    5.51    2.89
  -5  -9   1   29.44    4.77
  -5  -9   0   67.16    6.16
  -5  -9  -1   77.57    6.09
  -5  -9  -2   85.82    6.47
  -5 -10  11   15.59    6.74
  -5 -10  10   16.43    6.57
  -5 -10   9   15.03    6.23
  -5 -10   8   23.68    6.37
  -5 -10   7   28.00    6.66
  -5 -10   6   32.39    6.42
  -5 -10   5   44.70    6.37
  -5 -10   4   70.04    7.46
  -5 -10   3   40.38    5.94
  -5 -10   2   20.07    5.18
  -5 -10   1    1.87    3.14
  -5 -10   0    7.00    3.92
  -5 -10  -1    7.60    3.66
  -5 -11  10   13.60    8.05
  -5 -11   9   20.39    8.40
  -5 -11   8   23.50    7.62
  -5 -11   7   29.38    7.70
  -5 -11   6   56.53    9.03
  -5 -11   5   59.41    8.19
  -5 -11   4   64.59    8.79
  -5 -11   3   49.01    7.72
  -5 -11   2   65.84    7.67
  -5 -11   1   50.03    6.50
  -5 -12   8   10.27    6.32
  -5 -12   7   11.54    8.10
  -5 -12   6   11.72    7.18
  -5 -12   5   38.69    8.53
  -5 -12   3   39.51    7.34
  -5 -12   2   55.97    8.22
  -5 -13   5    4.29    7.76
  -5 -13   4    6.65    6.64
   6  -8   4   44.58    7.49
   6  -8   5   26.49    6.41
   6  -7   2   11.15    4.91
   6  -7   3   20.44    5.14
   6  -7   4   42.85    6.81
   6  -7   5   41.25    7.17
   6  -7   6   17.29    5.63
   6  -7   7   20.25    5.83
   6  -7   8   29.82    6.76
   6  -6   1   -2.44    3.36
   6  -6   2   -1.45    3.75
   6  -6   3   -1.86    3.90
   6  -6   4   -3.30    3.97
   6  -6   5   -2.12    4.41
   6  -6   6    3.76    4.37
   6  -6   7   10.36    4.60
   6  -6   8    8.14    5.21
   6  -6   9   10.92    4.68
   6  -6  10    4.68    5.46
   6  -5  -1   51.66    5.63
   6  -5   0   34.07    4.92
   6  -5   1   29.87    4.75
   6  -5   2   29.79    4.84
   6  -5   3   18.47    4.16
   6  -5   4   30.59    5.40
   6  -5   5   21.76    4.54
   6  -5   6   11.16    4.38
   6  -5   7    3.37    4.24
   6  -5   8   -3.98    3.63
   6  -5   9   -4.66    3.67
   6  -5  10   -3.30    3.96
   6  -5  11   -0.52    4.64
   6  -4  -2   78.69    6.26
   6  -4  -1  169.16    8.58
   6  -4   0  239.51   10.29
   6  -4   1  186.08    9.02
   6  -4   2  138.97    7.81
   6  -4   3  100.90    7.05
   6  -4   4   68.07    6.11
   6  -4   5   73.91    6.39
   6  -4   6   70.57    6.91
   6  -4   7   40.75    5.81
   6  -4   8   25.77    5.33
   6  -4   9    6.87    3.56
   6  -4  10    1.12    4.54
   6  -4  11   -1.95    4.30
   6  -4  12    2.23    4.93
   6  -4  13    6.57    4.32
   6  -3  -3   54.92    5.11
   6  -3  -2   68.79    5.85
   6  -3  -1   46.35    5.01
   6  -3   0   26.17    3.80
   6  -3   1   48.74    5.05
   6  -3   2   49.22    4.86
   6  -3   3   81.44    6.03
   6  -3   4  111.64    7.01
   6  -3   5   90.43    6.69
   6  -3   6   39.26    5.03
   6  -3   7   92.43    7.14
   6  -3   8   75.27    6.67
   6  -3   9   49.70    6.23
   6  -3  10   29.07    4.73
   6  -3  12   15.23    4.49
   6  -3  13    7.90    3.63
   6  -3  14    8.48    4.81
   6  -2  -5   -1.12    2.53
   6  -2  -4   -0.69    2.43
   6  -2  -3   -1.42    2.33
   6  -2  -2   -0.13    2.54
   6  -2  -1    0.69    2.36
   6  -2   0    4.51    2.94
   6  -2   1    1.23    2.77
   6  -2   2    8.94    2.68
   6  -2   3    8.72    2.84
   6  -2   4   25.70    4.07
   6  -2   5   37.82    4.70
   6  -2   6   85.85    6.60
   6  -2   7   79.79    6.41
   6  -2   8   26.57    4.14
   6  -2   9   53.34    5.96
   6  -2  10   55.39    5.88
   6  -2  11   43.29    5.98
   6  -2  12   31.00    5.58
   6  -2  13   25.61    4.85
   6  -2  14   10.25    5.24
   6  -2  15    8.32    3.90
   6  -1  -6   56.05    4.96
   6  -1  -5   36.03    4.13
   6  -1  -4   36.09    4.19
   6  -1  -3   17.66    3.26
   6  -1  -2    7.88    2.38
   6  -1  -1    7.63    2.90
   6  -1   0   33.88    3.88
   6  -1   1   33.79    3.99
   6  -1   2    3.37    2.20
   6  -1   3   -0.36    2.08
   6  -1   4    0.73    2.08
   6  -1   6    4.73    2.59
   6  -1   7    0.33    2.85
   6  -1   8   16.01    3.46
   6  -1   9   19.63    4.04
   6  -1  10   13.46    4.14
   6  -1  11   16.28    4.47
   6  -1  12   15.31    4.48
   6  -1  13    9.40    4.55
   6  -1  14    0.61    3.38
   6  -1  15   11.14    4.97
   6   0  -7   80.14    5.67
   6   0  -6   47.55    4.57
   6   0  -5   39.83    4.31
   6   0  -4   35.93    4.08
   6   0  -3   53.24    4.78
   6   0  -2  101.66    5.90
   6   0  -1  189.02    7.89
   6   0   0  207.39    8.31
   6   0   1   89.20    5.70
   6   0   2  116.54    6.30
   6   0   3  140.23    7.10
   6   0   4   80.68    5.76
   6   0   5   32.58    3.93
   6   0   6   25.38    3.69
   6   0   7   26.34    4.17
   6   0   8   16.61    3.32
   6   0   9    8.44    2.88
   6   0  10    1.25    3.09
   6   0  11   -0.88    2.66
   6   0  12   -1.60    3.14
   6   0  13   -2.73    3.07
   6   0  14   -4.68    3.15
  -6  -1   9   22.51    4.10
   6   1  -8   25.43    3.90
   6   1  -7   46.35    4.56
   6   1  -6   45.66    4.51
   6   1  -5   30.20    3.79
   6   1  -4   95.82    6.00
   6   1  -3  202.34    8.14
   6   1  -2  168.78    7.31
   6   1  -1  146.84    6.65
   6   1   0  102.21    5.71
   6   1   1  171.75    7.47
   6   1   2  158.98    7.42
   6   1   3  151.88    7.24
   6   1   4  219.30    8.85
   6   1   5  163.34    7.76
   6   1   6  116.91    6.84
   6   1   7  102.24    6.74
   6   1   8   42.95    4.70
   6   1   9   23.89    4.22
   6   1  10   13.61    3.63
   6   1  11    9.18    3.57
   6   1  12   10.59    3.34
   6   1  13    5.30    3.13
  -6  -2  10    1.45    2.39
  -6  -2   9    1.26    2.76
  -6  -2   8   -2.64    2.40
   6   2  -7    3.81    2.53
   6   2  -6    2.74    2.46
   6   2  -5   35.07    4.15
   6   2  -4   24.75    3.34
   6   2  -3   11.78    3.15
   6   2  -2   45.00    4.12
   6   2  -1   74.76    5.01
   6   2   0   86.72    5.25
   6   2   1   68.32    5.01
   6   2   2   46.44    4.34
   6   2   3   88.84    5.69
   6   2   4  116.94    6.41
   6   2   5  122.45    6.74
   6   2   6  237.04    9.38
   6   2   7  161.64    8.10
   6   2   8   37.35    4.28
   6   2   9   74.31    5.87
   6   2  10   60.83    5.67
   6   2  11   35.28    4.67
   6   2  12   27.10    4.61
  -6  -3  11   13.63    3.55
  -6  -3  10   19.85    3.90
  -6  -3   9   16.65    3.51
  -6  -3   8   24.76    3.81
  -6  -3   7   10.81    2.82
   6   3  -6    7.83    2.50
   6   3  -5   -1.71    2.10
   6   3  -4   -0.92    2.15
   6   3  -3    2.28    2.56
   6   3  -2   -0.24    2.50
   6   3  -1    2.92    2.74
   6   3   0    1.49    1.94
   6   3   1   32.44    3.93
   6   3   2   64.70    4.78
   6   3   3   35.16    3.99
   6   3   4   44.92    4.11
   6   3   5   43.66    4.14
   6   3   6   77.95    5.65
   6   3   7   84.29    5.82
   6   3   8  121.57    7.16
   6   3   9   66.73    5.61
   6   3  10   28.98    4.29
   6   3  11   20.26    3.96
  -6  -4  12   27.75    5.18
  -6  -4  11   23.70    4.37
  -6  -4  10   13.27    3.83
  -6  -4   9   26.74    4.18
  -6  -4   8   35.71    4.60
  -6  -4   7   35.35    4.20
  -6  -4   6   34.46    4.74
   6   4  -5   53.08    4.81
   6   4  -4   58.85    4.98
   6   4  -3   78.99    5.60
   6   4  -2   74.83    5.36
   6   4  -1   82.99    5.53
   6   4   0   58.00    4.55
   6   4   1   14.85    2.90
   6   4   2   37.06    3.76
   6   4   3   -2.51    2.18
   6   4   4    7.46    2.48
   6   4   5   23.57    3.52
   6   4   6   12.78    2.76
   6   4   7   -1.00    2.54
   6   4   8    0.40    2.54
   6   4   9   -1.20    2.37
  -6  -5  13    6.79    4.17
  -6  -5  12   13.45    4.62
  -6  -5  11   12.02    3.69
  -6  -5  10   40.36    5.33
  -6  -5   9   51.70    5.41
  -6  -5   8   43.43    5.10
  -6  -5   7   60.12    5.42
  -6  -5   6   78.58    6.09
  -6  -5   5  119.28    7.89
   6   5  -4  111.56    6.95
   6   5  -3  144.35    7.53
   6   5  -2  140.23    7.39
   6   5  -1  167.95    7.85
   6   5   0  115.49    6.78
   6   5   1  221.03    8.61
   6   5   2  248.56    9.10
   6   5   3  156.20    7.53
   6   5   4  151.16    7.33
   6   5   5  114.96    6.53
   6   5   6   66.18    5.15
   6   5   7    8.59    3.11
   6   5   8    1.94    2.70
  -6  -6  14    1.08    5.27
  -6  -6  13    9.16    4.76
  -6  -6  12    0.46    3.85
  -6  -6  11    6.01    3.74
  -6  -6  10   15.74    4.71
  -6  -6   9    8.88    3.52
  -6  -6   8   11.87    3.85
  -6  -6   7   26.65    4.45
  -6  -6   6   38.47    4.57
  -6  -6   5   69.28    6.18
  -6  -6   4  105.08    6.94
  -6  -6   3   82.50    6.71
   6   6  -2   50.54    4.77
   6   6  -1   89.47    6.24
   6   6   0  128.77    7.03
   6   6   1  221.47    9.02
   6   6   2  243.44    9.56
   6   6   3  350.38   11.39
   6   6   4  219.45    8.72
   6   6   5  118.54    6.69
   6   6   6   59.66    4.87
   6   6   7   47.09    4.75
  -6  -7  14    0.45    4.67
  -6  -7  13   -4.59    5.17
  -6  -7  12    0.04    4.39
  -6  -7  11    2.09    3.70
  -6  -7  10    1.74    3.67
  -6  -7   9   -2.43    3.16
  -6  -7   8   -4.13    3.41
  -6  -7   7    6.18    3.65
  -6  -7   6    5.01    3.52
  -6  -7   5    5.02    2.75
  -6  -7   4   16.39    3.39
  -6  -7   3   22.57    3.79
  -6  -7   2    7.56    2.75
  -6  -7   1   14.26    3.27
   6   7   0   92.87    6.68
   6   7   1  141.57    7.69
   6   7   2  244.89    9.89
   6   7   3  198.17    8.69
   6   7   4  123.76    6.93
   6   7   5  108.95    6.48
  -6  -8  14   24.99    8.25
  -6  -8  13   17.92    6.78
  -6  -8  12    9.90    6.54
  -6  -8  10    7.57    4.96
  -6  -8   9    4.71    4.36
  -6  -8   8    3.44    3.76
  -6  -8   7   -2.22    2.63
  -6  -8   6   -2.32    3.56
  -6  -8   4   10.61    3.42
  -6  -8   3   31.32    4.70
  -6  -8   2   23.27    4.22
  -6  -8   1   -1.35    2.39
  -6  -8   0   11.70    3.40
  -6  -8  -1    4.24    3.11
  -6  -8  -2    6.97    3.15
   6   8   4   27.03    3.93
  -6  -9  12   13.71    7.02
  -6  -9  11   20.79    6.42
  -6  -9  10   25.21    6.16
  -6  -9   9   46.50    7.00
  -6  -9   8   40.89    6.47
  -6  -9   7   39.36    6.81
  -6  -9   6   24.89    5.49
  -6  -9   5   25.69    4.85
  -6  -9   4   66.53    7.21
  -6  -9   3   62.42    6.63
  -6  -9   2   89.36    7.57
  -6  -9   1   61.24    6.28
  -6  -9   0   17.66    3.92
  -6  -9  -1   15.47    3.73
  -6  -9  -2   33.14    4.52
  -6  -9  -3   25.85    4.17
  -6 -10  11    5.67    6.30
  -6 -10  10   27.53    6.88
  -6 -10   9   31.56    7.89
  -6 -10   8   28.01    6.39
  -6 -10   7   37.31    6.22
  -6 -10   6   45.95    6.77
  -6 -10   5   46.19    6.81
  -6 -10   4   73.30    7.89
  -6 -10   3   76.34    7.73
  -6 -10   2   67.88    7.38
  -6 -10   1   79.33    7.32
  -6 -10   0  124.68    8.70
  -6 -10  -1  130.14    8.61
  -6 -11   9    4.86    6.63
  -6 -11   8   -6.41    6.14
  -6 -11   7    0.39    5.76
  -6 -11   6   12.51    5.32
  -6 -11   5   26.15    5.61
  -6 -11   4   52.98    7.42
  -6 -11   3   27.09    5.29
  -6 -11   2   35.59    6.70
  -6 -11   1   64.09    7.48
  -6 -11   0   98.46    8.57
  -6 -12   7   -2.04    5.90
  -6 -12   6   -4.00    6.22
  -6 -12   5    1.83    5.38
  -6 -12   4    1.35    5.27
  -6 -12   3    2.48    5.40
  -6 -12   2   22.76    5.91
  -6 -13   5    5.47    7.08
  -6 -13   4    9.68    6.02
  -6 -13   3    5.12    5.93
   7  -7   3   -0.49    4.35
   7  -7   4    4.94    4.64
   7  -7   5   -1.62    3.88
   7  -6   2   35.53    5.75
   7  -6   4   15.55    4.81
   7  -6   5   11.04    4.44
   7  -6   6   14.80    5.08
   7  -6   7    3.00    4.12
   7  -5   0  125.35    8.55
   7  -5   1   75.06    7.02
   7  -5   2   56.92    6.39
   7  -5   3   33.63    4.99
   7  -5   4   40.81    5.36
   7  -5   5   52.04    6.20
   7  -5   6   32.00    5.46
   7  -5   7   28.24    5.25
   7  -5   8   32.76    5.44
   7  -5   9   17.62    4.54
   7  -4  -1   55.55    5.90
   7  -4   0   26.55    4.25
   7  -4   1   44.44    5.45
   7  -4   2   41.02    5.23
   7  -4   3   24.05    4.58
   7  -4   4   13.28    3.64
   7  -4   5   19.25    4.14
   7  -4   6   33.42    5.06
   7  -4   7   30.49    5.11
   7  -4   8   26.11    4.78
   7  -4   9   24.26    4.72
   7  -4  10   23.60    4.79
   7  -4  11   18.28    4.52
   7  -3  -3    5.73    3.38
   7  -3  -2    2.14    3.31
   7  -3  -1   -0.77    2.70
   7  -3   0   -1.57    2.81
   7  -3   1    1.25    2.88
   7  -3   2   -3.23    2.74
   7  -3   3   -0.05    2.33
   7  -3   4   14.61    3.86
   7  -3   5   12.65    3.48
   7  -3   6    7.28    3.07
   7  -3   7   10.19    3.14
   7  -3   8   23.71    4.21
   7  -3   9   15.87    3.84
   7  -3  10   12.14    3.79
   7  -3  11    4.21    3.47
   7  -3  12   14.72    4.43
   7  -2  -4   28.14    4.45
   7  -2  -3   33.90    4.70
   7  -2  -2   56.93    5.53
   7  -2  -1   62.84    5.68
   7  -2   0   54.04    5.31
   7  -2   1   40.67    5.00
   7  -2   2   21.13    3.91
   7  -2   3    1.08    3.00
   7  -2   4    2.05    2.37
   7  -2   5   -1.72    2.20
   7  -2   6    4.73    3.14
   7  -2   7   -0.27    2.25
   7  -2   8    0.82    2.40
   7  -2   9   -1.40    2.12
   7  -2  10    1.23    3.08
   7  -2  11    6.00    3.27
   7  -2  12    2.90    3.00
   7  -2  13    4.42    3.54
   7  -2  14    2.43    4.31
   7  -1  -5   34.36    4.63
   7  -1  -4   49.90    5.15
   7  -1  -3   91.86    6.30
   7  -1  -2   91.95    6.50
   7  -1  -1   82.52    5.93
   7  -1   0  106.17    6.96
   7  -1   1  117.04    7.09
   7  -1   2  101.51    6.83
   7  -1   3   64.35    5.48
   7  -1   4   42.65    4.89
   7  -1   5   55.71    5.33
   7  -1   6   22.79    3.98
   7  -1   7   28.39    4.44
   7  -1   8   48.27    5.45
   7  -1   9   19.83    4.10
   7  -1  10    9.42    3.08
   7  -1  11    4.48    3.34
   7  -1  12   -0.58    3.37
   7  -1  13   -1.82    3.63
   7  -1  14    0.68    3.56
   7   0  -7    1.87    2.92
   7   0  -6    3.14    2.87
   7   0  -5   10.96    3.32
   7   0  -4   76.98    6.06
   7   0  -3   64.51    5.40
   7   0  -2   84.39    5.76
   7   0  -1  146.75    7.69
   7   0   0  141.96    7.58
   7   0   1  127.23    7.45
   7   0   2   98.92    6.64
   7   0   3  108.71    6.67
   7   0   4  139.98    7.79
   7   0   5  135.66    7.71
   7   0   6  109.91    7.07
   7   0   7  151.20    8.57
   7   0   8   75.61    6.27
   7   0   9   36.35    4.76
   7   0  10   31.25    4.65
   7   0  11   23.17    4.54
   7   0  12    8.55    3.91
   7   0  14    5.81    4.00
   7   1  -8   -1.60    2.53
   7   1  -7   -0.60    2.41
   7   1  -6   -0.59    2.81
   7   1  -5   -0.92    2.53
   7   1  -4   -5.75    2.59
   7   1  -3    5.92    3.07
   7   1  -2   20.41    3.86
   7   1  -1   28.90    3.69
   7   1   0   27.39    3.98
   7   1   1   18.00    3.55
   7   1   2   32.56    3.97
   7   1   3   39.37    4.40
   7   1   4   64.69    5.47
   7   1   5   69.19    5.89
   7   1   6   43.92    5.09
   7   1   7   56.66    5.51
   7   1   8  100.23    7.07
   7   1   9   74.88    6.21
   7   1  10   52.93    5.88
   7   1  11   35.05    5.23
   7   1  12   21.58    4.69
   7   1  13   26.02    5.05
  -7  -2   9   18.19    4.18
   7   2  -8   26.11    4.22
   7   2  -7   32.14    4.52
   7   2  -6   28.93    4.12
   7   2  -5   11.69    3.03
   7   2  -4    3.01    2.45
   7   2  -3   20.06    3.36
   7   2  -2   38.79    4.20
   7   2  -1   12.90    3.28
   7   2   0    8.34    3.02
   7   2   1    2.76    2.72
   7   2   2    5.32    2.48
   7   2   3   -0.36    2.61
   7   2   4   -4.52    2.44
   7   2   5    0.60    2.25
   7   2   6   17.04    3.59
   7   2   7   45.66    4.87
   7   2   8   25.33    4.47
   7   2   9   16.11    3.73
   7   2  10   32.50    4.85
   7   2  11   24.75    4.62
   7   2  12   25.54    4.64
  -7  -3  11   25.97    5.05
  -7  -3  10   23.24    4.53
  -7  -3   9   21.26    4.19
  -7  -3   8   24.52    4.43
   7   3  -7   38.43    4.56
   7   3  -6   62.11    5.58
   7   3  -5   63.25    5.55
   7   3  -4   70.45    5.96
   7   3  -3   65.24    5.20
   7   3  -2   51.25    4.97
   7   3  -1   60.40    5.12
   7   3   0   59.83    4.97
   7   3   1   44.71    4.40
   7   3   2   40.68    4.40
   7   3   3   24.84    3.69
   7   3   4   15.88    3.40
   7   3   5   23.66    4.06
   7   3   6   12.37    3.45
   7   3   7    7.64    3.30
   7   3   8    1.83    3.14
   7   3   9    1.33    2.96
   7   3  10   -4.09    2.75
   7   3  11    0.06    3.41
  -7  -4  12    2.26    3.85
  -7  -4  11    8.81    3.85
  -7  -4  10    9.56    3.37
  -7  -4   9   23.80    4.38
  -7  -4   8   42.45    5.14
  -7  -4   7   50.31    5.98
   7   4  -6   75.13    6.39
   7   4  -5   79.29    6.18
   7   4  -4  131.24    7.66
   7   4  -3  100.21    6.55
   7   4  -2  111.25    6.82
   7   4  -1   65.93    5.26
   7   4   0   61.52    5.13
   7   4   1   37.30    4.24
   7   4   2   42.21    4.55
   7   4   3  163.71    8.21
   7   4   4  292.68   10.61
   7   4   5  240.72    9.50
   7   4   6  178.14    8.64
   7   4   7  142.60    7.99
   7   4   8   45.20    5.11
   7   4   9   17.59    3.77
   7   4  10    8.58    3.32
  -7  -5  13    1.02    4.68
  -7  -5  12   -0.12    4.16
  -7  -5  11    1.13    3.79
  -7  -5  10   -0.17    3.45
  -7  -5   9    2.43    3.31
  -7  -5   8    3.39    3.27
  -7  -5   7    3.68    3.18
  -7  -5   6   10.13    3.96
   7   5  -5   51.11    5.46
   7   5  -4   68.63    6.00
   7   5  -3   89.74    6.58
   7   5  -2  106.56    6.97
   7   5  -1   61.67    5.38
   7   5   0   51.22    4.92
   7   5   1  113.56    7.05
   7   5   2  346.73   11.79
   7   5   3  224.40    9.76
   7   5   4  114.32    7.08
   7   5   5   48.57    4.91
   7   5   6   40.12    4.75
   7   5   7   54.60    5.44
   7   5   8   61.79    5.46
   7   5   9   88.56    6.34
  -7  -6  14    1.20    4.93
  -7  -6  13   -1.12    4.36
  -7  -6  12   11.68    4.84
  -7  -6  11   14.29    5.00
  -7  -6  10    0.90    3.41
  -7  -6   9   -1.38    3.29
  -7  -6   8    4.72    3.69
  -7  -6   7    7.62    3.05
  -7  -6   6    3.07    3.33
  -7  -6   5    2.44    3.37
   7   6  -3    2.40    3.14
   7   6  -2   18.81    3.86
   7   6  -1    9.08    2.88
   7   6   0    4.43    3.10
   7   6   1   50.54    5.44
   7   6   2   48.50    5.30
   7   6   3   26.89    4.11
   7   6   4   62.19    5.37
   7   6   5   65.36    5.67
   7   6   6   46.02    5.08
   7   6   7   39.32    4.73
  -7  -7  14    8.55    6.18
  -7  -7  13   20.90    5.82
  -7  -7  12   19.54    5.09
  -7  -7  11   24.75    5.87
  -7  -7  10   19.00    5.62
  -7  -7   9   31.63    5.68
  -7  -7   8   35.89    5.71
  -7  -7   7   26.75    5.06
  -7  -7   6   28.85    4.96
  -7  -7   5   23.18    4.15
  -7  -7   4    7.59    2.92
  -7  -7   3    5.63    2.88
   7   7  -2    1.54    2.86
   7   7  -1    5.27    2.75
   7   7   0    8.27    2.84
   7   7   1    3.09    2.69
   7   7   2   -4.40    2.63
   7   7   3   -1.48    1.90
   7   7   4    6.81    3.19
   7   7   5    0.19    2.99
   7   7   6   -1.16    2.79
  -7  -8  13   -0.83    5.02
  -7  -8  12    1.02    3.83
  -7  -8  11    2.80    3.89
  -7  -8   9   38.55    6.10
  -7  -8   8   39.26    6.08
  -7  -8   7   49.24    6.31
  -7  -8   6   67.47    7.50
  -7  -8   5   36.35    5.55
  -7  -8   4   46.78    5.82
  -7  -8   3  122.76    8.42
  -7  -8   2  119.02    8.36
  -7  -8   1   47.67    6.15
  -7  -8   0   18.87    4.12
   7   8   1   18.47    3.73
   7   8   2   21.11    4.30
   7   8   3   55.59    5.66
   7   8   4   73.56    6.27
   7   8   5   42.84    5.00
  -7  -9  12    5.66    6.08
  -7  -9  11    6.49    5.62
  -7  -9  10    4.45    5.21
  -7  -9   9   18.15    5.54
  -7  -9   8   40.87    6.99
  -7  -9   7   45.47    6.78
  -7  -9   6   32.07    5.95
  -7  -9   5   56.34    7.02
  -7  -9   4   69.59    7.63
  -7  -9   3   93.45    7.96
  -7  -9   2  127.80    8.83
  -7  -9   1  141.30    9.15
  -7  -9   0  127.13    8.69
  -7  -9  -1  112.08    7.99
  -7  -9  -2  165.55    9.61
  -7  -9  -3  147.50    9.43
  -7 -10  10   -2.49    5.30
  -7 -10   9   -5.31    3.41
  -7 -10   8    4.58    5.72
  -7 -10   7    0.06    4.99
  -7 -10   6    5.60    3.99
  -7 -10   5   10.99    3.99
  -7 -10   4   29.75    5.67
  -7 -10   3   46.17    6.41
  -7 -10   2   46.30    6.42
  -7 -10   1   44.63    5.87
  -7 -10   0   60.67    6.67
  -7 -10  -1   79.92    7.02
  -7 -10  -2   72.20    6.55
  -7 -11   9   14.77    6.22
  -7 -11   8    7.90    4.70
  -7 -11   7    3.76    4.64
  -7 -11   6    5.95    4.87
  -7 -11   5    3.14    4.49
  -7 -11   4   -1.83    4.09
  -7 -11   3   -3.01    4.40
  -7 -11   2   -1.30    3.92
  -7 -11   1    6.44    4.45
  -7 -11   0   13.99    4.27
  -7 -12   6    7.73    5.84
  -7 -12   5    1.29    4.15
  -7 -12   4    0.59    5.16
  -7 -12   3    3.55    4.25
  -7 -12   2   14.20    5.97
  -7 -12   1   16.17    5.99
  -7 -13   4   84.53   11.03
  -7 -13   3   78.11    9.84
   8  -6   2   30.33    5.82
   8  -6   3   34.26    6.14
   8  -6   4   33.22    5.91
   8  -5   1   14.97    4.72
   8  -5   2   10.23    4.04
   8  -5   3    9.97    4.39
   8  -5   4   18.36    4.83
   8  -5   5   15.33    4.39
   8  -5   6   23.77    5.08
   8  -5   7    9.53    3.95
   8  -4  -1   20.11    4.87
   8  -4   0    6.66    3.66
   8  -4   1    9.69    3.78
   8  -4   2    0.15    3.03
   8  -4   3   -2.65    3.13
   8  -4   4   -0.27    3.36
   8  -4   5    1.88    3.05
   8  -4   6    3.44    3.38
   8  -4   7    8.19    3.56
   8  -4   8    7.21    3.39
   8  -4   9    2.67    2.83
   8  -3  -2   51.38    6.08
   8  -3  -1   56.57    6.32
   8  -3   0   65.41    6.44
   8  -3   1   40.03    5.38
   8  -3   2   27.60    4.78
   8  -3   3   25.14    4.62
   8  -3   4    9.48    3.47
   8  -3   5    4.55    3.20
   8  -3   6    5.54    3.23
   8  -3   7    3.93    3.15
   8  -3   8    7.44    3.53
   8  -3   9   -2.04    2.41
   8  -3  10    2.21    2.90
   8  -2  -3   41.43    5.32
   8  -2  -2   46.23    5.27
   8  -2  -1   51.84    5.43
   8  -2   0  103.59    7.64
   8  -2   1   71.15    6.49
   8  -2   2   66.26    6.01
   8  -2   3   62.44    6.24
   8  -2   4   34.38    4.79
   8  -2   5   28.91    4.62
   8  -2   6   35.11    5.07
   8  -2   7   21.12    4.13
   8  -2   8    9.36    3.32
   8  -2   9   10.00    3.51
   8  -2  10    9.99    3.76
   8  -2  11    6.23    3.34
   8  -2  12    0.92    2.74
   8  -1  -5    8.68    3.85
   8  -1  -4    4.93    3.42
   8  -1  -3   18.12    4.07
   8  -1  -2   41.19    5.01
   8  -1  -1   40.55    4.91
   8  -1   0   68.09    6.11
   8  -1   1   55.38    5.48
   8  -1   2   61.03    5.89
   8  -1   3   82.49    6.70
   8  -1   4   82.21    6.76
   8  -1   5   87.46    6.88
   8  -1   6   74.98    6.50
   8  -1   7   29.23    4.72
   8  -1   8   41.30    5.41
   8  -1   9   51.45    6.04
   8  -1  10   29.49    4.72
   8  -1  11   17.29    4.49
   8  -1  12   13.87    4.39
   8  -1  13   17.37    4.70
   8   0  -6   -1.52    2.98
   8   0  -5    6.47    3.28
   8   0  -4    1.86    2.67
   8   0  -3    1.61    3.06
   8   0  -2   -0.76    2.28
   8   0  -1    1.59    2.26
   8   0   0    9.06    3.08
   8   0   1   26.95    4.26
   8   0   2   46.34    5.37
   8   0   3   67.97    6.11
   8   0   4   56.74    5.65
   8   0   5   32.98    4.62
   8   0   6   15.81    3.84
   8   0   7   16.57    3.73
   8   0   8   35.37    5.02
   8   0   9   19.96    4.31
   8   0  10   26.52    4.60
   8   0  11   23.12    4.89
   8   0  12   19.43    4.50
   8   0  13    8.06    3.58
   8   1  -7   25.19    4.50
   8   1  -6   27.37    4.54
   8   1  -5   39.08    4.78
   8   1  -4   53.94    5.71
   8   1  -3   55.89    5.60
   8   1  -2   54.73    5.54
   8   1  -1   42.92    4.98
   8   1   0   13.02    3.60
   8   1   1   13.07    3.22
   8   1   2   13.27    3.16
   8   1   3   -2.10    2.06
   8   1   4    1.27    3.07
   8   1   5    5.22    3.15
   8   1   6    2.00    3.03
   8   1   7    5.76    3.42
   8   1   8    5.93    3.64
   8   1   9    7.04    3.56
   8   1  10   11.47    3.97
   8   1  11   10.73    3.55
   8   1  13    3.69    4.15
   8   2  -8   25.37    4.50
   8   2  -7   54.97    5.65
   8   2  -6   68.74    6.37
   8   2  -5   74.88    6.59
   8   2  -4   69.20    6.00
   8   2  -3  115.83    7.79
   8   2  -2  124.31    7.61
   8   2  -1  136.89    7.84
   8   2   0  181.83    9.08
   8   2   1   88.69    6.16
   8   2   2   36.83    4.53
   8   2   3   19.14    3.57
   8   2   4   43.72    5.04
   8   2   5   34.32    4.49
   8   2   6   19.17    3.76
   8   2   7    4.59    3.46
   8   2   8    0.92    2.97
   8   2   9    3.04    3.44
   8   2  10    0.74    3.15
   8   2  11    1.20    3.11
   8   2  12    1.27    3.71
  -8  -3  10    3.23    3.74
  -8  -3   9   11.96    4.57
   8   3  -8   23.22    4.44
   8   3  -7   13.35    3.88
   8   3  -6   19.36    4.13
   8   3  -5   21.56    3.99
   8   3  -4   22.90    4.15
   8   3  -3   92.09    6.93
   8   3  -2  165.29    8.91
   8   3  -1  214.80    9.80
   8   3   0  144.46    7.94
   8   3   1   97.99    6.99
   8   3   2  108.91    7.17
   8   3   3  141.25    7.90
   8   3   4  115.43    7.35
   8   3   5  168.99    9.03
   8   3   6  151.01    8.71
   8   3   7   57.89    5.92
   8   3   8   33.19    4.71
   8   3   9   27.20    4.62
   8   3  10   16.86    4.08
   8   3  11   15.63    4.38
  -8  -4  11   -2.15    3.55
  -8  -4  10   -0.67    3.41
  -8  -4   9    1.86    2.93
  -8  -4   8   -1.45    3.40
   8   4  -7    0.36    3.18
   8   4  -6    0.34    3.01
   8   4  -5   -0.74    2.04
   8   4  -4    0.56    2.11
   8   4  -3    6.05    2.96
   8   4  -2    4.49    2.74
   8   4  -1   59.22    5.87
   8   4   0  123.82    7.62
   8   4   1  218.71    9.83
   8   4   2  222.07   10.07
   8   4   3  236.32   10.41
   8   4   4  155.20    8.52
   8   4   5  124.14    7.61
   8   4   6   84.55    6.78
   8   4   7   82.67    6.76
   8   4   8   81.22    6.84
   8   4   9   34.22    4.83
   8   4  10   29.16    4.61
  -8  -5  12    6.85    5.11
  -8  -5  11    8.08    4.68
  -8  -5  10    5.70    4.02
  -8  -5   9    3.66    3.72
  -8  -5   8   13.11    4.46
  -8  -5   7   13.08    4.50
   8   5  -6   19.07    4.03
   8   5  -5   22.52    3.96
   8   5  -4   17.19    4.08
   8   5  -3   -0.34    2.81
   8   5  -2    4.62    2.73
   8   5  -1   -2.01    3.08
   8   5   0   -2.50    2.41
   8   5   1   15.94    3.41
   8   5   2    1.28    2.48
   8   5   3   18.28    4.11
   8   5   4   33.21    4.55
   8   5   5   42.79    5.36
   8   5   6   40.57    5.26
   8   5   7   36.06    5.09
   8   5   8   29.63    4.47
   8   5   9   58.15    5.82
  -8  -6  13   12.13    5.42
  -8  -6  12    9.06    5.52
  -8  -6  11   14.08    5.16
  -8  -6  10   15.73    4.58
  -8  -6   9   12.57    4.65
  -8  -6   8   27.54    5.22
  -8  -6   7   52.72    6.44
  -8  -6   6   68.16    7.76
   8   6  -4   32.98    4.89
   8   6  -3   35.31    5.07
   8   6  -2   54.36    5.48
   8   6  -1   66.84    5.87
   8   6   0   63.78    6.02
   8   6   1   50.99    5.48
   8   6   2    5.76    2.75
   8   6   3    1.48    3.13
   8   6   4   10.02    3.09
   8   6   5    7.70    3.21
   8   6   6    2.71    2.76
   8   6   7   -1.83    2.86
   8   6   8    2.34    3.38
  -8  -7  13    2.61    5.53
  -8  -7  12   12.61    5.80
  -8  -7  11    7.93    4.15
  -8  -7  10   14.96    5.44
  -8  -7   9   12.30    5.14
  -8  -7   8   29.65    5.56
  -8  -7   7   24.54    5.24
  -8  -7   6   19.79    5.04
  -8  -7   5   34.40    5.42
  -8  -7   4   45.33    5.95
   8   7  -3   58.31    6.25
   8   7  -2   80.09    6.76
   8   7  -1  140.80    8.73
   8   7   0  144.52    8.77
   8   7   1   74.10    6.51
   8   7   2  101.16    7.40
   8   7   3  100.15    7.40
   8   7   4   42.03    5.30
   8   7   5   49.94    5.38
   8   7   6   52.18    5.57
  -8  -8  12    7.59    6.09
  -8  -8  11    0.36    5.44
  -8  -8  10    2.34    4.53
  -8  -8   9    4.03    4.36
  -8  -8   8   10.11    3.87
  -8  -8   7   16.11    4.56
  -8  -8   6    9.07    3.89
  -8  -8   5   10.37    4.40
  -8  -8   4   28.84    5.49
  -8  -8   3   40.81    6.01
  -8  -8   2   51.11    6.34
   8   8  -1  111.62    8.73
   8   8   0   94.61    7.35
   8   8   1  125.64    8.32
   8   8   2  140.06    8.87
   8   8   3  120.78    8.14
   8   8   4  136.34    8.47
   8   8   5  152.68    8.96
  -8  -9  11   -1.87    5.95
  -8  -9  10    5.93    5.30
  -8  -9   9   -2.79    3.87
  -8  -9   8   -2.16    4.75
  -8  -9   7    0.77    4.24
  -8  -9   6   -0.45    3.16
  -8  -9   5   -1.12    3.87
  -8  -9   4    2.33    2.95
  -8  -9   3   23.77    5.14
  -8  -9   2   45.77    5.97
  -8  -9   1   52.36    6.31
  -8  -9   0   27.54    5.63
  -8  -9  -1   11.48    4.11
   8   9   2   32.20    5.36
   8   9   3   40.39    5.28
   8   9   4   84.21    7.32
  -8 -10   9    1.67    4.94
  -8 -10   8   22.50    6.73
  -8 -10   7    9.97    4.56
  -8 -10   6   10.22    4.92
  -8 -10   5    6.65    4.80
  -8 -10   4    7.11    4.59
  -8 -10   3   -0.86    3.06
  -8 -10   2    6.24    3.41
  -8 -10   1   -0.61    2.99
  -8 -10   0   -0.70    3.57
  -8 -10  -1   -0.14    3.81
  -8 -10  -2    1.67    3.14
  -8 -11   7   25.40    7.69
  -8 -11   6   22.08    6.95
  -8 -11   5   34.77    7.34
  -8 -11   4   24.75    6.56
  -8 -11   3   16.85    5.65
  -8 -11   2   27.67    5.64
  -8 -11   0   50.62    6.86
  -8 -11  -1   25.94    5.45
  -8 -12   5   36.44    8.35
  -8 -12   4   42.20    7.45
  -8 -12   3   49.09    7.70
  -8 -12   2   89.80    9.73
  -8 -12   1   87.71    9.42
   9  -5   2    8.05    4.66
   9  -4   0   45.24    6.49
   9  -4   1   32.05    5.57
   9  -4   2   29.60    5.56
   9  -4   3   17.77    4.73
   9  -4   4   15.34    4.45
   9  -4   5   16.15    4.39
   9  -4   6   16.48    4.54
   9  -3  -1   28.22    5.40
   9  -3   0   29.34    5.29
   9  -3   1   59.35    6.82
   9  -3   2   44.98    6.23
   9  -3   3   46.90    6.10
   9  -3   4   35.32    5.69
   9  -3   5   42.14    5.90
   9  -3   6   31.94    5.26
   9  -3   7   17.35    4.27
   9  -2  -3    1.72    3.60
   9  -2  -2    5.96    3.83
   9  -2  -1   11.25    4.16
   9  -2   0   11.31    3.97
   9  -2   1   12.21    4.07
   9  -2   2   25.54    4.90
   9  -2   3   22.32    4.37
   9  -2   4   28.40    4.74
   9  -2   5   29.65    5.09
   9  -2   6   30.74    5.09
   9  -2   7   38.14    5.50
   9  -2   8   18.08    4.11
   9  -2   9    9.05    3.63
   9  -1  -4    8.31    4.01
   9  -1  -3    2.14    3.22
   9  -1  -2    0.36    2.77
   9  -1  -1   -0.29    3.12
   9  -1   0   -1.72    2.37
   9  -1   1    1.73    2.85
   9  -1   2    2.07    2.75
   9  -1   3    0.20    3.09
   9  -1   4    3.05    3.33
   9  -1   5    4.75    3.26
   9  -1   6   19.56    4.29
   9  -1   7    4.89    3.41
   9  -1   8    3.55    3.02
   9  -1   9   13.06    4.03
   9  -1  10   13.72    4.29
   9   0  -5   33.83    5.46
   9   0  -4   42.50    5.78
   9   0  -3    7.53    3.16
   9   0  -2    4.98    3.19
   9   0  -1   15.56    3.98
   9   0   0   28.63    4.35
   9   0   1   36.99    4.83
   9   0   2   28.61    4.35
   9   0   3   23.14    4.55
   9   0   4   11.26    3.75
   9   0   5    1.25    2.94
   9   0   6    2.36    2.95
   9   0   7   11.59    3.50
   9   0   8   -1.38    2.61
   9   0   9   -0.70    2.98
   9   0  10    2.31    3.16
   9   0  11    2.55    3.67
   9   0  12    2.72    4.13
   9   1  -7   36.89    5.78
   9   1  -6   32.91    5.52
   9   1  -5   64.25    6.58
   9   1  -4   34.96    5.31
   9   1  -3   35.71    5.04
   9   1  -2   79.32    6.81
   9   1  -1   59.51    5.91
   9   1   0   65.39    5.98
   9   1   1   75.71    6.66
   9   1   2   67.51    6.30
   9   1   3   41.11    5.00
   9   1   4   25.39    4.28
   9   1   5   18.64    4.23
   9   1   6   39.24    5.19
   9   1   7   27.79    5.01
   9   1   8   15.36    4.08
   9   1   9   14.09    4.05
   9   1  10   11.54    4.32
   9   1  11    8.10    3.83
   9   1  12    8.03    4.56
   9   2  -8   14.48    4.51
   9   2  -7   15.43    4.38
   9   2  -6   20.01    4.70
   9   2  -5   13.65    3.66
   9   2  -4   10.74    3.93
   9   2  -3   27.50    4.97
   9   2  -2   39.37    4.86
   9   2  -1   58.53    6.03
   9   2   0   59.48    5.81
   9   2   1   79.67    6.52
   9   2   2   51.35    5.24
   9   2   3   45.63    5.45
   9   2   4   50.93    5.47
   9   2   5   50.29    5.53
   9   2   6   40.62    5.11
   9   2   7   43.31    5.69
   9   2   8   40.75    5.48
   9   2   9   21.72    4.32
   9   2  10   21.15    4.90
   9   2  11   20.21    5.17
   9   2  12   18.89    5.17
   9   2  13   14.33    4.81
  -9  -3   9    8.85    4.46
   9   3  -8    0.64    3.23
   9   3  -7    1.32    3.74
   9   3  -6    3.00    3.27
   9   3  -5    2.07    2.71
   9   3  -4   -1.45    2.53
   9   3  -3   -1.43    2.59
   9   3  -2    2.69    3.45
   9   3  -1   22.67    4.23
   9   3   0   44.19    5.36
   9   3   1   56.52    5.81
   9   3   2   33.82    4.90
   9   3   3   23.65    3.93
   9   3   4   36.91    4.89
   9   3   5   65.77    6.37
   9   3   6   76.34    6.87
   9   3   7   40.28    5.23
   9   3   8   24.45    4.71
   9   3   9   32.20    5.14
   9   3  10   30.18    5.16
   9   3  11   29.70    5.13
   9   3  12   26.70    5.35
  -9  -4  10   24.93    5.72
  -9  -4   9   23.75    5.89
   9   4  -7   29.03    5.20
   9   4  -6   45.63    5.91
   9   4  -5   34.70    5.28
   9   4  -4   13.14    4.16
   9   4  -3    0.61    2.72
   9   4  -2    2.53    3.22
   9   4  -1    1.18    2.40
   9   4   0    1.26    2.90
   9   4   1    1.48    2.68
   9   4   2    2.16    2.63
   9   4   3    0.69    3.25
   9   4   4    5.14    2.94
   9   4   5    5.99    3.07
   9   4   6    6.17    2.85
   9   4   7    2.24    3.38
   9   4   8    8.59    3.26
   9   4   9    5.79    3.44
   9   4  10    5.38    3.28
  -9  -5  11   13.85    5.30
  -9  -5   9   34.70    5.83
  -9  -5   8   31.49    5.42
   9   5  -6   41.32    6.03
   9   5  -5   34.62    4.97
   9   5  -4   50.31    5.98
   9   5  -3   61.34    5.98
   9   5  -2  101.65    7.97
   9   5  -1   92.09    7.36
   9   5   0   87.65    7.13
   9   5   1   60.32    6.09
   9   5   2   28.22    4.90
   9   5   3   11.98    3.63
   9   5   4    4.55    2.84
   9   5   5    1.03    3.01
   9   5   6    2.36    2.78
   9   5   7   -0.17    3.59
   9   5   8    1.09    2.88
   9   5   9    0.21    3.25
  -9  -6  12    5.98    5.83
  -9  -6  11    9.42    5.25
  -9  -6  10   13.12    4.91
  -9  -6   9   14.54    5.12
  -9  -6   8   11.05    4.18
  -9  -6   7   45.01    6.88
  -9  -6   6   38.45    6.09
   9   6  -5   53.85    6.44
   9   6  -4   38.12    5.45
   9   6  -3   66.70    6.51
   9   6  -2   62.55    6.14
   9   6  -1   74.18    6.64
   9   6   0  139.48    8.97
   9   6   1  205.79   10.55
   9   6   2  105.47    7.70
   9   6   3   46.22    5.66
   9   6   4   30.76    4.99
   9   6   5   23.45    4.62
   9   6   6   25.91    4.82
   9   6   7   22.70    4.27
   9   6   8   29.10    5.14
  -9  -7  11    1.49    4.60
  -9  -7  10   -3.09    4.90
  -9  -7   9   -1.82    3.87
  -9  -7   8    2.68    3.84
  -9  -7   7    5.80    4.59
  -9  -7   6    6.65    4.58
  -9  -7   5   19.92    5.39
   9   7  -4   13.01    4.37
   9   7  -3   31.38    5.27
   9   7  -2   44.66    5.94
   9   7  -1   96.46    7.81
   9   7   0  102.82    7.72
   9   7   1  126.15    8.77
   9   7   2   59.90    6.28
   9   7   3  100.46    7.85
   9   7   4   80.50    6.74
   9   7   5   53.90    5.63
   9   7   6   63.22    6.54
   9   7   7   53.28    5.83
  -9  -8  10    0.49    4.71
  -9  -8   9    4.79    3.87
  -9  -8   8   -1.20    3.77
  -9  -8   7    4.98    3.49
  -9  -8   6    9.41    3.97
  -9  -8   5    2.77    3.55
  -9  -8   4   -4.27    3.93
  -9  -8   3    9.43    4.23
   9   8  -2    4.50    3.32
   9   8  -1   18.78    4.72
   9   8   0   19.66    4.33
   9   8   1   22.55    4.47
   9   8   2   33.71    5.22
   9   8   3   49.32    6.00
   9   8   4   43.33    5.67
   9   8   5   59.17    6.36
   9   8   6   75.20    7.28
  -9  -9   9   18.50    6.49
  -9  -9   8   11.76    4.93
  -9  -9   7    7.92    4.83
  -9  -9   6   12.06    5.20
  -9  -9   5    9.10    4.04
  -9  -9   4   33.29    6.34
  -9  -9   3   39.02    6.02
  -9  -9   2   19.73    5.39
  -9  -9   1    9.59    4.73
   9   9   1    3.50    3.48
   9   9   2    1.06    3.75
   9   9   3   -0.95    3.60
   9   9   4    1.91    3.18
  -9 -10   8   15.23    5.55
  -9 -10   7   26.55    6.99
  -9 -10   6   28.28    6.18
  -9 -10   5   53.15    7.56
  -9 -10   4   48.18    7.29
  -9 -10   3   52.69    7.39
  -9 -10   2   75.54    8.27
  -9 -10   1   94.18    9.07
  -9 -10   0   81.88    8.27
  -9 -10  -1   60.94    7.63
  -9 -10  -2   36.26    6.21
  -9 -10  -3   22.05    5.35
  -9 -11   6   25.83    6.72
  -9 -11   5   35.43    7.48
  -9 -11   4   45.65    7.73
  -9 -11   3   54.88    8.19
  -9 -11   2   53.71    7.26
  -9 -11   1   61.43    7.61
  -9 -11   0   81.39    8.42
  -9 -11  -1   58.95    7.06
  -9 -12   4   22.01    6.64
  -9 -12   3   17.97    5.98
  -9 -12   2   28.25    7.08
  -9 -12   1   23.77    5.81
  -9 -12   0   28.77    6.79
  10  -3   0    9.17    4.61
  10  -3   1   10.80    4.44
  10  -3   2    9.48    4.20
  10  -3   3    5.44    3.83
  10  -3   4   -2.92    3.41
  10  -2  -2   15.81    4.79
  10  -2  -1    7.36    4.35
  10  -2   0    2.56    3.78
  10  -2   1    0.45    3.72
  10  -2   2    0.94    3.38
  10  -2   3    0.31    3.76
  10  -2   4   -1.43    3.43
  10  -2   5   -1.58    3.35
  10  -1  -3   42.63    6.22
  10  -1  -2   22.46    5.09
  10  -1  -1   21.61    4.87
  10  -1   0   34.50    5.63
  10  -1   1   37.72    5.87
  10  -1   2   32.72    5.15
  10  -1   3   34.13    5.46
  10  -1   4   27.46    5.16
  10  -1   5   18.99    4.62
  10  -1   6    5.59    3.84
  10  -1   7    1.68    3.17
  10   0  -4   26.46    5.20
  10   0  -3   39.33    5.73
  10   0  -2   32.41    5.56
  10   0  -1   42.33    5.58
  10   0   0   54.05    5.84
  10   0   1   82.85    7.29
  10   0   3   73.12    7.03
  10   0   4   43.58    5.59
  10   0   5   39.57    5.65
  10   0   6   23.32    4.89
  10   0   7   21.41    4.83
  10   0   8   25.54    5.16
  10   0   9   16.94    4.67
  10   1  -6    2.64    3.90
  10   1  -5    3.61    3.36
  10   1  -4   13.22    4.12
  10   1  -3    6.40    3.63
  10   1  -2   10.33    4.18
  10   1  -1   21.36    4.57
  10   1   0   26.32    4.68
  10   1   1   43.69    5.40
  10   1   2   55.46    6.24
  10   1   3   52.63    6.16
  10   1   4   36.40    5.20
  10   1   5   27.38    4.74
  10   1   6   47.03    5.97
  10   1   7   59.42    6.67
  10   1   8   42.08    5.88
  10   1   9   36.72    5.75
  10   1  10   29.25    5.77
  10   2  -7    5.40    4.37
  10   2  -6   -2.80    3.55
  10   2  -5    2.17    3.53
  10   2  -4    9.61    4.07
  10   2  -3    6.14    3.93
  10   2  -2    0.61    2.97
  10   2  -1   -0.09    2.89
  10   2   0    3.56    3.06
  10   2   1   -0.78    2.67
  10   2   2    1.95    3.04
  10   2   3    7.11    3.03
  10   2   4    6.16    3.26
  10   2   5   14.57    4.02
  10   2   6   34.87    5.24
  10   2   7   32.22    5.37
  10   2   8   28.38    5.18
  10   2   9   32.87    5.71
  10   2  10   18.37    5.11
  10   2  11    9.40    4.40
  10   3  -8   21.10    5.23
  10   3  -6   25.30    5.37
  10   3  -5   26.66    5.26
  10   3  -4   21.49    4.47
  10   3  -3   17.20    4.47
  10   3  -2   10.86    3.33
  10   3  -1    4.85    3.29
  10   3   0   11.99    3.43
  10   3   1    7.42    3.25
  10   3   2   12.99    4.07
  10   3   3   16.19    3.99
  10   3   4    2.90    2.79
  10   3   5   -1.02    2.47
  10   3   6   10.78    3.91
  10   3   7    5.00    3.75
  10   3   8    4.49    3.99
  10   3   9    0.34    3.85
  10   3  10    5.70    4.21
  10   3  11    4.95    3.83
 -10  -4  10   20.99    5.69
 -10  -4   9   36.84    7.15
  10   4  -8   21.08    4.92
  10   4  -7   10.30    4.03
  10   4  -6    6.61    4.12
  10   4  -5   12.57    4.54
  10   4  -4   20.45    4.35
  10   4  -3   33.30    5.54
  10   4  -2   53.34    6.10
  10   4  -1   64.26    6.43
  10   4   0   83.81    7.49
  10   4   1   92.92    7.62
  10   4   2   93.43    7.53
  10   4   3   71.34    6.90
  10   4   4   52.33    6.34
  10   4   5   32.75    5.39
  10   4   6   18.16    4.08
  10   4   7    7.38    3.92
  10   4   8    1.37    3.16
  10   4   9   -1.30    3.28
  10   4  10    5.79    4.46
  10   4  11    2.77    4.21
 -10  -5  10    4.78    4.95
 -10  -5   9    5.23    3.84
 -10  -5   8    8.54    5.30
  10   5  -7   21.03    5.12
  10   5  -6   22.78    4.90
  10   5  -5   51.76    6.59
  10   5  -4   55.83    6.47
  10   5  -3   25.60    4.65
  10   5  -2   25.61    4.77
  10   5  -1   32.10    4.88
  10   5   0   51.01    5.82
  10   5   1   87.23    7.62
  10   5   2   91.48    7.63
  10   5   3   84.30    7.45
  10   5   4   64.66    6.71
  10   5   5   53.55    6.39
  10   5   6   42.35    5.57
  10   5   7   73.70    7.46
  10   5   8  107.51    8.95
  10   5   9   43.41    6.35
  10   5  10   24.78    5.36
 -10  -6  10   -1.35    4.26
 -10  -6   9   -3.88    4.26
 -10  -6   8   -0.33    3.97
 -10  -6   7    5.28    5.38
  10   6  -6    0.09    3.45
  10   6  -5    2.75    3.08
  10   6  -4    6.01    3.60
  10   6  -3    4.77    3.64
  10   6  -2   19.48    4.36
  10   6  -1   10.69    3.62
  10   6   0   13.62    4.24
  10   6   1   23.20    4.68
  10   6   2   36.34    5.54
  10   6   3   41.76    5.46
  10   6   4   38.38    5.49
  10   6   5   58.83    6.79
  10   6   6   63.03    6.81
  10   6   7   53.49    6.46
  10   6   8   41.12    5.85
 -10  -7  10    5.26    5.12
 -10  -7   9    7.31    4.66
 -10  -7   8    9.66    5.49
 -10  -7   7    8.89    5.42
 -10  -7   6    2.90    5.12
  10   7  -4    2.58    3.88
  10   7  -3    3.51    3.70
  10   7  -2    6.20    3.59
  10   7  -1    1.72    2.93
  10   7   0   -0.21    3.35
  10   7   1    4.02    3.38
  10   7   2    2.57    3.13
  10   7   3    0.93    3.04
  10   7   4   14.93    3.81
  10   7   5   28.48    5.20
  10   7   6   27.44    5.17
  10   7   7   40.18    5.88
 -10  -8   8   21.60    6.40
 -10  -8   7   12.10    5.81
 -10  -8   6   19.85    6.07
 -10  -8   5   22.77    5.92
 -10  -8   4   20.50    5.01
  10   8  -3   21.82    5.22
  10   8  -2   22.84    4.74
  10   8   0   14.53    4.11
  10   8   1   10.84    3.66
  10   8   2    7.02    3.67
  10   8   3   -0.05    2.73
  10   8   4   -2.92    3.58
  10   8   5    5.72    4.26
  10   8   6    6.38    4.29
 -10  -9   7   35.83    7.23
 -10  -9   6   25.09    5.62
 -10  -9   5   30.13    6.60
 -10  -9   4   43.89    7.05
 -10  -9   3   84.01    9.33
 -10  -9   2   38.69    6.47
  10   9  -1   63.08    7.92
  10   9   0   66.72    7.27
  10   9   1   58.03    6.75
  10   9   2   60.18    6.70
  10   9   4   65.01    7.26
  10   9   5   36.03    5.84
 -10 -10   5   14.66    5.15
 -10 -10   4   32.41    6.78
 -10 -10   3   43.25    7.30
 -10 -10   2   55.35    7.93
 -10 -10   1   73.08    8.74
 -10 -10   0   77.83    9.54
 -10 -10  -1   56.39    7.81
  10  10   3   60.70    7.35
 -10 -11   3    0.95    5.08
 -10 -11   2    7.33    4.90
 -10 -11   1    8.31    4.24
 -10 -11   0   30.28    6.53
 -10 -11  -1   21.56    5.85
 -10 -11  -2   22.96    6.02
  11  -1  -2   30.06    5.98
  11  -1  -1   53.47    7.26
  11  -1   0   33.19    5.62
  11  -1   1   28.61    5.29
  11  -1   2   40.93    6.36
  11   0  -4    4.48    4.32
  11   0  -3    8.04    4.65
  11   0  -2    4.46    3.65
  11   0  -1    6.51    3.95
  11   0   0   10.83    4.05
  11   0   1   17.00    4.60
  11   0   2   12.29    3.92
  11   0   3   13.67    4.40
  11   0   4   10.13    3.99
  11   0   5    8.86    3.78
  11   1  -5   13.73    4.67
  11   1  -4   11.35    4.88
  11   1  -3    4.52    4.03
  11   1  -2   -1.11    3.75
  11   1  -1    1.40    4.08
  11   1   0    1.57    3.86
  11   1   1    2.80    3.28
  11   1   2   -1.22    3.27
  11   1   3   -2.56    3.30
  11   1   4    0.35    3.39
  11   1   5    2.28    3.55
  11   1   6    4.17    3.58
  11   2  -6   28.87    6.27
  11   2  -5   22.48    5.25
  11   2  -4   27.21    5.52
  11   2  -3   32.61    5.38
  11   2  -2   39.22    6.23
  11   2  -1   22.43    4.99
  11   2   0   18.86    4.64
  11   2   1   19.92    4.52
  11   2   2   15.36    4.50
  11   2   4    8.00    3.87
  11   2   5    6.81    3.82
  11   2   6    3.69    3.80
  11   2   7    1.65    3.45
  11   3  -7   20.86    5.74
  11   3  -6   19.50    5.47
  11   3  -5   10.11    4.00
  11   3  -4   39.43    6.41
  11   3  -3   41.81    6.02
  11   3  -2   34.96    5.35
  11   3  -1   44.32    6.13
  11   3   0   53.20    6.55
  11   3   1   25.08    5.01
  11   3   2   35.42    5.67
  11   3   3   46.69    6.11
  11   3   4   47.68    6.28
  11   3   6   20.65    4.73
  11   3   7   20.69    5.17
  11   3   8   18.62    5.17
  11   4  -8    5.04    4.53
  11   4  -7    4.24    4.74
  11   4  -6    6.22    4.08
  11   4  -5   15.94    5.10
  11   4  -4   18.11    4.61
  11   4  -3   29.44    5.45
  11   4  -2   34.62    5.43
  11   4  -1   46.97    6.07
  11   4   0   48.88    6.35
  11   4   1   38.12    5.68
  11   4   2   57.21    6.59
  11   4   3   45.37    6.16
  11   4   4   34.55    5.61
  11   4   5   42.46    6.39
  11   4   6   39.69    5.95
  11   4   7   48.56    6.70
  11   4   8   49.31    6.67
  11   4   9   44.11    6.56
  11   5  -7    2.63    3.88
  11   5  -6    2.12    4.39
  11   5  -5    3.99    3.48
  11   5  -4    2.09    3.26
  11   5  -3    6.39    3.87
  11   5  -2    4.00    3.49
  11   5  -1    1.88    3.15
  11   5   0    5.92    3.83
  11   5   1    8.34    3.58
  11   5   2   11.80    4.15
  11   5   3   15.24    4.55
  11   5   4   20.46    4.59
  11   5   5   26.63    4.95
  11   5   6   37.71    6.34
  11   5   7   32.29    5.46
  11   5   8   25.74    5.02
  11   5   9   12.42    4.50
 -11  -6   8   15.18    6.63
 -11  -6   7   21.71    5.89
  11   6  -6   11.34    4.14
  11   6  -5   13.29    4.17
  11   6  -4    8.18    3.73
  11   6  -3   10.89    4.16
  11   6  -2    9.08    3.97
  11   6  -1    4.27    4.06
  11   6   0    4.11    3.58
  11   6   1    4.83    3.50
  11   6   2   -0.03    3.66
  11   6   3    4.52    3.95
  11   6   4   -0.19    3.72
  11   6   5    4.64    3.45
  11   6   6    0.47    4.07
  11   6   7    1.90    3.72
  11   6   8    1.36    3.51
 -11  -7   7   30.89    7.15
 -11  -7   6   35.46    7.05
  11   7  -5   24.00    5.34
  11   7  -4   20.20    4.92
  11   7  -3   38.88    6.35
  11   7  -2   23.04    4.99
  11   7  -1   31.15    5.60
  11   7   0   30.72    5.07
  11   7   1   24.62    5.41
  11   7   2   21.74    5.29
  11   7   3   16.76    4.77
  11   7   4   10.51    3.93
  11   7   5    9.45    4.35
  11   7   6    4.30    3.74
  11   7   7    6.80    4.21
 -11  -8   6   28.32    6.46
 -11  -8   5   23.16    5.93
  11   8  -3   17.35    4.65
  11   8  -2   28.45    5.77
  11   8  -1   30.94    5.67
  11   8   0   29.30    5.56
  11   8   1   35.50    5.76
  11   8   2   73.97    7.69
  11   8   3   54.81    6.67
  11   8   4   56.60    7.28
  11   8   5   43.65    6.32
  11   8   6   46.64    6.76
 -11  -9   4    6.19    4.53
 -11  -9   3   32.04    7.37
  11   9  -1   27.77    5.58
  11   9   0   36.39    6.16
  11   9   1   36.66    6.18
  11   9   2   47.64    6.89
  11   9   3   30.83    5.89
  11   9   4   36.12    6.22
  11   9   5   29.64    5.57
 -11 -10   1    7.50    6.25
 -11 -10   0   19.02    5.95
  11  10   1    5.51    4.98
  11  10   2    8.17    4.30
  11  10   3   12.42    5.45
  12   2  -2   54.39    7.49
  12   2  -1   52.96    7.22
  12   3  -4    5.13    5.30
  12   3  -3    2.84    4.36
  12   3  -2   10.00    4.88
  12   3  -1   19.98    5.02
  12   3   0   30.59    5.75
  12   3   1   34.33    5.67
  12   3   2   31.02    5.71
  12   4  -4    2.23    4.78
  12   4  -3   -0.46    4.42
  12   4  -2    3.25    3.67
  12   4  -1   -0.64    3.46
  12   4   0    3.61    3.89
  12   4   1   -1.41    3.74
  12   4   2    5.57    3.90
  12   4   3    5.16    3.51
  12   5  -4   19.94    5.02
  12   5  -3   19.52    5.11
  12   5  -2   22.55    5.65
  12   5  -1   16.99    4.67
  12   5   0   14.97    4.64
  12   5   1    8.37    4.06
  12   5   2    1.70    3.26
  12   5   3    0.49    3.60
  12   5   4    5.23    4.46
  12   6  -3   31.49    5.76
  12   6  -2   36.63    6.13
  12   6  -1   41.63    6.31
  12   6   0   40.56    6.60
  12   6   1   30.58    5.55
  12   6   2   33.55    5.71
  12   6   3   29.74    5.99
  12   6   4   26.99    5.61
  12   7  -1   23.18    5.21
  12   7   0   39.09    6.33
  12   7   1   60.70    7.67
  12   7   2   56.01    7.47
  12   7   3   46.78    6.67
   0   0  -3  413.39    7.62
   0   0  -4   12.85    3.75
   0   0  -5   26.42    3.94
   0   0  -6  233.77    7.46
   0   0  -7  118.16    6.01
   0   0  -8   32.13    4.51
   0   0  -9   19.90    4.23
   0   0 -10    4.91    3.86
   0   0 -11   44.64    5.54
   0   0 -12   19.17    4.45
   0   1 -11    1.97    3.74
   0   1 -10    2.62    2.93
   0   1  -9    8.53    3.15
   0   1  -8    5.15    2.54
   0   1  -7   -1.67    2.12
   0   1  -6   -1.35    1.90
   0   1  -5   27.03    2.57
   0   1  -4   -1.98    1.58
   0   1  -3  210.25    4.21
   0   1  -2  360.49    5.37
   0  -1  -1  190.41    3.60
   0  -1  -2  507.48    6.83
   0  -1  -3  527.43    7.46
   0  -1  -4  341.78    6.74
   0  -1  -5  163.37    5.41
   0  -1  -6  435.14   10.65
   0  -1  -7  194.60    9.32
   0  -1  -8  110.10    8.17
   0  -1  -9  118.82    9.01
   0  -1 -10   67.27    7.66
   0  -1 -11   21.23    5.76
   0  -1 -12   26.07    5.68
   0  -1 -13   40.90    5.82
   0   2 -11   35.44    4.17
   0   2 -10   13.62    3.03
   0   2  -9   12.06    2.81
   0   2  -8   10.13    2.39
   0   2  -7   64.92    3.89
   0   2  -6   51.80    3.26
   0   2  -5   98.47    4.27
   0  -2  -1   69.09    3.05
   0  -2  -2    4.65    1.52
   0  -2  -3  168.82    5.02
   0  -2  -4  172.39    5.25
   0  -2  -5  223.88    6.29
   0  -2  -6  300.06    7.82
   0  -2  -7  136.71    5.84
   0  -2  -8  120.17    6.36
   0  -2  -9   78.78    7.82
   0  -2 -10   80.72    9.52
   0  -2 -11   60.46    8.68
   0  -2 -12   45.65    8.38
   0  -2 -13   30.72    7.13
   0   3 -10   45.63    4.58
   0   3  -9   33.00    3.65
   0  -3  -1  189.19    5.75
   0  -3  -2   36.53    3.17
   0  -3  -3   -0.28    1.38
   0  -3  -4   47.02    3.63
   0  -3  -5  100.95    5.28
   0  -3  -6    7.07    2.78
   0  -3  -7    2.60    2.21
   0  -3  -8    8.80    3.37
   0  -3  -9   17.96    4.00
   0  -3 -10   33.01    5.66
   0  -3 -11   25.52    7.52
   0  -3 -12   21.31    8.31
   0  -3 -13   13.51    7.53
   0  -4   0 1127.25   17.38
   0  -4  -1  416.80    9.82
   0  -4  -2  269.38    8.38
   0  -4  -3  210.30    7.87
   0  -4  -4   72.25    4.39
   0  -4  -5   97.70    5.41
   0  -4  -6   75.80    5.54
   0  -4  -7   22.06    3.38
   0  -4  -8   34.30    3.88
   0  -4  -9   17.18    4.37
   0  -4 -10    1.90    3.77
   0  -4 -11   -8.79    4.09
   0  -4 -12    5.97    6.03
   0  -4 -13   -0.41    7.58
   0  -4 -14   -0.71    7.86
   0  -5   0  260.57    9.18
   0  -5  -1  244.19    8.43
   0  -5  -2  398.12   11.34
   0  -5  -3  249.59    9.37
   0  -5  -4  223.23    9.04
   0  -5  -5  185.02    8.01
   0  -5  -6  198.46    8.80
   0  -5  -7  106.79    6.72
   0  -5  -8   51.01    5.65
   0  -5  -9   16.73    4.00
   0  -5 -10   21.01    5.01
   0  -5 -11   15.62    5.10
   0  -5 -12    2.48    4.84
   0  -5 -13    1.49    5.86
   0  -5 -14  -14.96    7.43
   0  -6   1  143.54    7.55
   0  -6   0  133.66    7.11
   0  -6  -1   90.73    5.99
   0  -6  -2   60.68    5.28
   0  -6  -3  134.30    7.87
   0  -6  -4  185.49    9.52
   0  -6  -5  230.51    9.85
   0  -6  -6  145.42    8.21
   0  -6  -7   94.34    7.71
   0  -6  -8  129.83    8.43
   0  -6  -9   53.49    5.86
   0  -6 -10   40.58    5.49
   0  -6 -11   44.30    6.27
   0  -6 -12   23.93    5.96
   0  -6 -13    2.46    4.79
   0  -6 -14   -3.84    5.53
   0  -6 -15   -3.85    9.14
   0  -7   2    9.73    3.45
   0  -7   1    0.02    2.81
   0  -7   0    1.86    2.90
   0  -7  -1   27.80    4.53
   0  -7  -2   54.01    5.57
   0  -7  -3   33.65    4.88
   0  -7  -4   23.50    5.24
   0  -7  -5   52.90    5.99
   0  -7  -6   16.84    4.28
   0  -7  -7   67.25    6.99
   0  -7  -8   64.58    6.94
   0  -7  -9   43.56    5.90
   0  -7 -10   31.46    5.40
   0  -7 -11   21.40    5.53
   0  -7 -12   17.38    5.98
   0  -7 -13   11.86    6.63
   0  -7 -14   -2.52    5.39
   0  -7 -15   -4.45    8.12
   0  -8   3   50.59    5.41
   0  -8   2   77.30    6.57
   0  -8   1   63.96    6.22
   0  -8   0   22.31    4.09
   0  -8  -1   19.91    4.58
   0  -8  -2    1.37    3.81
   0  -8  -3    1.74    3.31
   0  -8  -4   -1.55    2.95
   0  -8  -5    7.27    3.88
   0  -8  -6    0.56    4.44
   0  -8  -7    0.07    4.40
   0  -8  -8   -2.74    3.66
   0  -8  -9    0.29    4.40
   0  -8 -10   -2.31    4.72
   0  -8 -11    0.75    4.42
   0  -8 -12    0.59    5.48
   0  -8 -13   -5.50    6.45
   0  -8 -14    2.19    5.76
   0  -9   5   61.00    6.22
   0  -9   4  117.32    8.33
   0  -9   3  134.99    8.94
   0  -9   2  103.21    8.01
   0  -9   1   92.38    7.47
   0  -9   0  147.32    9.73
   0  -9  -1  102.47    8.32
   0  -9  -2   76.52    7.58
   0  -9  -3  118.02   10.02
   0  -9  -4   90.17    8.09
   0  -9  -5   65.86    7.61
   0  -9  -6   20.67    5.51
   0  -9  -7    7.71    5.18
   0  -9  -8   -5.10    4.32
   0  -9  -9   -3.57    4.53
   0  -9 -10   -6.63    4.78
   0  -9 -11   -6.01    4.85
   0  -9 -12   -8.40    5.76
   0 -10   6   14.41    4.12
   0 -10   5   25.36    4.61
   0 -10   4   44.85    6.02
   0 -10   3   64.30    6.72
   0 -10   2   59.92    6.51
   0 -10   1   89.76    8.26
   0 -10   0   75.91    7.91
   0 -10  -1   61.52    7.27
   0 -10  -2   93.01    8.99
   0 -10  -3  108.11    9.57
   0 -10  -4   74.83    8.15
   0 -10  -5   58.95    7.85
   0 -10  -6   25.91    6.73
   0 -10  -7   16.71    6.13
   0 -10  -8   27.52    6.55
   0 -10  -9   10.08    5.99
   0 -10 -10   13.93    6.79
   0 -10 -11   -1.55    5.89
   0 -11   5    4.72    3.57
   0 -11   4    7.24    3.28
   0 -11   3    8.82    3.76
   0 -11   2   25.32    5.36
   0 -11   1   34.91    6.33
   0 -11   0   21.36    5.12
   0 -11  -1   47.67    7.55
   0 -11  -2   92.27    9.63
   0 -11  -3   48.58    7.03
   0 -11  -4   41.72    6.96
   0 -11  -5   44.27    7.75
   0 -11  -6   16.28    6.46
   0 -11  -7   36.11    8.23
   0 -11  -8   28.50    8.01
   0 -12   5   11.50    4.20
   0 -12   4    2.52    4.62
   0 -12   3   10.32    5.12
   0 -12   2    1.70    4.87
   0 -12   1    7.13    5.15
   0 -12   0   -1.61    5.06
   0 -12  -1   -0.46    4.21
   0 -12  -2   -0.17    5.70
   0 -12  -3    9.50    5.01
   0 -12  -4    7.89    5.83
   1 -12  -2   53.11    7.62
   1 -12  -1   38.70    7.19
   1 -12   0   26.34    6.78
   1 -12   1   25.19    7.20
   1 -12   2   28.01    7.22
   1 -12   3   21.71    6.28
   1 -11  -7    5.78    5.72
   1 -11  -6    5.40    5.82
   1 -11  -5   18.34    6.61
   1 -11  -4   39.13    7.03
   1 -11  -3   64.45    8.41
   1 -11  -2   52.28    7.23
   1 -11  -1   57.06    7.96
   1 -11   0   41.64    6.56
   1 -11   1   54.36    7.54
   1 -11   3   57.42    7.49
   1 -11   4   45.29    6.54
   1 -10  -9  -11.81    4.62
   1 -10  -8   -4.63    4.91
   1 -10  -7   -3.01    4.81
   1 -10  -6   -2.99    4.92
   1 -10  -5    1.07    4.71
   1 -10  -4    8.57    5.26
   1 -10  -3   21.72    5.29
   1 -10  -2   24.02    4.98
   1 -10  -1   21.30    5.94
   1 -10   0   23.93    5.77
   1 -10   1   44.68    6.61
   1 -10   2   52.28    6.55
   1 -10   3   58.38    6.93
   1 -10   4   51.79    6.68
   1  -9 -12   -0.46    6.12
   1  -9 -11    2.28    5.97
   1  -9 -10   -2.53    5.06
   1  -9  -9   -1.61    4.68
   1  -9  -8    4.21    4.43
   1  -9  -7   -3.71    4.01
   1  -9  -6    0.65    4.39
   1  -9  -5    3.12    4.58
   1  -9  -4   -0.72    4.25
   1  -9  -3   -3.77    3.80
   1  -9  -2   -5.04    3.95
   1  -9  -1   -2.63    4.15
   1  -9   0    8.13    4.32
   1  -9   1    3.59    3.50
   1  -9   2   -0.28    2.90
   1  -9   3    5.84    3.95
   1  -9   4   18.56    4.03
   1  -9   5   25.23    4.46
   1  -8 -14   -5.44    7.44
   1  -8 -13   -6.11    6.07
   1  -8 -12   -1.72    5.33
   1  -8 -11    1.61    5.35
   1  -8 -10    5.02    4.61
   1  -8  -9   19.65    5.13
   1  -8  -8   56.52    7.36
   1  -8  -7   39.32    6.19
   1  -8  -6   70.95    7.87
   1  -8  -5   50.33    6.68
   1  -8  -4   64.99    6.65
   1  -8  -3   74.74    7.16
   1  -8  -2   57.93    6.56
   1  -8  -1   33.49    5.19
   1  -8   0   14.28    4.31
   1  -8   1    7.40    3.71
   1  -8   2   12.68    3.77
   1  -8   3   10.58    3.40
   1  -8   4   14.26    4.02
   1  -8   5   18.11    3.92
   1  -8   6   -0.44    2.88
   1  -7 -15  -24.28    8.90
   1  -7 -14  -10.34    7.07
   1  -7 -13    1.49    5.02
   1  -7 -12    9.05    6.10
   1  -7 -11   14.64    4.90
   1  -7 -10   27.02    5.87
   1  -7  -9   16.34    4.64
   1  -7  -8   32.32    5.84
   1  -7  -7  103.37    8.01
   1  -7  -6  105.25    8.38
   1  -7  -5  111.54    8.22
   1  -7  -4  102.97    7.38
   1  -7  -3   69.91    6.05
   1  -7  -2  130.28    8.72
   1  -7  -1  125.96    8.19
   1  -7   0  123.18    7.66
   1  -7   1  135.68    7.97
   1  -7   2  127.26    7.24
   1  -7   3   95.28    6.68
   1  -7   4   89.03    6.52
   1  -7   5   57.36    5.35
   1  -6 -16  -28.00    9.43
   1  -6 -15  -20.02    9.00
   1  -6 -14  -17.79    5.98
   1  -6 -13   -9.98    5.66
   1  -6 -12    0.71    4.28
   1  -6 -11   -2.80    4.85
   1  -6 -10    5.99    4.57
   1  -6  -9    2.98    3.50
   1  -6  -8   27.15    5.24
   1  -6  -7   48.46    6.15
   1  -6  -6   16.20    4.79
   1  -6  -5  110.64    7.61
   1  -6  -4  130.99    7.82
   1  -6  -3   51.85    5.01
   1  -6  -2   30.72    4.22
   1  -6  -1  104.27    6.84
   1  -6   0  188.99    8.62
   1  -6   1  165.14    7.63
   1  -6   2  196.81    8.44
   1  -6   3  168.35    8.04
   1  -5 -16   -3.67    7.68
   1  -5 -15  -17.15    8.62
   1  -5 -14   -7.31    7.36
   1  -5 -13   -5.30    6.62
   1  -5 -12   -3.66    4.52
   1  -5 -11   -5.89    4.56
   1  -5 -10   -1.42    3.93
   1  -5  -9   -3.26    3.18
   1  -5  -8    0.33    3.00
   1  -5  -7   -3.95    2.63
   1  -5  -6   30.85    4.26
   1  -5  -5   34.87    4.81
   1  -5  -4    6.60    2.62
   1  -5  -3    7.71    2.76
   1  -5  -2   31.97    4.18
   1  -5  -1  157.41    7.39
   1  -5   0  121.88    6.38
   1  -5   1  247.06    8.19
   1  -5   2  222.98    8.16
   1  -5   3   80.45    5.10
   1  -4 -15   -3.91    8.34
   1  -4 -14   -4.12    7.97
   1  -4 -13   -8.93    7.40
   1  -4 -12    7.47    7.21
   1  -4 -11   21.49    5.76
   1  -4 -10   15.76    4.39
   1  -4  -9   10.69    3.90
   1  -4  -8    8.17    3.43
   1  -4  -7   11.80    3.09
   1  -4  -6    6.13    3.35
   1  -4  -5    9.10    3.02
   1  -4  -4   -1.82    1.95
   1  -4  -3    5.74    2.47
   1  -4  -2   16.32    2.60
   1  -4  -1    0.91    1.71
   1  -4   0   -0.64    1.38
   1  -4   1    8.36    2.30
   1  -4   2   60.39    4.16
   1  -3 -15    9.54    7.25
   1  -3 -14   15.45    8.25
   1  -3 -13   12.51    6.40
   1  -3 -12   51.03    9.79
   1  -3 -11   35.98    7.41
   1  -3 -10   86.48    8.33
   1  -3  -9  106.65    7.33
   1  -3  -8   95.73    6.63
   1  -3  -7  108.55    6.23
   1  -3  -6   94.49    5.06
   1  -3  -5  129.08    5.60
   1  -3  -4  195.92    6.96
   1  -3  -3  109.59    4.94
   1  -3  -2   45.51    3.25
   1  -3  -1   27.08    2.91
   1  -3   0    0.50    1.27
   1  -3   1   63.42    3.58
   1  -2 -15    2.35    5.46
   1  -2 -14    9.00    6.04
   1  -2 -13   11.51    6.81
   1  -2 -12   23.47    7.11
   1  -2 -11   65.06    8.98
   1  -2 -10   88.08   10.49
   1  -2  -9   66.04    7.76
   1  -2  -8  139.08    8.29
   1  -2  -7   92.81    5.87
   1  -2  -6   47.41    3.96
   1  -2  -5  329.18    8.18
   1  -2  -4  259.14    6.67
   1  -2  -3  107.69    4.30
   1  -2  -2   78.46    3.65
   1  -2  -1    1.22    1.55
   1  -2   0   95.75    3.59
   1  -2   1  507.55    7.82
  -1   2  -8   27.90    3.02
  -1   2  -9   26.87    3.29
   1  -1 -14    2.17    4.55
   1  -1 -13    5.57    5.07
   1  -1 -12   -1.28    4.46
   1  -1 -11   -0.82    4.18
   1  -1 -10    8.59    5.78
   1  -1  -9   17.00    6.22
   1  -1  -8   89.95    7.39
   1  -1  -7  156.91    9.74
   1  -1  -6  176.28    8.43
   1  -1  -5  221.72    7.48
   1  -1  -4    7.67    2.40
   1  -1  -3   31.27    3.02
   1  -1  -2  424.13    6.81
   1  -1  -1  854.45    9.61
   1  -1   0   80.93    2.45
   1  -1   1  919.20    9.15
  -1   1  -5  351.23    6.01
  -1   1  -6  147.78    4.27
  -1   1  -7   96.68    4.05
  -1   1  -8  141.08    5.17
  -1   1  -9   71.41    4.46
  -1   1 -10   56.30    4.47
   1   0 -14    7.90    3.99
   1   0 -13   11.61    4.58
   1   0 -12   27.64    4.94
   1   0 -11   10.07    4.56
   1   0 -10    2.47    4.59
   1   0  -9   62.87    6.32
   1   0  -8    3.99    3.33
   1   0  -7   21.79    4.70
   1   0  -6   54.91    5.61
   1   0  -5  257.43    9.09
   1   0  -4 1051.78   16.35
   1   0  -3  126.24    5.60
   1   0  -2   95.45    4.12
   1   0  -1   37.47    2.20
  -1   0  -4   15.37    2.23
  -1   0  -5  112.37    4.00
  -1   0  -6  125.16    4.52
  -1   0  -7  243.16    6.33
  -1   0  -8  167.26    6.19
  -1   0  -9   79.46    5.20
  -1   0 -10   39.03    4.23
   1   1 -13   43.49    5.62
   1   1 -12   62.89    6.15
   1   1 -11   44.06    5.38
   1   1 -10   89.39    6.20
   1   1  -9   73.77    5.42
   1   1  -8   63.15    4.72
   1   1  -7   21.81    3.04
   1   1  -6    2.59    2.20
   1   1  -5   15.79    2.67
   1   1  -4   33.41    2.67
   1   1  -3  182.41    4.55
   1   1  -2   70.52    2.66
   1   1  -1    2.87    0.78
  -1  -1  -3    3.51    1.21
  -1  -1  -4   11.50    1.78
  -1  -1  -5   80.77    3.68
  -1  -1  -6   55.56    4.21
  -1  -1  -7   49.35    5.84
  -1  -1  -8   39.74    5.89
  -1  -1  -9   20.64    5.75
  -1  -1 -10    7.75    4.98
  -1  -1 -11   33.00    5.32
   1   2 -13   48.41    5.70
   1   2 -12   40.12    5.18
   1   2 -11  113.88    7.19
   1   2 -10  119.81    6.91
   1   2  -9   79.60    5.56
   1   2  -8   75.02    4.81
   1   2  -7   95.00    4.98
   1   2  -6  291.81    7.74
   1   2  -5  290.74    6.97
   1   2  -4  229.77    5.86
   1   2  -3  155.23    4.84
  -1  -2  -2   -1.73    1.20
  -1  -2  -3    0.33    1.36
  -1  -2  -4   35.87    2.53
  -1  -2  -5    0.90    1.79
  -1  -2  -6    2.56    2.04
  -1  -2  -7    0.81    2.48
  -1  -2  -8    2.55    2.94
  -1  -2  -9    1.12    4.60
  -1  -2 -10    6.67    6.18
  -1  -2 -11    1.30    6.42
   1   3 -12   13.89    3.62
   1   3 -11   27.59    4.22
   1   3 -10   28.79    4.11
   1   3  -9   75.83    5.34
   1   3  -8  136.63    6.34
   1   3  -7  192.67    7.00
   1   3  -6  145.50    6.12
   1   3  -5  228.32    7.02
  -1  -3  -2  383.31    8.69
  -1  -3  -3  287.96    7.47
  -1  -3  -4  146.56    5.53
  -1  -3  -5    6.14    1.85
  -1  -3  -6   41.45    3.75
  -1  -3  -7  122.13    5.56
  -1  -3  -8   62.92    4.50
  -1  -3  -9   49.16    4.96
  -1  -3 -10   15.91    4.41
  -1  -3 -11    6.95    5.79
  -1  -3 -12   -6.45    6.40
   1   4 -12    0.56    2.85
   1   4 -11    0.38    2.74
   1   4 -10   -0.10    2.67
  -1  -4  -2  511.44   11.64
  -1  -4  -3  529.04   11.70
  -1  -4  -4  408.67   10.68
  -1  -4  -5  387.15   10.23
  -1  -4  -6  349.89    9.97
  -1  -4  -7   54.05    4.62
  -1  -4  -8   34.97    4.10
  -1  -4  -9   41.85    4.55
  -1  -4 -10   22.81    4.54
  -1  -4 -11   42.47    5.79
  -1  -4 -12   32.22    5.94
  -1  -5  -1   73.34    5.07
  -1  -5  -2  106.83    6.00
  -1  -5  -3  219.41    8.63
  -1  -5  -4  161.60    7.57
  -1  -5  -5   99.86    6.19
  -1  -5  -6   57.44    4.79
  -1  -5  -7   60.03    5.38
  -1  -5  -8   55.29    5.56
  -1  -5  -9   72.05    6.19
  -1  -5 -10   75.58    6.20
  -1  -5 -11   54.90    6.04
  -1  -5 -12   26.51    5.60
  -1  -5 -13   11.02    5.61
  -1  -6  -1    2.69    2.19
  -1  -6  -2   21.92    3.87
  -1  -6  -3   10.56    2.92
  -1  -6  -4   42.20    5.16
  -1  -6  -5   21.72    3.99
  -1  -6  -6   26.99    4.40
  -1  -6  -7   28.23    4.99
  -1  -6  -8   18.48    4.82
  -1  -6  -9   17.43    4.38
  -1  -6 -10   38.38    5.51
  -1  -6 -11   30.21    5.50
  -1  -6 -12   16.17    5.34
  -1  -6 -13   12.06    5.25
  -1  -7   0  227.39   10.39
  -1  -7  -1   49.93    5.19
  -1  -7  -2   28.91    4.38
  -1  -7  -3   28.27    4.79
  -1  -7  -4    9.94    3.49
  -1  -7  -5   -0.36    3.99
  -1  -7  -6    8.39    4.19
  -1  -7  -7   15.26    4.18
  -1  -7  -8   -1.48    4.24
  -1  -7  -9   -0.90    3.39
  -1  -7 -10    1.67    4.53
  -1  -7 -11    1.58    4.52
  -1  -7 -12   -4.51    4.05
  -1  -7 -13   -4.62    4.53
  -1  -7 -14   -9.20    4.73
  -1  -8   1  202.42   10.30
  -1  -8   0  219.81   10.95
  -1  -8  -1  197.60   10.45
  -1  -8  -2  161.21    9.57
  -1  -8  -3  152.10    9.55
  -1  -8  -4  170.50   10.46
  -1  -8  -5  230.05   12.33
  -1  -8  -6  234.86   12.16
  -1  -8  -7   28.68    6.07
  -1  -8  -8    5.85    4.72
  -1  -8  -9    0.11    4.52
  -1  -8 -10    0.96    3.93
  -1  -8 -11   -1.10    3.86
  -1  -8 -12   -5.13    4.15
  -1  -8 -13   -4.62    4.77
  -1  -8 -14  -12.29    5.90
  -1  -9   2  111.75    8.33
  -1  -9   1  139.04    9.31
  -1  -9   0  158.78    9.52
  -1  -9  -1  182.76   10.39
  -1  -9  -2  129.52    9.18
  -1  -9  -3  123.68    9.74
  -1  -9  -4   53.96    7.31
  -1  -9  -5   45.58    6.60
  -1  -9  -6   35.90    5.74
  -1  -9  -7   44.73    6.98
  -1  -9  -8   74.65    8.76
  -1  -9  -9   55.29    8.40
  -1  -9 -10   22.33    6.29
  -1  -9 -11   19.24    6.17
  -1  -9 -12   15.57    6.70
  -1  -9 -13    1.54    6.76
  -1 -10   4   -0.04    3.25
  -1 -10   3   11.94    4.10
  -1 -10   2   17.49    4.48
  -1 -10   1   21.80    4.70
  -1 -10   0   22.37    4.33
  -1 -10  -1   12.24    4.09
  -1 -10  -2    5.05    4.53
  -1 -10  -3   40.55    6.98
  -1 -10  -4   62.75    8.05
  -1 -10  -5   61.86    8.38
  -1 -10  -6   32.87    6.26
  -1 -10  -7   29.97    7.01
  -1 -10  -8   16.59    6.06
  -1 -10  -9   26.72    7.73
  -1 -10 -10   24.63    6.77
  -1 -10 -11   34.09    8.49
  -1 -10 -12    5.56    5.84
  -1 -11   6   26.62    5.04
  -1 -11   5   23.45    4.99
  -1 -11   4   18.66    4.81
  -1 -11   3    7.61    4.25
  -1 -11   2    3.68    2.96
  -1 -11   1    0.49    3.81
  -1 -11   0    5.80    4.15
  -1 -11  -1    7.81    4.27
  -1 -11  -2    0.57    4.19
  -1 -11  -3    5.11    5.36
  -1 -11  -4    3.62    5.10
  -1 -11  -5    2.94    4.21
  -1 -11  -6    1.38    4.49
  -1 -11  -7    2.59    5.96
  -1 -11  -8    4.68    6.20
  -1 -11  -9    0.62    6.36
  -1 -12   6   42.45    6.08
  -1 -12   5   57.19    7.21
  -1 -12   4   40.89    6.42
  -1 -12   3   45.53    6.41
  -1 -12   2   56.85    7.43
  -1 -12   1   45.82    6.90
  -1 -12   0   34.81    6.73
  -1 -12  -1   29.47    6.76
  -1 -12  -2   23.06    6.78
  -1 -12  -3   10.79    5.48
  -1 -12  -4   19.00    6.52
  -1 -12  -5   17.24    6.51
  -1 -12  -6   10.95    6.33
   2 -11  -5   -7.10    5.15
   2 -11  -4   -5.62    4.92
   2 -11  -3   -4.34    4.33
   2 -11  -2    1.73    4.90
   2 -11  -1    7.79    5.58
   2 -11   0    9.76    5.23
   2 -11   1   19.64    5.74
   2 -11   2   23.06    5.89
   2 -10  -8    4.67    5.71
   2 -10  -7    3.81    5.05
   2 -10  -6    6.73    5.66
   2 -10  -5   21.28    6.62
   2 -10  -4   16.39    5.53
   2 -10  -3   10.06    5.20
   2 -10  -2    3.77    4.31
   2 -10  -1   -0.36    3.86
   2 -10   0    2.72    4.23
   2 -10   1    1.26    3.96
   2 -10   2    1.60    4.06
   2 -10   3    8.42    4.43
   2  -9 -10    0.69    5.64
   2  -9  -9    9.47    5.63
   2  -9  -8   17.15    5.93
   2  -9  -7   26.38    6.31
   2  -9  -6   41.53    6.52
   2  -9  -5   42.61    6.56
   2  -9  -4   64.00    7.80
   2  -9  -3   98.97    8.76
   2  -9  -2   77.16    7.51
   2  -9  -1   68.71    7.18
   2  -9   0   43.28    6.18
   2  -9   1   13.87    4.68
   2  -9   2   18.90    4.98
   2  -9   3   15.10    4.63
   2  -8 -12   -5.93    5.87
   2  -8 -11   -4.71    4.94
   2  -8 -10    2.34    4.70
   2  -8  -9   16.02    5.21
   2  -8  -8   23.30    5.37
   2  -8  -7   33.03    5.72
   2  -8  -6   39.89    6.03
   2  -8  -5   57.66    6.77
   2  -8  -4   71.28    7.33
   2  -8  -3   90.72    7.64
   2  -8  -2   92.68    7.44
   2  -8  -1   95.07    7.29
   2  -8   0  107.43    8.24
   2  -8   1  141.29    9.33
   2  -8   2  168.85    9.64
   2  -8   3  170.28    9.60
   2  -8   4   98.50    7.31
   2  -7 -14  -13.89    7.12
   2  -7 -13  -13.54    5.83
   2  -7 -12   -7.70    5.30
   2  -7 -11  -11.74    4.74
   2  -7 -10   -3.94    4.57
   2  -7  -9   -4.20    3.89
   2  -7  -8   -6.11    3.05
   2  -7  -7   -1.91    3.33
   2  -7  -6   23.27    5.32
   2  -7  -5   20.93    5.28
   2  -7  -4   20.94    4.55
   2  -7  -3   56.91    5.81
   2  -7  -2  100.33    7.25
   2  -7  -1  119.06    7.71
   2  -7   0  162.70    9.09
   2  -7   1  143.81    8.43
   2  -7   2   89.78    6.63
   2  -7   3   55.81    5.26
   2  -7   4   77.66    6.17
   2  -7   5  104.45    6.61
   2  -6 -15  -16.87    9.40
   2  -6 -14  -11.70    7.90
   2  -6 -13  -11.66    5.80
   2  -6 -12   -6.63    4.56
   2  -6 -11    2.35    5.14
   2  -6 -10    3.55    5.16
   2  -6  -9    6.99    4.06
   2  -6  -8   17.03    4.39
   2  -6  -7   -1.89    3.86
   2  -6  -6    9.61    3.67
   2  -6  -5    4.71    4.10
   2  -6  -4    1.07    2.97
   2  -6  -3    0.87    3.28
   2  -6  -2    3.95    2.54
   2  -6  -1    7.76    3.14
   2  -6   0   61.92    5.74
   2  -6   1   73.41    5.64
   2  -6   2   69.90    5.67
   2  -6   3   55.90    4.93
   2  -6   4   50.57    4.46
   2  -6   5    0.32    2.29
   2  -5 -16   -9.24    9.22
   2  -5 -15   -3.02    8.05
   2  -5 -14   -4.42    7.03
   2  -5 -13    2.58    7.05
   2  -5 -12    8.52    6.52
   2  -5 -11   11.80    5.62
   2  -5 -10   18.48    5.50
   2  -5  -9   38.63    5.55
   2  -5  -8   44.02    5.86
   2  -5  -7   57.21    5.45
   2  -5  -6   91.57    6.80
   2  -5  -5   16.35    3.89
   2  -5  -4   27.11    3.95
   2  -5  -3   24.31    3.68
   2  -5  -2   12.29    2.79
   2  -5  -1   13.40    2.57
   2  -5   0   16.00    3.23
   2  -5   1    5.58    2.51
   2  -5   2    0.87    2.13
   2  -5   3   -2.25    1.92
   2  -5   4    1.32    2.17
   2  -5   5   -0.20    2.11
   2  -5   6   14.27    2.95
   2  -4 -17   -9.78    5.70
   2  -4 -16    0.37    7.22
   2  -4 -14   -5.99    7.35
   2  -4 -13    2.84    8.47
   2  -4 -12   13.85    8.50
   2  -4 -11   30.09    7.57
   2  -4 -10   23.49    5.29
   2  -4  -9   51.40    6.40
   2  -4  -8   34.57    5.22
   2  -4  -7   78.30    6.24
   2  -4  -6   53.18    4.68
   2  -4  -5  111.27    6.09
   2  -4  -4  283.48    9.16
   2  -4  -3  434.42   11.35
   2  -4  -2  433.10   10.80
   2  -4  -1  149.80    6.11
   2  -4   0  205.64    7.23
   2  -4   1  102.49    5.24
   2  -4   2  124.60    5.57
   2  -4   3   73.45    4.08
   2  -4   4   52.86    3.79
   2  -4   5   26.43    3.04
   2  -3 -16    0.28    6.04
   2  -3 -15   -2.07    6.38
   2  -3 -14    1.95    7.40
   2  -3 -13   -2.11    7.37
   2  -3 -12    2.47    6.87
   2  -3 -11   -1.73    6.39
   2  -3 -10   29.81    7.26
   2  -3  -9   42.51    6.58
   2  -3  -8   19.40    4.94
   2  -3  -7   29.93    4.60
   2  -3  -6   71.23    5.02
   2  -3  -5  154.89    6.71
   2  -3  -4  214.78    7.19
   2  -3  -3  289.49    8.03
   2  -3  -2  213.43    6.97
   2  -3  -1  310.82    7.81
   2  -3   0  293.79    7.17
   2  -3   1  171.81    5.86
   2  -3   2  325.96    7.55
   2  -3   3  337.02    7.19
   2  -3   4  240.93    6.55
   2  -2 -16   11.33    5.58
   2  -2 -15   -2.09    5.49
   2  -2 -14   -2.13    6.05
   2  -2 -13    0.77    6.40
   2  -2 -12   -1.62    6.30
   2  -2 -11    6.94    6.40
   2  -2 -10    6.45    6.08
   2  -2  -9    0.43    6.10
   2  -2  -8   -3.06    5.17
   2  -2  -7    5.16    4.69
   2  -2  -6    0.07    3.04
   2  -2  -5    2.47    3.29
   2  -2  -4  125.80    5.58
   2  -2  -3  228.07    6.56
   2  -2  -2  158.37    5.18
   2  -2  -1   86.67    4.02
   2  -2   0   44.19    2.84
   2  -2   1  167.31    4.43
   2  -2   2  181.61    4.74
   2  -2   3  291.67    5.49
   2  -2   4  303.53    5.87
   2  -1 -15   16.59    5.38
   2  -1 -14    9.09    5.06
   2  -1 -13    7.42    5.53
   2  -1 -12    7.65    5.71
   2  -1 -11    6.95    5.04
   2  -1 -10   22.15    7.95
   2  -1  -9   36.49    6.88
   2  -1  -8   67.25    8.49
   2  -1  -7   99.40    9.32
   2  -1  -6   10.17    6.18
   2  -1  -5   17.00    5.27
   2  -1  -4    2.10    3.44
   2  -1  -3   27.92    3.52
   2  -1  -2   66.86    4.01
   2  -1  -1   19.77    2.51
   2  -1   0   49.06    2.52
   2  -1   1  126.16    3.31
   2  -1   2   63.22    2.19
   2   0 -15   24.37    5.15
   2   0 -14   32.15    5.43
   2   0 -13   39.97    6.41
   2   0 -12   34.14    5.95
   2   0 -11   56.75    6.86
   2   0 -10   55.52    6.93
   2   0  -9   42.67    6.55
   2   0  -8   21.10    5.49
   2   0  -7   22.22    5.50
   2   0  -6   -1.26    4.93
   2   0  -5   27.21    4.40
   2   0  -4  261.51    9.68
   2   0  -3  189.21    7.64
   2   0  -2  481.71   10.30
   2   0  -1  198.20    6.44
   2   0   0   45.48    3.49
  -2   0  -6   38.89    2.16
  -2   0  -7   34.54    2.42
  -2   0  -8   34.31    2.83
   2   1 -15   13.81    4.72
   2   1 -14   16.94    4.93
   2   1 -13   25.34    5.16
   2   1 -12   59.53    6.06
   2   1 -11   24.42    5.00
   2   1 -10   26.21    4.09
   2   1  -9   74.30    6.38
   2   1  -8  142.63    7.71
   2   1  -7  315.11    9.63
   2   1  -6  275.27    8.91
   2   1  -5  209.75    7.28
   2   1  -4  237.68    6.85
   2   1  -3   95.17    4.48
   2   1  -2   36.20    2.80
   2   1  -1  975.46   10.54
   2   1   0  217.98    4.29
   2   1   1   26.80    1.95
  -2  -1  -4  226.31    3.97
  -2  -1  -5  120.71    3.47
  -2  -1  -6  101.22    4.48
  -2  -1  -7   30.99    4.34
  -2  -1  -9    1.71    3.72
   2   2 -14    8.89    4.18
   2   2 -13   11.55    4.57
   2   2 -12    5.11    4.10
   2   2 -11   -1.41    3.89
   2   2 -10   50.55    5.87
   2   2  -9   44.01    4.80
   2   2  -8   28.73    3.96
   2   2  -7   63.63    5.08
   2   2  -6  149.31    6.29
   2   2  -5  224.96    7.20
   2   2  -4  232.89    6.51
   2   2  -3  271.27    6.41
   2   2  -2  155.50    4.68
   2   2  -1   38.96    2.95
  -2  -2  -3  243.84    5.67
  -2  -2  -4  247.82    5.68
  -2  -2  -5  210.12    5.19
  -2  -2  -6  203.62    5.35
  -2  -2  -7  117.52    4.50
  -2  -2  -8   73.06    4.37
  -2  -2  -9   43.96    6.17
   2   3 -14    7.92    3.75
   2   3 -13    3.75    3.44
   2   3 -12    3.46    3.43
   2   3 -11   -1.76    2.94
   2   3 -10    1.26    2.41
   2   3  -9   -4.34    2.63
   2   3  -8   -1.82    1.82
   2   3  -7   -0.25    2.34
   2   3  -6   17.03    2.62
   2   3  -5   18.37    2.69
   2   3  -4   76.47    4.42
   2   3  -3   92.13    4.52
  -2  -3  -3  496.96   10.13
  -2  -3  -4  726.64   12.01
  -2  -3  -5  462.84    9.84
  -2  -3  -6  150.64    5.59
  -2  -3  -7  270.58    7.57
  -2  -3  -8   93.73    4.87
  -2  -3  -9   51.16    4.36
  -2  -3 -10   62.95    5.53
   2   4 -13   33.42    5.23
   2   4 -12   37.87    5.10
   2   4 -11   23.32    4.02
   2   4 -10   21.28    4.31
   2   4  -9    4.48    2.94
   2   4  -8   -2.00    2.73
   2   4  -7   -4.57    2.16
   2   4  -6   25.29    3.48
  -2  -4  -3   56.34    4.42
  -2  -4  -4   68.57    4.51
  -2  -4  -5   63.03    4.37
  -2  -4  -6   37.78    3.61
  -2  -4  -7   54.92    4.35
  -2  -4  -8   36.83    4.07
  -2  -4  -9   36.92    4.32
  -2  -4 -10   39.22    4.68
  -2  -4 -11   52.56    5.71
  -2  -5  -3   12.80    3.34
  -2  -5  -4    0.64    1.96
  -2  -5  -5   17.53    3.29
  -2  -5  -6   56.75    4.84
  -2  -5  -7    5.93    2.83
  -2  -5  -8    0.15    2.82
  -2  -5  -9    1.30    2.88
  -2  -5 -10   -0.78    3.52
  -2  -5 -11    7.56    3.81
  -2  -6  -2  241.36   10.11
  -2  -6  -3   51.09    5.37
  -2  -6  -4   44.21    4.95
  -2  -6  -5   41.93    5.19
  -2  -6  -6   36.81    5.26
  -2  -6  -7   12.25    3.74
  -2  -6  -8    2.17    2.89
  -2  -6  -9   -1.84    3.71
  -2  -6 -10   -3.49    3.70
  -2  -6 -11   -6.00    3.71
  -2  -6 -12    1.05    4.22
  -2  -7  -2  154.27    9.18
  -2  -7  -3  251.83   11.14
  -2  -7  -4  268.12   11.67
  -2  -7  -5  151.06    9.14
  -2  -7  -6   91.68    7.71
  -2  -7  -7  109.77    8.07
  -2  -7  -8   57.17    6.74
  -2  -7  -9   23.69    5.36
  -2  -7 -10   15.28    4.65
  -2  -7 -11   18.07    5.16
  -2  -7 -12    8.97    5.01
  -2  -8  -1  361.69   14.09
  -2  -8  -2  354.44   14.04
  -2  -8  -3  122.86    8.41
  -2  -8  -4   94.05    7.84
  -2  -8  -5   95.27    8.29
  -2  -8  -6  155.21   11.00
  -2  -8  -7   83.67    7.52
  -2  -8  -8   33.41    6.27
  -2  -8  -9   22.79    5.40
  -2  -8 -10   29.97    6.68
  -2  -8 -11   18.38    5.56
  -2  -8 -12   16.66    6.19
  -2  -8 -13   17.18    6.48
  -2  -9   0    1.39    3.53
  -2  -9  -1   11.98    4.10
  -2  -9  -2    0.13    2.59
  -2  -9  -3   12.67    4.07
  -2  -9  -4   50.71    6.63
  -2  -9  -5   74.81    7.99
  -2  -9  -6   95.50    9.17
  -2  -9  -7   36.94    6.51
  -2  -9  -8   24.83    6.41
  -2  -9  -9   24.70    6.67
  -2  -9 -10   18.03    6.62
  -2  -9 -11   41.39    7.85
  -2  -9 -12    6.96    5.55
  -2  -9 -13    8.74    5.80
  -2 -10   1   83.34    7.62
  -2 -10   0   66.31    7.12
  -2 -10  -1   39.06    6.26
  -2 -10  -2   17.15    4.63
  -2 -10  -3    6.05    4.58
  -2 -10  -4   -0.80    3.53
  -2 -10  -5    3.43    5.25
  -2 -10  -6   -2.02    5.03
  -2 -10  -7    0.23    3.98
  -2 -10  -8   -1.36    4.30
  -2 -10  -9   -3.44    5.32
  -2 -10 -10   11.29    7.18
  -2 -10 -11    0.57    6.73
  -2 -10 -12   -2.41    6.44
  -2 -11   3   87.59    7.91
  -2 -11   2  117.31    9.36
  -2 -11   1   83.64    8.02
  -2 -11   0   97.53    8.88
  -2 -11  -1  105.46    9.12
  -2 -11  -2  109.94    9.97
  -2 -11  -3   51.60    7.50
  -2 -11  -4   24.83    6.03
  -2 -11  -5   12.28    6.49
  -2 -11  -6   18.19    6.36
  -2 -11  -7    8.61    5.67
  -2 -11  -8    6.00    6.53
  -2 -11  -9    1.99    6.45
  -2 -11 -10   -5.40    5.97
  -2 -12   5   20.87    4.71
  -2 -12   4   19.07    4.70
  -2 -12   3   14.81    4.30
  -2 -12   2   48.43    6.73
  -2 -12   1   76.72    8.24
  -2 -12   0  105.71    9.37
  -2 -12  -1  183.32   12.67
  -2 -12  -2  102.03   10.44
  -2 -12  -3   78.78    9.66
  -2 -12  -4   75.41    9.96
  -2 -12  -5   75.23   10.29
  -2 -12  -6   64.24    9.46
  -2 -12  -7   49.18    8.81
  -2 -13   4    5.45    3.99
  -2 -13   3    2.78    3.43
  -2 -13   2   10.49    4.06
  -2 -13   1   12.03    4.73
  -2 -13   0   18.57    5.98
  -2 -13  -1   10.17    5.30
   3 -11  -2   12.81    6.50
   3 -11  -1    3.56    5.82
   3 -11   0   13.04    5.78
   3 -10  -6    7.80    5.75
   3 -10  -5   18.92    5.76
   3 -10  -4   34.60    7.18
   3 -10  -3   23.31    6.56
   3 -10  -2   34.98    6.93
   3 -10  -1   44.57    6.88
   3 -10   0   42.33    6.67
   3 -10   1   39.03    6.58
   3  -9  -9   -0.18    5.11
   3  -9  -8    3.56    5.34
   3  -9  -7    1.82    4.89
   3  -9  -6   11.13    5.03
   3  -9  -5   23.54    6.05
   3  -9  -4   19.41    5.30
   3  -9  -3   43.33    6.86
   3  -9  -2   40.60    6.66
   3  -9  -1   49.92    6.61
   3  -9   0   74.09    7.39
   3  -9   1   85.42    7.69
   3  -9   2   76.40    7.16
   3  -8 -11  -10.09    5.12
   3  -8 -10  -10.33    4.59
   3  -8  -9   -7.21    4.40
   3  -8  -8   -6.62    4.30
   3  -8  -7   -5.72    3.39
   3  -8  -6   -4.69    4.06
   3  -8  -5   -6.14    3.86
   3  -8  -4   -0.60    3.41
   3  -8  -3   19.66    5.30
   3  -8  -2   42.74    5.99
   3  -8  -1   90.50    7.72
   3  -8   0   56.92    6.15
   3  -8   1   32.16    4.98
   3  -8   2   47.27    5.55
   3  -7 -13  -15.18    7.22
   3  -7 -12   -4.44    6.14
   3  -7 -11   -0.97    5.02
   3  -7 -10   -2.99    5.03
   3  -7  -9    2.91    4.96
   3  -7  -8    5.06    4.60
   3  -7  -7    7.21    4.19
   3  -7  -6    0.76    3.50
   3  -7  -5   -5.03    3.56
   3  -7  -4    0.89    4.01
   3  -7  -3    2.82    4.06
   3  -7  -2   -0.08    2.95
   3  -7  -1    1.34    3.28
   3  -7   0    0.67    3.36
   3  -7   1    1.70    2.90
   3  -7   2   14.47    3.58
   3  -7   3    2.91    3.18
   3  -6 -14  -12.24    9.51
   3  -6 -13    4.47    8.47
   3  -6 -12   10.78    7.35
   3  -6 -11    5.02    5.45
   3  -6 -10    8.48    5.12
   3  -6  -9   25.31    5.98
   3  -6  -8   34.71    5.91
   3  -6  -7   45.19    6.08
   3  -6  -6   27.80    5.09
   3  -6  -5   48.75    5.75
   3  -6  -4   23.96    4.75
   3  -6  -3   40.45    5.37
   3  -6  -2  110.18    7.56
   3  -6  -1   99.24    6.80
   3  -6   0   73.61    5.90
   3  -6   1   32.08    4.07
   3  -6   2    9.51    3.05
   3  -6   3   -1.12    2.53
   3  -6   4    1.47    2.74
   3  -5 -15   -9.77    8.13
   3  -5 -14  -14.68    8.10
   3  -5 -13   -5.25    8.75
   3  -5 -12    5.02    8.09
   3  -5 -11    9.85    6.44
   3  -5 -10   23.48    5.72
   3  -5  -9   34.25    5.59
   3  -5  -8   29.60    5.15
   3  -5  -7   14.57    4.01
   3  -5  -6   35.55    4.83
   3  -5  -5   53.44    5.05
   3  -5  -4   64.98    5.69
   3  -5  -3  154.72    7.96
   3  -5  -2  221.52    9.24
   3  -5  -1  246.04    9.36
   3  -5   0  231.16    8.71
   3  -5   1  161.61    7.04
   3  -5   2   68.80    4.67
   3  -5   3   87.75    5.57
   3  -5   4   59.95    4.65
   3  -4 -16   -3.36    6.50
   3  -4 -15  -14.37    7.66
   3  -4 -14  -14.54    7.66
   3  -4 -13   -6.78    6.94
   3  -4 -12   -7.28    6.28
   3  -4 -11    0.62    6.61
   3  -4 -10    0.12    5.92
   3  -4  -9    8.36    5.33
   3  -4  -8   11.71    5.18
   3  -4  -6   74.24    6.30
   3  -4  -5   30.97    4.38
   3  -4  -4   88.82    5.46
   3  -4  -3  154.92    7.08
   3  -4  -2  234.48    8.42
   3  -4  -1  161.98    7.03
   3  -4   0  131.69    6.17
   3  -4   1  187.64    6.87
   3  -4   2  123.21    5.27
   3  -4   3  124.46    5.72
   3  -4   4  197.75    6.86
   3  -4   5  232.87    7.24
   3  -3 -17    4.82    5.93
   3  -3 -16   -0.19    5.44
   3  -3 -15   -2.14    6.33
   3  -3 -14    3.16    7.69
   3  -3 -13    1.78    7.00
   3  -3 -12    0.64    6.68
   3  -3 -11    6.65    8.28
   3  -3 -10  -14.39    7.28
   3  -3  -9   -3.15    5.94
   3  -3  -8   -1.10    4.85
   3  -3  -7    3.49    3.75
   3  -3  -6    8.27    3.58
   3  -3  -5    6.44    3.21
   3  -3  -4   34.45    3.85
   3  -3  -3   32.43    3.72
   3  -3  -2   36.81    3.64
   3  -3  -1   56.95    4.07
   3  -3   0   74.08    4.32
   3  -3   1   29.67    2.89
   3  -3   2   94.83    4.27
   3  -3   3  118.81    4.50
   3  -3   4  154.82    5.35
   3  -3   5   91.21    3.98
   3  -2 -17    4.83    5.08
   3  -2 -16   16.46    6.32
   3  -2 -15    8.08    5.13
   3  -2 -14    6.31    6.36
   3  -2 -13   12.63    7.02
   3  -2 -12   23.34    7.99
   3  -2 -11   27.06    8.96
   3  -2 -10   19.14    7.01
   3  -2  -9   37.45    9.72
   3  -2  -8   17.45    7.08
   3  -2  -7   20.20    6.36
   3  -2  -6   55.36    6.73
   3  -2  -5   54.91    5.44
   3  -2  -4   20.05    3.70
   3  -2  -3   17.50    3.47
   3  -2  -2   19.10    3.06
   3  -2  -1    0.40    2.11
   3  -2   0   11.79    2.20
   3  -2   1    9.31    2.05
   3  -2   2   30.48    2.50
   3  -2   3   28.17    2.25
   3  -2   4   50.04    2.42
   3  -2   5   20.65    1.88
   3  -1 -17   17.86    5.42
   3  -1 -16    6.74    4.88
   3  -1 -15    7.53    5.14
   3  -1 -14   13.23    5.07
   3  -1 -13   17.89    6.31
   3  -1 -12   41.38    6.88
   3  -1 -11   86.67    8.70
   3  -1 -10   68.86    9.49
   3  -1  -9   72.74    9.85
   3  -1  -8   45.25    7.57
   3  -1  -7   19.01    6.02
   3  -1  -6   67.42    8.67
   3  -1  -5   87.06    8.76
   3  -1  -4  112.95    7.69
   3  -1  -3  258.77    9.46
   3  -1  -2  100.09    5.40
   3  -1  -1   79.06    4.36
   3  -1   0  129.38    4.62
   3  -1   1    6.92    2.17
   3  -1   2   17.52    1.86
   3  -1   3   91.68    2.68
   3   0 -17   11.64    5.05
   3   0 -16   10.90    4.75
   3   0 -15    9.41    4.47
   3   0 -14   17.91    5.28
   3   0 -13   11.08    4.78
   3   0 -12   10.51    4.20
   3   0 -11    0.42    3.73
   3   0 -10    6.24    5.10
   3   0  -9   26.32    6.79
   3   0  -8  105.10    8.47
   3   0  -7  172.77    8.80
   3   0  -6  360.38   12.43
   3   0  -5  180.63    8.80
   3   0  -4  179.82    8.07
   3   0  -3  368.95   11.01
   3   0  -2  378.70    9.92
   3   0  -1  282.10    8.26
   3   0   0  177.64    5.99
   3   0   1  219.81    5.26
   3   0   2  115.36    2.88
   3   1 -16    9.38    4.54
   3   1 -15    6.60    4.28
   3   1 -14    1.15    3.39
   3   1 -13    5.75    4.27
   3   1 -12    5.46    4.25
   3   1 -11   18.45    4.15
   3   1 -10    4.81    4.83
   3   1  -9    7.49    4.99
   3   1  -8   25.47    5.58
   3   1  -7   44.73    5.54
   3   1  -6   24.47    3.91
   3   1  -5   99.32    5.62
   3   1  -4  165.53    6.65
   3   1  -3   38.93    3.54
   3   1  -2   39.51    3.19
   3   1  -1  378.71    7.02
   3   1   0  746.98    9.37
   3   1   1   98.95    3.29
   3   1   2  396.33    6.17
  -3  -1  -7  156.67    4.34
   3   2 -16   18.87    5.15
   3   2 -15   16.01    4.95
   3   2 -14    8.25    4.71
   3   2 -13    9.28    4.13
   3   2 -12    5.91    4.30
   3   2 -11   13.57    4.91
   3   2 -10    8.87    4.04
   3   2  -9   -1.82    3.19
   3   2  -8    1.10    2.83
   3   2  -7   -5.36    2.21
   3   2  -6    0.94    2.91
   3   2  -5    4.72    2.93
   3   2  -4   11.74    2.53
   3   2  -3   12.22    2.23
   3   2  -2    7.26    1.93
   3   2  -1   98.45    3.83
   3   2   0   27.23    2.73
  -3  -2  -4   14.09    1.88
  -3  -2  -5   61.61    2.98
  -3  -2  -6  162.51    4.52
  -3  -2  -7  108.11    3.96
   3   3 -15   11.94    4.12
   3   3 -14   18.68    4.51
   3   3 -13   20.05    4.68
   3   3 -12   44.57    5.59
   3   3 -11   60.96    6.56
   3   3 -10   19.31    4.58
   3   3  -9   21.29    4.18
   3   3  -8   26.05    4.41
   3   3  -7   50.37    4.84
   3   3  -6   64.29    4.88
   3   3  -5   60.52    4.33
   3   3  -4   66.83    4.26
   3   3  -3   23.82    2.85
   3   3  -2   -1.93    1.96
  -3  -3  -4   -2.82    1.77
  -3  -3  -5    0.18    1.63
  -3  -3  -6   30.23    2.69
  -3  -3  -7   37.66    3.22
  -3  -3  -8   38.23    3.44
   3   4 -15   18.32    4.74
   3   4 -14   22.53    4.95
   3   4 -13   27.15    4.67
   3   4 -12   32.99    5.34
   3   4 -11   18.16    4.26
   3   4 -10   18.82    4.31
   3   4  -9   40.95    4.54
   3   4  -8   28.88    3.77
   3   4  -7   73.30    5.39
   3   4  -6  208.02    8.26
   3   4  -5  235.22    8.03
   3   4  -4  114.55    5.58
  -3  -4  -4  102.15    5.56
  -3  -4  -5   12.22    2.65
  -3  -4  -6   17.12    2.95
  -3  -4  -7    0.71    2.11
  -3  -4  -8   -3.08    2.45
  -3  -4  -9    1.42    2.78
   3   5 -14    7.55    4.03
   3   5 -13    7.16    3.59
   3   5 -12   21.76    4.44
   3   5 -11   26.50    4.46
   3   5 -10   29.16    4.75
   3   5  -9   37.16    4.94
   3   5  -8   54.80    5.45
  -3  -5  -4  159.98    7.83
  -3  -5  -5  150.33    7.26
  -3  -5  -6   57.36    5.10
  -3  -5  -7   62.60    5.33
  -3  -5  -8   94.59    6.21
  -3  -5  -9   52.03    5.34
  -3  -5 -10   27.08    4.32
  -3  -6  -4   94.08    6.84
  -3  -6  -5   95.97    6.66
  -3  -6  -6   94.68    6.87
  -3  -6  -7  198.19   10.04
  -3  -6  -8  135.01    7.87
  -3  -6  -9   95.90    7.15
  -3  -6 -10   49.32    5.84
  -3  -7  -3   25.75    4.36
  -3  -7  -4   64.36    6.49
  -3  -7  -5   62.42    6.40
  -3  -7  -6  123.92    8.46
  -3  -7  -7  182.82   10.87
  -3  -7  -8  103.13    7.78
  -3  -7  -9   68.53    7.20
  -3  -7 -10   28.94    5.67
  -3  -7 -11   23.73    5.44
  -3  -8  -2   12.40    3.78
  -3  -8  -3   16.67    4.07
  -3  -8  -4   -1.08    3.46
  -3  -8  -5    0.50    4.00
  -3  -8  -6    8.64    4.75
  -3  -8  -7   35.80    6.67
  -3  -8  -8   29.23    5.89
  -3  -8  -9    6.21    4.92
  -3  -8 -10    0.41    4.89
  -3  -8 -11    8.78    5.41
  -3  -9  -2   18.53    5.25
  -3  -9  -3    6.82    4.64
  -3  -9  -4   24.90    5.09
  -3  -9  -5   21.39    5.37
  -3  -9  -6   -3.55    4.58
  -3  -9  -7    4.94    4.29
  -3  -9  -8    8.54    5.23
  -3  -9  -9   -0.42    4.29
  -3  -9 -10   -0.08    5.54
  -3  -9 -11   -8.74    4.54
  -3 -10  -1  109.51    8.84
  -3 -10  -2  135.88   10.41
  -3 -10  -3   82.17    8.05
  -3 -10  -4   40.22    6.41
  -3 -10  -5   14.85    4.92
  -3 -10  -6   21.27    5.76
  -3 -10  -7   29.39    6.55
  -3 -10  -8   23.29    6.10
  -3 -10  -9   19.02    6.90
  -3 -10 -11   -7.42    6.40
  -3 -10 -12   -2.39    6.52
  -3 -11   1   56.73    7.05
  -3 -11   0   57.61    7.41
  -3 -11  -1   59.55    7.58
  -3 -11  -2   66.58    7.65
  -3 -11  -3   97.54    9.27
  -3 -11  -4  100.00   10.12
  -3 -11  -5   55.65    7.94
  -3 -11  -6   93.23   10.83
  -3 -11  -7   42.31    8.52
  -3 -11  -8   25.79    6.84
  -3 -11  -9   31.27    7.79
  -3 -11 -10   20.45    7.97
  -3 -11 -11   30.52    9.38
  -3 -12   2   12.10    4.26
  -3 -12   1    3.37    4.33
  -3 -12   0   15.90    5.01
  -3 -12  -1   27.00    5.46
  -3 -12  -2   40.10    6.64
  -3 -12  -3   33.52    6.68
  -3 -12  -4   35.91    7.10
  -3 -12  -5   41.26    8.05
  -3 -12  -6   42.21    9.05
  -3 -12  -7   24.77    6.57
  -3 -12  -8   16.73    7.36
  -3 -13   4   15.03    4.46
  -3 -13   3   24.24    5.41
  -3 -13   2   21.02    5.09
  -3 -13   1   19.23    5.45
  -3 -13   0    5.26    4.55
  -3 -13  -1    3.16    4.56
  -3 -13  -2   -0.50    4.30
  -3 -13  -3    1.32    5.87
   4 -10  -4   -1.16    5.44
   4 -10  -3    7.17    5.65
   4 -10  -2   13.50    6.00
   4 -10  -1   25.62    6.52
   4  -9  -7   -8.17    4.81
   4  -9  -6   -7.52    4.81
   4  -9  -5   -2.88    4.00
   4  -9  -4   -8.79    3.53
   4  -9  -3   -2.22    4.03
   4  -9  -2   44.30    6.71
   4  -9  -1   12.86    4.74
   4  -9   0   11.76    4.67
   4  -8 -10   -5.50    5.28
   4  -8  -9    9.33    6.23
   4  -8  -8   15.55    6.38
   4  -8  -7   15.77    5.31
   4  -8  -6   -1.00    4.68
   4  -8  -5   -2.82    3.98
   4  -8  -4   -1.78    3.39
   4  -8  -3   -3.73    3.50
   4  -8  -2    3.00    4.30
   4  -8  -1   -2.96    3.84
   4  -8   0   -1.90    3.96
   4  -8   1   -1.19    3.93
   4  -7 -11    0.20    6.43
   4  -7 -10    1.69    5.64
   4  -7  -9   10.43    5.61
   4  -7  -8   23.97    6.25
   4  -7  -7   28.89    5.89
   4  -7  -6   32.41    5.97
   4  -7  -5   39.90    5.64
   4  -7  -4   54.09    6.42
   4  -7  -3   42.86    5.78
   4  -7  -2   39.05    5.11
   4  -7  -1   58.48    6.19
   4  -7   0   73.99    6.85
   4  -7   1   52.89    6.06
   4  -6 -13  -14.39    8.23
   4  -6 -12  -10.87    7.86
   4  -6 -11   -1.34    6.83
   4  -6 -10   -7.83    5.06
   4  -6  -9    5.54    5.09
   4  -6  -8   17.38    5.18
   4  -6  -7   36.14    6.27
   4  -6  -6   42.43    5.59
   4  -6  -5   39.39    5.74
   4  -6  -4   49.06    5.28
   4  -6  -3   74.98    6.59
   4  -6  -2   88.85    6.52
   4  -6  -1  127.35    7.68
   4  -6   0  141.30    8.00
   4  -6   1   85.62    6.45
   4  -6   2   57.21    5.45
   4  -5 -14   -9.20    7.93
   4  -5 -13   -3.77    7.88
   4  -5 -12   -7.72    8.02
   4  -5 -11   -6.72    6.74
   4  -5 -10   -7.10    6.07
   4  -5  -9   -5.75    4.47
   4  -5  -8   -2.40    4.45
   4  -5  -7    2.81    4.15
   4  -5  -6    4.83    4.35
   4  -5  -5   44.99    5.55
   4  -5  -4   40.42    5.19
   4  -5  -3   38.41    4.85
   4  -5  -2   43.66    4.74
   4  -5  -1  126.79    7.01
   4  -5   0  166.20    7.67
   4  -5   1  151.28    7.43
   4  -5   2  132.79    6.91
   4  -5   3   97.17    5.92
   4  -4 -15   -3.20    7.36
   4  -4 -14    2.25    8.42
   4  -4 -13   -4.12    7.42
   4  -4 -12   -4.07    7.64
   4  -4 -11   -2.64    6.63
   4  -4 -10   -4.26    7.36
   4  -4  -9   -2.49    5.78
   4  -4  -8   -0.76    5.21
   4  -4  -7    8.52    4.21
   4  -4  -6   -2.97    4.33
   4  -4  -5    3.16    3.47
   4  -4  -4    9.70    4.16
   4  -4  -3    0.49    2.76
   4  -4  -2    1.44    3.07
   4  -4  -1    3.95    2.87
   4  -4   0   15.19    3.18
   4  -4   1   53.86    4.33
   4  -4   2  102.39    5.38
   4  -4   3  173.24    6.78
   4  -3 -16    0.34    6.30
   4  -3 -15   -0.65    5.82
   4  -3 -14    1.92    6.96
   4  -3 -13   -1.18    5.65
   4  -3 -12   24.63    9.04
   4  -3 -11   19.98    7.49
   4  -3 -10   37.26    9.41
   4  -3  -9    6.85    6.94
   4  -3  -8   40.62    8.29
   4  -3  -7   52.77    8.20
   4  -3  -6   29.22    5.51
   4  -3  -5   94.68    7.09
   4  -3  -4   54.89    5.15
   4  -3  -3   59.04    5.38
   4  -3  -2   57.46    4.79
   4  -3  -1   59.89    4.47
   4  -3   0   19.07    2.99
   4  -3   1    8.21    2.58
   4  -3   2    0.84    1.94
   4  -3   3    0.63    1.97
   4  -2 -16   10.90    5.83
   4  -2 -15    2.39    4.63
   4  -2 -14    3.62    5.74
   4  -2 -13    3.47    6.14
   4  -2 -12   13.18    5.78
   4  -2 -11   29.77    8.80
   4  -2 -10   67.37   10.54
   4  -2  -9   31.26    8.20
   4  -2  -8   59.05    8.59
   4  -2  -7   46.20    8.82
   4  -2  -6  118.65   10.79
   4  -2  -5  161.57   10.53
   4  -2  -4  179.96    9.30
   4  -2  -3  191.97    8.19
   4  -2  -2  178.72    7.22
   4  -2  -1  173.86    6.69
   4  -2   0   80.43    4.60
   4  -2   1  195.99    6.07
   4  -2   2  137.22    4.86
   4  -2   3   40.75    2.92
   4  -2   4   14.02    1.94
   4  -1 -17   19.47    5.86
   4  -1 -16    5.72    5.05
   4  -1 -15    5.75    5.13
   4  -1 -14    6.76    5.24
   4  -1 -13    4.33    5.61
   4  -1 -12    2.81    5.64
   4  -1 -11   -0.93    5.11
   4  -1 -10    3.02    5.11
   4  -1  -9    1.93    6.54
   4  -1  -8   33.88    8.94
   4  -1  -7   55.49    9.46
   4  -1  -6   45.11    8.27
   4  -1  -5   87.14    7.95
   4  -1  -4  184.16   10.84
   4  -1  -3  147.74    8.74
   4  -1  -2  171.55    9.30
   4  -1  -1  243.86    9.66
   4  -1   0  405.61   10.95
   4  -1   1  407.61   10.11
   4  -1   2  322.44    8.53
   4  -1   3  330.39    7.82
   4  -1   4  222.28    5.20
   4   0 -17   15.91    5.47
   4   0 -16   12.69    5.04
   4   0 -15   12.86    4.59
   4   0 -14    7.27    4.63
   4   0 -13    5.75    5.24
   4   0 -12   -1.47    4.63
   4   0 -11   -3.74    4.85
   4   0 -10    4.85    4.56
   4   0  -9   -3.33    5.81
   4   0  -8    0.26    5.04
   4   0  -7   24.09    6.50
   4   0  -6   57.31    6.60
   4   0  -5   10.30    4.82
   4   0  -4    0.85    5.03
   4   0  -3   27.13    4.31
   4   0  -2   62.81    4.88
   4   0  -1  106.11    5.95
   4   0   0  230.00    6.84
   4   0   1  388.75    7.77
   4   0   2  584.50    7.87
   4   0   3  596.96    6.91
   4   1 -17   17.41    5.31
   4   1 -16   16.52    5.07
   4   1 -15    7.47    4.18
   4   1 -14   15.26    5.21
   4   1 -13   12.95    4.97
   4   1 -12   14.93    4.33
   4   1 -11   17.43    5.24
   4   1 -10   39.42    6.65
   4   1  -9   33.70    5.99
   4   1  -8   27.33    5.90
   4   1  -7   10.11    4.96
   4   1  -6    5.13    3.52
   4   1  -5   11.53    3.46
   4   1  -4    3.87    2.79
   4   1  -3   81.18    5.01
   4   1  -2   49.98    4.17
   4   1  -1    6.73    2.12
   4   1   0  133.04    4.50
   4   1   1  237.31    5.49
   4   1   2  102.57    3.32
   4   2 -17   37.23    6.44
   4   2 -16   17.28    5.24
   4   2 -15   13.48    5.23
   4   2 -14   20.22    5.26
   4   2 -13   25.69    5.67
   4   2 -12   32.06    5.82
   4   2 -11   33.95    5.89
   4   2 -10   79.27    7.53
   4   2  -9   61.66    6.57
   4   2  -8   80.44    6.81
   4   2  -7   42.76    5.01
   4   2  -6   90.55    6.24
   4   2  -5  114.65    6.28
   4   2  -4  164.91    6.79
   4   2  -3  246.82    7.68
   4   2  -2  143.28    5.63
   4   2  -1  105.30    4.56
   4   2   0   28.28    2.55
   4   2   1   28.71    2.70
  -4  -2  -5   -0.11    1.05
  -4  -2  -6    0.82    1.17
   4   3 -16    5.85    4.29
   4   3 -15   15.00    4.81
   4   3 -14   18.22    5.28
   4   3 -13   15.34    4.88
   4   3 -12   20.39    4.71
   4   3 -11   53.38    6.21
   4   3 -10   51.32    6.26
   4   3  -9   20.35    4.89
   4   3  -8   35.81    4.91
   4   3  -7   49.43    5.31
   4   3  -6  126.75    6.96
   4   3  -5  168.53    7.09
   4   3  -4  232.02    7.60
   4   3  -3  190.93    6.55
   4   3  -2  176.28    6.15
   4   3  -1   99.86    5.11
   4   4 -16    7.81    4.42
   4   4 -15    9.89    4.44
   4   4 -14    4.90    3.99
   4   4 -13    1.10    2.90
   4   4 -12    7.18    3.97
   4   4 -11   14.69    4.26
   4   4 -10    2.02    3.52
   4   4  -9    9.82    3.93
   4   4  -8    7.40    3.20
   4   4  -7   13.59    3.41
   4   4  -6   12.23    3.12
   4   4  -5   83.34    5.18
   4   4  -4  201.66    7.84
   4   4  -3  283.73    8.59
  -4  -4  -5  100.78    5.60
  -4  -4  -6  114.82    5.77
  -4  -4  -7   90.05    5.10
   4   5 -15    9.50    5.14
   4   5 -14    3.77    3.79
   4   5 -13    3.82    4.21
   4   5 -12    3.42    3.75
   4   5 -11   -2.68    3.33
   4   5 -10   -6.62    3.25
   4   5  -9   -5.69    3.05
   4   5  -8   -2.89    2.94
   4   5  -7   -0.32    2.89
   4   5  -6   -5.77    2.45
  -4  -5  -5  206.19    8.74
  -4  -5  -6  159.34    7.79
  -4  -5  -7  125.69    7.05
  -4  -5  -8  158.43    7.41
  -4  -6  -5   88.41    6.82
  -4  -6  -6   56.05    5.64
  -4  -6  -7   87.87    6.86
  -4  -6  -8  127.43    8.10
  -4  -7  -4    3.68    3.16
  -4  -7  -5   -0.16    2.92
  -4  -7  -6   -1.25    2.56
  -4  -7  -7    8.35    4.12
  -4  -7  -8    5.39    4.11
  -4  -7  -9   10.70    4.11
  -4  -8  -4  111.65    8.93
  -4  -8  -5   95.86    8.05
  -4  -8  -6   68.71    7.01
  -4  -8  -7   26.90    5.78
  -4  -8  -8    5.50    4.65
  -4  -8  -9    2.18    4.09
  -4  -9  -3  125.54    9.89
  -4  -9  -4  152.67   10.34
  -4  -9  -5  222.08   12.22
  -4  -9  -6  194.16   12.33
  -4  -9  -7   58.27    7.75
  -4  -9  -8   60.41    7.72
  -4  -9  -9   55.19    7.31
  -4  -9 -10   19.58    6.30
  -4 -10  -2   39.45    5.99
  -4 -10  -3   82.83    8.70
  -4 -10  -4   85.42    8.52
  -4 -10  -5   87.02    8.86
  -4 -10  -6   74.74    8.57
  -4 -10  -7   91.03   10.06
  -4 -10  -8  133.11   12.21
  -4 -10  -9   32.72    6.78
  -4 -10 -10   38.08    8.25
  -4 -11  -1    0.76    3.19
  -4 -11  -2    0.13    4.03
  -4 -11  -3   11.10    5.05
  -4 -11  -4   18.98    5.71
  -4 -11  -5   11.75    5.07
  -4 -11  -6   24.06    6.43
  -4 -11  -7   57.85    9.53
  -4 -11  -8   30.84    8.03
  -4 -11  -9   29.58    7.03
  -4 -11 -10   19.51    7.15
  -4 -12   1   20.97    4.83
  -4 -12   0   34.58    6.21
  -4 -12  -1   26.89    6.11
  -4 -12  -2    7.73    4.93
  -4 -12  -3   10.93    5.31
  -4 -12  -4    8.81    5.14
  -4 -12  -5   13.85    6.90
  -4 -12  -6    7.94    5.97
  -4 -12  -7    1.53    7.07
  -4 -12  -8   -0.99    5.59
  -4 -12  -9    0.96    5.93
  -4 -13   2   48.14    7.10
  -4 -13   1   51.38    7.16
  -4 -13   0   73.76    8.78
  -4 -13  -1   50.02    6.88
  -4 -13  -2   46.07    7.21
  -4 -13  -3   66.66    9.31
  -4 -13  -4   50.52    8.89
  -4 -13  -5   45.07    8.56
   5  -9  -5    5.35    6.10
   5  -9  -4    1.21    5.36
   5  -9  -3   -0.92    4.54
   5  -9  -2    1.28    4.89
   5  -8  -8   -5.58    4.94
   5  -8  -7   -3.32    5.30
   5  -8  -6   13.10    5.98
   5  -8  -5   12.75    5.53
   5  -8  -4   23.19    5.35
   5  -8  -2   32.72    5.76
   5  -8  -1   29.98    5.69
   5  -7 -10   -5.13    7.47
   5  -7  -9   -3.14    6.38
   5  -7  -8   -0.30    5.12
   5  -7  -7    1.90    5.11
   5  -7  -6    3.72    5.08
   5  -7  -5   15.91    5.39
   5  -7  -4   33.82    5.87
   5  -7  -3   21.53    4.91
   5  -7  -2   34.46    5.10
   5  -7  -1   25.92    4.87
   5  -7   0   20.98    4.78
   5  -6 -11   -3.31    8.44
   5  -6 -10  -16.07    6.88
   5  -6  -9   -5.11    5.63
   5  -6  -8    6.20    5.82
   5  -6  -7   -7.98    4.38
   5  -6  -6   -4.91    4.51
   5  -6  -5   -0.29    4.18
   5  -6  -4   -5.82    3.47
   5  -6  -3   -3.66    3.60
   5  -6  -2    1.25    3.79
   5  -6  -1    2.95    3.58
   5  -6   0   20.36    4.34
   5  -5 -13  -11.05    7.74
   5  -5 -12    0.76    8.21
   5  -5 -11  -11.20    7.52
   5  -5 -10   -5.98    7.50
   5  -5  -9   -7.52    6.41
   5  -5  -8    1.94    5.60
   5  -5  -7    1.53    5.05
   5  -5  -6   -0.77    4.60
   5  -5  -5   -3.15    4.27
   5  -5  -4    7.30    4.67
   5  -5  -3   -6.30    3.62
   5  -5  -2    0.95    3.59
   5  -5  -1    1.49    3.40
   5  -5   0   -1.15    2.76
   5  -5   1   -5.54    2.66
   5  -4 -14   -4.59    6.99
   5  -4 -13    3.04    7.85
   5  -4 -12    5.98    8.21
   5  -4 -11    3.96    7.68
   5  -4 -10   -2.24    6.68
   5  -4  -9   12.97    7.87
   5  -4  -8   35.93    8.36
   5  -4  -7   42.69    7.76
   5  -4  -6   39.87    6.69
   5  -4  -5   17.06    5.23
   5  -4  -4   37.92    5.68
   5  -4  -3   37.10    5.37
   5  -4  -2   16.68    4.37
   5  -4  -1    6.92    3.56
   5  -4   0    0.57    3.11
   5  -4   1    0.87    2.82
   5  -3 -15    4.32    6.46
   5  -3 -14    2.88    6.38
   5  -3 -13   -5.07    5.85
   5  -3 -12   -4.14    5.90
   5  -3 -11    9.53    7.52
   5  -3 -10   10.99    7.82
   5  -3  -9   22.32    8.59
   5  -3  -8   40.90    9.59
   5  -3  -7   56.65    9.84
   5  -3  -6   44.00    8.74
   5  -3  -5   80.14    8.54
   5  -3  -4  117.15    8.42
   5  -3  -3   71.51    6.30
   5  -3  -2   71.37    6.09
   5  -3  -1   81.41    5.76
   5  -3   0  126.12    6.53
   5  -3   1  102.60    5.67
   5  -3   2   94.13    5.32
   5  -2 -16    2.53    5.29
   5  -2 -15    0.32    5.34
   5  -2 -14    3.13    5.59
   5  -2 -13   -1.74    4.63
   5  -2 -12   -2.50    4.81
   5  -2 -11    0.15    5.16
   5  -2 -10    5.51    5.98
   5  -2  -9    7.36    6.45
   5  -2  -8   16.28    8.29
   5  -2  -7    4.23    7.97
   5  -2  -6   34.34    8.86
   5  -2  -5   70.87    8.65
   5  -2  -4   37.77    8.62
   5  -2  -3   76.04    8.31
   5  -2  -2   90.52    7.76
   5  -2  -1   70.35    6.50
   5  -2   0   59.20    5.51
   5  -2   1   54.18    5.13
   5  -2   2  111.02    6.04
   5  -1 -16    7.93    4.53
   5  -1 -15    7.65    5.08
   5  -1 -14   11.24    5.38
   5  -1 -13   11.34    5.54
   5  -1 -12    8.79    5.43
   5  -1 -11    0.49    4.84
   5  -1 -10   -1.15    5.07
   5  -1  -9    0.19    6.29
   5  -1  -8   -3.28    4.96
   5  -1  -7    4.06    7.63
   5  -1  -6   -4.32    5.50
   5  -1  -5   26.70    7.92
   5  -1  -4   69.57    8.89
   5  -1  -3   68.04    7.99
   5  -1  -2   24.33    6.18
   5  -1  -1   13.55    5.27
   5  -1   0   20.97    5.32
   5  -1   1   86.25    6.47
   5  -1   2  137.43    6.78
   5  -1   3  216.16    6.55
   5   0 -16   12.00    5.11
   5   0 -15   17.97    5.19
   5   0 -14    6.04    4.60
   5   0 -13    6.17    4.35
   5   0 -12    9.04    5.02
   5   0 -11    7.44    5.08
   5   0 -10    9.30    4.53
   5   0  -9   64.74    7.83
   5   0  -8   68.56    8.43
   5   0  -7   36.16    7.26
   5   0  -6    9.52    6.04
   5   0  -5   10.18    5.48
   5   0  -4   18.66    5.48
   5   0  -3    0.89    3.96
   5   0  -2    1.03    4.06
   5   0  -1    2.53    3.51
   5   0   0   44.30    4.30
   5   0   1   29.64    3.34
   5   0   2    0.77    1.97
   5   0   3    6.03    1.72
   5   1 -17   20.30    5.79
   5   1 -16   14.93    5.36
   5   1 -15   18.01    5.21
   5   1 -14   24.15    5.66
   5   1 -13   24.38    5.54
   5   1 -12   24.66    5.39
   5   1 -11   22.31    4.69
   5   1 -10   78.00    7.68
   5   1  -9  109.38    8.79
   5   1  -8  106.66    8.06
   5   1  -7  137.04    9.07
   5   1  -6   48.48    5.77
   5   1  -5   33.05    4.90
   5   1  -4   39.41    4.63
   5   1  -3   70.33    5.27
   5   1  -2  214.81    7.53
   5   1  -1  193.96    6.37
   5   1   0  113.13    4.73
   5   1   1  131.61    4.64
   5   1   2   30.30    2.49
   5   2 -17   15.86    5.57
   5   2 -16    7.72    4.66
   5   2 -15    6.84    5.09
   5   2 -14    9.30    4.55
   5   2 -13    6.24    4.22
   5   2 -12   23.77    5.46
   5   2 -11   36.31    6.00
   5   2 -10   47.93    6.08
   5   2  -9   59.87    6.93
   5   2  -8   68.18    6.45
   5   2  -7   61.75    6.05
   5   2  -6   59.75    5.48
   5   2  -5  138.43    7.44
   5   2  -4  100.25    6.06
   5   2  -3  120.32    6.14
   5   2  -2  219.60    7.47
   5   2  -1  355.76    8.69
   5   2   0  206.36    6.25
   5   2   1  154.35    5.23
   5   2   2  178.87    5.67
   5   3 -17   18.54    5.44
   5   3 -16   10.11    4.82
   5   3 -15   11.28    5.29
   5   3 -14    5.22    4.56
   5   3 -13    8.04    4.58
   5   3 -12   -0.89    4.01
   5   3 -11   -1.90    3.18
   5   3 -10   18.43    5.29
   5   3  -9    6.37    4.26
   5   3  -8    1.76    4.25
   5   3  -7    1.66    4.13
   5   3  -6   16.72    4.29
   5   3  -5   30.83    4.39
   5   3  -4  124.16    6.66
   5   3  -3  188.05    7.03
   5   3  -2  147.29    6.15
   5   3  -1  113.97    5.20
   5   3   0  160.28    6.21
   5   4 -16   12.42    4.72
   5   4 -15   12.66    4.90
   5   4 -14   17.69    4.87
   5   4 -13   12.16    3.97
   5   4 -12    9.65    4.37
   5   4 -11   -0.76    3.16
   5   4 -10    8.87    3.57
   5   4  -9    9.79    4.00
   5   4  -8    0.38    3.52
   5   4  -7   -5.32    3.04
   5   4  -6   19.43    3.49
   5   4  -5   22.66    3.87
   5   4  -4   43.32    4.01
   5   4  -3   39.17    3.95
   5   4  -2   18.11    3.21
   5   5 -16   16.19    4.98
   5   5 -15   18.89    5.31
   5   5 -14   19.73    5.31
   5   5 -13   18.55    4.59
   5   5 -12   28.72    5.43
   5   5 -11   24.07    5.04
   5   5 -10   54.57    6.08
   5   5  -9   29.86    4.90
   5   5  -8   13.11    3.77
   5   5  -7   52.13    5.64
   5   5  -6   55.68    5.19
   5   5  -5   37.07    4.17
   5   5  -4   38.91    4.45
  -5  -5  -6   10.30    2.98
   5   6 -16   16.25    5.01
   5   6 -15   21.01    5.51
   5   6 -14   10.36    4.07
   5   6 -13   20.77    5.21
   5   6 -12   24.29    5.28
   5   6 -11   45.12    5.91
   5   6 -10   40.52    5.64
   5   6  -9   41.12    5.30
   5   6  -8   63.75    5.64
  -5  -6  -5   -5.67    2.90
  -5  -6  -6    2.08    3.03
  -5  -6  -7   19.07    4.05
  -5  -7  -5   90.36    7.68
  -5  -7  -6   87.57    7.28
  -5  -7  -7   70.00    6.97
  -5  -8  -5  102.78    8.68
  -5  -8  -6  117.46    8.59
  -5  -8  -7  139.92   10.01
  -5  -8  -8  132.29   10.13
  -5  -9  -4   62.91    7.68
  -5  -9  -5   96.55    9.07
  -5  -9  -6   65.84    7.68
  -5  -9  -7   55.11    7.56
  -5  -9  -8   31.46    6.65
  -5 -10  -3    3.39    4.53
  -5 -10  -4   -0.26    4.40
  -5 -10  -5    3.10    4.08
  -5 -10  -6    2.74    4.88
  -5 -10  -7    2.08    4.83
  -5 -10  -8   20.10    7.23
  -5 -10  -9   18.20    6.57
  -5 -11  -2   39.69    6.44
  -5 -11  -3   20.02    5.76
  -5 -11  -4    5.71    5.07
  -5 -11  -5    5.54    5.18
  -5 -11  -6   13.67    6.38
  -5 -11  -7  135.39   12.71
  -5 -11  -8   -0.72    6.76
  -5 -11  -9   -4.38    4.68
  -5 -12  -1  137.42   11.12
  -5 -12  -2  172.57   12.56
  -5 -12  -3   88.10    9.15
  -5 -12  -4   87.39    9.51
  -5 -12  -5   56.73    8.54
  -5 -12  -6   44.82    8.80
  -5 -12  -7   24.15    8.18
  -5 -12  -8   18.29    7.78
  -5 -12  -9   10.40    6.73
  -5 -13   1   60.85    7.45
  -5 -13   0   98.64    9.86
  -5 -13  -1   82.47    9.11
  -5 -13  -2   31.37    6.54
  -5 -13  -3   25.43    5.86
  -5 -13  -4   17.93    6.43
  -5 -13  -5   54.79    9.42
   6  -8  -5  -13.30    5.41
   6  -8  -4   -1.75    5.20
   6  -8  -3    2.78    5.97
   6  -7  -8  -13.49    6.97
   6  -7  -7  -13.00    5.49
   6  -7  -6   -6.75    5.17
   6  -7  -5   -6.58    5.10
   6  -7  -4   -8.51    4.85
   6  -7  -3  -10.94    4.42
   6  -7  -2   -3.07    4.59
   6  -6 -10   10.19    9.16
   6  -6  -9  -15.46    7.03
   6  -6  -8   -6.56    7.54
   6  -6  -7    2.07    7.20
   6  -6  -6   10.85    6.40
   6  -6  -5    5.56    5.05
   6  -6  -4   -0.96    4.68
   6  -6  -3    7.95    5.09
   6  -6  -2    1.06    4.47
   6  -5 -11   -8.08    7.32
   6  -5 -10   -2.68    7.34
   6  -5  -9   -8.97    7.61
   6  -5  -8    2.72    8.26
   6  -5  -7    6.90    7.93
   6  -5  -6   22.89    7.27
   6  -5  -5   27.30    6.53
   6  -5  -4   40.19    6.67
   6  -5  -3   57.06    6.36
   6  -5  -2   53.95    6.44
   6  -5  -1   40.58    5.74
   6  -4 -12   -5.54    7.10
   6  -4 -11   -4.01    7.40
   6  -4 -10   -1.80    7.13
   6  -4  -9   -9.60    6.64
   6  -4  -8    6.27    6.93
   6  -4  -7   -2.34    7.73
   6  -4  -6   18.43    8.28
   6  -4  -5   16.02    6.70
   6  -4  -4   -0.63    6.01
   6  -4  -3   20.91    5.44
   6  -4  -2   65.51    6.67
   6  -4  -1  137.15    8.05
   6  -4   0  168.92    8.29
   6  -3 -13   -3.11    5.75
   6  -3 -12   -2.91    5.88
   6  -3 -11   -4.11    6.48
   6  -3 -10   -5.03    5.89
   6  -3  -9   -8.15    6.67
   6  -3  -8  -10.78    6.98
   6  -3  -7   -2.58    6.61
   6  -3  -6   -3.08    7.14
   6  -3  -5   -4.78    6.37
   6  -3  -4   17.67    8.05
   6  -3  -3   56.69    8.75
   6  -3  -2   50.63    7.99
   6  -3  -1   30.63    6.86
   6  -3   0   21.86    5.60
   6  -2 -14    8.83    5.55
   6  -2 -13    3.74    5.82
   6  -2 -12    3.85    5.58
   6  -2 -11   -0.10    5.69
   6  -2 -10    3.85    5.42
   6  -2  -9    7.61    6.96
   6  -2  -8    5.52    7.25
   6  -2  -7    9.56    7.74
   6  -2  -6   26.09    7.19
   6  -2  -5    2.01    7.28
   6  -2  -4   -3.99    6.89
   6  -2  -3   -5.94    6.81
   6  -2  -2    5.46    5.95
   6  -2  -1    0.79    6.28
   6  -2   0    0.52    5.86
   6  -2   1   -1.98    5.61
   6  -1 -15   14.05    5.81
   6  -1 -14   11.94    5.52
   6  -1 -13   12.13    5.23
   6  -1 -12    9.49    5.24
   6  -1 -11    6.84    4.90
   6  -1 -10   15.80    6.41
   6  -1  -9    8.30    5.11
   6  -1  -8   14.42    6.35
   6  -1  -7   38.16    7.67
   6  -1  -6   51.59    8.46
   6  -1  -5   32.13    7.99
   6  -1  -4   43.84    7.41
   6  -1  -3   14.52    6.88
   6  -1  -2   10.42    6.09
   6  -1  -1   10.46    5.72
   6  -1   0   42.41    5.72
   6  -1   1   54.01    5.67
   6   0 -15   12.06    5.01
   6   0 -14   13.89    4.80
   6   0 -13    5.45    4.76
   6   0 -12   18.08    5.62
   6   0 -11   11.68    4.89
   6   0 -10   15.27    5.04
   6   0  -9   60.23    7.40
   6   0  -8   90.00    8.59
   6   0  -7   82.02    8.39
   6   0  -6   44.72    6.24
   6   0  -5   41.42    6.96
   6   0  -4   32.52    6.15
   6   0  -3   49.35    6.36
   6   0  -2   97.23    6.49
   6   0  -1  175.61    7.55
   6   0   0  207.03    7.59
   6   0   1   96.16    5.05
   6   0   2  133.38    4.83
   6   1 -16    8.27    4.56
   6   1 -15    7.85    4.99
   6   1 -14    5.82    4.57
   6   1 -13    7.69    4.68
   6   1 -12    7.64    4.14
   6   1 -11    3.79    3.68
   6   1 -10    7.86    4.17
   6   1  -9   17.83    4.48
   6   1  -8   21.65    5.15
   6   1  -7   44.94    6.80
   6   1  -6   39.80    6.35
   6   1  -5   31.39    5.76
   6   1  -4  101.32    7.28
   6   1  -3  216.17    8.97
   6   1  -2  179.45    6.98
   6   1  -1  158.96    6.46
   6   1   0  121.03    5.43
   6   1   1  161.12    5.74
   6   1   2  150.44    5.17
   6   2 -16    7.95    4.58
   6   2 -15   12.72    5.50
   6   2 -14    9.58    4.89
   6   2 -13    4.77    4.12
   6   2 -12    4.71    4.04
   6   2 -11    2.00    3.68
   6   2 -10    3.91    4.08
   6   2  -9   -1.69    4.13
   6   2  -8   -4.15    3.71
   6   2  -7   -1.63    3.42
   6   2  -6   -2.43    3.95
   6   2  -5   31.80    4.51
   6   2  -4   29.51    4.04
   6   2  -3   14.80    3.81
   6   2  -2   67.00    5.18
   6   2  -1   99.03    5.46
   6   2   0   84.67    4.62
   6   2   1   57.22    3.79
   6   2   2   32.75    3.43
   6   3 -16   11.35    4.91
   6   3 -15   10.50    4.69
   6   3 -14   15.42    5.14
   6   3 -13   17.92    5.00
   6   3 -12   18.45    4.96
   6   3 -11   19.24    5.36
   6   3 -10   18.51    4.54
   6   3  -9   27.49    5.62
   6   3  -8   21.49    5.33
   6   3  -7   22.15    4.53
   6   3  -6   -1.86    3.82
   6   3  -5   -3.25    2.86
   6   3  -4   -2.88    3.02
   6   3  -3    6.95    3.29
   6   3  -2   -0.03    2.51
   6   3  -1    4.04    2.52
   6   3   0    2.89    2.30
   6   3   1   23.04    3.05
   6   4 -16   18.42    5.34
   6   4 -15   18.78    5.45
   6   4 -14   16.79    5.08
   6   4 -13   15.88    4.68
   6   4 -12   29.50    5.73
   6   4 -11   17.09    4.34
   6   4 -10    9.40    3.76
   6   4  -9   24.42    4.53
   6   4  -8   40.35    5.63
   6   4  -7   28.26    4.49
   6   4  -6   42.43    4.75
   6   4  -5   68.54    5.74
   6   4  -4   67.77    5.42
   6   4  -3   78.91    5.46
   6   4  -2   81.37    5.54
   6   4  -1   63.75    4.61
   6   5 -15   17.96    5.38
   6   5 -14   12.90    4.47
   6   5 -13   11.04    4.57
   6   5 -12   11.42    3.89
   6   5 -11    8.65    3.89
   6   5 -10   33.67    5.21
   6   5  -9   63.36    6.48
   6   5  -8   41.56    5.10
   6   5  -7   67.79    6.02
   6   5  -6  102.20    7.26
   6   5  -5  111.30    7.45
   6   5  -4  106.26    6.80
   6   5  -3  146.68    7.49
   6   6 -15   14.08    5.42
   6   6 -14    1.52    3.77
   6   6 -13    5.22    4.26
   6   6 -12    2.59    4.00
   6   6 -11    8.51    4.18
   6   6 -10   16.61    4.27
   6   6  -9   11.67    4.32
   6   6  -8   21.73    4.55
   6   6  -7   25.88    4.55
  -6  -7  -6  141.10    9.25
  -6  -8  -5   41.62    6.27
  -6  -8  -6   69.72    7.37
  -6  -9  -5   16.69    5.35
  -6  -9  -6   -1.24    3.38
  -6  -9  -7    2.70    4.58
  -6 -10  -4   64.34    7.61
  -6 -10  -5   39.60    7.03
  -6 -10  -6   10.34    4.51
  -6 -10  -7   24.07    6.26
  -6 -11  -3  138.54   11.09
  -6 -11  -4   65.47    7.93
  -6 -11  -5   36.90    6.56
  -6 -11  -6   55.67    8.31
  -6 -11  -7   68.05    9.58
  -6 -12  -2   56.99    7.94
  -6 -12  -3   51.51    8.02
  -6 -12  -4   27.94    6.04
  -6 -12  -5   28.34    6.70
  -6 -12  -6   59.41    9.18
  -6 -12  -7   42.53    8.97
  -6 -13  -1    4.35    4.41
  -6 -13  -2   -0.16    4.44
  -6 -13  -3    8.29    5.21
  -6 -13  -4    5.74    4.65
  -6 -13  -5   23.84    7.64
   7  -7  -5   -2.34    7.26
   7  -6  -8    2.88    9.08
   7  -6  -7   -9.30    8.82
   7  -6  -6   -5.43    8.16
   7  -6  -5    5.03    8.74
   7  -6  -4    2.09    7.63
   7  -5  -9  -14.08    7.84
   7  -5  -8  -10.14    7.98
   7  -5  -7   -3.28    8.22
   7  -5  -6    1.13    8.23
   7  -5  -5    3.07    8.48
   7  -5  -4   -7.03    7.52
   7  -5  -3   -8.85    6.82
   7  -4 -11    6.57    7.55
   7  -4 -10   -6.37    7.43
   7  -4  -9   -6.57    7.18
   7  -4  -8  -13.93    7.34
   7  -4  -7   -3.95    6.60
   7  -4  -6  -10.23    7.28
   7  -4  -5   -5.51    7.14
   7  -4  -4    5.06    7.11
   7  -4  -3    3.07    7.45
   7  -4  -2   10.66    7.76
   7  -3 -12   10.11    6.14
   7  -3 -11    3.60    5.78
   7  -3 -10    8.42    6.89
   7  -3  -9   23.30    7.25
   7  -3  -8   -2.28    7.28
   7  -3  -7   -7.23    6.26
   7  -3  -6    3.04    6.82
   7  -3  -5    6.85    7.20
   7  -3  -4   12.44    7.12
   7  -3  -3   -8.50    5.37
   7  -3  -2   -4.39    6.56
   7  -3  -1   -6.96    6.44
   7  -2 -13   15.34    5.82
   7  -2 -12    9.73    5.54
   7  -2 -11    9.12    5.77
   7  -2 -10    6.63    5.32
   7  -2  -9    8.26    6.44
   7  -2  -8   17.10    6.74
   7  -2  -7    9.74    5.48
   7  -2  -6   24.63    6.39
   7  -2  -5   57.25    8.43
   7  -2  -4   27.66    7.82
   7  -2  -3   21.42    6.75
   7  -2  -2   36.70    7.78
   7  -2  -1   59.52    7.97
   7  -1 -13    3.14    4.80
   7  -1 -12    3.42    4.37
   7  -1 -11    3.43    4.75
   7  -1 -10    8.88    4.71
   7  -1  -9   16.38    5.42
   7  -1  -8   17.89    5.94
   7  -1  -7   33.17    6.51
   7  -1  -6   45.93    6.48
   7  -1  -5   30.13    6.66
   7  -1  -4   24.93    5.26
   7  -1  -3   70.30    7.09
   7  -1  -2   74.92    7.05
   7  -1  -1  116.23    7.67
   7  -1   0  121.80    7.55
   7   0 -14    8.85    4.60
   7   0 -13    4.31    4.22
   7   0 -12   -0.01    4.26
   7   0 -11    3.02    4.54
   7   0 -10    3.15    4.48
   7   0  -9    2.71    4.30
   7   0  -8    3.96    4.09
   7   0  -7    3.41    4.56
   7   0  -6    6.02    4.29
   7   0  -5   19.98    5.32
   7   0  -4   61.49    6.61
   7   0  -3   61.38    5.87
   7   0  -2  100.25    6.65
   7   0  -1  141.15    7.41
   7   0   0  154.36    7.28
   7   1 -14   11.42    5.01
   7   1 -13   10.60    4.90
   7   1 -12    7.62    4.54
   7   1 -11    6.83    4.27
   7   1 -10   10.42    4.63
   7   1  -9    7.12    4.26
   7   1  -8   -1.15    3.11
   7   1  -7    2.46    4.13
   7   1  -6    1.33    4.06
   7   1  -5   -2.46    3.87
   7   1  -4   -1.63    2.66
   7   1  -3    3.32    3.15
   7   1  -2   19.58    3.96
   7   1  -1   37.06    4.30
   7   1   0   32.05    3.73
   7   1   1   17.21    3.13
   7   2 -15   16.33    5.23
   7   2 -14   14.85    5.66
   7   2 -13   18.61    5.54
   7   2 -12   11.76    4.84
   7   2 -11   24.97    5.49
   7   2 -10   15.29    4.59
   7   2  -9   16.66    5.07
   7   2  -8   27.83    5.28
   7   2  -7   21.49    4.84
   7   2  -6   24.35    5.14
   7   2  -5    9.03    3.57
   7   2  -4    1.66    2.98
   7   2  -3   33.42    4.78
   7   2  -2   51.05    5.19
   7   2  -1   14.32    3.31
   7   2   0    9.19    2.73
   7   2   1    0.66    2.03
   7   3 -15   14.39    5.20
   7   3 -14   20.00    5.44
   7   3 -13   21.64    5.33
   7   3 -12   18.19    5.06
   7   3 -11   23.21    5.73
   7   3 -10   21.58    4.96
   7   3  -9   21.61    4.82
   7   3  -8   31.04    5.19
   7   3  -7   29.03    5.20
   7   3  -6   55.14    5.79
   7   3  -5   65.49    6.06
   7   3  -4   65.74    6.05
   7   3  -3   66.20    5.61
   7   3  -2   55.12    4.66
   7   3  -1   65.06    4.80
   7   3   0   58.68    4.42
   7   3   1   50.21    4.12
   7   4 -14   11.24    4.77
   7   4 -13    7.25    4.47
   7   4 -12    5.58    3.79
   7   4 -11    8.18    4.38
   7   4 -10   12.57    4.67
   7   4  -9   20.42    5.04
   7   4  -8   53.19    5.95
   7   4  -7   59.35    6.41
   7   4  -6   69.85    6.45
   7   4  -5   90.44    6.59
   7   4  -4  142.22    7.79
   7   4  -3  101.78    6.24
   7   4  -2   97.69    6.04
   7   4  -1   82.12    5.70
   7   5 -14    3.39    3.98
   7   5 -13    6.24    4.37
   7   5 -12    4.10    3.78
   7   5 -11    2.21    3.45
   7   5 -10    4.84    3.44
   7   5  -9    5.84    3.56
   7   5  -8    8.56    3.66
   7   5  -7    5.03    3.56
   7   5  -6   13.60    3.45
   7   5  -5   45.19    5.29
   7   5  -4   73.47    6.41
   7   5  -3   80.68    6.20
   7   6 -14   15.49    5.72
   7   6 -13    8.09    5.09
   7   6 -12    0.43    3.87
   7   6 -11    7.94    4.28
   7   6 -10    5.45    4.16
   7   6  -9    2.92    3.23
   7   6  -8    5.83    3.60
   7   6  -7   10.80    3.44
   7   6  -6    0.29    2.97
   7   6  -5    0.21    2.25
  -7  -9  -5   74.98    8.03
  -7 -10  -5   95.91    9.61
  -7 -11  -4   23.50    5.60
  -7 -11  -5   31.88    7.06
  -7 -11  -6   32.44    6.79
  -7 -12  -3   -0.12    5.07
  -7 -12  -4    4.64    5.16
  -7 -12  -5    4.84    4.34
  -7 -12  -6    7.56    5.47
  -7 -13  -2   25.98    6.00
  -7 -13  -3   18.94    5.38
  -7 -13  -4   14.08    6.45
   8  -5  -7  -15.40    7.11
   8  -5  -6  -14.73    6.91
   8  -5  -5   -9.64    6.68
   8  -4  -9   -1.72    6.68
   8  -4  -8   -4.67    7.34
   8  -4  -7  -14.47    7.22
   8  -4  -6   20.32    9.02
   8  -4  -5   -2.25    7.98
   8  -4  -4   -1.71    7.51
   8  -3 -10    9.46    5.91
   8  -3  -9    3.56    6.48
   8  -3  -8   14.14    7.11
   8  -3  -7   18.91    7.54
   8  -3  -6   28.65    8.10
   8  -3  -5   28.55    8.17
   8  -3  -4   16.62    6.74
   8  -3  -3   19.58    7.80
   8  -2 -11    8.37    5.57
   8  -2 -10    2.78    5.30
   8  -2  -9    4.61    5.24
   8  -2  -8    7.59    5.22
   8  -2  -7    7.90    5.01
   8  -2  -6   15.34    6.14
   8  -2  -5   34.16    7.11
   8  -2  -4   22.18    6.38
   8  -2  -3   27.96    6.21
   8  -1 -12    6.49    5.43
   8  -1 -11    2.70    4.93
   8  -1 -10    1.03    4.29
   8  -1  -9    6.00    4.32
   8  -1  -8   -1.87    3.60
   8  -1  -7    0.00    4.79
   8  -1  -6    4.08    4.94
   8  -1  -5   12.98    5.42
   8  -1  -4    5.66    4.85
   8  -1  -3   18.47    5.19
   8  -1  -2   41.27    5.97
   8   0 -12   12.05    4.77
   8   0 -11   19.41    5.30
   8   0 -10   12.86    5.23
   8   0  -9   13.92    5.45
   8   0  -8    7.12    4.67
   8   0  -7    3.25    4.76
   8   0  -6    2.22    4.01
   8   0  -5   10.83    4.23
   8   0  -4    1.97    4.08
   8   0  -3   -1.77    3.78
   8   0  -2    2.53    3.69
   8   1 -13   15.75    5.37
   8   1 -12   20.12    5.37
   8   1 -11   14.71    4.78
   8   1 -10   19.30    5.24
   8   1  -9   31.59    5.89
   8   1  -8   24.06    4.91
   8   1  -7   23.21    4.80
   8   1  -6   29.94    5.18
   8   1  -5   38.37    5.07
   8   1  -4   51.15    5.69
   8   1  -3   69.94    6.13
   8   1  -2   57.99    5.46
   8   1  -1   44.96    4.61
   8   2 -13   10.95    5.17
   8   2 -12   14.67    5.06
   8   2 -11   13.05    4.89
   8   2 -10   17.32    5.12
   8   2  -9   16.77    4.79
   8   2  -8   21.20    5.07
   8   2  -7   48.58    6.27
   8   2  -6   58.10    6.20
   8   2  -5   63.89    6.46
   8   2  -4   93.77    7.18
   8   2  -3   94.56    6.86
   8   2  -2  112.63    6.95
   8   2  -1  160.98    7.52
   8   2   0  148.35    6.74
   8   3 -13    6.77    4.42
   8   3 -12    5.91    4.19
   8   3 -11    6.28    4.39
   8   3 -10    4.35    3.84
   8   3  -9    7.33    4.47
   8   3  -8   13.47    4.67
   8   3  -7   15.77    4.26
   8   3  -6   18.83    4.71
   8   3  -5   32.18    5.06
   8   3  -4   28.92    4.32
   8   3  -3   99.59    6.80
   8   3  -2  154.38    7.65
   8   3  -1  199.39    8.20
   8   3   0  167.38    7.29
   8   4 -13   10.83    4.80
   8   4 -12   10.76    4.55
   8   4 -11    4.59    3.83
   8   4 -10    2.73    3.84
   8   4  -9    3.21    3.76
   8   4  -8   -0.39    2.91
   8   4  -7   -0.49    3.46
   8   4  -6    2.45    3.33
   8   4  -5    3.96    3.20
   8   4  -4    0.73    3.11
   8   4  -3   13.72    3.59
   8   4  -2    4.06    3.14
   8   4  -1   36.29    4.69
   8   4   0  117.05    6.65
   8   5 -13   14.36    4.90
   8   5 -12   12.64    4.69
   8   5 -11    5.76    3.97
   8   5 -10    8.71    4.09
   8   5  -9    8.89    3.83
   8   5  -8    7.82    3.89
   8   5  -7   12.80    3.88
   8   5  -6   18.35    4.26
   8   5  -5   22.64    4.21
   8   5  -4    9.65    3.40
   8   5  -3    0.43    2.79
   8   5  -2   -1.80    2.43
   8   6 -13   18.42    5.71
   8   6 -12    6.52    4.67
   8   6 -11   16.73    5.12
   8   6 -10   17.98    5.00
   8   6  -9   10.47    4.34
   8   6  -8   31.40    5.56
   8   6  -7   62.57    6.72
   8   6  -6   45.46    5.56
   8   6  -5   53.92    5.56
   8   7 -12    9.29    4.20
   8   7 -11   13.69    4.43
   8   7 -10   13.45    4.24
  -8 -12  -4   37.28    7.51
   9  -4  -6   -0.59    6.57
   9  -3  -8    3.23    6.33
   9  -3  -7    2.69    5.83
   9  -3  -6    6.56    5.49
   9  -2  -9    3.23    5.08
   9  -2  -8    3.11    5.07
   9  -2  -7    1.64    4.58
   9  -2  -6   -1.93    5.11
   9  -2  -5    3.46    4.88
   9  -1 -10    4.66    5.07
   9  -1  -9   10.31    5.77
   9  -1  -8    7.66    5.31
   9  -1  -7    2.33    4.16
   9  -1  -6    9.96    4.99
   9  -1  -5    7.09    4.54
   9  -1  -4    3.54    4.28
   9   0 -11   17.21    5.04
   9   0 -10    8.14    4.37
   9   0  -9   18.32    5.19
   9   0  -8   19.89    4.96
   9   0  -7   22.09    5.31
   9   0  -6   20.40    5.11
   9   0  -5   34.15    5.53
   9   0  -4   45.82    5.70
   9   0  -3   16.03    4.13
   9   1 -11    9.99    4.96
   9   1 -10   17.75    5.43
   9   1  -9   22.15    5.39
   9   1  -8   35.95    6.15
   9   1  -7   26.94    5.53
   9   1  -6   39.42    5.92
   9   1  -5   63.33    6.54
   9   1  -4   50.47    6.00
   9   1  -3   44.66    5.41
   9   2 -11    4.66    4.94
   9   2 -10    4.11    4.44
   9   2  -9    6.09    4.38
   9   2  -8   14.96    4.85
   9   2  -7   20.12    4.99
   9   2  -6   20.81    4.84
   9   2  -5   21.92    4.86
   9   2  -4   18.02    4.44
   9   2  -3   47.01    5.46
   9   2  -2   46.92    5.08
   9   3 -12   14.26    4.90
   9   3 -11    6.71    4.64
   9   3 -10    7.43    4.23
   9   3  -9   10.93    4.28
   9   3  -8    1.94    3.32
   9   3  -7    1.58    3.91
   9   3  -6    3.34    3.28
   9   3  -5    5.32    3.11
   9   3  -4    2.68    3.47
   9   3  -3    2.35    2.77
   9   3  -2    3.74    2.88
   9   4 -12   20.33    5.31
   9   4 -11   13.82    4.92
   9   4 -10   20.65    5.10
   9   4  -9   61.70    7.36
   9   4  -8   16.83    4.65
   9   4  -7   32.74    5.41
   9   4  -6   37.25    5.42
   9   4  -5   44.06    5.53
   9   4  -4   15.49    3.72
   9   4  -3    1.14    2.77
   9   4  -2    8.53    3.29
   9   4  -1    9.95    3.32
   9   5 -12   15.57    4.84
   9   5 -11   18.03    4.97
   9   5 -10   16.92    4.76
   9   5  -9   22.17    4.99
   9   5  -8   41.22    6.09
   9   5  -7   33.72    5.53
   9   5  -6   44.82    5.84
   9   5  -5   41.34    5.52
   9   5  -4   47.88    5.74
   9   5  -3   57.50    5.57
   9   5  -2   89.56    6.44
   9   6 -11    6.15    4.38
   9   6 -10   11.85    4.82
   9   6  -9   23.92    5.32
   9   6  -7   29.97    5.52
   9   6  -6   60.48    6.64
   9   6  -5   56.32    6.22
   9   7 -11    5.11    3.88
   9   7 -10    3.95    3.57
   9   7  -9    4.25    3.48
  10  -1  -8   18.49    5.36
  10  -1  -7   13.67    4.83
  10  -1  -6   29.07    5.92
  10   0  -9   12.82    5.15
  10   0  -8   10.98    4.49
  10   0  -7    8.64    4.17
  10   0  -6   12.32    4.35
  10   1  -9    4.42    4.58
  10   1  -8    5.20    4.33
  10   1  -7   11.36    4.57
  10   1  -6   11.59    4.60
  10   1  -5   11.61    3.99
  10   2 -10   14.40    4.96
  10   2  -9    9.41    4.37
  10   2  -8    8.72    4.51
  10   2  -7    7.90    4.05
  10   2  -6    5.52    4.32
  10   2  -5   10.26    4.32
  10   2  -4   15.89    4.36
  10   3 -10   13.66    5.07
  10   3  -9   11.51    4.85
  10   3  -8   20.44    5.16
  10   3  -7   29.94    5.63
  10   3  -6   29.51    5.19
  10   3  -5   31.13    5.05
  10   3  -4   31.31    4.82
  10   4 -10   19.12    5.09
  10   4  -9   29.35    5.71
  10   4  -8   16.18    4.40
  10   4  -7   22.44    4.96
  10   4  -6   13.87    4.36
  10   4  -5   15.64    4.27
  10   4  -4   26.17    4.65
  10   4  -3   37.37    4.99
  10   5 -10   10.17    4.48
  10   5  -9    9.65    4.27
  10   5  -8   13.50    4.50
  10   5  -7   17.66    4.45
  10   5  -6   26.37    4.86
  10   5  -5   54.64    6.40
  10   5  -4   58.92    6.60
  10   5  -3   36.30    5.07
  10   5  -2   25.30    4.28
  10   6 -10    6.35    4.56
  10   6  -9    6.46    4.57
  10   6  -8    9.56    4.37
  10   6  -7    4.25    3.84
  10   6  -6    3.71    3.14
  10   6  -5    5.32    3.48
  10   7  -9   11.30    4.14
  11   1  -7   22.57    5.64
  11   2  -7   23.37    5.12
  11   2  -6   40.00    5.89
  11   3  -8   18.57    4.88
  11   3  -7   28.13    5.46
  11   3  -6   27.31    5.06
  11   4  -8    6.27    4.30
  11   4  -7   12.11    4.27
  11   4  -6   15.99    4.66
  11   4  -5   27.58    5.08
  11   5  -8    8.09    4.29
  11   5  -7    9.59    4.36
  11   5  -6    8.98    4.41
  11   5  -5    8.34    4.25
  11   6  -8   27.68    5.84
  11   6  -7   18.10    4.87
  11   6  -6   25.30    5.06
  11   6  -5   18.49    4.25
   0   0  -2  157.63    3.81
   0   0  -3  440.39    8.01
   0   0  -4    9.51    2.95
   0   0  -5   26.97    3.29
   0   0  -6  233.74    7.68
   0   0  -7  113.07    6.40
   0   0  -8   33.94    5.06
   0   0  -9   19.91    5.13
   0   0 -10   10.50    5.01
   0   0 -11   48.99    6.52
   0   0 -12   13.38    5.16
   0   0 -13    0.65    4.38
   0   0 -14    9.55    4.75
   0   0 -15    1.13    4.53
   0   0 -16   -7.52    4.50
   0   0 -17    2.97    5.43
   0   0 -18  -10.00    5.35
   0   1 -18    0.16    5.55
   0   1 -17    3.99    5.93
   0   1 -16   -1.53    5.22
   0   1 -15    4.19    4.89
   0   1 -14   -4.11    4.67
   0   1 -13    7.13    5.13
   0   1 -12   -1.24    3.79
   0   1 -11    1.66    3.97
   0   1 -10    6.73    3.76
   0   1  -9   12.53    4.37
   0   1  -8   10.05    3.41
   0   1  -7   -0.43    2.98
   0   1  -6    0.95    2.89
   0   1  -5   33.31    3.38
   0   1  -4    2.18    2.35
   0   1  -3  192.60    4.52
   0   1  -2  358.11    5.37
   0  -1  -5  172.72    5.79
   0  -1  -7  197.07    8.47
   0  -1  -8  112.74    7.55
   0  -1  -9  108.91    8.09
   0  -1 -10   62.52    6.43
   0  -1 -11   19.88    5.01
   0  -1 -12   20.56    5.83
   0  -1 -13   36.53    6.63
   0  -1 -14    2.19    4.65
   0  -1 -15    0.82    4.98
   0  -1 -16   -0.07    5.09
   0  -1 -17    5.78    5.25
   0  -1 -18   -2.88    5.84
   0   2 -18   14.31    6.02
   0   2 -17    4.97    6.02
   0   2 -16    9.14    6.00
   0   2 -15   14.05    5.85
   0   2 -14   22.17    5.90
   0   2 -13   18.57    5.81
   0   2 -12   23.53    5.47
   0   2 -11   40.29    6.20
   0   2 -10   16.96    4.93
   0   2  -9   20.77    4.66
   0   2  -8   14.55    3.89
   0   2  -7   74.54    5.07
   0   2  -6   52.41    3.77
   0   2  -5  109.81    4.79
   0   2  -4  126.21    4.54
   0   2  -3    7.07    1.86
   0  -2  -8  100.89    5.66
   0  -2  -9   71.51    5.96
   0  -2 -10   75.87    7.04
   0  -2 -11   53.98    7.73
   0  -2 -12   46.03    6.92
   0  -2 -13   25.32    4.93
   0  -2 -14   23.24    5.65
   0  -2 -15   13.00    5.98
   0  -2 -16    8.29    5.96
   0  -2 -17    8.83    6.07
   0  -2 -18    0.94    5.40
   0   3 -18   18.04    5.61
   0   3 -17   13.16    5.16
   0   3 -16   21.25    5.28
   0   3 -15    9.62    5.13
   0   3 -14   21.42    5.47
   0   3 -13   27.23    5.64
   0   3 -12   27.81    5.46
   0   3 -11   44.42    5.94
   0   3 -10   33.78    4.58
   0   3  -9   23.91    3.78
   0   3  -8   42.79    4.54
   0   3  -7   46.12    4.10
   0   3  -6   62.73    4.17
   0  -3 -10   28.49    4.40
   0  -3 -11   22.31    4.43
   0  -3 -12   13.20    5.24
   0  -3 -13    9.75    5.84
   0  -3 -14   12.12    5.86
   0  -3 -15    1.95    4.47
   0  -3 -16   16.75    6.08
   0  -3 -17    2.46    5.76
   0  -3 -18    2.48    5.61
   0   4 -17    6.90    4.87
   0   4 -16   16.79    5.86
   0   4 -15    8.74    4.35
   0   4 -14   20.18    5.29
   0   4 -13   19.48    4.86
   0   4 -12   37.95    5.66
   0   4 -11   59.78    6.34
   0   4 -10   49.86    5.65
   0   4  -9   25.72    4.12
   0  -4 -11   -0.93    2.99
   0  -4 -12   12.54    4.19
   0  -4 -13   11.41    4.93
   0  -4 -14    2.62    4.85
   0  -4 -15   -3.14    5.72
   0  -4 -16    0.13    4.24
   0  -4 -17   -5.45    5.02
   0  -5 -12    7.92    3.66
   0  -5 -13   10.43    4.08
   0  -5 -14    1.58    4.31
   0  -5 -15    2.71    4.76
   0  -5 -16   -0.28    6.34
   0  -5 -17   -0.22    4.97
   0  -6 -13   14.54    4.07
   0  -6 -14    7.94    4.15
   0  -6 -15    8.82    4.44
   0  -6 -16    7.48    6.47
   0  -7 -14   22.17    4.91
   0  -7 -15   17.24    5.34
   1  -7 -15   15.65    5.17
   1  -6 -15    2.97    4.22
   1  -6 -14   11.68    4.43
   1  -5 -15    3.15    5.12
   1  -5 -14    4.40    4.16
   1  -5 -13    7.98    3.93
   1  -4 -15   16.81    6.38
   1  -4 -14   19.05    5.71
   1  -4 -13   11.22    4.33
   1  -4 -12   22.22    4.28
  -1   4  -9   31.80    4.03
  -1   4 -10   33.93    5.16
  -1   4 -11   41.97    5.86
  -1   4 -12   31.93    5.42
  -1   4 -13   10.39    5.06
  -1   4 -14   10.41    5.35
  -1   4 -15   20.15    5.96
  -1   4 -16   12.36    4.92
  -1   4 -17   20.40    6.20
   1  -3 -15   10.64    5.60
   1  -3 -14    9.33    5.27
   1  -3 -13   30.96    6.54
   1  -3 -12   62.60    6.91
   1  -3 -11   49.25    5.27
   1  -3 -10   97.14    6.65
  -1   3  -6    6.14    2.90
  -1   3  -7   -3.23    2.72
  -1   3  -8   -4.19    3.00
  -1   3  -9    2.21    2.84
  -1   3 -10   -2.10    2.97
  -1   3 -11    0.83    4.42
  -1   3 -12   10.11    4.81
  -1   3 -13   10.49    5.16
  -1   3 -14   15.74    5.66
  -1   3 -15   13.80    4.73
  -1   3 -16   18.85    5.90
  -1   3 -17    8.41    5.68
   1  -2 -16   -3.09    5.15
   1  -2 -15   -0.62    5.00
   1  -2 -14   14.11    4.87
   1  -2 -13    6.61    4.23
   1  -2 -12   22.47    6.04
   1  -2 -11   55.23    6.78
   1  -2 -10   78.76    6.44
   1  -2  -9   65.63    5.32
  -1   2  -3  253.89    6.02
  -1   2  -4   94.00    4.21
  -1   2  -5    1.90    1.94
  -1   2  -6   32.17    3.46
  -1   2  -7   42.18    4.50
  -1   2  -8   37.17    4.84
  -1   2  -9   29.59    5.21
  -1   2 -10    9.24    4.01
  -1   2 -11    3.69    4.03
  -1   2 -12   -1.50    4.74
  -1   2 -13   -1.48    4.81
  -1   2 -14   -5.21    5.18
  -1   2 -15   -1.13    5.47
  -1   2 -16   -7.81    5.17
  -1   2 -17    2.45    6.23
  -1   2 -18    4.01    6.15
   1  -1 -16    2.74    5.17
   1  -1 -15    1.24    4.37
   1  -1 -14   -4.86    4.38
   1  -1 -13    7.11    5.37
   1  -1 -12    5.13    4.40
   1  -1 -11   -3.34    4.03
   1  -1 -10    4.99    4.76
   1  -1  -9    5.15    4.44
   1  -1  -8  101.78    6.46
   1  -1  -7  173.99    6.65
   1  -1  -6  192.04    6.31
  -1   1  -2  685.13    8.76
  -1   1  -3  106.38    3.91
  -1   1  -4  141.81    4.87
  -1   1  -5  312.36    7.83
  -1   1  -6  145.59    6.09
  -1   1  -7   96.44    5.81
  -1   1  -8  133.58    6.97
  -1   1  -9   78.99    6.24
  -1   1 -10   65.77    6.88
  -1   1 -11   27.84    5.33
  -1   1 -12   35.15    5.90
  -1   1 -13   21.01    5.36
  -1   1 -14   12.51    5.58
  -1   1 -15    5.98    5.81
  -1   1 -16   -3.49    4.88
  -1   1 -17    1.67    6.27
  -1   1 -18   -6.05    5.34
   1   0 -16    6.77    5.51
   1   0 -15    5.70    4.63
   1   0 -14    5.76    4.47
   1   0 -13    2.53    4.67
   1   0 -12   33.14    5.91
   1   0 -11    1.90    4.36
   1   0 -10    2.81    3.96
   1   0  -9   57.78    6.05
   1   0  -8    6.51    3.38
   1   0  -7   21.00    3.65
   1   0  -6   57.87    4.73
   1   0  -5  258.93    7.79
   1   0  -4  996.11   12.76
   1   0  -3  159.21    3.80
  -1   0  -1  346.46    4.70
  -1   0  -2    7.62    1.33
  -1   0  -3   19.00    2.41
  -1   0  -4   24.97    3.40
  -1   0  -5  125.42    5.94
  -1   0  -6  117.19    5.96
  -1   0  -7  249.03    9.17
  -1   0  -8  147.38    7.49
  -1   0  -9   72.07    6.36
  -1   0 -10   44.91    6.35
  -1   0 -11   71.02    6.80
  -1   0 -12   87.02    8.15
  -1   0 -13   15.74    5.71
  -1   0 -14   27.54    5.92
  -1   0 -15   13.10    6.40
  -1   0 -16    8.50    6.35
  -1   0 -17    1.97    6.02
  -1   0 -18    3.12    6.26
   1   1 -16   12.34    5.40
   1   1 -15   12.72    5.62
   1   1 -14   24.85    5.85
   1   1 -13   31.41    5.94
   1   1 -12   58.32    6.80
   1   1 -11   45.09    6.00
   1   1 -10  105.42    7.06
   1   1  -9   83.52    6.01
   1   1  -8   66.62    5.09
   1   1  -7   10.69    2.98
   1   1  -6    6.19    2.32
   1   1  -5   20.31    2.65
   1   1  -4   56.86    3.23
   1   1  -3  257.30    4.77
  -1  -1  -4    6.44    2.67
  -1  -1  -5   78.84    5.29
  -1  -1  -6   58.39    5.70
  -1  -1  -7   54.66    5.92
  -1  -1  -8   36.69    4.66
  -1  -1  -9   15.21    4.59
  -1  -1 -10    7.09    4.25
  -1  -1 -11   24.32    6.10
  -1  -1 -12   13.69    6.25
  -1  -1 -13   57.15    7.89
  -1  -1 -14   54.45    7.48
  -1  -1 -15   36.48    6.47
  -1  -1 -16   18.45    6.13
  -1  -1 -17    8.68    6.19
  -1  -1 -18    4.70    6.72
   1   2 -16    2.91    4.99
   1   2 -15   17.53    5.70
   1   2 -14   22.04    5.84
   1   2 -13   45.82    6.43
   1   2 -12   40.96    5.66
   1   2 -11  100.98    7.50
   1   2 -10  118.93    7.35
   1   2  -9   97.43    6.43
   1   2  -8   92.55    5.51
   1   2  -7  121.74    5.77
   1   2  -6  294.76    7.55
   1   2  -5  313.11    7.02
   1   2  -4  195.47    4.90
  -1  -2  -6   -1.25    2.39
  -1  -2  -7   -1.00    1.99
  -1  -2  -8   -1.12    2.81
  -1  -2  -9   -2.26    4.41
  -1  -2 -10   10.75    5.20
  -1  -2 -11    2.18    4.98
  -1  -2 -12    0.75    4.79
  -1  -2 -13    3.08    5.09
  -1  -2 -14    2.76    5.37
  -1  -2 -15   13.17    6.35
  -1  -2 -16    3.34    5.74
  -1  -2 -17    2.80    5.68
  -1  -2 -18    3.35    6.08
   1   3 -16    3.51    4.47
   1   3 -15    2.09    3.76
   1   3 -14    0.52    4.29
   1   3 -13    4.73    3.84
   1   3 -12    6.74    4.01
   1   3 -11   29.07    4.71
   1   3 -10   39.67    5.19
   1   3  -9   84.94    6.02
   1   3  -8  136.24    6.39
   1   3  -7  195.97    6.82
   1   3  -6  127.00    5.50
  -1  -3  -9   36.08    4.68
  -1  -3 -10   11.36    4.23
  -1  -3 -11   14.75    5.54
  -1  -3 -12    2.23    5.47
  -1  -3 -13    1.29    5.04
  -1  -3 -14    2.85    4.05
  -1  -3 -15    1.24    4.31
  -1  -3 -16   -0.88    5.57
  -1  -3 -17   -6.92    5.96
  -1  -3 -18   -5.01    6.09
   1   4 -16    5.54    4.80
   1   4 -15    3.01    3.94
   1   4 -14    0.99    3.93
   1   4 -13   -1.07    3.60
   1   4 -12    1.18    3.66
   1   4 -11   -0.84    3.36
   1   4 -10    1.77    2.99
   1   4  -9   -4.50    2.58
  -1  -4 -10   15.32    4.13
  -1  -4 -11   32.29    5.05
  -1  -4 -12   35.80    6.04
  -1  -4 -13   12.35    5.15
  -1  -4 -14    9.36    6.23
  -1  -4 -15    9.69    6.47
  -1  -4 -16    1.54    5.29
  -1  -4 -17    2.74    5.79
  -1  -5 -12   33.31    4.88
  -1  -5 -13   22.95    4.79
  -1  -5 -14   22.87    6.36
  -1  -5 -15    5.62    5.49
  -1  -5 -16   -0.96    6.50
  -1  -5 -17    4.53    6.74
  -1  -6 -13   27.81    5.29
  -1  -6 -14   20.42    5.10
  -1  -6 -15   16.73    5.71
  -1  -6 -16    7.94    7.03
  -1  -7 -14   13.94    4.71
  -1  -7 -15    8.95    4.99
   2  -5 -13   17.29    4.06
   2  -4 -13   12.66    3.94
   2  -4 -12   16.50    3.87
  -2   4  -9    4.73    2.85
  -2   4 -10    2.13    3.24
  -2   4 -11    5.02    3.80
  -2   4 -12   -1.37    2.83
  -2   4 -13   -0.12    4.20
  -2   4 -14   10.21    5.07
  -2   4 -15   11.28    5.31
  -2   4 -16   12.08    4.77
  -2   4 -17   23.55    6.34
   2  -3 -13    5.83    4.36
   2  -3 -12   18.65    4.12
   2  -3 -11   18.13    3.66
  -2   3  -6   60.35    4.24
  -2   3  -7   53.29    5.32
  -2   3  -8   40.63    5.10
  -2   3  -9   36.53    4.64
  -2   3 -10   18.06    4.41
  -2   3 -11    0.08    3.10
  -2   3 -12   -3.05    3.52
  -2   3 -13   -0.58    4.05
  -2   3 -14   -0.89    3.60
  -2   3 -15    6.55    5.38
  -2   3 -16    9.35    4.80
  -2   3 -17    1.62    5.50
   2  -2 -13    4.42    4.71
   2  -2 -12   -0.06    4.14
   2  -2 -11    0.96    3.74
   2  -2 -10   -0.11    2.72
   2  -2  -9   -3.74    2.18
  -2   2  -4  276.53    7.68
  -2   2  -5   99.61    5.10
  -2   2  -6  159.99    6.88
  -2   2  -7  226.17    8.66
  -2   2  -8  112.41    6.61
  -2   2  -9   96.15    6.69
  -2   2 -10   59.12    6.81
  -2   2 -11   23.53    5.10
  -2   2 -12   36.53    6.18
  -2   2 -13   18.96    6.33
  -2   2 -14    8.14    4.83
  -2   2 -15    8.42    5.58
  -2   2 -16   11.62    6.44
  -2   2 -17    9.90    6.64
  -2   2 -18   13.01    6.28
   2  -1 -13    7.95    4.91
   2  -1 -12    3.16    3.60
   2  -1 -11    4.35    4.32
   2  -1 -10   15.79    4.95
   2  -1  -9   26.42    4.46
   2  -1  -8   73.81    5.09
   2  -1  -7  102.22    4.89
  -2   1  -2   64.09    3.35
  -2   1  -3   80.26    3.96
  -2   1  -4  139.97    5.33
  -2   1  -5  105.28    5.25
  -2   1  -6  253.20    8.25
  -2   1  -7   90.86    5.64
  -2   1  -8   81.13    6.41
  -2   1  -9   82.80    6.44
  -2   1 -10   81.99    7.40
  -2   1 -11   48.72    6.95
  -2   1 -12   27.35    6.29
  -2   1 -13   30.45    6.21
  -2   1 -14   28.63    6.51
  -2   1 -15   18.53    6.78
  -2   1 -16   15.09    7.15
  -2   1 -17   12.97    6.87
  -2   1 -18    4.35    6.85
   2   0 -13   37.60    5.84
   2   0 -12   28.48    5.40
   2   0 -11   50.62    6.15
   2   0 -10   58.88    6.23
   2   0  -9   45.08    4.90
   2   0  -8    9.43    3.34
   2   0  -7   30.20    4.20
   2   0  -6   -4.37    2.47
   2   0  -5   19.75    2.45
  -2   0   0   29.23    1.65
  -2   0  -1   10.99    1.75
  -2   0  -2   58.36    3.14
  -2   0  -3    6.83    2.44
  -2   0  -4   31.66    3.14
  -2   0  -5   -0.87    2.11
  -2   0  -6   44.68    4.63
  -2   0  -7   41.28    4.39
  -2   0  -8   46.30    5.49
  -2   0  -9    9.87    3.88
  -2   0 -10    7.23    4.02
  -2   0 -11    3.21    4.30
  -2   0 -12   26.73    6.42
  -2   0 -13    8.33    5.79
  -2   0 -14   20.40    6.49
  -2   0 -15   15.35    6.75
  -2   0 -16    9.33    6.59
  -2   0 -17    8.71    5.92
  -2   0 -18   -5.92    6.45
   2   1 -13   25.74    5.47
   2   1 -12   57.02    6.33
   2   1 -11   27.80    4.99
   2   1 -10   33.69    4.86
   2   1  -9   73.85    5.47
   2   1  -8  136.73    6.39
   2   1  -7  365.14    9.09
   2   1  -6  236.61    6.56
   2   1  -5  233.15    5.72
   2   1  -4  301.98    5.41
  -2  -1  -1   37.79    2.57
  -2  -1  -2  406.93    8.37
  -2  -1  -3  136.37    5.61
  -2  -1  -4  187.01    6.92
  -2  -1  -5  113.78    6.33
  -2  -1  -6  116.89    6.56
  -2  -1  -7   31.00    4.60
  -2  -1  -8    5.46    3.76
  -2  -1  -9    0.86    3.97
  -2  -1 -10    2.06    4.75
  -2  -1 -11    0.89    5.60
  -2  -1 -12    6.16    5.92
  -2  -1 -13   -2.87    5.54
  -2  -1 -14   -1.59    5.64
  -2  -1 -15   -4.52    5.15
  -2  -1 -16    0.97    5.43
  -2  -1 -17    0.18    5.98
  -2  -1 -18   -6.27    6.20
   2   2 -13    8.78    4.65
   2   2 -12    2.31    3.97
   2   2 -11   -7.47    3.46
   2   2 -10   38.75    4.99
   2   2  -9   48.90    4.90
   2   2  -8   41.24    4.18
   2   2  -7   69.12    4.39
   2   2  -6  190.48    5.74
   2   2  -5  201.78    5.15
   2   2  -4  245.51    5.09
  -2  -2  -4  224.68    6.63
  -2  -2  -5  241.57    7.54
  -2  -2  -6  198.72    7.93
  -2  -2  -7  146.26    8.32
  -2  -2  -8   88.45    7.98
  -2  -2  -9   50.51    7.07
  -2  -2 -10    8.31    4.28
  -2  -2 -11    0.43    4.79
  -2  -2 -12   30.81    6.19
  -2  -2 -13   21.37    7.04
  -2  -2 -14    3.47    6.12
  -2  -2 -15    0.16    4.74
  -2  -2 -16   -3.88    5.88
  -2  -2 -17   -2.17    6.07
  -2  -2 -18   -7.53    4.92
   2   3 -13    1.38    3.96
   2   3 -12    2.25    3.68
   2   3 -11   -2.88    3.35
   2   3 -10   -4.56    2.82
   2   3  -9   -4.12    2.57
   2   3  -8   -1.89    2.26
   2   3  -7    4.50    2.32
   2   3  -6   22.16    2.42
  -2  -3  -7  250.74    8.90
  -2  -3  -8   87.71    5.95
  -2  -3  -9   51.69    6.12
  -2  -3 -10   64.44    7.23
  -2  -3 -11   42.23    7.01
  -2  -3 -12   33.07    6.34
  -2  -3 -13   31.26    5.84
  -2  -3 -14   40.89    7.17
  -2  -3 -15   19.30    7.08
  -2  -3 -16    5.93    5.53
  -2  -3 -17   -5.80    6.44
  -2  -3 -18    1.68    5.26
   2   4 -13   34.91    5.42
   2   4 -12   34.58    4.94
   2   4 -11   32.36    4.53
   2   4 -10   17.90    3.40
  -2  -4  -9   29.48    4.36
  -2  -4 -10   34.90    4.81
  -2  -4 -11   63.89    7.15
  -2  -4 -12   47.99    7.41
  -2  -4 -13   29.64    6.75
  -2  -4 -14   18.37    6.06
  -2  -4 -15   14.58    5.37
  -2  -4 -16   11.04    5.60
  -2  -4 -17   18.43    7.77
  -2  -5 -11   13.96    4.33
  -2  -5 -12   14.01    4.55
  -2  -5 -13    5.37    4.75
  -2  -5 -14   12.20    5.82
  -2  -5 -15    2.78    6.14
  -2  -5 -16    3.28    6.95
  -2  -5 -17   12.97    6.66
  -2  -6 -12    3.38    3.67
  -2  -6 -13   -0.93    3.69
  -2  -6 -14    2.63    4.62
  -2  -6 -15    3.06    5.28
  -2  -6 -16    5.14    7.48
  -2  -7 -13   18.94    4.74
  -2  -7 -14    9.82    4.07
  -2  -7 -15   12.32    5.96
  -2  -7 -16    2.41    5.66
  -2  -8 -14   12.25    4.21
  -3   4 -11    5.76    3.75
  -3   4 -12    1.72    3.26
  -3   4 -13    0.23    3.80
  -3   4 -14    2.52    3.53
  -3   4 -15    5.93    4.10
  -3   4 -16    6.21    4.95
  -3   3  -7   53.01    5.05
  -3   3  -8   36.90    5.25
  -3   3  -9   60.39    5.83
  -3   3 -10   90.98    6.99
  -3   3 -11  106.21    8.06
  -3   3 -12   38.97    5.52
  -3   3 -13   23.12    5.45
  -3   3 -14   24.30    5.42
  -3   3 -15    9.55    4.72
  -3   3 -16   15.05    6.07
   3  -2 -10   35.77    4.09
  -3   2  -4   41.53    3.25
  -3   2  -5   17.66    2.96
  -3   2  -6    4.15    2.93
  -3   2  -7   33.23    4.71
  -3   2  -8   54.09    5.21
  -3   2  -9   62.15    6.46
  -3   2 -10   50.91    5.98
  -3   2 -11   34.55    6.30
  -3   2 -12   37.56    6.81
  -3   2 -13   42.17    6.76
  -3   2 -14   25.04    6.31
  -3   2 -15   34.79    6.98
  -3   2 -16   21.48    7.36
  -3   2 -17   11.92    6.99
   3  -1 -10   45.72    5.76
   3  -1  -9   58.03    5.08
   3  -1  -8   51.53    4.05
  -3   1  -2   15.45    2.37
  -3   1  -3  106.76    4.61
  -3   1  -4   37.48    3.73
  -3   1  -5   17.40    3.02
  -3   1  -6    2.99    3.29
  -3   1  -7    0.45    2.95
  -3   1  -8    1.61    3.26
  -3   1  -9   -1.83    4.38
  -3   1 -10   11.54    5.56
  -3   1 -11    9.11    5.34
  -3   1 -12    9.83    4.63
  -3   1 -13   22.16    6.45
  -3   1 -14    8.90    6.43
  -3   1 -15    0.82    6.50
  -3   1 -16    3.87    6.97
  -3   1 -17    6.36    7.08
   3   0 -10    1.65    3.71
   3   0  -9   35.85    4.34
   3   0  -8   98.76    6.02
   3   0  -7  178.95    7.21
   3   0  -6  382.91    8.50
   3   0  -5  190.42    4.78
  -3   0  -1  197.93    4.82
  -3   0  -2  119.94    4.27
  -3   0  -3   87.74    4.19
  -3   0  -4  262.15    7.52
  -3   0  -5  346.59    9.42
  -3   0  -6  166.13    7.41
  -3   0  -7  141.25    7.23
  -3   0  -8   73.14    6.06
  -3   0  -9   46.66    6.01
  -3   0 -10   12.47    4.84
  -3   0 -11    7.15    5.87
  -3   0 -12    3.98    5.77
  -3   0 -13   -3.14    5.68
  -3   0 -14  -10.06    4.76
  -3   0 -15   -6.77    4.62
  -3   0 -16   -9.00    6.23
  -3   0 -17    3.03    5.80
   3   1 -10    9.16    3.91
   3   1  -9    7.81    3.17
   3   1  -8   19.86    3.49
   3   1  -7   39.82    3.65
   3   1  -6   28.28    2.99
   3   1  -5  135.70    4.10
   3   1  -4  179.31    3.62
  -3  -1   0  766.08    8.15
  -3  -1  -1  117.58    3.80
  -3  -1  -2  391.13    7.87
  -3  -1  -3  245.78    6.98
  -3  -1  -4  182.78    7.20
  -3  -1  -5  149.74    6.83
  -3  -1  -6  211.24    9.07
  -3  -1  -7  171.60    8.85
  -3  -1  -8   92.74    7.70
  -3  -1  -9  100.03    8.35
  -3  -1 -10   72.23    7.15
  -3  -1 -11   81.40    8.49
  -3  -1 -12   16.54    5.16
  -3  -1 -13   14.18    6.40
  -3  -1 -14   11.11    5.78
  -3  -1 -15    3.15    5.53
  -3  -1 -16   16.88    7.63
  -3  -1 -17   -5.44    6.80
  -3  -1 -18   -8.72    6.06
   3   2 -10    8.80    3.90
   3   2  -9    0.01    3.07
   3   2  -8   -0.59    2.68
   3   2  -7   -1.26    2.25
   3   2  -6   -0.34    1.85
   3   2  -5    6.33    1.51
  -3  -2  -1   83.48    3.37
  -3  -2  -2  591.79    9.45
  -3  -2  -3   65.05    3.95
  -3  -2  -4    8.58    2.91
  -3  -2  -5   65.03    5.89
  -3  -2  -6  166.50    8.83
  -3  -2  -7  122.83    7.88
  -3  -2  -8  198.33    9.95
  -3  -2  -9  157.55    9.27
  -3  -2 -10   56.77    7.36
  -3  -2 -11   26.42    7.12
  -3  -2 -12   72.46    9.13
  -3  -2 -13  114.84   10.64
  -3  -2 -14   41.10    8.04
  -3  -2 -15   34.53    7.52
  -3  -2 -16   13.09    5.82
  -3  -2 -17    5.32    5.79
  -3  -2 -18    4.44    6.01
   3   3 -10   18.96    3.65
   3   3  -9   27.71    3.37
   3   3  -8   26.70    3.35
   3   3  -7   45.75    3.13
  -3  -3  -5   -2.21    2.47
  -3  -3  -6   31.69    3.93
  -3  -3  -7   45.99    5.04
  -3  -3  -8   34.60    5.44
  -3  -3  -9   56.27    7.22
  -3  -3 -10   66.80    8.80
  -3  -3 -11   17.39    5.90
  -3  -3 -12   43.65    6.91
  -3  -3 -13   20.62    6.15
  -3  -3 -14   33.85    7.89
  -3  -3 -15   28.49    6.98
  -3  -3 -16   24.94    8.38
  -3  -3 -17   10.34    6.65
  -3  -4  -8   -4.27    3.08
  -3  -4  -9   -3.48    2.79
  -3  -4 -11    9.51    5.80
  -3  -4 -12    6.48    6.33
  -3  -4 -13    0.03    5.95
  -3  -4 -14    1.03    4.28
  -3  -4 -15    2.56    5.01
  -3  -4 -16   -3.41    7.00
  -3  -4 -17    0.77    5.74
  -3  -5 -10   24.04    4.55
  -3  -5 -11    5.70    4.12
  -3  -5 -12    3.06    4.25
  -3  -5 -13   -0.50    4.81
  -3  -5 -14    4.19    5.32
  -3  -5 -15   -7.09    4.57
  -3  -5 -16    1.81    5.35
  -3  -5 -17    1.90    6.41
  -3  -6 -11   25.35    4.98
  -3  -6 -12   17.70    4.36
  -3  -6 -13   19.08    5.82
  -3  -6 -14   17.25    6.48
  -3  -6 -15   15.91    7.43
  -3  -6 -16    2.50    6.73
  -3  -7 -12   27.70    4.97
  -3  -7 -13   33.58    5.86
  -3  -7 -14   27.00    5.67
  -3  -7 -15   17.42    6.57
  -3  -8 -13   18.48    4.69
  -3  -8 -14   20.94    5.64
  -4   4 -14   10.88    3.87
  -4   4 -15   15.43    4.32
  -4   3  -8   32.71    4.62
  -4   3  -9   18.54    4.08
  -4   3 -10   14.70    4.72
  -4   3 -11   13.02    4.40
  -4   3 -12   13.61    5.06
  -4   3 -13    9.53    4.27
  -4   3 -14    7.41    4.49
  -4   3 -15   13.89    5.53
  -4   3 -16   10.75    6.38
  -4   2  -5    4.30    3.00
  -4   2  -6   -0.80    3.07
  -4   2  -7   -1.36    2.47
  -4   2  -8    2.28    2.92
  -4   2  -9    2.90    3.26
  -4   2 -10   -3.90    2.91
  -4   2 -11    0.74    4.47
  -4   2 -12   -2.44    4.74
  -4   2 -13   -5.02    4.78
  -4   2 -14    6.85    5.29
  -4   2 -15    7.10    4.60
  -4   2 -16    3.01    5.56
  -4   1  -3  315.05    8.47
  -4   1  -4  202.83    6.97
  -4   1  -5  141.62    6.41
  -4   1  -6  100.76    6.27
  -4   1  -7   51.69    5.64
  -4   1  -8   32.38    5.08
  -4   1  -9   32.96    5.94
  -4   1 -10   19.75    4.79
  -4   1 -11   20.43    5.01
  -4   1 -12   17.44    5.50
  -4   1 -13    5.12    5.83
  -4   1 -14    1.29    5.16
  -4   1 -15   -0.09    4.84
  -4   1 -16   -0.72    5.24
  -4   1 -17   -0.06    5.10
   4   0  -6   55.52    3.05
  -4   0  -1  398.78    7.88
  -4   0  -2  533.13    9.41
  -4   0  -3  601.27   10.73
  -4   0  -4  539.83   10.96
  -4   0  -5  325.98    9.25
  -4   0  -6   80.92    5.59
  -4   0  -7   54.23    5.68
  -4   0  -8   95.56    7.12
  -4   0  -9   85.69    7.65
  -4   0 -10   75.75    7.23
  -4   0 -11   53.01    7.39
  -4   0 -12   22.98    5.54
  -4   0 -13   15.60    5.94
  -4   0 -14    3.95    5.68
  -4   0 -15    1.93    5.69
  -4   0 -16    7.26    5.73
  -4   0 -17    3.26    7.42
   4   1  -6    7.91    2.07
   4   1  -5   12.09    1.69
  -4  -1   0  128.88    3.65
  -4  -1  -1  238.50    5.41
  -4  -1  -2  117.77    4.62
  -4  -1  -3   28.65    3.13
  -4  -1  -4   31.79    3.76
  -4  -1  -5   32.17    4.19
  -4  -1  -6   35.17    4.80
  -4  -1  -7  180.85    8.88
  -4  -1  -8  101.77    7.07
  -4  -1  -9   57.33    7.00
  -4  -1 -10   79.04    8.07
  -4  -1 -11   80.96    8.26
  -4  -1 -12   30.93    6.67
  -4  -1 -13   18.07    5.72
  -4  -1 -14   35.94    8.07
  -4  -1 -15   27.18    7.36
  -4  -1 -16   18.18    7.67
  -4  -1 -17    9.29    6.56
   4   2  -6   90.56    3.07
  -4  -2   0   32.85    2.24
  -4  -2  -1   30.41    2.66
  -4  -2  -2    4.46    2.49
  -4  -2  -3    1.74    3.00
  -4  -2  -4   14.37    3.57
  -4  -2  -5    1.29    3.18
  -4  -2  -6    4.28    3.72
  -4  -2  -7   18.10    4.51
  -4  -2  -8   71.51    7.30
  -4  -2  -9   80.91    8.48
  -4  -2 -10   30.78    7.09
  -4  -2 -11   18.56    5.45
  -4  -2 -12    8.19    6.26
  -4  -2 -13   26.02    7.17
  -4  -2 -14   23.96    6.25
  -4  -2 -15   20.03    6.53
  -4  -2 -16    4.37    6.51
  -4  -2 -17   -6.65    6.74
  -4  -3  -2  174.03    5.83
  -4  -3  -3  287.94    8.02
  -4  -3  -4  128.68    6.02
  -4  -3  -5  105.48    6.72
  -4  -3  -6   19.28    4.64
  -4  -3  -7    8.84    5.42
  -4  -3  -8    7.82    4.70
  -4  -3  -9    4.59    5.49
  -4  -3 -10   -2.62    5.18
  -4  -3 -11   -1.81    4.69
  -4  -3 -12    0.25    4.84
  -4  -3 -13    7.54    5.54
  -4  -3 -14   -7.12    4.61
  -4  -3 -15   -7.54    5.59
  -4  -3 -16    0.41    6.86
  -4  -3 -17   -7.07    6.75
  -4  -4  -6  116.84    6.85
  -4  -4  -7  108.91    6.97
  -4  -4  -8   72.31    6.92
  -4  -4  -9  104.48    9.19
  -4  -4 -10  113.12   10.53
  -4  -4 -11   41.90    7.28
  -4  -4 -12   13.29    6.38
  -4  -4 -13    9.52    4.72
  -4  -4 -14    0.36    5.69
  -4  -4 -15   -1.32    5.26
  -4  -4 -16    1.65    7.48
  -4  -4 -17   -8.60    6.39
  -4  -5  -8  143.65    8.43
  -4  -5  -9   99.43    7.31
  -4  -5 -10   74.06    7.35
  -4  -5 -11   34.90    6.39
  -4  -5 -12    8.59    5.48
  -4  -5 -13    3.42    6.19
  -4  -5 -14    5.07    6.50
  -4  -5 -15   14.54    5.40
  -4  -5 -16   24.88    7.45
  -4  -6 -10   49.04    6.11
  -4  -6 -11   38.49    5.49
  -4  -6 -12   28.11    5.95
  -4  -6 -13   28.98    6.67
  -4  -6 -14   22.41    6.80
  -4  -6 -15   13.62    7.00
  -4  -6 -16   13.03    7.60
  -4  -7 -11   10.76    4.20
  -4  -7 -12   12.81    4.35
  -4  -7 -13   12.77    4.77
  -4  -7 -14    7.77    5.23
  -4  -7 -15   10.64    6.44
  -4  -8 -12    4.25    3.25
  -4  -8 -13    3.50    4.16
  -4  -8 -14    0.24    4.57
  -4  -9 -13   12.06    4.77
  -5   3  -9    4.83    2.88
  -5   3 -10    0.22    3.17
  -5   3 -11    8.17    3.86
  -5   3 -12    9.18    3.56
  -5   3 -13    7.83    4.48
  -5   3 -14    8.06    4.84
  -5   3 -15    4.20    4.91
  -5   2  -6   69.51    5.01
  -5   2  -7   30.37    4.86
  -5   2  -8   18.17    4.05
  -5   2  -9   55.88    5.97
  -5   2 -10   54.63    6.20
  -5   2 -11   38.42    5.60
  -5   2 -12   26.30    5.64
  -5   2 -13   15.38    5.33
  -5   2 -14   10.75    5.36
  -5   2 -15    5.79    4.71
  -5   1  -4  130.33    6.50
  -5   1  -5   80.61    5.34
  -5   1  -6   63.85    4.96
  -5   1  -7   52.88    5.06
  -5   1  -8   71.96    6.61
  -5   1  -9   73.09    7.01
  -5   1 -10   39.39    5.50
  -5   1 -11   44.14    6.79
  -5   1 -12   71.47    8.08
  -5   1 -13   30.55    6.24
  -5   1 -14    7.96    5.46
  -5   1 -15   19.09    6.38
  -5   1 -16    7.29    6.61
  -5   0  -2    3.43    2.47
  -5   0  -3    1.91    2.35
  -5   0  -4    8.06    2.79
  -5   0  -5   12.92    3.05
  -5   0  -6   24.05    3.83
  -5   0  -7   10.21    4.44
  -5   0  -8    5.29    4.50
  -5   0  -9   39.86    6.08
  -5   0 -10   12.48    4.49
  -5   0 -11   15.86    5.84
  -5   0 -12   15.50    5.91
  -5   0 -13    6.93    5.38
  -5   0 -14   10.86    5.40
  -5   0 -15   18.22    6.66
  -5   0 -16   21.54    7.10
  -5  -1   0  124.16    4.34
  -5  -1  -1  114.37    4.39
  -5  -1  -2   29.49    3.10
  -5  -1  -3    6.29    2.81
  -5  -1  -4   29.11    3.57
  -5  -1  -5   16.43    3.92
  -5  -1  -6    2.81    3.45
  -5  -1  -7   -1.65    4.18
  -5  -1  -8    4.64    4.78
  -5  -1  -9   -0.41    4.74
  -5  -1 -10   -0.38    4.61
  -5  -1 -11   -3.85    4.15
  -5  -1 -12    7.15    5.90
  -5  -1 -13    7.04    6.01
  -5  -1 -14    5.40    5.73
  -5  -1 -15    3.39    5.45
  -5  -1 -16    7.30    7.32
  -5  -2   1  335.34    5.18
  -5  -2   0  203.01    4.87
  -5  -2  -1  161.00    4.87
  -5  -2  -2  198.04    6.30
  -5  -2  -3  141.35    6.19
  -5  -2  -4   93.65    5.79
  -5  -2  -5   40.10    4.98
  -5  -2  -6   56.67    5.44
  -5  -2  -7   12.87    5.27
  -5  -2  -8   10.26    5.41
  -5  -2  -9    5.80    5.47
  -5  -2 -10   26.75    6.42
  -5  -2 -11    8.14    5.85
  -5  -2 -12   13.13    5.65
  -5  -2 -13    7.72    5.32
  -5  -2 -14   -8.58    5.26
  -5  -2 -15   -4.38    5.38
  -5  -2 -16   -3.78    5.93
  -5  -3   1  114.92    4.15
  -5  -3   0  143.77    5.40
  -5  -3  -1  418.78    9.80
  -5  -3  -2  280.81    9.12
  -5  -3  -3  165.04    7.78
  -5  -3  -4  232.32    9.84
  -5  -3  -5  283.85   11.34
  -5  -3  -6  127.66    8.22
  -5  -3  -7   85.89    7.48
  -5  -3  -8  107.63    8.31
  -5  -3  -9   51.62    6.99
  -5  -3 -10   41.99    7.46
  -5  -3 -11   87.82    9.76
  -5  -3 -12   94.86    9.71
  -5  -3 -13   20.00    5.96
  -5  -3 -14    9.40    5.85
  -5  -3 -15    5.79    6.65
  -5  -3 -16   -2.74    6.33
  -5  -4  -3  366.76    9.78
  -5  -4  -4  161.69    7.11
  -5  -4  -5  111.71    6.71
  -5  -4  -6  114.59    8.21
  -5  -4  -7  100.12    8.56
  -5  -4  -8   98.49    8.91
  -5  -4  -9  175.30   12.20
  -5  -4 -10   95.43    9.62
  -5  -4 -11   48.61    7.30
  -5  -4 -12   11.79    5.19
  -5  -4 -13    0.45    5.04
  -5  -4 -14   22.04    8.02
  -5  -4 -15   20.31    8.22
  -5  -4 -16    1.50    7.26
  -5  -5  -6    7.42    3.55
  -5  -5  -7    5.64    3.47
  -5  -5  -8   -3.50    3.56
  -5  -5  -9    0.93    4.89
  -5  -5 -10   16.05    6.00
  -5  -5 -11   41.60    7.84
  -5  -5 -12   36.70    8.08
  -5  -5 -13   39.55    7.60
  -5  -5 -14   18.23    6.19
  -5  -5 -15   34.80    8.57
  -5  -5 -16   11.46    6.79
  -5  -6  -8   -0.31    3.45
  -5  -6  -9    2.51    3.64
  -5  -6 -10    1.55    3.97
  -5  -6 -11    2.10    5.16
  -5  -6 -12   -0.38    5.27
  -5  -6 -13    1.69    5.15
  -5  -6 -14    6.34    6.97
  -5  -6 -15    7.60    5.86
  -5  -7 -10   16.71    4.27
  -5  -7 -11   13.52    4.06
  -5  -7 -12    8.27    4.39
  -5  -7 -13    6.37    5.73
  -5  -7 -14    4.12    6.86
  -5  -7 -15   -2.07    7.51
  -5  -8 -11   27.43    4.84
  -5  -8 -12   16.66    4.24
  -5  -8 -13   11.95    4.83
  -5  -8 -14   11.98    5.59
  -5  -9 -12   27.17    5.09
  -5  -9 -13   26.08    5.25
  -6   3 -12   15.22    3.85
  -6   3 -13   15.08    4.38
  -6   3 -14   10.66    4.42
  -6   2  -7   89.17    6.21
  -6   2  -8   33.75    4.71
  -6   2  -9   52.69    5.86
  -6   2 -10   50.66    6.03
  -6   2 -11   52.44    6.70
  -6   2 -12   29.34    5.50
  -6   2 -13   22.45    5.84
  -6   2 -14   21.50    6.01
  -6   1  -5   -0.46    2.98
  -6   1  -6    5.78    3.23
  -6   1  -7   -2.16    3.01
  -6   1  -8   12.75    3.37
  -6   1  -9   27.12    4.96
  -6   1 -10   13.69    3.90
  -6   1 -11   17.25    5.39
  -6   1 -12    7.08    5.01
  -6   1 -13   12.42    5.48
  -6   1 -14    1.87    5.10
  -6   1 -15    8.54    4.72
  -6   0  -3  137.35    6.46
  -6   0  -4   80.02    5.28
  -6   0  -5   25.64    3.94
  -6   0  -6   26.30    4.73
  -6   0  -7   21.87    4.10
  -6   0  -8   18.01    4.74
  -6   0  -9    8.13    3.86
  -6   0 -10    0.85    4.69
  -6   0 -11   -3.02    4.80
  -6   0 -12   -4.30    4.72
  -6   0 -13   -0.63    4.12
  -6   0 -14    1.73    5.91
  -6   0 -15    2.18    5.60
  -6  -1  -1  164.06    6.01
  -6  -1  -2  137.55    5.61
  -6  -1  -3  134.49    6.08
  -6  -1  -4  169.21    7.10
  -6  -1  -5  162.37    7.60
  -6  -1  -6  101.89    6.84
  -6  -1  -7   89.30    7.10
  -6  -1  -8   38.54    5.97
  -6  -1  -9   18.49    4.77
  -6  -1 -10   12.06    4.57
  -6  -1 -11    4.86    5.49
  -6  -1 -12   20.16    5.54
  -6  -1 -13   20.59    6.75
  -6  -1 -14   -1.98    6.16
  -6  -1 -15    1.76    6.85
  -6  -1 -16   -0.85    6.99
  -6  -2  -1   65.32    3.88
  -6  -2  -2   32.86    3.67
  -6  -2  -3   76.65    4.98
  -6  -2  -4  132.03    6.59
  -6  -2  -5  113.64    6.69
  -6  -2  -6  192.60    8.90
  -6  -2  -7  123.82    8.07
  -6  -2  -8   35.38    6.03
  -6  -2  -9   58.49    6.56
  -6  -2 -10   77.40    8.06
  -6  -2 -11   38.28    7.05
  -6  -2 -12   37.06    7.50
  -6  -2 -13   33.37    7.97
  -6  -2 -14   19.82    7.62
  -6  -2 -15   10.45    6.62
  -6  -2 -16    4.03    6.62
  -6  -3  -1   26.36    3.44
  -6  -3  -2   61.52    4.76
  -6  -3  -3   28.05    4.54
  -6  -3  -4   42.04    5.43
  -6  -3  -5   56.20    6.32
  -6  -3  -6   78.20    7.42
  -6  -3  -7   79.98    7.20
  -6  -3  -8  123.51    8.92
  -6  -3  -9   64.91    7.19
  -6  -3 -10   33.87    6.44
  -6  -3 -11   33.77    7.21
  -6  -3 -12   34.33    7.00
  -6  -3 -13   39.82    8.11
  -6  -3 -14   24.12    6.75
  -6  -3 -15   11.53    7.52
  -6  -3 -16    8.97    6.31
  -6  -4  -1   18.64    3.73
  -6  -4  -2   37.29    5.09
  -6  -4  -3    0.31    3.91
  -6  -4  -4   12.91    5.10
  -6  -4  -5   18.78    5.19
  -6  -4  -6   11.60    5.65
  -6  -4  -7   -1.62    4.26
  -6  -4  -8    5.20    4.96
  -6  -4  -9   -5.65    4.47
  -6  -4 -10   -0.43    4.75
  -6  -4 -11    2.00    4.71
  -6  -4 -12    7.72    6.48
  -6  -4 -13    4.79    6.69
  -6  -4 -14    8.94    7.20
  -6  -4 -15   16.87    7.09
  -6  -4 -16   10.05    6.37
  -6  -5  -3  136.64    6.87
  -6  -5  -4  121.06    6.84
  -6  -5  -5  110.58    7.42
  -6  -5  -6   66.04    6.88
  -6  -5  -7    7.12    4.48
  -6  -5  -8   -3.22    5.31
  -6  -5  -9   -2.13    5.63
  -6  -5 -10    2.52    5.71
  -6  -5 -11    2.42    4.82
  -6  -5 -12   -1.76    4.03
  -6  -5 -13   -6.19    4.45
  -6  -5 -14   -0.02    6.17
  -6  -5 -15   -5.69    7.04
  -6  -6  -6   57.97    5.91
  -6  -6  -7   37.97    5.03
  -6  -6  -8   57.13    6.37
  -6  -6  -9   55.51    7.69
  -6  -6 -10   14.47    5.52
  -6  -6 -11   16.36    7.34
  -6  -6 -12   10.06    6.00
  -6  -6 -13    4.36    5.57
  -6  -6 -14   -1.42    5.64
  -6  -6 -15    2.91    5.67
  -6  -7  -8   79.00    7.12
  -6  -7  -9   43.89    5.58
  -6  -7 -10   34.28    5.81
  -6  -7 -11   35.59    7.07
  -6  -7 -12   31.10    7.56
  -6  -7 -13   27.75    7.61
  -6  -7 -14   21.85    8.56
  -6  -8  -9   36.89    5.49
  -6  -8 -10   30.81    5.40
  -6  -8 -11   26.43    5.56
  -6  -8 -12   21.74    6.47
  -6  -8 -13   13.26    5.87
  -6  -8 -14   13.38    7.27
  -6  -9 -10    4.46    2.89
  -6  -9 -11    2.57    3.18
  -6  -9 -12    2.63    3.41
  -6  -9 -13   12.47    5.09
  -6 -10 -11    6.87    3.66
  -7   2 -10    6.59    2.94
  -7   2 -11    3.16    2.65
  -7   2 -12   10.60    4.47
  -7   2 -13   10.16    3.86
  -7   1  -6   21.97    3.74
  -7   1  -7   36.13    5.14
  -7   1  -8   54.67    6.14
  -7   1  -9   23.31    4.71
  -7   1 -10    5.85    3.57
  -7   1 -11    5.36    4.13
  -7   1 -12   -1.14    3.45
  -7   1 -13    0.19    3.46
  -7   1 -14    2.65    3.92
  -7   0  -4  142.88    7.25
  -7   0  -5  163.73    7.77
  -7   0  -6  128.21    7.28
  -7   0  -7  151.75    8.47
  -7   0  -8   70.97    6.46
  -7   0  -9   42.25    5.64
  -7   0 -10   31.66    5.89
  -7   0 -11   17.12    5.04
  -7   0 -12    8.36    4.94
  -7   0 -13    9.17    4.87
  -7   0 -14   10.42    5.74
  -7  -1  -3   49.28    4.29
  -7  -1  -4   66.94    5.36
  -7  -1  -5   77.54    6.00
  -7  -1  -6   53.57    5.66
  -7  -1  -7   45.82    5.50
  -7  -1  -8   79.48    6.94
  -7  -1  -9   81.27    7.74
  -7  -1 -10   38.41    5.90
  -7  -1 -11   40.71    6.37
  -7  -1 -12   23.81    6.77
  -7  -1 -13   26.15    6.65
  -7  -1 -14   18.47    7.53
  -7  -1 -15    8.58    6.62
  -7  -2  -3    2.18    3.07
  -7  -2  -4   -3.07    3.18
  -7  -2  -5    0.80    3.71
  -7  -2  -6   18.11    4.54
  -7  -2  -7   37.51    5.41
  -7  -2  -8   19.55    5.33
  -7  -2  -9   19.28    5.72
  -7  -2 -10   20.40    5.61
  -7  -2 -11   38.94    7.33
  -7  -2 -12   30.25    6.46
  -7  -2 -13   36.97    7.74
  -7  -2 -14   30.55    8.16
  -7  -2 -15   14.39    7.63
  -7  -3  -3   21.51    3.84
  -7  -3  -4   11.33    3.81
  -7  -3  -5   20.80    4.68
  -7  -3  -6   11.73    4.67
  -7  -3  -7    1.37    4.44
  -7  -3  -8   -0.10    4.66
  -7  -3  -9   -2.64    3.67
  -7  -3 -10   -3.24    4.39
  -7  -3 -11    3.18    5.16
  -7  -3 -12    3.82    5.72
  -7  -3 -13    1.09    5.39
  -7  -3 -14    4.50    5.86
  -7  -3 -15   -3.49    7.43
  -7  -4  -3  121.86    7.62
  -7  -4  -4  231.41   10.44
  -7  -4  -5  263.78   11.61
  -7  -4  -6  168.83   10.16
  -7  -4  -7  155.81   10.65
  -7  -4  -8   50.98    7.83
  -7  -4  -9   14.77    6.23
  -7  -4 -10    6.87    4.73
  -7  -4 -11    6.10    6.25
  -7  -4 -12    1.80    5.88
  -7  -4 -13   -2.55    4.85
  -7  -4 -14   -3.44    6.27
  -7  -4 -15   -6.97    5.63
  -7  -5  -3  224.48   10.88
  -7  -5  -4  107.05    8.66
  -7  -5  -5   57.61    7.63
  -7  -5  -6   36.83    6.49
  -7  -5  -7   63.62    8.06
  -7  -5  -8   65.21    7.47
  -7  -5  -9   85.77    8.51
  -7  -5 -10   73.72    8.69
  -7  -5 -11   40.73    7.88
  -7  -5 -12   14.51    6.14
  -7  -5 -13   29.07    7.97
  -7  -5 -14   24.01    8.33
  -7  -5 -15   -7.68    6.98
  -7  -6  -3   14.27    3.58
  -7  -6  -4   70.79    6.08
  -7  -6  -5   80.41    6.99
  -7  -6  -6   57.61    7.05
  -7  -6  -7   34.87    7.03
  -7  -6  -8   54.76    8.43
  -7  -6  -9   58.17    9.12
  -7  -6 -10   55.71    8.97
  -7  -6 -11   45.67    8.17
  -7  -6 -12   40.01    7.41
  -7  -6 -13   25.40    7.03
  -7  -6 -14   11.03    6.88
  -7  -7  -5    3.41    2.90
  -7  -7  -6   -0.86    3.34
  -7  -7  -7   12.72    4.37
  -7  -7  -8   34.90    6.07
  -7  -7  -9   21.06    5.57
  -7  -7 -10   18.15    7.08
  -7  -7 -11   10.88    6.60
  -7  -7 -12    9.14    5.71
  -7  -7 -13    9.04    7.11
  -7  -7 -14   14.39    6.76
  -7  -8  -7    5.48    3.11
  -7  -8  -8    3.04    3.40
  -7  -8  -9    6.59    4.11
  -7  -8 -10    2.10    3.83
  -7  -8 -11    9.19    6.03
  -7  -8 -12    2.89    5.30
  -7  -8 -13    4.81    7.49
  -7  -9  -9   16.33    4.51
  -7  -9 -10   18.27    4.31
  -7  -9 -11   16.77    5.12
  -7  -9 -12   15.26    6.67
  -7 -10 -10   16.14    4.18
  -7 -10 -11   22.75    5.17
  -8   1  -8   51.74    5.29
  -8   1  -9   55.16    5.91
  -8   1 -11   29.13    5.57
  -8   1 -12   22.73    5.92
  -8   1 -13   16.76    4.99
  -8   0  -6   22.35    4.14
  -8   0  -7   21.60    4.10
  -8   0  -8   38.22    5.20
  -8   0  -9   15.60    4.06
  -8   0 -10   15.89    4.10
  -8   0 -12   14.41    4.95
  -8   0 -13   11.99    4.97
  -8  -1  -6    3.67    3.43
  -8  -1  -7    2.06    3.32
  -8  -1  -8    3.38    4.06
  -8  -1  -9    5.18    4.37
  -8  -1 -10    5.88    5.00
  -8  -1 -11   12.34    4.64
  -8  -1 -12    6.12    4.60
  -8  -1 -13    6.48    5.47
  -8  -1 -14    0.74    6.16
  -8  -2  -6   20.85    4.70
  -8  -2  -7    1.66    3.97
  -8  -2  -8    0.31    3.76
  -8  -2  -9   -9.15    4.27
  -8  -2 -10   -6.62    5.00
  -8  -2 -11   -4.52    5.17
  -8  -2 -12   -3.67    4.78
  -8  -2 -13    0.41    6.37
  -8  -2 -14    3.44    5.49
  -8  -3  -6  137.93    8.50
  -8  -3  -7   44.25    6.42
  -8  -3  -8   29.46    6.10
  -8  -3  -9   23.48    6.40
  -8  -3 -10   20.18    6.75
  -8  -3 -11   11.93    5.31
  -8  -3 -12    4.55    6.07
  -8  -3 -13   10.76    7.09
  -8  -3 -14   -1.53    6.82
  -8  -4  -6   63.11    6.75
  -8  -4  -7   73.83    7.56
  -8  -4  -8   66.99    7.73
  -8  -4  -9   28.44    6.13
  -8  -4 -10   38.28    7.09
  -8  -4 -11   38.99    7.29
  -8  -4 -12   30.83    7.00
  -8  -4 -13   14.76    6.20
  -8  -4 -14    6.31    6.61
  -8  -5  -6   39.66    6.73
  -8  -5  -7   33.27    7.05
  -8  -5  -8   41.34    7.56
  -8  -5  -9   70.57    9.24
  -8  -5 -10   78.97    9.83
  -8  -5 -11   54.17    8.68
  -8  -5 -12   17.66    6.88
  -8  -5 -13   19.24    7.71
  -8  -5 -14    2.86    6.50
  -8  -6  -6   -4.44    5.08
  -8  -6  -7    0.55    5.09
  -8  -6  -8   10.79    5.71
  -8  -6  -9   12.51    5.02
  -8  -6 -10   13.74    6.27
  -8  -6 -12    6.07    6.04
  -8  -6 -13    3.25    6.79
  -8  -6 -14    5.84    7.92
  -8  -7  -7   38.62    7.66
  -8  -7  -8    7.53    6.49
  -8  -7  -9    0.34    6.42
  -8  -7 -10    1.04    6.20
  -8  -7 -11    0.07    6.03
  -8  -7 -12   -1.71    5.20
  -8  -7 -13   -4.05    5.85
  -8  -8  -7   64.86    6.92
  -8  -8  -8   63.48    8.25
  -8  -8  -9   55.75    8.69
  -8  -8 -11   23.79    8.13
  -8  -8 -12   11.97    6.71
  -8  -9  -7   63.19    6.83
  -8  -9  -8   53.32    6.59
  -8  -9  -9   27.35    5.78
  -8  -9 -10   29.27    7.32
  -8  -9 -11   20.81    6.99
  -8 -10  -8   21.62    4.53
  -8 -10  -9   29.36    5.45
  -8 -10 -10   12.86    4.71
  -8 -11  -9   19.12    4.52
  -9   0 -10    2.79    3.90
  -9   0 -11    3.51    4.80
  -9   0 -12    9.90    4.87
  -9  -1 -10   11.96    4.89
  -9  -1 -11    4.41    4.16
  -9  -1 -12    3.73    4.66
  -9  -2 -10   17.02    5.33
  -9  -2 -11   16.91    5.91
  -9  -2 -12   11.12    5.78
  -9  -2 -13   13.55    6.36
  -9  -3 -10   19.86    6.55
  -9  -3 -11   32.50    7.41
  -9  -3 -12   22.47    6.33
  -9  -3 -13   25.59    8.29
  -9  -4 -10    3.55    5.54
  -9  -4 -11   20.32    7.41
  -9  -4 -12   23.74    7.85
  -9  -4 -13   19.13    6.94
  -9  -5 -10    0.02    5.52
  -9  -5 -11   -4.95    5.56
  -9  -5 -12   -0.30    6.16
  -9  -5 -13   -1.70    6.38
  -9  -6 -10   -4.41    5.25
  -9  -6 -11   -3.89    5.73
  -9  -6 -12   -0.19    6.99
  -9  -7 -10   29.93    8.26
  -9  -7 -11   23.19    7.25
  -9  -7 -12   18.22    8.58
  -9  -8 -11   14.39    7.34
   0   0   0    0.00    0.00
;
_shelx_hkl_checksum              46266
loop_
_space_group_symop_operation_xyz
'x, y, z'
'-x, -y, -z'
loop_
_atom_site_label
_atom_site_type_symbol
_atom_site_fract_x
_atom_site_fract_y
_atom_site_fract_z
_atom_site_U_iso_or_equiv
_atom_site_adp_type
_atom_site_occupancy
_atom_site_site_symmetry_order
_atom_site_calc_flag
_atom_site_refinement_flags_posn
_atom_site_refinement_flags_adp
Eu1 Eu 0.65175(6) 0.10315(6) -0.01421(5) 0.0290(3) Uani 1 1 d . .
O1 O 0.5263(10) 0.1400(10) 0.1421(7) 0.041(2) Uani 1 1 d . .
O2 O 0.3282(9) 0.0600(9) 0.1429(6) 0.035(2) Uani 1 1 d . .
O3 O 0.2026(9) 0.4168(9) 0.1928(7) 0.040(2) Uani 1 1 d . .
O4 O 0.8303(9) 0.1738(8) 0.0970(7) 0.037(2) Uani 1 1 d . .
O5 O 0.6385(10) 0.3440(9) 0.0248(7) 0.041(2) Uani 1 1 d . .
O6 O 0.5879(11) 0.2452(10) -0.1619(7) 0.050(3) Uani 1 1 d . .
O7 O 0.9006(10) 0.0639(10) -0.0998(7) 0.046(2) Uani 1 1 d . .
H7C H 0.9648 -0.0197 -0.0921 0.056 Uiso 1 1 d R U
H7A H 0.9293 0.1236 -0.0724 0.056 Uiso 1 1 d R U
O8 O 0.6120(9) -0.1459(9) 0.0421(7) 0.038(2) Uani 1 1 d . .
O9 O 0.8376(9) -0.1199(8) 0.0538(7) 0.037(2) Uani 1 1 d . .
O10 O 0.849(3) 0.809(3) 0.3263(17) 0.167(6) Uani 1 1 d D U
N1 N 0.4790(16) 0.4261(14) -0.2658(9) 0.056(3) Uani 1 1 d . U
N2 N 0.973(3) 0.947(3) 0.3429(18) 0.139(6) Uani 1 1 d D U
C1 C 0.4048(16) 0.1290(13) 0.1793(10) 0.039(3) Uani 1 1 d . .
C2 C 0.3397(14) 0.1994(13) 0.2743(9) 0.034(3) Uani 1 1 d . .
C3 C 0.3865(17) 0.1210(16) 0.3608(11) 0.049(4) Uani 1 1 d . .
H3 H 0.4639 0.0318 0.3602 0.059 Uiso 1 1 calc R U
C4 C 0.313(2) 0.182(2) 0.4458(13) 0.083(6) Uani 1 1 d . .
H4 H 0.3358 0.1297 0.5015 0.099 Uiso 1 1 calc R U
C5 C 0.205(2) 0.321(2) 0.4492(14) 0.076(6) Uani 1 1 d . .
H5 H 0.1628 0.3625 0.5072 0.091 Uiso 1 1 calc R U
C6 C 0.1597(18) 0.4009(18) 0.3614(12) 0.058(4) Uani 1 1 d . .
H6 H 0.0846 0.4913 0.3613 0.070 Uiso 1 1 calc R U
C7 C 0.2330(15) 0.3363(15) 0.2778(10) 0.042(3) Uani 1 1 d . .
C8 C 0.7630(14) 0.3042(13) 0.0732(9) 0.033(3) Uani 1 1 d . .
C9 C 0.8355(12) 0.4126(12) 0.0965(8) 0.026(2) Uani 1 1 d . .
C10 C 0.9795(13) 0.3651(13) 0.1420(10) 0.034(3) Uani 1 1 d . .
H10A H 1.0259 0.2716 0.1606 0.041 Uiso 1 1 calc R U
C11 C 1.0511(12) 0.4605(13) 0.1587(9) 0.031(3) Uani 1 1 d . .
C12 C 0.9805(13) 0.6033(12) 0.1299(9) 0.030(3) Uani 1 1 d . U
H12 H 1.0304 0.6658 0.1385 0.036 Uiso 1 1 calc R U
C13 C 0.8341(14) 0.6489(12) 0.0882(9) 0.029(3) Uani 1 1 d . .
C14 C 0.7660(13) 0.5504(12) 0.0689(8) 0.027(3) Uani 1 1 d . .
H14 H 0.6730 0.5790 0.0371 0.033 Uiso 1 1 calc R U
C15 C 0.5556(16) 0.3699(17) -0.1865(10) 0.046(4) Uani 1 1 d . .
H15 H 0.5864 0.4275 -0.1476 0.056 Uiso 1 1 calc R U
C16 C 0.440(2) 0.5718(19) -0.2894(13) 0.070(4) Uani 1 1 d . U
H16A H 0.4551 0.6215 -0.2353 0.105 Uiso 1 1 calc R U
H16B H 0.3333 0.6119 -0.3074 0.105 Uiso 1 1 calc R U
H16C H 0.5038 0.5796 -0.3415 0.105 Uiso 1 1 calc R U
C17 C 0.427(3) 0.343(2) -0.3269(15) 0.088(5) Uani 1 1 d . U
H17A H 0.4519 0.3564 -0.3917 0.132 Uiso 1 1 calc R U
H17B H 0.3169 0.3710 -0.3196 0.132 Uiso 1 1 calc R U
H17C H 0.4758 0.2454 -0.3105 0.132 Uiso 1 1 calc R U
C18 C 0.7574(12) -0.1990(11) 0.0600(9) 0.029(3) Uani 1 1 d . .
C19 C 0.847(4) 0.931(3) 0.313(2) 0.152(6) Uani 1 1 d D U
H19 H 0.7660 1.0021 0.2846 0.182 Uiso 1 1 calc R U
C20 C 1.103(4) 0.833(4) 0.376(3) 0.166(7) Uani 1 1 d . U
H20A H 1.0706 0.7591 0.3978 0.249 Uiso 1 1 calc R U
H20B H 1.1478 0.8646 0.4279 0.249 Uiso 1 1 calc R U
H20C H 1.1775 0.7987 0.3255 0.249 Uiso 1 1 calc R U
C21 C 1.008(4) 1.073(4) 0.326(2) 0.153(7) Uani 1 1 d . U
H21A H 0.9264 1.1392 0.2892 0.230 Uiso 1 1 calc R U
H21B H 1.1034 1.0481 0.2907 0.230 Uiso 1 1 calc R U
H21C H 1.0154 1.1151 0.3851 0.230 Uiso 1 1 calc R U
loop_
_atom_site_aniso_label
_atom_site_aniso_U_11
_atom_site_aniso_U_22
_atom_site_aniso_U_33
_atom_site_aniso_U_23
_atom_site_aniso_U_13
_atom_site_aniso_U_12
Eu1 0.0216(3) 0.0122(3) 0.0579(5) -0.0001(2) -0.0101(2) -0.0114(2)
O1 0.038(5) 0.038(5) 0.059(6) -0.003(4) -0.005(4) -0.029(4)
O2 0.027(4) 0.026(5) 0.059(6) -0.011(4) -0.004(4) -0.019(4)
O3 0.028(4) 0.027(5) 0.069(6) 0.001(4) -0.014(4) -0.012(4)
O4 0.029(4) 0.013(4) 0.074(6) 0.005(4) -0.010(4) -0.014(4)
O5 0.034(5) 0.020(5) 0.075(7) 0.001(4) -0.022(4) -0.016(4)
O6 0.054(6) 0.026(5) 0.066(7) 0.006(5) 0.001(5) -0.013(5)
O7 0.034(5) 0.037(5) 0.070(7) 0.000(5) -0.013(4) -0.015(4)
O8 0.023(4) 0.030(5) 0.061(6) 0.000(4) -0.015(4) -0.011(4)
O9 0.024(4) 0.015(4) 0.077(6) 0.012(4) -0.019(4) -0.013(3)
O10 0.185(10) 0.170(10) 0.161(10) -0.005(9) 0.017(9) -0.085(9)
N1 0.065(7) 0.049(7) 0.056(7) 0.010(6) -0.022(6) -0.023(6)
N2 0.148(8) 0.145(8) 0.140(8) 0.004(7) 0.007(7) -0.074(7)
C1 0.050(8) 0.015(6) 0.053(9) 0.011(6) -0.015(6) -0.012(6)
C2 0.032(6) 0.029(7) 0.049(8) 0.000(6) -0.014(6) -0.019(6)
C3 0.047(8) 0.036(8) 0.056(10) -0.003(7) -0.004(7) -0.006(7)
C4 0.086(14) 0.101(17) 0.046(10) 0.006(10) -0.024(10) -0.017(12)
C5 0.072(12) 0.084(15) 0.063(12) -0.030(11) 0.003(10) -0.018(11)
C6 0.044(9) 0.052(10) 0.068(11) -0.024(8) -0.003(8) -0.005(7)
C7 0.038(7) 0.040(8) 0.047(8) -0.004(7) -0.015(6) -0.013(6)
C8 0.029(6) 0.018(6) 0.052(8) 0.007(6) -0.001(6) -0.010(5)
C9 0.025(6) 0.022(6) 0.036(7) -0.003(5) -0.007(5) -0.014(5)
C10 0.029(6) 0.017(6) 0.060(9) -0.003(6) -0.003(6) -0.014(5)
C11 0.018(5) 0.025(6) 0.050(8) 0.001(6) -0.002(5) -0.007(5)
C12 0.023(5) 0.020(5) 0.056(7) -0.001(5) -0.005(5) -0.017(4)
C13 0.035(6) 0.019(6) 0.041(7) 0.003(5) -0.005(5) -0.017(5)
C14 0.027(6) 0.022(6) 0.040(7) -0.009(5) 0.002(5) -0.017(5)
C15 0.046(8) 0.049(9) 0.051(9) -0.002(7) -0.004(7) -0.025(7)
C16 0.078(10) 0.055(9) 0.081(10) 0.023(8) -0.019(8) -0.030(8)
C17 0.103(10) 0.073(10) 0.089(10) 0.004(8) -0.038(8) -0.032(8)
C18 0.018(5) 0.008(5) 0.062(8) 0.002(5) -0.012(5) -0.007(4)
C19 0.160(9) 0.154(9) 0.149(8) 0.002(7) 0.008(7) -0.069(7)
C20 0.176(11) 0.164(11) 0.159(11) 0.002(10) 0.010(9) -0.066(9)
C21 0.168(11) 0.156(11) 0.151(10) -0.002(9) 0.004(9) -0.078(9)
loop_
_atom_type_symbol
_atom_type_description
_atom_type_scat_dispersion_real
_atom_type_scat_dispersion_imag
_atom_type_scat_source
C C 0.0033 0.0016 'International Tables Vol C Tables 4.2.6.8 and 6.1.1.4'
H H 0.0000 0.0000 'International Tables Vol C Tables 4.2.6.8 and 6.1.1.4'
N N 0.0061 0.0033 'International Tables Vol C Tables 4.2.6.8 and 6.1.1.4'
O O 0.0106 0.0060 'International Tables Vol C Tables 4.2.6.8 and 6.1.1.4'
Eu Eu -0.1578 3.6682 'International Tables Vol C Tables 4.2.6.8 and 6.1.1.4'
loop_
_geom_angle_atom_site_label_1
_geom_angle_atom_site_label_2
_geom_angle_atom_site_label_3
_geom_angle
_geom_angle_site_symmetry_1
_geom_angle_site_symmetry_3
O8 Eu1 O2 78.4(3) 2_655 2_655
O8 Eu1 O1 74.3(3) 2_655 .
O2 Eu1 O1 133.2(3) 2_655 .
O8 Eu1 O6 74.5(3) 2_655 .
O2 Eu1 O6 73.5(3) 2_655 .
O1 Eu1 O6 131.5(3) . .
O8 Eu1 O5 101.1(3) 2_655 .
O2 Eu1 O5 144.4(3) 2_655 .
O1 Eu1 O5 78.6(3) . .
O6 Eu1 O5 72.2(3) . .
O8 Eu1 O7 141.6(3) 2_655 .
O2 Eu1 O7 73.3(3) 2_655 .
O1 Eu1 O7 143.9(3) . .
O6 Eu1 O7 73.1(3) . .
O5 Eu1 O7 87.9(3) . .
O8 Eu1 O9 124.1(3) 2_655 .
O2 Eu1 O9 79.3(3) 2_655 .
O1 Eu1 O9 85.5(3) . .
O6 Eu1 O9 143.0(3) . .
O5 Eu1 O9 125.5(3) . .
O7 Eu1 O9 75.3(3) . .
O8 Eu1 O4 142.2(3) 2_655 .
O2 Eu1 O4 139.3(3) 2_655 .
O1 Eu1 O4 74.3(3) . .
O6 Eu1 O4 113.0(3) . .
O5 Eu1 O4 52.1(3) . .
O7 Eu1 O4 71.1(3) . .
O9 Eu1 O4 73.4(3) . .
O8 Eu1 O8 74.9(3) 2_655 .
O2 Eu1 O8 65.5(3) 2_655 .
O1 Eu1 O8 71.1(3) . .
O6 Eu1 O8 132.6(3) . .
O5 Eu1 O8 149.4(3) . .
O7 Eu1 O8 114.3(3) . .
O9 Eu1 O8 49.2(2) . .
O4 Eu1 O8 113.4(2) . .
O8 Eu1 Eu1 41.2(2) 2_655 2_655
O2 Eu1 Eu1 66.50(19) 2_655 2_655
O1 Eu1 Eu1 67.87(19) . 2_655
O6 Eu1 Eu1 107.9(2) . 2_655
O5 Eu1 Eu1 134.3(2) . 2_655
O7 Eu1 Eu1 137.0(2) . 2_655
O9 Eu1 Eu1 82.89(17) . 2_655
O4 Eu1 Eu1 136.5(2) . 2_655
O8 Eu1 Eu1 33.74(15) . 2_655
O8 Eu1 H7A 149.9 2_655 .
O2 Eu1 H7A 90.6 2_655 .
O1 Eu1 H7A 130.0 . .
O6 Eu1 H7A 75.6 . .
O5 Eu1 H7A 72.0 . .
O7 Eu1 H7A 17.4 . .
O9 Eu1 H7A 80.1 . .
O4 Eu1 H7A 55.8 . .
O8 Eu1 H7A 125.7 . .
Eu1 Eu1 H7A 153.6 2_655 .
C1 O1 Eu1 136.6(8) . .
C1 O2 Eu1 140.1(9) . 2_655
C11 O3 C7 116.4(10) 1_455 .
C8 O4 Eu1 90.5(7) . .
C8 O5 Eu1 95.9(7) . .
C15 O6 Eu1 138.3(10) . .
Eu1 O7 H7C 111.4 . .
Eu1 O7 H7A 101.2 . .
H7C O7 H7A 111.5 . .
C18 O8 Eu1 166.6(8) . 2_655
C18 O8 Eu1 88.1(6) . .
Eu1 O8 Eu1 105.1(3) 2_655 .
C18 O9 Eu1 103.0(6) . .
C15 N1 C17 120.2(14) . .
C15 N1 C16 122.0(14) . .
C17 N1 C16 117.8(14) . .
C19 N2 C20 122(3) . .
C19 N2 C21 124(3) . .
C20 N2 C21 112(3) . .
O1 C1 O2 125.2(13) . .
O1 C1 C2 120.6(11) . .
O2 C1 C2 114.2(12) . .
C7 C2 C3 119.8(13) . .
C7 C2 C1 120.8(12) . .
C3 C2 C1 119.4(12) . .
C4 C3 C2 118.3(14) . .
C4 C3 H3 120.8 . .
C2 C3 H3 120.8 . .
C3 C4 C5 121.5(18) . .
C3 C4 H4 119.2 . .
C5 C4 H4 119.2 . .
C4 C5 C6 119.6(16) . .
C4 C5 H5 120.2 . .
C6 C5 H5 120.2 . .
C7 C6 C5 117.3(15) . .
C7 C6 H6 121.3 . .
C5 C6 H6 121.3 . .
C2 C7 C6 123.1(14) . .
C2 C7 O3 118.5(12) . .
C6 C7 O3 118.3(13) . .
O5 C8 O4 120.3(11) . .
O5 C8 C9 118.9(10) . .
O4 C8 C9 120.7(10) . .
C14 C9 C10 120.9(10) . .
C14 C9 C8 120.6(10) . .
C10 C9 C8 118.3(10) . .
C11 C10 C9 119.1(11) . .
C11 C10 H10A 120.5 . .
C9 C10 H10A 120.5 . .
C10 C11 O3 121.9(11) . 1_655
C10 C11 C12 120.5(10) . .
O3 C11 C12 117.1(10) 1_655 .
C13 C12 C11 119.2(10) . .
C13 C12 H12 120.4 . .
C11 C12 H12 120.4 . .
C12 C13 C14 119.5(11) . .
C12 C13 C18 119.2(10) . 1_565
C14 C13 C18 121.2(10) . 1_565
C9 C14 C13 120.7(11) . .
C9 C14 H14 119.7 . .
C13 C14 H14 119.7 . .
O6 C15 N1 124.0(14) . .
O6 C15 H15 118.0 . .
N1 C15 H15 118.0 . .
N1 C16 H16A 109.5 . .
N1 C16 H16B 109.5 . .
H16A C16 H16B 109.5 . .
N1 C16 H16C 109.5 . .
H16A C16 H16C 109.5 . .
H16B C16 H16C 109.5 . .
N1 C17 H17A 109.5 . .
N1 C17 H17B 109.5 . .
H17A C17 H17B 109.5 . .
N1 C17 H17C 109.5 . .
H17A C17 H17C 109.5 . .
H17B C17 H17C 109.5 . .
O8 C18 O9 119.3(10) . .
O8 C18 C13 120.9(9) . 1_545
O9 C18 C13 119.8(9) . 1_545
O10 C19 N2 113(3) . .
O10 C19 H19 123.3 . .
N2 C19 H19 123.3 . .
N2 C20 H20A 109.5 . .
N2 C20 H20B 109.5 . .
H20A C20 H20B 109.5 . .
N2 C20 H20C 109.5 . .
H20A C20 H20C 109.5 . .
H20B C20 H20C 109.5 . .
N2 C21 H21A 109.5 . .
N2 C21 H21B 109.5 . .
H21A C21 H21B 109.5 . .
N2 C21 H21C 109.5 . .
H21A C21 H21C 109.5 . .
H21B C21 H21C 109.5 . .
loop_
_geom_bond_atom_site_label_1
_geom_bond_atom_site_label_2
_geom_bond_distance
_geom_bond_site_symmetry_2
Eu1 O8 2.377(8) 2_655
Eu1 O2 2.424(8) 2_655
Eu1 O1 2.436(9) .
Eu1 O6 2.482(10) .
Eu1 O5 2.484(8) .
Eu1 O7 2.495(9) .
Eu1 O9 2.497(8) .
Eu1 O4 2.599(8) .
Eu1 O8 2.818(9) .
Eu1 Eu1 4.1323(11) 2_655
Eu1 H7A 2.7873 .
O1 C1 1.285(16) .
O2 C1 1.290(15) .
O2 Eu1 2.424(8) 2_655
O3 C11 1.408(13) 1_455
O3 C7 1.422(17) .
O4 C8 1.291(14) .
O5 C8 1.287(14) .
O6 C15 1.246(17) .
O7 H7C 0.8500 .
O7 H7A 0.8500 .
O8 C18 1.290(13) .
O8 Eu1 2.377(8) 2_655
O9 C18 1.294(13) .
O10 C19 1.254(10) .
N1 C15 1.343(18) .
N1 C17 1.43(2) .
N1 C16 1.44(2) .
N2 C19 1.327(10) .
N2 C20 1.42(4) .
N2 C21 1.46(4) .
C1 C2 1.52(2) .
C2 C7 1.384(19) .
C2 C3 1.44(2) .
C3 C4 1.40(2) .
C3 H3 0.9300 .
C4 C5 1.41(3) .
C4 H4 0.9300 .
C5 C6 1.46(3) .
C5 H5 0.9300 .
C6 C7 1.39(2) .
C6 H6 0.9300 .
C8 C9 1.539(16) .
C9 C14 1.373(16) .
C9 C10 1.413(16) .
C10 C11 1.397(16) .
C10 H10A 0.9300 .
C11 O3 1.408(13) 1_655
C11 C12 1.422(16) .
C12 C13 1.408(16) .
C12 H12 0.9300 .
C13 C14 1.408(15) .
C13 C18 1.506(15) 1_565
C14 H14 0.9300 .
C15 H15 0.9300 .
C16 H16A 0.9600 .
C16 H16B 0.9600 .
C16 H16C 0.9600 .
C17 H17A 0.9600 .
C17 H17B 0.9600 .
C17 H17C 0.9600 .
C18 C13 1.506(15) 1_545
C19 H19 0.9300 .
C20 H20A 0.9600 .
C20 H20B 0.9600 .
C20 H20C 0.9600 .
C21 H21A 0.9600 .
C21 H21B 0.9600 .
C21 H21C 0.9600 .
loop_
_geom_hbond_atom_site_label_D
_geom_hbond_atom_site_label_H
_geom_hbond_atom_site_label_A
_geom_hbond_distance_DH
_geom_hbond_distance_HA
_geom_hbond_distance_DA
_geom_hbond_angle_DHA
_geom_hbond_site_symmetry_A
C15 H15 O5 0.93 2.56 3.070(17) 114.8 .
O7 H7C O4 0.85 1.98 2.773(12) 155.6 2_755
C15 H15 O5 0.93 2.56 3.070(17) 114.8 .
O7 H7C O4 0.85 1.98 2.773(12) 155.6 2_755
C15 H15 O5 0.93 2.56 3.070(17) 114.8 .
O7 H7C O4 0.85 1.98 2.773(12) 155.6 2_755
C15 H15 O5 0.93 2.56 3.070(17) 114.8 .
O7 H7C O4 0.85 1.98 2.773(12) 155.6 2_755
C15 H15 O5 0.93 2.56 3.070(17) 114.8 .
O7 H7C O4 0.85 1.98 2.773(12) 155.6 2_755
C15 H15 O5 0.93 2.56 3.070(17) 114.8 .
O7 H7C O4 0.85 1.98 2.773(12) 155.6 2_755
O7 H7C O4 0.85 1.98 2.773(12) 155.6 2_755
C15 H15 O5 0.93 2.56 3.070(17) 114.8 .
O7 H7C O4 0.85 1.98 2.773(12) 155.6 2_755
C15 H15 O5 0.93 2.56 3.070(17) 114.8 .
loop_
_geom_torsion_atom_site_label_1
_geom_torsion_atom_site_label_2
_geom_torsion_atom_site_label_3
_geom_torsion_atom_site_label_4
_geom_torsion
_geom_torsion_site_symmetry_1
_geom_torsion_site_symmetry_4
Eu1 O1 C1 O2 17.2(19) . .
Eu1 O1 C1 C2 -163.2(8) . .
Eu1 O2 C1 O1 9(2) 2_655 .
Eu1 O2 C1 C2 -170.2(8) 2_655 .
O1 C1 C2 C7 89.1(15) . .
O2 C1 C2 C7 -91.2(14) . .
O1 C1 C2 C3 -92.8(15) . .
O2 C1 C2 C3 86.8(14) . .
C7 C2 C3 C4 5(2) . .
C1 C2 C3 C4 -173.0(15) . .
C2 C3 C4 C5 -5(3) . .
C3 C4 C5 C6 5(3) . .
C4 C5 C6 C7 -3(3) . .
C3 C2 C7 C6 -4(2) . .
C1 C2 C7 C6 173.9(13) . .
C3 C2 C7 O3 172.6(11) . .
C1 C2 C7 O3 -9.3(18) . .
C5 C6 C7 C2 3(2) . .
C5 C6 C7 O3 -173.5(14) . .
C11 O3 C7 C2 117.2(13) 1_455 .
C11 O3 C7 C6 -65.9(16) 1_455 .
Eu1 O5 C8 O4 -10.8(13) . .
Eu1 O5 C8 C9 165.4(10) . .
Eu1 O4 C8 O5 10.3(12) . .
Eu1 O4 C8 C9 -165.9(11) . .
O5 C8 C9 C14 2.0(18) . .
O4 C8 C9 C14 178.2(12) . .
O5 C8 C9 C10 -174.3(12) . .
O4 C8 C9 C10 1.9(18) . .
C14 C9 C10 C11 0.0(19) . .
C8 C9 C10 C11 176.3(11) . .
C9 C10 C11 O3 -172.0(11) . 1_655
C9 C10 C11 C12 -0.3(19) . .
C10 C11 C12 C13 2.8(19) . .
O3 C11 C12 C13 174.9(11) 1_655 .
C11 C12 C13 C14 -5.0(19) . .
C11 C12 C13 C18 178.4(12) . 1_565
C10 C9 C14 C13 -2.2(18) . .
C8 C9 C14 C13 -178.5(11) . .
C12 C13 C14 C9 4.8(18) . .
C18 C13 C14 C9 -178.7(12) 1_565 .
Eu1 O6 C15 N1 -157.7(11) . .
C17 N1 C15 O6 1(3) . .
C16 N1 C15 O6 177.7(15) . .
Eu1 O8 C18 O9 175(3) 2_655 .
Eu1 O8 C18 O9 6.1(12) . .
Eu1 O8 C18 C13 -5(5) 2_655 1_545
Eu1 O8 C18 C13 -174.1(11) . 1_545
Eu1 O9 C18 O8 -7.1(14) . .
Eu1 O9 C18 C13 173.2(10) . 1_545
C20 N2 C19 O10 7(5) . .
C21 N2 C19 O10 173(3) . .
